data_PCOD9422076
_publ_section_title
;
Structure prediction by ZEFSAII (Michael W. Deem and Ramdas Pophale) SiO2 
 PCOD9422076
Probable space group: P C C A
;
_chemical_formula_sum "Si O2"
_cell_formula_units_Z 48
_cell_length_a 14.256604
_cell_length_b 10.335325
_cell_length_c 13.039599
_cell_angle_alpha 90.000000
_cell_angle_beta 90.000000
_cell_angle_gamma 90.000000
_cell_volume 1921.341044
_symmetry_space_group_name_H-M "P C C A"
_symmetry_group_IT_number 54
_symmetry_cell_setting 'orthorhombic'
loop_
_space_group_symop_operation_xyz
x,y,z
1/2-x,-y,z
1/2+x,-y,1/2-z
-x,y,1/2-z
-x,-y,-z
1/2+x,y,-z
1/2-x,y,1/2+z
x,-y,1/2+z
loop_
_atom_site_type_symbol
_atom_site_label
_atom_site_fract_x
_atom_site_fract_y
_atom_site_fract_z
Si Si1 0.603810 0.170703 0.547363
Si Si2 0.723321 0.144984 0.742572
Si Si3 0.905655 0.935037 0.908413
Si Si4 0.750000 0.500000 0.255299
Si Si5 0.000000 0.140422 0.750000
Si Si6 0.874865 0.685989 0.144540
Si Si7 0.742763 0.350414 0.952575
O O1 0.647509 0.191725 0.659980
O O2 0.491986 0.158679 0.563655
O O3 0.660447 0.273891 0.476998
O O4 0.623978 0.026934 0.502072
O O5 0.682350 0.135165 0.856654
O O6 0.818398 0.218483 0.719870
O O7 0.750000 0.000000 0.713315
O O8 0.942943 0.035831 0.820590
O O9 0.839713 0.548577 0.190091
O O10 0.778690 0.384933 0.333563
O O11 0.974263 0.248798 0.661991
O O12 0.834905 0.702717 0.031079
O O13 0.750000 0.500000 0.990677
#
# Coordination Sequence:
#
# PCOD9422076 Si02
#       7
#     8   8   8   4   4   8   8
#     4  10  21  38  60  93 133 168 205 272 316 390
#     4  11  21  38  61  94 126 171 211 259 324 389
#     4  11  21  39  62  95 135 165 209 258 331 394
#     4  10  20  44  66  90 116 170 216 268 304 384
#     4  12  22  40  62  96 126 166 208 266 322 390
#     4  11  22  41  66  87 128 164 211 268 316 374
#     4   9  21  39  64  88 124 164 217 263 311 375
#
# _framework density 24.982551000000001
#
# number of rings (size 3 to 8) (size 9 to 14) (size 15 to 20)
#    0.500    1.000    4.167    1.000    0.000    0.667 
#    9.000    2.500    0.000    0.000    0.000    0.000 
#    0.000    0.000    0.000    0.000    0.000    0.000 
#
# Total GULP energy -267539.418903 kJ/mol
# GULP energy per Si atom -5573.737894 kJ/mol
# Density = 2.492569 g / cm^3
# Si number density = 24.982551 Si / 1000 Ang^3
#
#
#
# Elastic Constant Matrix: (Units=GPa)
#
#
# Indices 1 2 3 4 5 6 
#
# 1 45.4058 15.5800 8.6360 0.0000 0.0000 0.0000
# 2 15.5800 68.0717 -9.0415 0.0000 0.0000 0.0000
# 3 8.6360 -9.0415 124.3846 0.0000 0.0000 0.0000
# 4 0.0000 0.0000 0.0000 29.0593 0.0000 0.0000
# 5 0.0000 0.0000 0.0000 0.0000 33.7160 0.0000
# 6 0.0000 0.0000 0.0000 0.0000 0.0000 33.3207
#
#
#
# Elastic Compliance Matrix: (Units=1/GPa)
#
#
# Indices 1 2 3 4 5 6 
#
# 1 0.024444 -0.005877 -0.002124 0.000000 0.000000 0.000000
# 2 -0.005877 0.016247 0.001589 0.000000 0.000000 0.000000
# 3 -0.002124 0.001589 0.008303 0.000000 0.000000 0.000000
# 4 0.000000 0.000000 0.000000 0.034412 0.000000 0.000000
# 5 0.000000 0.000000 0.000000 0.000000 0.029659 0.000000
# 6 0.000000 0.000000 0.000000 0.000000 0.000000 0.030011
#
#
# Mechanical properties :
#
#
# Convention : Reuss Voigt Hill
#
# Bulk Modulus (GPa) = 27.64809 29.80123 28.72466
# Shear Modulus (GPa) = 29.76948 34.06503 31.91725
#
# Velocity S-wave (km/s) = 3.45572 3.69664 3.57821
# Velocity P-wave (km/s) = 5.19746 5.49317 5.34736
#
# Compressibility (1/GPa) = 0.03616886
#
# Stress axis : x y z
#
# Youngs Moduli (GPa) = 40.90954 61.55164 120.44450
#
# Poissons Ratio (x) = 0.36173 0.25587
# Poissons Ratio (y) = 0.24042 -0.19138
# Poissons Ratio (z) = 0.08691 -0.09780
#
# Static dielectric constant tensor:
#      x y z
#    x 2.435240 0.000000 0.000000 
#    y 0.000000 2.213680 0.000000 
#    z 0.000000 0.000000 2.003890 
# 
# From -- ./inp_files/13429.got.cif
#   From: 2010.05.17/outbox.cif.g08.bks.cpg/sg54_7_cif.got.tgz:13429.got - 2010.06.03 13:09:01.
