data_PCOD9422300
_publ_section_title
;
Structure prediction by ZEFSAII (Michael W. Deem and Ramdas Pophale) SiO2 
 PCOD9422300
Probable space group: P C C A
;
_chemical_formula_sum "Si O2"
_cell_formula_units_Z 56
_cell_length_a 5.216623
_cell_length_b 27.922459
_cell_length_c 16.990365
_cell_angle_alpha 90.000000
_cell_angle_beta 90.000000
_cell_angle_gamma 90.000000
_cell_volume 2474.832568
_symmetry_space_group_name_H-M "P C C A"
_symmetry_group_IT_number 54
_symmetry_cell_setting 'orthorhombic'
loop_
_space_group_symop_operation_xyz
x,y,z
1/2-x,-y,z
1/2+x,-y,1/2-z
-x,y,1/2-z
-x,-y,-z
1/2+x,y,-z
1/2-x,y,1/2+z
x,-y,1/2+z
loop_
_atom_site_type_symbol
_atom_site_label
_atom_site_fract_x
_atom_site_fract_y
_atom_site_fract_z
Si Si1 0.249303 0.818116 0.201519
Si Si2 0.251518 0.557752 0.701467
Si Si3 0.997403 0.966928 0.340864
Si Si4 0.746028 0.702754 0.297545
Si Si5 0.574906 0.579696 0.970507
Si Si6 0.420619 0.313468 0.528321
Si Si7 0.071605 0.874219 0.051158
O O1 0.500000 0.835031 0.250000
O O2 0.261252 0.760467 0.198394
O O3 0.189283 0.838152 0.115691
O O4 0.000000 0.831866 0.250000
O O5 0.250000 0.500000 0.694868
O O6 0.500000 0.572417 0.750000
O O7 0.292616 0.577184 0.614028
O O8 0.000000 0.571996 0.750000
O O9 0.951107 0.924910 0.403256
O O10 0.000000 0.948687 0.250000
O O11 0.750000 0.000000 0.346392
O O12 0.250000 0.000000 0.354143
O O13 0.500000 0.685673 0.250000
O O14 0.707041 0.685955 0.386451
O O15 0.000000 0.688592 0.250000
O O16 0.290155 0.557232 0.972078
O O17 0.500269 0.633481 0.998341
O O18 0.203521 0.289744 0.472789
O O19 0.282530 0.869067 0.981834
#
# Coordination Sequence:
#
# PCOD9422300 Si02
#       7
#     8   8   8   8   8   8   8
#     4  10  22  41  63  87 121 163 207 254 307 373
#     4  10  21  38  61  89 122 164 214 264 311 366
#     4  10  22  40  61  83 113 161 210 248 298 369
#     4  10  21  39  64  91 119 161 212 257 304 366
#     4  10  21  38  58  87 122 160 202 250 312 371
#     4  10  21  38  59  87 123 160 199 248 310 370
#     4  12  25  38  59  92 124 155 197 256 319 365
#
# _framework density 22.627794999999999
#
# number of rings (size 3 to 8) (size 9 to 14) (size 15 to 20)
#    0.000    1.714    0.000    3.857    0.000    5.143 
#    0.000   11.429    0.000    0.000    0.000    0.000 
#    0.000    0.000    0.000    0.000    0.000    0.000 
#
# Total GULP energy -312642.703627 kJ/mol
# GULP energy per Si atom -5582.905422 kJ/mol
# Density = 2.257629 g / cm^3
# Si number density = 22.627795 Si / 1000 Ang^3
#
#
#
# Elastic Constant Matrix: (Units=GPa)
#
#
# Indices 1 2 3 4 5 6 
#
# 1 229.7986 27.1713 62.1162 0.0000 0.0000 0.0000
# 2 27.1713 39.6705 12.7902 0.0000 0.0000 0.0000
# 3 62.1162 12.7902 121.2141 0.0000 0.0000 0.0000
# 4 0.0000 0.0000 0.0000 43.8290 0.0000 0.0000
# 5 0.0000 0.0000 0.0000 0.0000 55.3548 0.0000
# 6 0.0000 0.0000 0.0000 0.0000 0.0000 -372.4263
#
#
#
# Elastic Compliance Matrix: (Units=1/GPa)
#
#
# Indices 1 2 3 4 5 6 
#
# 1 0.005351 -0.002879 -0.002438 0.000000 0.000000 0.000000
# 2 -0.002879 0.027644 -0.001442 0.000000 0.000000 0.000000
# 3 -0.002438 -0.001442 0.009652 0.000000 0.000000 0.000000
# 4 0.000000 0.000000 0.000000 0.022816 0.000000 0.000000
# 5 0.000000 0.000000 0.000000 0.000000 0.018065 0.000000
# 6 0.000000 0.000000 0.000000 0.000000 0.000000 -0.002685
#
#
# Mechanical properties :
#
#
# Convention : Reuss Voigt Hill
#
# Bulk Modulus (GPa) = 34.33009 66.09318 50.21164
# Shear Modulus (GPa) = 48.04419 -35.40813 6.31803
#
# Velocity S-wave (km/s) = 4.61286 -3.96006 1.67279
# Velocity P-wave (km/s) = 6.60120 2.89186 5.09602
#
# Compressibility (1/GPa) = 0.02912897
#
# Stress axis : x y z
#
# Youngs Moduli (GPa) = 186.87505 36.17384 103.61021
#
# Poissons Ratio (x) = 0.10414 0.25265
# Poissons Ratio (y) = 0.53801 0.14937
# Poissons Ratio (z) = 0.45568 0.05215
#
# Static dielectric constant tensor:
#      x y z
#    x 1.980410 0.000000 0.000000 
#    y 0.000000 1.882320 0.000000 
#    z 0.000000 0.000000 1.079410 
# 
# From -- ./inp_files/11008.got.cif
#   From: 2010.05.17/outbox.cif.g08.bks.cpg/sg54_6_cif.got.tgz:11008.got - 2010.06.03 13:09:01.
