data_PCOD9422068
_publ_section_title
;
Structure prediction by ZEFSAII (Michael W. Deem and Ramdas Pophale) SiO2 
 PCOD9422068
Probable space group: P C C A
;
_chemical_formula_sum "Si O2"
_cell_formula_units_Z 32
_cell_length_a 9.950307
_cell_length_b 7.014740
_cell_length_c 23.221285
_cell_angle_alpha 90.000000
_cell_angle_beta 90.000000
_cell_angle_gamma 90.000000
_cell_volume 1620.818211
_symmetry_space_group_name_H-M "P C C A"
_symmetry_group_IT_number 54
_symmetry_cell_setting 'orthorhombic'
loop_
_space_group_symop_operation_xyz
x,y,z
1/2-x,-y,z
1/2+x,-y,1/2-z
-x,y,1/2-z
-x,-y,-z
1/2+x,y,-z
1/2-x,y,1/2+z
x,-y,1/2+z
loop_
_atom_site_type_symbol
_atom_site_label
_atom_site_fract_x
_atom_site_fract_y
_atom_site_fract_z
Si Si1 0.098840 0.425770 0.140144
Si Si2 0.878056 0.362804 0.482321
Si Si3 0.000000 0.191806 0.250000
Si Si4 0.250000 0.000000 0.808135
Si Si5 0.647769 0.680100 0.605306
O O1 0.250000 0.500000 0.150153
O O2 0.043841 0.319946 0.195863
O O3 0.996982 0.598017 0.124542
O O4 0.096849 0.291391 0.082494
O O5 0.750000 0.500000 0.476108
O O6 0.857901 0.238536 0.539743
O O7 0.000000 0.500000 0.500000
O O8 0.126105 0.066900 0.269509
O O9 0.202218 0.170582 0.849262
O O10 0.750000 0.500000 0.603772
#
# Coordination Sequence:
#
# PCOD9422068 Si02
#       5
#     8   8   4   4   8
#     4  10  22  40  68  96 124 172 210 259 320 375
#     4   8  16  34  65  93 119 154 207 261 311 371
#     4  12  28  42  62  92 136 170 220 254 312 390
#     4  12  28  44  62  98 126 172 216 266 310 390
#     4  10  20  43  69  92 126 165 212 265 325 373
#
# _framework density 19.743116000000001
#
# number of rings (size 3 to 8) (size 9 to 14) (size 15 to 20)
#    0.000    2.000    2.500    0.000    7.000    0.000 
#    0.000    2.500    0.000    0.000    0.000    0.000 
#    0.000    0.000    0.000    0.000    0.000    0.000 
#
# Total GULP energy -178453.156549 kJ/mol
# GULP energy per Si atom -5576.661142 kJ/mol
# Density = 1.969818 g / cm^3
# Si number density = 19.743116 Si / 1000 Ang^3
#
#
#
# Elastic Constant Matrix: (Units=GPa)
#
#
# Indices 1 2 3 4 5 6 
#
# 1 149.1423 25.9704 58.4640 0.0000 0.0000 0.0000
# 2 25.9704 41.9293 53.6848 0.0000 0.0000 0.0000
# 3 58.4640 53.6848 209.8312 0.0000 0.0000 0.0000
# 4 0.0000 0.0000 0.0000 -22.3149 0.0000 0.0000
# 5 0.0000 0.0000 0.0000 0.0000 32.6776 0.0000
# 6 0.0000 0.0000 0.0000 0.0000 0.0000 18.6727
#
#
#
# Elastic Compliance Matrix: (Units=1/GPa)
#
#
# Indices 1 2 3 4 5 6 
#
# 1 0.007779 -0.003038 -0.001390 0.000000 0.000000 0.000000
# 2 -0.003038 0.036655 -0.008532 0.000000 0.000000 0.000000
# 3 -0.001390 -0.008532 0.007336 0.000000 0.000000 0.000000
# 4 0.000000 0.000000 0.000000 -0.044813 0.000000 0.000000
# 5 0.000000 0.000000 0.000000 0.000000 0.030602 0.000000
# 6 0.000000 0.000000 0.000000 0.000000 0.000000 0.053554
#
#
# Mechanical properties :
#
#
# Convention : Reuss Voigt Hill
#
# Bulk Modulus (GPa) = 38.68488 75.23791 56.96139
# Shear Modulus (GPa) = 39.79320 23.32600 31.55960
#
# Velocity S-wave (km/s) = 4.49436 3.44099 4.00248
# Velocity P-wave (km/s) = 6.82415 7.34700 7.09039
#
# Compressibility (1/GPa) = 0.02584989
#
# Stress axis : x y z
#
# Youngs Moduli (GPa) = 128.55142 27.28129 136.31765
#
# Poissons Ratio (x) = 0.08289 0.18949
# Poissons Ratio (y) = 0.39060 1.16300
# Poissons Ratio (z) = 0.17869 0.23275
#
# Static dielectric constant tensor:
#      x y z
#    x 1.687850 0.000000 0.000000 
#    y 0.000000 1.652530 0.000000 
#    z 0.000000 0.000000 1.760720 
# 
# From -- ./inp_files/20079.got.cif
#   From: 2010.05.17/outbox.cif.g08.bks.cpg/sg54_11_cif.got.tgz:20079.got - 2010.06.03 13:09:01.
