data_PCOD9422373
_publ_section_title
;
Structure prediction by ZEFSAII (Michael W. Deem and Ramdas Pophale) SiO2 
 PCOD9422373
Probable space group: P C C A
;
_chemical_formula_sum "Si O2"
_cell_formula_units_Z 32
_cell_length_a 15.697558
_cell_length_b 5.193561
_cell_length_c 16.448481
_cell_angle_alpha 90.000000
_cell_angle_beta 90.000000
_cell_angle_gamma 90.000000
_cell_volume 1340.982563
_symmetry_space_group_name_H-M "P C C A"
_symmetry_group_IT_number 54
_symmetry_cell_setting 'orthorhombic'
loop_
_space_group_symop_operation_xyz
x,y,z
1/2-x,-y,z
1/2+x,-y,1/2-z
-x,y,1/2-z
-x,-y,-z
1/2+x,y,-z
1/2-x,y,1/2+z
x,-y,1/2+z
loop_
_atom_site_type_symbol
_atom_site_label
_atom_site_fract_x
_atom_site_fract_y
_atom_site_fract_z
Si Si1 0.904038 0.324539 0.966994
Si Si2 0.154861 0.562621 0.204083
Si Si3 0.401169 0.826478 0.967379
Si Si4 0.094482 0.942698 0.787339
O O1 0.903104 0.435627 0.876237
O O2 0.001241 0.250662 0.989840
O O3 0.862074 0.541890 0.023937
O O4 0.862574 0.041341 0.972760
O O5 0.250000 0.500000 0.177912
O O6 0.124183 0.346297 0.267772
O O7 0.150644 0.845649 0.241345
O O8 0.402496 0.965268 0.880427
O O9 0.000000 0.969189 0.750000
#
# Coordination Sequence:
#
# PCOD9422373 Si02
#       4
#     8   8   8   8
#     4  10  21  39  64  95 127 167 211 276 321 392
#     4  12  26  44  64  96 139 179 215 269 344 401
#     4  10  21  38  65  97 126 157 224 275 317 370
#     4  12  24  42  69 101 129 173 224 279 323 391
#
# _framework density 23.863098000000001
#
# number of rings (size 3 to 8) (size 9 to 14) (size 15 to 20)
#    0.000    1.000    2.500    4.500    7.000    0.000 
#    0.000    7.500    0.000    0.000    0.000    0.000 
#    0.000    0.000    0.000    0.000    0.000    0.000 
#
# Total GULP energy -178735.112609 kJ/mol
# GULP energy per Si atom -5585.472269 kJ/mol
# Density = 2.380878 g / cm^3
# Si number density = 23.863098 Si / 1000 Ang^3
#
#
#
# Elastic Constant Matrix: (Units=GPa)
#
#
# Indices 1 2 3 4 5 6 
#
# 1 34.4559 17.1605 -15.4755 0.0000 0.0000 0.0000
# 2 17.1605 176.1388 43.9124 0.0000 0.0000 0.0000
# 3 -15.4755 43.9124 109.7991 0.0000 0.0000 0.0000
# 4 0.0000 0.0000 0.0000 31.5067 0.0000 0.0000
# 5 0.0000 0.0000 0.0000 0.0000 -6.5085 0.0000
# 6 0.0000 0.0000 0.0000 0.0000 0.0000 20.0472
#
#
#
# Elastic Compliance Matrix: (Units=1/GPa)
#
#
# Indices 1 2 3 4 5 6 
#
# 1 0.034678 -0.005106 0.006930 0.000000 0.000000 0.000000
# 2 -0.005106 0.007058 -0.003542 0.000000 0.000000 0.000000
# 3 0.006930 -0.003542 0.011501 0.000000 0.000000 0.000000
# 4 0.000000 0.000000 0.000000 0.031739 0.000000 0.000000
# 5 0.000000 0.000000 0.000000 0.000000 -0.153645 0.000000
# 6 0.000000 0.000000 0.000000 0.000000 0.000000 0.049882
#
#
# Mechanical properties :
#
#
# Convention : Reuss Voigt Hill
#
# Bulk Modulus (GPa) = 20.08050 45.73205 32.90628
# Shear Modulus (GPa) = 3996.44919 27.32883 2011.88901
#
# Velocity S-wave (km/s) = 40.96799 3.38780 29.06762
# Velocity P-wave (km/s) = 47.39481 5.87443 33.76964
#
# Compressibility (1/GPa) = 0.04979955
#
# Stress axis : x y z
#
# Youngs Moduli (GPa) = 28.83657 141.68402 86.94906
#
# Poissons Ratio (x) = 0.72347 -0.60254
# Poissons Ratio (y) = 0.14725 0.30801
# Poissons Ratio (z) = -0.19983 0.50190
#
# Static dielectric constant tensor:
#      x y z
#    x 1.933880 0.000000 0.000000 
#    y 0.000000 2.054270 0.000000 
#    z 0.000000 0.000000 1.935960 
# 
# From -- ./inp_files/14385.got.cif
#   From: 2010.05.17/outbox.cif.g08.bks.cpg/sg54_8_cif.got.tgz:14385.got - 2010.06.03 13:09:01.
