data_PCOD9422433
_publ_section_title
;
Structure prediction by ZEFSAII (Michael W. Deem and Ramdas Pophale) SiO2 
 PCOD9422433
Probable space group: P C C A
;
_chemical_formula_sum "Si O2"
_cell_formula_units_Z 64
_cell_length_a 25.985830
_cell_length_b 9.003104
_cell_length_c 11.423031
_cell_angle_alpha 90.000000
_cell_angle_beta 90.000000
_cell_angle_gamma 90.000000
_cell_volume 2672.453857
_symmetry_space_group_name_H-M "P C C A"
_symmetry_group_IT_number 54
_symmetry_cell_setting 'orthorhombic'
loop_
_space_group_symop_operation_xyz
x,y,z
1/2-x,-y,z
1/2+x,-y,1/2-z
-x,y,1/2-z
-x,-y,-z
1/2+x,y,-z
1/2-x,y,1/2+z
x,-y,1/2+z
loop_
_atom_site_type_symbol
_atom_site_label
_atom_site_fract_x
_atom_site_fract_y
_atom_site_fract_z
Si Si1 0.577195 0.564313 0.430881
Si Si2 0.939062 0.701597 0.261023
Si Si3 0.922761 0.934345 0.449996
Si Si4 0.851326 0.455883 0.625488
Si Si5 0.496886 0.793005 0.110644
Si Si6 0.271771 0.765545 0.977335
Si Si7 0.323208 0.935277 0.411402
Si Si8 0.837124 0.270437 0.298532
O O1 0.561076 0.452489 0.330515
O O2 0.614416 0.477086 0.519675
O O3 0.525557 0.653287 0.462176
O O4 0.613467 0.694253 0.378138
O O5 0.916472 0.832847 0.337698
O O6 0.895224 0.665705 0.164285
O O7 0.000000 0.739765 0.250000
O O8 0.868834 0.977446 0.502246
O O9 0.949730 0.839290 0.553259
O O10 0.960072 0.067795 0.415030
O O11 0.799862 0.374911 0.581288
O O12 0.835840 0.578558 0.720601
O O13 0.500000 0.763367 0.250000
O O14 0.290022 0.756641 0.112343
O O15 0.211434 0.800758 0.965890
O O16 0.293260 0.909377 0.907885
O O17 0.341202 0.868897 0.287796
#
# Coordination Sequence:
#
# PCOD9422433 Si02
#       8
#     8   8   8   8   8   8   8   8
#     4  10  21  39  63  92 126 169 218 260 315 390
#     4  11  23  37  60  92 127 165 208 261 320 387
#     4  11  24  39  59  92 125 164 217 264 322 398
#     4  10  22  42  65  93 131 172 216 272 329 388
#     4  11  23  39  61  90 132 176 211 264 332 398
#     4  10  25  45  68  98 127 169 224 274 335 401
#     4  11  24  43  68  94 127 167 216 274 326 388
#     4  10  22  43  66  94 132 170 215 275 336 389
#
# _framework density 23.948028999999998
#
# number of rings (size 3 to 8) (size 9 to 14) (size 15 to 20)
#    0.000    1.500    0.000    4.500    0.000   12.500 
#    0.000    3.750    0.000    0.000    0.000    0.000 
#    0.000    0.000    0.000    0.000    0.000    0.000 
#
# Total GULP energy -357533.722490 kJ/mol
# GULP energy per Si atom -5586.464414 kJ/mol
# Density = 2.389352 g / cm^3
# Si number density = 23.948029 Si / 1000 Ang^3
#
#
#
# Elastic Constant Matrix: (Units=GPa)
#
#
# Indices 1 2 3 4 5 6 
#
# 1 55.8744 6.3758 9.2121 0.0000 0.0000 0.0000
# 2 6.3758 64.5631 15.9905 0.0000 0.0000 0.0000
# 3 9.2121 15.9905 70.1064 0.0000 0.0000 0.0000
# 4 0.0000 0.0000 0.0000 34.9094 0.0000 0.0000
# 5 0.0000 0.0000 0.0000 0.0000 19.1351 0.0000
# 6 0.0000 0.0000 0.0000 0.0000 0.0000 31.1151
#
#
#
# Elastic Compliance Matrix: (Units=1/GPa)
#
#
# Indices 1 2 3 4 5 6 
#
# 1 0.018395 -0.001291 -0.002123 0.000000 0.000000 0.000000
# 2 -0.001291 0.016507 -0.003595 0.000000 0.000000 0.000000
# 3 -0.002123 -0.003595 0.015363 0.000000 0.000000 0.000000
# 4 0.000000 0.000000 0.000000 0.028646 0.000000 0.000000
# 5 0.000000 0.000000 0.000000 0.000000 0.052260 0.000000
# 6 0.000000 0.000000 0.000000 0.000000 0.000000 0.032139
#
#
# Mechanical properties :
#
#
# Convention : Reuss Voigt Hill
#
# Bulk Modulus (GPa) = 27.58882 28.18897 27.88890
# Shear Modulus (GPa) = 26.39798 27.62961 27.01380
#
# Velocity S-wave (km/s) = 3.32370 3.40035 3.36224
# Velocity P-wave (km/s) = 5.12587 5.21660 5.17144
#
# Compressibility (1/GPa) = 0.03624657
#
# Stress axis : x y z
#
# Youngs Moduli (GPa) = 54.36393 60.58153 65.09138
#
# Poissons Ratio (x) = 0.07820 0.13817
# Poissons Ratio (y) = 0.07017 0.23403
# Poissons Ratio (z) = 0.11540 0.21781
#
# Static dielectric constant tensor:
#      x y z
#    x 1.996870 0.000000 0.000000 
#    y 0.000000 1.907230 0.000000 
#    z 0.000000 0.000000 2.012010 
# 
# From -- ./inp_files/10556.got.cif
#   From: 2010.05.17/outbox.cif.g08.bks.cpg/sg54_6_cif.got.tgz:10556.got - 2010.06.03 13:09:01.
