data_PCOD9422527
_publ_section_title
;
Structure prediction by ZEFSAII (Michael W. Deem and Ramdas Pophale) SiO2 
 PCOD9422527
Probable space group: P C C A
;
_chemical_formula_sum "Si O2"
_cell_formula_units_Z 60
_cell_length_a 16.395117
_cell_length_b 11.715106
_cell_length_c 16.152701
_cell_angle_alpha 90.000000
_cell_angle_beta 90.000000
_cell_angle_gamma 90.000000
_cell_volume 3102.457899
_symmetry_space_group_name_H-M "P C C A"
_symmetry_group_IT_number 54
_symmetry_cell_setting 'orthorhombic'
loop_
_space_group_symop_operation_xyz
x,y,z
1/2-x,-y,z
1/2+x,-y,1/2-z
-x,y,1/2-z
-x,-y,-z
1/2+x,y,-z
1/2-x,y,1/2+z
x,-y,1/2+z
loop_
_atom_site_type_symbol
_atom_site_label
_atom_site_fract_x
_atom_site_fract_y
_atom_site_fract_z
Si Si1 0.385314 0.552284 0.619163
Si Si2 0.904601 0.746292 0.255931
Si Si3 0.453710 0.309219 0.663365
Si Si4 0.023003 0.710468 0.009186
Si Si5 0.635642 0.109487 0.396996
Si Si6 0.179197 0.144800 0.080022
Si Si7 0.340314 0.723258 0.924417
Si Si8 0.250000 0.500000 0.485737
O O1 0.365950 0.646233 0.688118
O O2 0.410447 0.433105 0.659372
O O3 0.458618 0.599197 0.563410
O O4 0.315661 0.548103 0.550292
O O5 0.904497 0.862625 0.308472
O O6 0.856534 0.753369 0.170408
O O7 0.000000 0.712508 0.250000
O O8 0.500000 0.289113 0.750000
O O9 0.520386 0.305451 0.588999
O O10 0.381551 0.222728 0.634945
O O11 0.085941 0.807729 0.040282
O O12 0.930259 0.732162 0.035235
O O13 0.730754 0.138021 0.381848
O O14 0.636693 0.978791 0.424910
O O15 0.202165 0.190144 0.987819
O O16 0.295181 0.601036 0.935339
#
# Coordination Sequence:
#
# PCOD9422527 Si02
#       8
#     8   8   8   8   8   8   8   4
#     4  11  22  39  62  87 135 173 204 260 327 387
#     4  11  22  40  64  99 123 166 222 271 322 388
#     4  11  24  39  62  96 131 165 215 271 314 388
#     4  10  21  40  65  89 123 172 215 255 320 389
#     4  10  22  45  70  85 130 175 208 274 334 387
#     4  10  23  47  63  92 130 170 214 263 340 393
#     4  11  22  41  63 100 126 166 225 265 316 402
#     4  12  24  38  62  92 136 182 206 266 328 396
#
# _framework density 19.339504999999999
#
# number of rings (size 3 to 8) (size 9 to 14) (size 15 to 20)
#    0.000    1.333    5.333    2.400    0.000    3.200 
#    7.200    1.333    0.000    0.000    0.000    0.000 
#    0.000    0.000    0.000    0.000    0.000    0.000 
#
# Total GULP energy -334148.334403 kJ/mol
# GULP energy per Si atom -5569.138907 kJ/mol
# Density = 1.929549 g / cm^3
# Si number density = 19.339505 Si / 1000 Ang^3
#
#
#
# Elastic Constant Matrix: (Units=GPa)
#
#
# Indices 1 2 3 4 5 6 
#
# 1 36.1405 12.1113 -3.2421 0.0000 0.0000 0.0000
# 2 12.1113 107.1757 26.4560 0.0000 0.0000 0.0000
# 3 -3.2421 26.4560 128.8607 0.0000 0.0000 0.0000
# 4 0.0000 0.0000 0.0000 8.8846 0.0000 0.0000
# 5 0.0000 0.0000 0.0000 0.0000 8.0955 0.0000
# 6 0.0000 0.0000 0.0000 0.0000 0.0000 29.6260
#
#
#
# Elastic Compliance Matrix: (Units=1/GPa)
#
#
# Indices 1 2 3 4 5 6 
#
# 1 0.029024 -0.003645 0.001479 0.000000 0.000000 0.000000
# 2 -0.003645 0.010286 -0.002204 0.000000 0.000000 0.000000
# 3 0.001479 -0.002204 0.008250 0.000000 0.000000 0.000000
# 4 0.000000 0.000000 0.000000 0.112554 0.000000 0.000000
# 5 0.000000 0.000000 0.000000 0.000000 0.123526 0.000000
# 6 0.000000 0.000000 0.000000 0.000000 0.000000 0.033754
#
#
# Mechanical properties :
#
#
# Convention : Reuss Voigt Hill
#
# Bulk Modulus (GPa) = 25.75960 38.09192 31.92576
# Shear Modulus (GPa) = 14.74606 25.11133 19.92869
#
# Velocity S-wave (km/s) = 2.76431 3.60731 3.21357
# Velocity P-wave (km/s) = 4.85151 6.09011 5.50575
#
# Compressibility (1/GPa) = 0.03882049
#
# Stress axis : x y z
#
# Youngs Moduli (GPa) = 34.45438 97.21678 121.21332
#
# Poissons Ratio (x) = 0.35433 -0.17922
# Poissons Ratio (y) = 0.12558 0.26710
# Poissons Ratio (z) = -0.05094 0.21422
#
# Static dielectric constant tensor:
#      x y z
#    x 1.476940 0.000000 0.000000 
#    y 0.000000 1.693740 0.000000 
#    z 0.000000 0.000000 1.712010 
# 
# From -- ./inp_files/14280.got.cif
#   From: 2010.05.17/outbox.cif.g08.bks.cpg/sg54_8_cif.got.tgz:14280.got - 2010.06.03 13:09:01.
