data_PCOD9422195
_publ_section_title
;
Structure prediction by ZEFSAII (Michael W. Deem and Ramdas Pophale) SiO2 
 PCOD9422195
Probable space group: P C C A
;
_chemical_formula_sum "Si O2"
_cell_formula_units_Z 64
_cell_length_a 8.779560
_cell_length_b 23.274710
_cell_length_c 15.273559
_cell_angle_alpha 90.000000
_cell_angle_beta 90.000000
_cell_angle_gamma 90.000000
_cell_volume 3121.025209
_symmetry_space_group_name_H-M "P C C A"
_symmetry_group_IT_number 54
_symmetry_cell_setting 'orthorhombic'
loop_
_space_group_symop_operation_xyz
x,y,z
1/2-x,-y,z
1/2+x,-y,1/2-z
-x,y,1/2-z
-x,-y,-z
1/2+x,y,-z
1/2-x,y,1/2+z
x,-y,1/2+z
loop_
_atom_site_type_symbol
_atom_site_label
_atom_site_fract_x
_atom_site_fract_y
_atom_site_fract_z
Si Si1 0.791901 0.063846 0.166626
Si Si2 0.702822 0.699269 0.683556
Si Si3 0.645733 0.678017 0.873371
Si Si4 0.307864 0.198424 0.062687
Si Si5 0.138898 0.383423 0.445132
Si Si6 0.368434 0.542741 0.030274
Si Si7 0.410595 0.116317 0.670796
Si Si8 0.655860 0.180404 0.119375
O O1 0.824743 0.068455 0.270982
O O2 0.674780 0.115302 0.150611
O O3 0.950730 0.084660 0.122248
O O4 0.750000 0.000000 0.140750
O O5 0.719348 0.669929 0.778151
O O6 0.532856 0.687455 0.647589
O O7 0.817846 0.670390 0.615126
O O8 0.700501 0.769122 0.687910
O O9 0.720861 0.735791 0.911465
O O10 0.645653 0.632983 0.951753
O O11 0.198331 0.155379 0.115192
O O12 0.483526 0.187978 0.086675
O O13 0.269318 0.190460 0.961442
O O14 0.275567 0.430208 0.447769
O O15 0.971271 0.407976 0.424459
O O16 0.250000 0.500000 0.078935
O O17 0.500000 0.500000 0.000000
O O18 0.500000 0.149944 0.750000
#
# Coordination Sequence:
#
# PCOD9422195 Si02
#       8
#     8   8   8   8   8   8   8   8
#     4   9  20  40  59  84 115 159 206 264 310 387
#     4  10  21  37  59  94 127 166 207 263 329 383
#     4  10  21  36  60  92 129 163 210 258 318 385
#     4  11  21  38  58  90 119 166 196 263 324 387
#     4  11  18  38  64  91 129 165 209 266 309 370
#     4   9  20  36  63  94 124 171 215 246 306 369
#     4   8  21  38  58  80 119 148 206 258 312 381
#     4  11  22  36  62  83 128 157 212 258 328 388
#
# _framework density 20.506080999999998
#
# number of rings (size 3 to 8) (size 9 to 14) (size 15 to 20)
#    0.750    1.250    2.500    1.500    0.000    3.500 
#    2.250    3.750    0.000   11.250    0.000    0.000 
#    0.000    0.000    0.000    0.000    0.000    0.000 
#
# Total GULP energy -356283.802415 kJ/mol
# GULP energy per Si atom -5566.934413 kJ/mol
# Density = 2.045941 g / cm^3
# Si number density = 20.506081 Si / 1000 Ang^3
#
#
#
# Elastic Constant Matrix: (Units=GPa)
#
#
# Indices 1 2 3 4 5 6 
#
# 1 83.2635 35.6956 11.4599 0.0000 0.0000 0.0000
# 2 35.6956 92.0216 17.8978 0.0000 0.0000 0.0000
# 3 11.4599 17.8978 59.4930 0.0000 0.0000 0.0000
# 4 0.0000 0.0000 0.0000 7.6383 0.0000 0.0000
# 5 0.0000 0.0000 0.0000 0.0000 22.9093 0.0000
# 6 0.0000 0.0000 0.0000 0.0000 0.0000 31.8700
#
#
#
# Elastic Compliance Matrix: (Units=1/GPa)
#
#
# Indices 1 2 3 4 5 6 
#
# 1 0.014482 -0.005390 -0.001168 0.000000 0.000000 0.000000
# 2 -0.005390 0.013549 -0.003038 0.000000 0.000000 0.000000
# 3 -0.001168 -0.003038 0.017948 0.000000 0.000000 0.000000
# 4 0.000000 0.000000 0.000000 0.130918 0.000000 0.000000
# 5 0.000000 0.000000 0.000000 0.000000 0.043650 0.000000
# 6 0.000000 0.000000 0.000000 0.000000 0.000000 0.031377
#
#
# Mechanical properties :
#
#
# Convention : Reuss Voigt Hill
#
# Bulk Modulus (GPa) = 37.33282 40.54275 38.93778
# Shear Modulus (GPa) = 17.85427 23.79850 20.82639
#
# Velocity S-wave (km/s) = 2.95393 3.41039 3.19034
# Velocity P-wave (km/s) = 5.46622 5.94321 5.70970
#
# Compressibility (1/GPa) = 0.02678608
#
# Stress axis : x y z
#
# Youngs Moduli (GPa) = 69.05265 73.80742 55.71796
#
# Poissons Ratio (x) = 0.39785 0.06507
# Poissons Ratio (y) = 0.37222 0.16925
# Poissons Ratio (z) = 0.08065 0.22420
#
# Static dielectric constant tensor:
#      x y z
#    x 1.791450 0.000000 0.000000 
#    y 0.000000 1.809620 0.000000 
#    z 0.000000 0.000000 1.748100 
# 
# From -- ./inp_files/11933.got.cif
#   From: 2010.05.17/outbox.cif.g08.bks.cpg/sg54_6_cif.got.tgz:11933.got - 2010.06.03 13:09:01.
