data_PCOD9422926
_publ_section_title
;
Structure prediction by ZEFSAII (Michael W. Deem and Ramdas Pophale) SiO2 
 PCOD9422926
Probable space group: P C C A
;
_chemical_formula_sum "Si O2"
_cell_formula_units_Z 32
_cell_length_a 10.167392
_cell_length_b 13.392805
_cell_length_c 9.632491
_cell_angle_alpha 90.000000
_cell_angle_beta 90.000000
_cell_angle_gamma 90.000000
_cell_volume 1311.655321
_symmetry_space_group_name_H-M "P C C A"
_symmetry_group_IT_number 54
_symmetry_cell_setting 'orthorhombic'
loop_
_space_group_symop_operation_xyz
x,y,z
1/2-x,-y,z
1/2+x,-y,1/2-z
-x,y,1/2-z
-x,-y,-z
1/2+x,y,-z
1/2-x,y,1/2+z
x,-y,1/2+z
loop_
_atom_site_type_symbol
_atom_site_label
_atom_site_fract_x
_atom_site_fract_y
_atom_site_fract_z
Si Si1 0.160771 0.074061 0.250529
Si Si2 0.250000 0.500000 0.814639
Si Si3 0.494681 0.808322 0.043959
Si Si4 0.000000 0.905246 0.250000
Si Si5 0.096263 0.414238 0.053787
O O1 0.132894 0.133382 0.106492
O O2 0.000000 0.028500 0.250000
O O3 0.123257 0.150414 0.375612
O O4 0.176210 0.941076 0.257456
O O5 0.347421 0.447917 0.703134
O O6 0.199796 0.416453 0.924755
O O7 0.471666 0.692223 0.063333
O O8 0.507040 0.841359 0.887231
O O9 0.000000 0.500000 0.000000
#
# Coordination Sequence:
#
# PCOD9422926 Si02
#       5
#     8   4   8   4   8
#     4  10  22  44  67  98 142 179 246 297 360 446
#     4  10  26  46  72 108 146 206 242 310 392 420
#     4  10  24  42  69 103 137 198 235 299 389 424
#     4  10  22  40  60  98 136 176 234 294 364 420
#     4  11  25  48  74 106 160 186 262 314 368 464
#
# _framework density 24.396653000000001
#
# number of rings (size 3 to 8) (size 9 to 14) (size 15 to 20)
#    0.000    2.000    0.000    3.750   10.500    6.000 
#    9.000    2.500    0.000    0.000    0.000    0.000 
#    0.000    0.000    0.000    0.000    0.000    0.000 
#
# Total GULP energy -178486.843656 kJ/mol
# GULP energy per Si atom -5577.713864 kJ/mol
# Density = 2.434112 g / cm^3
# Si number density = 24.396653 Si / 1000 Ang^3
#
#
#
# Elastic Constant Matrix: (Units=GPa)
#
#
# Indices 1 2 3 4 5 6 
#
# 1 167.8310 80.7789 54.6071 0.0000 0.0000 0.0000
# 2 80.7789 175.4655 49.6424 0.0000 0.0000 0.0000
# 3 54.6071 49.6424 197.2030 0.0000 0.0000 0.0000
# 4 0.0000 0.0000 0.0000 77.8090 0.0000 0.0000
# 5 0.0000 0.0000 0.0000 0.0000 51.5401 0.0000
# 6 0.0000 0.0000 0.0000 0.0000 0.0000 27.3355
#
#
#
# Elastic Compliance Matrix: (Units=1/GPa)
#
#
# Indices 1 2 3 4 5 6 
#
# 1 0.007991 -0.003287 -0.001385 0.000000 0.000000 0.000000
# 2 -0.003287 0.007488 -0.000975 0.000000 0.000000 0.000000
# 3 -0.001385 -0.000975 0.005700 0.000000 0.000000 0.000000
# 4 0.000000 0.000000 0.000000 0.012852 0.000000 0.000000
# 5 0.000000 0.000000 0.000000 0.000000 0.019402 0.000000
# 6 0.000000 0.000000 0.000000 0.000000 0.000000 0.036583
#
#
# Mechanical properties :
#
#
# Convention : Reuss Voigt Hill
#
# Bulk Modulus (GPa) = 101.16410 101.17294 101.16852
# Shear Modulus (GPa) = 47.79869 55.03500 51.41684
#
# Velocity S-wave (km/s) = 4.43112 4.75472 4.59577
# Velocity P-wave (km/s) = 8.23020 8.46778 8.34983
#
# Compressibility (1/GPa) = 0.00988493
#
# Stress axis : x y z
#
# Youngs Moduli (GPa) = 125.13799 133.54472 175.44050
#
# Poissons Ratio (x) = 0.43895 0.24305
# Poissons Ratio (y) = 0.41132 0.17102
# Poissons Ratio (z) = 0.17337 0.13018
#
# Static dielectric constant tensor:
#      x y z
#    x 2.502600 0.000000 0.000000 
#    y 0.000000 1.865380 0.000000 
#    z 0.000000 0.000000 1.833450 
# 
# From -- ./inp_files/3332.got.cif
#   From: 2010.05.17/outbox.cif.g08.bks.cpg/sg54_2_cif.got.tgz:3332.got - 2010.06.03 13:09:01.
