data_PCOD9422620
_publ_section_title
;
Structure prediction by ZEFSAII (Michael W. Deem and Ramdas Pophale) SiO2 
 PCOD9422620
Probable space group: P C C A
;
_chemical_formula_sum "Si O2"
_cell_formula_units_Z 36
_cell_length_a 5.009203
_cell_length_b 25.213145
_cell_length_c 11.542996
_cell_angle_alpha 90.000000
_cell_angle_beta 90.000000
_cell_angle_gamma 90.000000
_cell_volume 1457.854557
_symmetry_space_group_name_H-M "P C C A"
_symmetry_group_IT_number 54
_symmetry_cell_setting 'orthorhombic'
loop_
_space_group_symop_operation_xyz
x,y,z
1/2-x,-y,z
1/2+x,-y,1/2-z
-x,y,1/2-z
-x,-y,-z
1/2+x,y,-z
1/2-x,y,1/2+z
x,-y,1/2+z
loop_
_atom_site_type_symbol
_atom_site_label
_atom_site_fract_x
_atom_site_fract_y
_atom_site_fract_z
Si Si1 0.250000 0.500000 0.323664
Si Si2 0.715833 0.115385 0.917152
Si Si3 0.000000 0.195929 0.750000
Si Si4 0.250000 0.000000 0.085155
Si Si5 0.589193 0.389146 0.068965
Si Si6 0.254321 0.721092 0.418822
O O1 0.500000 0.518942 0.250000
O O2 0.149102 0.551991 0.388853
O O3 0.745658 0.057430 0.856082
O O4 0.807722 0.159754 0.828271
O O5 0.423734 0.119090 0.974346
O O6 0.179245 0.233315 0.830805
O O7 0.500000 0.000000 0.000000
O O8 0.694525 0.337234 0.135409
O O9 0.275734 0.384895 0.045634
O O10 0.547006 0.725148 0.473054
#
# Coordination Sequence:
#
# PCOD9422620 Si02
#       6
#     4   8   4   4   8   8
#     4  12  24  36  62  98 126 152 206 270 314 378
#     4  10  22  40  63  92 128 165 212 258 314 376
#     4  12  24  40  68  96 130 172 212 270 318 378
#     4   8  16  36  60  84 120 162 196 254 308 360
#     4  10  21  42  63  84 121 169 206 253 318 384
#     4  10  24  43  63  92 128 168 217 263 317 382
#
# _framework density 24.693822000000001
#
# number of rings (size 3 to 8) (size 9 to 14) (size 15 to 20)
#    0.000    1.778    0.000    3.333    1.556    3.556 
#    0.000    6.667    0.000    0.000    0.000    0.000 
#    0.000    0.000    0.000    0.000    0.000    0.000 
#
# Total GULP energy -201476.862610 kJ/mol
# GULP energy per Si atom -5596.579517 kJ/mol
# Density = 2.463762 g / cm^3
# Si number density = 24.693822 Si / 1000 Ang^3
#
#
#
# Elastic Constant Matrix: (Units=GPa)
#
#
# Indices 1 2 3 4 5 6 
#
# 1 111.3221 0.1143 7.5346 0.0000 0.0000 0.0000
# 2 0.1143 213.8904 50.2547 0.0000 0.0000 0.0000
# 3 7.5346 50.2547 40.9264 0.0000 0.0000 0.0000
# 4 0.0000 0.0000 0.0000 -398.8465 0.0000 0.0000
# 5 0.0000 0.0000 0.0000 0.0000 -15.5226 0.0000
# 6 0.0000 0.0000 0.0000 0.0000 0.0000 35.3940
#
#
#
# Elastic Compliance Matrix: (Units=1/GPa)
#
#
# Indices 1 2 3 4 5 6 
#
# 1 0.009142 0.000549 -0.002357 0.000000 0.000000 0.000000
# 2 0.000549 0.006604 -0.008210 0.000000 0.000000 0.000000
# 3 -0.002357 -0.008210 0.034950 0.000000 0.000000 0.000000
# 4 0.000000 0.000000 0.000000 -0.002507 0.000000 0.000000
# 5 0.000000 0.000000 0.000000 0.000000 -0.064422 0.000000
# 6 0.000000 0.000000 0.000000 0.000000 0.000000 0.028253
#
#
# Mechanical properties :
#
#
# Convention : Reuss Voigt Hill
#
# Bulk Modulus (GPa) = 32.61714 53.54958 43.08336
# Shear Modulus (GPa) = 118.26896 -55.24601 31.51148
#
# Velocity S-wave (km/s) = 6.92807 -4.73508 3.57611
# Velocity P-wave (km/s) = 8.78833 2.85694 5.87676
#
# Compressibility (1/GPa) = 0.03065873
#
# Stress axis : x y z
#
# Youngs Moduli (GPa) = 109.38633 151.42155 28.61240
#
# Poissons Ratio (x) = -0.08312 0.06744
# Poissons Ratio (y) = -0.06004 0.23492
# Poissons Ratio (z) = 0.25783 1.24323
#
# Static dielectric constant tensor:
#      x y z
#    x 1.886480 0.000000 0.000000 
#    y 0.000000 2.048260 0.000000 
#    z 0.000000 0.000000 1.948990 
# 
# From -- ./inp_files/6396.got.cif
#   From: 2010.05.17/outbox.cif.g08.bks.cpg/sg54_4_cif.got.tgz:6396.got - 2010.06.03 13:09:01.
