data_PCOD9422575
_publ_section_title
;
Structure prediction by ZEFSAII (Michael W. Deem and Ramdas Pophale) SiO2 
 PCOD9422575
Probable space group: P C C A
;
_chemical_formula_sum "Si O2"
_cell_formula_units_Z 36
_cell_length_a 13.448713
_cell_length_b 25.300920
_cell_length_c 5.360637
_cell_angle_alpha 90.000000
_cell_angle_beta 90.000000
_cell_angle_gamma 90.000000
_cell_volume 1824.036139
_symmetry_space_group_name_H-M "P C C A"
_symmetry_group_IT_number 54
_symmetry_cell_setting 'orthorhombic'
loop_
_space_group_symop_operation_xyz
x,y,z
1/2-x,-y,z
1/2+x,-y,1/2-z
-x,y,1/2-z
-x,-y,-z
1/2+x,y,-z
1/2-x,y,1/2+z
x,-y,1/2+z
loop_
_atom_site_type_symbol
_atom_site_label
_atom_site_fract_x
_atom_site_fract_y
_atom_site_fract_z
Si Si1 0.500000 0.035090 0.750000
Si Si2 0.314927 0.764159 0.255857
Si Si3 0.685146 0.886439 0.236947
Si Si4 0.500000 0.685616 0.250000
Si Si5 0.135728 0.521397 0.155261
Si Si6 0.000000 0.616270 0.250000
O O1 0.404079 0.072626 0.751681
O O2 0.500000 0.000000 0.500000
O O3 0.248671 0.756837 0.503694
O O4 0.350228 0.825312 0.257897
O O5 0.404241 0.723209 0.258635
O O6 0.754271 0.893775 0.480100
O O7 0.503101 0.650561 0.499755
O O8 0.250000 0.500000 0.130550
O O9 0.095450 0.485356 0.377840
O O10 0.099370 0.579251 0.238767
#
# Coordination Sequence:
#
# PCOD9422575 Si02
#       6
#     4   8   8   4   8   4
#     4  12  25  38  59  96 133 168 217 274 326 366
#     4  10  22  44  67  93 127 169 214 256 314 387
#     4  10  22  41  66  89 122 176 221 257 314 384
#     4  12  25  43  64 100 134 157 197 268 328 368
#     4  10  21  41  63  86 117 161 206 244 290 363
#     4  12  24  41  63  96 125 159 202 254 316 368
#
# _framework density 19.736450000000001
#
# number of rings (size 3 to 8) (size 9 to 14) (size 15 to 20)
#    0.000    1.333    0.000    5.333    0.000    2.667 
#   24.000    8.889    0.000    0.000    0.000    0.000 
#    0.000    0.000    0.000    0.000    0.000    0.000 
#
# Total GULP energy -200927.433507 kJ/mol
# GULP energy per Si atom -5581.317597 kJ/mol
# Density = 1.969153 g / cm^3
# Si number density = 19.736450 Si / 1000 Ang^3
#
#
#
# Elastic Constant Matrix: (Units=GPa)
#
#
# Indices 1 2 3 4 5 6 
#
# 1 109.2689 95.8506 50.8421 0.0000 0.0000 0.0000
# 2 95.8506 157.6869 80.5632 0.0000 0.0000 0.0000
# 3 50.8421 80.5632 187.2085 0.0000 0.0000 0.0000
# 4 0.0000 0.0000 0.0000 629.9850 0.0000 0.0000
# 5 0.0000 0.0000 0.0000 0.0000 19.4182 0.0000
# 6 0.0000 0.0000 0.0000 0.0000 0.0000 41.9730
#
#
#
# Elastic Compliance Matrix: (Units=1/GPa)
#
#
# Indices 1 2 3 4 5 6 
#
# 1 0.019615 -0.011795 -0.000251 0.000000 0.000000 0.000000
# 2 -0.011795 0.015221 -0.003347 0.000000 0.000000 0.000000
# 3 -0.000251 -0.003347 0.006850 0.000000 0.000000 0.000000
# 4 0.000000 0.000000 0.000000 0.001587 0.000000 0.000000
# 5 0.000000 0.000000 0.000000 0.000000 0.051498 0.000000
# 6 0.000000 0.000000 0.000000 0.000000 0.000000 0.023825
#
#
# Mechanical properties :
#
#
# Convention : Reuss Voigt Hill
#
# Bulk Modulus (GPa) = 91.74072 100.96401 96.35237
# Shear Modulus (GPa) = 32.67636 153.40245 93.03941
#
# Velocity S-wave (km/s) = 4.07336 8.82577 6.87337
# Velocity P-wave (km/s) = 8.28896 12.45496 10.57906
#
# Compressibility (1/GPa) = 0.01090029
#
# Stress axis : x y z
#
# Youngs Moduli (GPa) = 50.98184 65.69839 145.97952
#
# Poissons Ratio (x) = 0.77488 0.03669
# Poissons Ratio (y) = 0.60131 0.48860
# Poissons Ratio (z) = 0.01281 0.21990
#
# Static dielectric constant tensor:
#      x y z
#    x 1.668820 0.000000 0.000000 
#    y 0.000000 1.677600 0.000000 
#    z 0.000000 0.000000 1.694710 
# 
# From -- ./inp_files/504.got.cif
#   From: 2010.05.17/outbox.cif.g08.bks.cpg/sg54_1_cif.got.tgz:504.got - 2010.06.03 13:09:01.
