data_PCOD9422466
_publ_section_title
;
Structure prediction by ZEFSAII (Michael W. Deem and Ramdas Pophale) SiO2 
 PCOD9422466
Probable space group: P C C A
;
_chemical_formula_sum "Si O2"
_cell_formula_units_Z 40
_cell_length_a 18.319765
_cell_length_b 8.582245
_cell_length_c 10.842041
_cell_angle_alpha 90.000000
_cell_angle_beta 90.000000
_cell_angle_gamma 90.000000
_cell_volume 1704.636769
_symmetry_space_group_name_H-M "P C C A"
_symmetry_group_IT_number 54
_symmetry_cell_setting 'orthorhombic'
loop_
_space_group_symop_operation_xyz
x,y,z
1/2-x,-y,z
1/2+x,-y,1/2-z
-x,y,1/2-z
-x,-y,-z
1/2+x,y,-z
1/2-x,y,1/2+z
x,-y,1/2+z
loop_
_atom_site_type_symbol
_atom_site_label
_atom_site_fract_x
_atom_site_fract_y
_atom_site_fract_z
Si Si1 0.423443 0.452664 0.059987
Si Si2 0.997264 0.161625 0.874765
Si Si3 0.312574 0.288057 0.638430
Si Si4 0.376416 0.029579 0.494618
Si Si5 0.801065 0.273322 0.083342
O O1 0.450731 0.317220 0.151946
O O2 0.378591 0.589442 0.124881
O O3 0.500000 0.500000 0.000000
O O4 0.370716 0.376945 0.956479
O O5 0.000000 0.063359 0.750000
O O6 0.943208 0.081050 0.969811
O O7 0.080701 0.166113 0.920965
O O8 0.341837 0.113295 0.612659
O O9 0.257502 0.310230 0.523583
O O10 0.279342 0.303425 0.775064
O O11 0.322173 0.910153 0.428768
#
# Coordination Sequence:
#
# PCOD9422466 Si02
#       5
#     8   8   8   8   8
#     4  11  25  45  68 103 138 185 234 296 355 421
#     4  10  21  39  66 102 137 176 227 290 358 417
#     4  12  26  47  73 103 147 191 243 293 361 431
#     4  10  22  43  68 101 140 183 237 293 353 427
#     4  11  28  46  71 106 145 192 241 297 359 432
#
# _framework density 23.465411
#
# number of rings (size 3 to 8) (size 9 to 14) (size 15 to 20)
#    0.000    1.200    2.000    2.400    2.800    9.600 
#    0.000    0.000    0.000    0.000    0.000    0.000 
#    0.000    0.000    0.000    0.000    0.000    0.000 
#
# Total GULP energy -223007.504164 kJ/mol
# GULP energy per Si atom -5575.187604 kJ/mol
# Density = 2.341200 g / cm^3
# Si number density = 23.465411 Si / 1000 Ang^3
#
#
#
# Elastic Constant Matrix: (Units=GPa)
#
#
# Indices 1 2 3 4 5 6 
#
# 1 120.6029 32.1179 42.8089 0.0000 0.0000 0.0000
# 2 32.1179 88.1622 13.7592 0.0000 0.0000 0.0000
# 3 42.8089 13.7592 134.6185 0.0000 0.0000 0.0000
# 4 0.0000 0.0000 0.0000 16.3876 0.0000 0.0000
# 5 0.0000 0.0000 0.0000 0.0000 32.4171 0.0000
# 6 0.0000 0.0000 0.0000 0.0000 0.0000 -2.5434
#
#
#
# Elastic Compliance Matrix: (Units=1/GPa)
#
#
# Indices 1 2 3 4 5 6 
#
# 1 0.010192 -0.003259 -0.002908 0.000000 0.000000 0.000000
# 2 -0.003259 0.012569 -0.000248 0.000000 0.000000 0.000000
# 3 -0.002908 -0.000248 0.008378 0.000000 0.000000 0.000000
# 4 0.000000 0.000000 0.000000 0.061022 0.000000 0.000000
# 5 0.000000 0.000000 0.000000 0.000000 0.030848 0.000000
# 6 0.000000 0.000000 0.000000 0.000000 0.000000 -0.393169
#
#
# Mechanical properties :
#
#
# Convention : Reuss Voigt Hill
#
# Bulk Modulus (GPa) = 54.61921 57.86176 56.24049
# Shear Modulus (GPa) = -19.90230 26.23209 3.16489
#
# Velocity S-wave (km/s) = -2.91547 3.34714 1.16262
# Velocity P-wave (km/s) = 3.46320 6.29679 5.08150
#
# Compressibility (1/GPa) = 0.01830858
#
# Stress axis : x y z
#
# Youngs Moduli (GPa) = 98.11816 79.56226 119.35326
#
# Poissons Ratio (x) = 0.25930 0.34707
# Poissons Ratio (y) = 0.31978 0.02963
# Poissons Ratio (z) = 0.28532 0.01975
#
# Static dielectric constant tensor:
#      x y z
#    x 1.938150 0.000000 0.000000 
#    y 0.000000 2.141450 0.000000 
#    z 0.000000 0.000000 1.937470 
# 
# From -- ./inp_files/8720.got.cif
#   From: 2010.05.17/outbox.cif.g08.bks.cpg/sg54_5_cif.got.tgz:8720.got - 2010.06.03 13:09:01.
