data_PCOD9422366
_publ_section_title
;
Structure prediction by ZEFSAII (Michael W. Deem and Ramdas Pophale) SiO2 
 PCOD9422366
Probable space group: P C C A
;
_chemical_formula_sum "Si O2"
_cell_formula_units_Z 48
_cell_length_a 27.675137
_cell_length_b 6.381165
_cell_length_c 12.966851
_cell_angle_alpha 90.000000
_cell_angle_beta 90.000000
_cell_angle_gamma 90.000000
_cell_volume 2289.940902
_symmetry_space_group_name_H-M "P C C A"
_symmetry_group_IT_number 54
_symmetry_cell_setting 'orthorhombic'
loop_
_space_group_symop_operation_xyz
x,y,z
1/2-x,-y,z
1/2+x,-y,1/2-z
-x,y,1/2-z
-x,-y,-z
1/2+x,y,-z
1/2-x,y,1/2+z
x,-y,1/2+z
loop_
_atom_site_type_symbol
_atom_site_label
_atom_site_fract_x
_atom_site_fract_y
_atom_site_fract_z
Si Si1 0.800959 0.953348 0.353231
Si Si2 0.532254 0.998373 0.661810
Si Si3 0.796340 0.345415 0.050726
Si Si4 0.642717 0.007420 0.668823
Si Si5 0.139161 0.710517 0.530723
Si Si6 0.470161 0.697943 0.037126
O O1 0.788127 0.810636 0.452673
O O2 0.750000 0.000000 0.302066
O O3 0.835856 0.871696 0.263323
O O4 0.827857 0.165662 0.388208
O O5 0.500000 0.891034 0.750000
O O6 0.586767 0.060366 0.692216
O O7 0.500722 0.195957 0.627002
O O8 0.533597 0.852067 0.561282
O O9 0.750000 0.500000 0.073943
O O10 0.821087 0.200527 0.139495
O O11 0.837180 0.499444 0.008533
O O12 0.639796 0.867710 0.566447
O O13 0.085253 0.664328 0.568700
O O14 0.500000 0.500000 0.000000
#
# Coordination Sequence:
#
# PCOD9422366 Si02
#       6
#     8   8   8   8   8   8
#     4  11  23  40  62  88 122 163 207 254 309 367
#     4  10  21  40  62  91 124 163 205 254 312 366
#     4  11  23  42  63  87 127 164 207 255 307 369
#     4  10  24  39  63  92 124 163 207 254 310 370
#     4  10  22  41  61  91 124 161 206 256 306 365
#     4  10  21  38  64  90 122 163 206 252 311 366
#
# _framework density 20.961241999999999
#
# number of rings (size 3 to 8) (size 9 to 14) (size 15 to 20)
#    0.000    1.667    1.667    2.000    2.333    6.000 
#    0.000    3.333    0.000    0.000    0.000    0.000 
#    0.000    0.000    0.000    0.000    0.000    0.000 
#
# Total GULP energy -267610.377313 kJ/mol
# GULP energy per Si atom -5575.216194 kJ/mol
# Density = 2.091353 g / cm^3
# Si number density = 20.961242 Si / 1000 Ang^3
#
#
#
# Elastic Constant Matrix: (Units=GPa)
#
#
# Indices 1 2 3 4 5 6 
#
# 1 175.2469 34.8600 33.4662 0.0000 0.0000 0.0000
# 2 34.8600 61.8897 -11.7393 0.0000 0.0000 0.0000
# 3 33.4662 -11.7393 57.8006 0.0000 0.0000 0.0000
# 4 0.0000 0.0000 0.0000 12.1798 0.0000 0.0000
# 5 0.0000 0.0000 0.0000 0.0000 35.1143 0.0000
# 6 0.0000 0.0000 0.0000 0.0000 0.0000 31.6614
#
#
#
# Elastic Compliance Matrix: (Units=1/GPa)
#
#
# Indices 1 2 3 4 5 6 
#
# 1 0.007892 -0.005525 -0.005692 0.000000 0.000000 0.000000
# 2 -0.005525 0.020673 0.007398 0.000000 0.000000 0.000000
# 3 -0.005692 0.007398 0.022099 0.000000 0.000000 0.000000
# 4 0.000000 0.000000 0.000000 0.082103 0.000000 0.000000
# 5 0.000000 0.000000 0.000000 0.000000 0.028478 0.000000
# 6 0.000000 0.000000 0.000000 0.000000 0.000000 0.031584
#
#
# Mechanical properties :
#
#
# Convention : Reuss Voigt Hill
#
# Bulk Modulus (GPa) = 23.24186 45.34568 34.29377
# Shear Modulus (GPa) = 23.27645 31.68112 27.47879
#
# Velocity S-wave (km/s) = 3.33596 3.89191 3.62461
# Velocity P-wave (km/s) = 5.09414 6.47117 5.82350
#
# Compressibility (1/GPa) = 0.04302581
#
# Stress axis : x y z
#
# Youngs Moduli (GPa) = 126.70800 48.37246 45.25148
#
# Poissons Ratio (x) = 0.26725 0.25755
# Poissons Ratio (y) = 0.70005 -0.33475
# Poissons Ratio (z) = 0.72117 -0.35784
#
# Static dielectric constant tensor:
#      x y z
#    x 2.143900 0.000000 0.000000 
#    y 0.000000 1.734170 0.000000 
#    z 0.000000 0.000000 1.871670 
# 
# From -- ./inp_files/15132.got.cif
#   From: 2010.05.17/outbox.cif.g08.bks.cpg/sg54_8_cif.got.tgz:15132.got - 2010.06.03 13:09:01.
