data_PCOD9422574
_publ_section_title
;
Structure prediction by ZEFSAII (Michael W. Deem and Ramdas Pophale) SiO2 
 PCOD9422574
Probable space group: P C C A
;
_chemical_formula_sum "Si O2"
_cell_formula_units_Z 24
_cell_length_a 5.089106
_cell_length_b 15.678221
_cell_length_c 14.634668
_cell_angle_alpha 90.000000
_cell_angle_beta 90.000000
_cell_angle_gamma 90.000000
_cell_volume 1167.672772
_symmetry_space_group_name_H-M "P C C A"
_symmetry_group_IT_number 54
_symmetry_cell_setting 'orthorhombic'
loop_
_space_group_symop_operation_xyz
x,y,z
1/2-x,-y,z
1/2+x,-y,1/2-z
-x,y,1/2-z
-x,-y,-z
1/2+x,y,-z
1/2-x,y,1/2+z
x,-y,1/2+z
loop_
_atom_site_type_symbol
_atom_site_label
_atom_site_fract_x
_atom_site_fract_y
_atom_site_fract_z
Si Si1 0.930271 0.161921 0.062278
Si Si2 0.250000 0.500000 0.805604
Si Si3 0.500000 0.940158 0.250000
Si Si4 0.021655 0.636333 0.943539
O O1 0.944215 0.263976 0.079088
O O2 0.956138 0.115258 0.158710
O O3 0.663803 0.140994 0.008372
O O4 0.500000 0.535031 0.750000
O O5 0.122343 0.574783 0.865333
O O6 0.250000 0.000000 0.235328
O O7 0.221563 0.619817 0.028006
#
# Coordination Sequence:
#
# PCOD9422574 Si02
#       4
#     8   4   4   8
#     4  10  23  43  66  94 127 170 211 260 317 380
#     4  12  24  36  58  98 126 162 206 262 310 362
#     4  12  26  42  66 100 128 166 210 266 328 384
#     4  10  21  41  63  85 123 169 209 251 310 371
#
# _framework density 20.553702999999999
#
# number of rings (size 3 to 8) (size 9 to 14) (size 15 to 20)
#    0.000    1.333    0.000    5.000    2.333    4.000 
#    3.000    0.000    0.000    0.000    0.000    0.000 
#    0.000    0.000    0.000    0.000    0.000    0.000 
#
# Total GULP energy -134270.469209 kJ/mol
# GULP energy per Si atom -5594.602884 kJ/mol
# Density = 2.050692 g / cm^3
# Si number density = 20.553703 Si / 1000 Ang^3
#
#
#
# Elastic Constant Matrix: (Units=GPa)
#
#
# Indices 1 2 3 4 5 6 
#
# 1 107.1791 40.8538 24.7227 0.0000 0.0000 0.0000
# 2 40.8538 69.5975 83.2845 0.0000 0.0000 0.0000
# 3 24.7227 83.2845 126.3355 0.0000 0.0000 0.0000
# 4 0.0000 0.0000 0.0000 24.8998 0.0000 0.0000
# 5 0.0000 0.0000 0.0000 0.0000 -4.9270 0.0000
# 6 0.0000 0.0000 0.0000 0.0000 0.0000 20.2166
#
#
#
# Elastic Compliance Matrix: (Units=1/GPa)
#
#
# Indices 1 2 3 4 5 6 
#
# 1 0.016312 -0.027261 0.014779 0.000000 0.000000 0.000000
# 2 -0.027261 0.113615 -0.069564 0.000000 0.000000 0.000000
# 3 0.014779 -0.069564 0.050882 0.000000 0.000000 0.000000
# 4 0.000000 0.000000 0.000000 0.040161 0.000000 0.000000
# 5 0.000000 0.000000 0.000000 0.000000 -0.202965 0.000000
# 6 0.000000 0.000000 0.000000 0.000000 0.000000 0.049464
#
#
# Mechanical properties :
#
#
# Convention : Reuss Voigt Hill
#
# Bulk Modulus (GPa) = 59.81638 66.75933 63.28785
# Shear Modulus (GPa) = 21.08521 18.32128 19.70324
#
# Velocity S-wave (km/s) = 3.20638 2.98885 3.09952
# Velocity P-wave (km/s) = 6.54778 6.66798 6.60815
#
# Compressibility (1/GPa) = 0.01671783
#
# Stress axis : x y z
#
# Youngs Moduli (GPa) = 61.30373 8.80168 19.65329
#
# Poissons Ratio (x) = 0.23994 -0.29046
# Poissons Ratio (y) = 1.67119 1.36716
# Poissons Ratio (z) = -0.90601 0.61228
#
# Static dielectric constant tensor:
#      x y z
#    x 1.720820 0.000000 0.000000 
#    y 0.000000 1.709320 0.000000 
#    z 0.000000 0.000000 1.724320 
# 
# From -- ./inp_files/6152.got.cif
#   From: 2010.05.17/outbox.cif.g08.bks.cpg/sg54_4_cif.got.tgz:6152.got - 2010.06.03 13:09:01.
