data_PCOD9422117
_publ_section_title
;
Structure prediction by ZEFSAII (Michael W. Deem and Ramdas Pophale) SiO2 
 PCOD9422117
Probable space group: P C C A
;
_chemical_formula_sum "Si O2"
_cell_formula_units_Z 48
_cell_length_a 9.161416
_cell_length_b 12.289049
_cell_length_c 22.900883
_cell_angle_alpha 90.000000
_cell_angle_beta 90.000000
_cell_angle_gamma 90.000000
_cell_volume 2578.297977
_symmetry_space_group_name_H-M "P C C A"
_symmetry_group_IT_number 54
_symmetry_cell_setting 'orthorhombic'
loop_
_space_group_symop_operation_xyz
x,y,z
1/2-x,-y,z
1/2+x,-y,1/2-z
-x,y,1/2-z
-x,-y,-z
1/2+x,y,-z
1/2-x,y,1/2+z
x,-y,1/2+z
loop_
_atom_site_type_symbol
_atom_site_label
_atom_site_fract_x
_atom_site_fract_y
_atom_site_fract_z
Si Si1 0.928336 0.355509 0.313408
Si Si2 0.117769 0.085649 0.519104
Si Si3 0.921919 0.008541 0.193989
Si Si4 0.539866 0.196381 0.127032
Si Si5 0.885986 0.806384 0.604882
Si Si6 0.585951 0.614344 0.810081
O O1 0.934416 0.486268 0.322388
O O2 0.752879 0.342319 0.307895
O O3 0.000000 0.330852 0.250000
O O4 0.014089 0.287810 0.364321
O O5 0.121951 0.170541 0.464577
O O6 0.055709 0.149406 0.574342
O O7 0.250000 0.000000 0.529894
O O8 0.000000 0.000000 0.500000
O O9 0.940209 0.083669 0.137170
O O10 0.000000 0.057283 0.250000
O O11 0.750000 0.000000 0.205563
O O12 0.984011 0.889710 0.179381
O O13 0.714311 0.201793 0.119596
O O14 0.489144 0.316294 0.140372
O O15 0.500000 0.635726 0.750000
#
# Coordination Sequence:
#
# PCOD9422117 Si02
#       6
#     8   8   8   8   8   8
#     4  10  22  40  63  89 122 159 198 250 305 361
#     4  12  23  42  62  87 122 164 204 246 301 362
#     4  10  21  35  51  81 118 147 187 238 292 352
#     4  11  23  38  60  86 119 157 202 247 297 360
#     4  11  22  39  59  86 119 157 201 247 299 361
#     4  10  22  40  62  91 121 157 202 247 305 364
#
# _framework density 18.616933
#
# number of rings (size 3 to 8) (size 9 to 14) (size 15 to 20)
#    0.000    1.333    3.333    2.500    2.333    6.667 
#    0.000    0.833    0.000    0.000    0.000    0.000 
#    0.000    0.000    0.000    0.000    0.000    0.000 
#
# Total GULP energy -267295.656225 kJ/mol
# GULP energy per Si atom -5568.659505 kJ/mol
# Density = 1.857456 g / cm^3
# Si number density = 18.616933 Si / 1000 Ang^3
#
#
#
# Elastic Constant Matrix: (Units=GPa)
#
#
# Indices 1 2 3 4 5 6 
#
# 1 93.5985 43.4080 37.5093 0.0000 0.0000 0.0000
# 2 43.4080 66.3599 35.3335 0.0000 0.0000 0.0000
# 3 37.5093 35.3335 94.9370 0.0000 0.0000 0.0000
# 4 0.0000 0.0000 0.0000 35.5720 0.0000 0.0000
# 5 0.0000 0.0000 0.0000 0.0000 25.7210 0.0000
# 6 0.0000 0.0000 0.0000 0.0000 0.0000 31.7227
#
#
#
# Elastic Compliance Matrix: (Units=1/GPa)
#
#
# Indices 1 2 3 4 5 6 
#
# 1 0.016005 -0.008858 -0.003027 0.000000 0.000000 0.000000
# 2 -0.008858 0.023696 -0.005319 0.000000 0.000000 0.000000
# 3 -0.003027 -0.005319 0.013709 0.000000 0.000000 0.000000
# 4 0.000000 0.000000 0.000000 0.028112 0.000000 0.000000
# 5 0.000000 0.000000 0.000000 0.000000 0.038879 0.000000
# 6 0.000000 0.000000 0.000000 0.000000 0.000000 0.031523
#
#
# Mechanical properties :
#
#
# Convention : Reuss Voigt Hill
#
# Bulk Modulus (GPa) = 52.62666 54.15521 53.39093
# Shear Modulus (GPa) = 25.95180 27.84612 26.89896
#
# Velocity S-wave (km/s) = 3.73767 3.87168 3.80526
# Velocity P-wave (km/s) = 6.85247 7.00991 6.93164
#
# Compressibility (1/GPa) = 0.01900178
#
# Stress axis : x y z
#
# Youngs Moduli (GPa) = 62.48138 42.20178 72.94491
#
# Poissons Ratio (x) = 0.37380 0.22079
# Poissons Ratio (y) = 0.55343 0.38803
# Poissons Ratio (z) = 0.18912 0.22449
#
# Static dielectric constant tensor:
#      x y z
#    x 1.665180 0.000000 0.000000 
#    y 0.000000 1.641290 0.000000 
#    z 0.000000 0.000000 1.655400 
# 
# From -- ./inp_files/23511.got.cif
#   From: 2010.05.17/outbox.cif.g08.bks.cpg/sg54_12_cif.got.tgz:23511.got - 2010.06.03 13:09:01.
