data_PCOD9422098
_publ_section_title
;
Structure prediction by ZEFSAII (Michael W. Deem and Ramdas Pophale) SiO2 
 PCOD9422098
Probable space group: P C C A
;
_chemical_formula_sum "Si O2"
_cell_formula_units_Z 64
_cell_length_a 7.280832
_cell_length_b 21.725418
_cell_length_c 18.592431
_cell_angle_alpha 90.000000
_cell_angle_beta 90.000000
_cell_angle_gamma 90.000000
_cell_volume 2940.934348
_symmetry_space_group_name_H-M "P C C A"
_symmetry_group_IT_number 54
_symmetry_cell_setting 'orthorhombic'
loop_
_space_group_symop_operation_xyz
x,y,z
1/2-x,-y,z
1/2+x,-y,1/2-z
-x,y,1/2-z
-x,-y,-z
1/2+x,y,-z
1/2-x,y,1/2+z
x,-y,1/2+z
loop_
_atom_site_type_symbol
_atom_site_label
_atom_site_fract_x
_atom_site_fract_y
_atom_site_fract_z
Si Si1 0.531644 0.993732 0.836166
Si Si2 0.978999 0.125607 0.335003
Si Si3 0.407364 0.252026 0.071137
Si Si4 0.968362 0.490388 0.830714
Si Si5 0.972577 0.750280 0.596294
Si Si6 0.902003 0.388441 0.935410
Si Si7 0.469815 0.386840 0.898373
Si Si8 0.541370 0.140496 0.335287
O O1 0.500000 0.992439 0.750000
O O2 0.465364 0.926259 0.859991
O O3 0.750000 0.000000 0.847796
O O4 0.456013 0.059016 0.864321
O O5 0.074816 0.187538 0.361825
O O6 0.760720 0.132629 0.346320
O O7 0.000000 0.122757 0.250000
O O8 0.194869 0.253049 0.094654
O O9 0.484467 0.320946 0.079414
O O10 0.507568 0.199548 0.116845
O O11 0.410934 0.240898 0.985923
O O12 0.750000 0.500000 0.836550
O O13 0.009396 0.440738 0.892343
O O14 0.066702 0.555703 0.846093
O O15 0.000000 0.468150 0.750000
O O16 0.912936 0.682539 0.623672
O O17 0.691509 0.386405 0.908889
O O18 0.897952 0.398897 0.020863
O O19 0.500000 0.149205 0.250000
#
# Coordination Sequence:
#
# PCOD9422098 Si02
#       8
#     8   8   8   8   8   8   8   8
#     4   8  14  26  43  62  86 116 148 182 221 264
#     4   9  17  29  46  67  90 117 150 187 225 266
#     4   9  18  32  48  67  92 120 150 185 224 266
#     4  10  21  34  48  70  98 122 147 184 226 266
#     4   9  18  32  48  67  92 120 150 185 224 266
#     4   9  18  33  51  69  90 119 154 187 220 264
#     4   9  18  33  51  69  90 119 154 187 220 264
#     4   9  17  29  46  67  90 117 150 187 225 266
#
# _framework density 21.761792
#
# number of rings (size 3 to 8) (size 9 to 14) (size 15 to 20)
#    0.000    3.000    0.000    0.375    0.000    3.000 
#    0.000    0.625    0.000    0.000    0.000    0.000 
#    0.000    0.000    0.000    0.000    0.000    0.000 
#
# Total GULP energy -356817.896933 kJ/mol
# GULP energy per Si atom -5575.279640 kJ/mol
# Density = 2.171226 g / cm^3
# Si number density = 21.761792 Si / 1000 Ang^3
#
#
#
# Elastic Constant Matrix: (Units=GPa)
#
#
# Indices 1 2 3 4 5 6 
#
# 1 51.6223 -26.4298 -18.1960 0.0000 0.0000 0.0000
# 2 -26.4298 114.2341 45.4875 0.0000 0.0000 0.0000
# 3 -18.1960 45.4875 32.9975 0.0000 0.0000 0.0000
# 4 0.0000 0.0000 0.0000 44.7733 0.0000 0.0000
# 5 0.0000 0.0000 0.0000 0.0000 11.9219 0.0000
# 6 0.0000 0.0000 0.0000 0.0000 0.0000 -96.1797
#
#
#
# Elastic Compliance Matrix: (Units=1/GPa)
#
#
# Indices 1 2 3 4 5 6 
#
# 1 0.024066 0.000629 0.012404 0.000000 0.000000 0.000000
# 2 0.000629 0.019423 -0.026428 0.000000 0.000000 0.000000
# 3 0.012404 -0.026428 0.073577 0.000000 0.000000 0.000000
# 4 0.000000 0.000000 0.000000 0.022335 0.000000 0.000000
# 5 0.000000 0.000000 0.000000 0.000000 0.083879 0.000000
# 6 0.000000 0.000000 0.000000 0.000000 0.000000 -0.010397
#
#
# Mechanical properties :
#
#
# Convention : Reuss Voigt Hill
#
# Bulk Modulus (GPa) = 11.07735 22.28636 16.68186
# Shear Modulus (GPa) = 18.53473 5.30259 11.91866
#
# Velocity S-wave (km/s) = 2.92157 1.56267 2.34281
# Velocity P-wave (km/s) = 4.05982 3.67685 3.87307
#
# Compressibility (1/GPa) = 0.09027426
#
# Stress axis : x y z
#
# Youngs Moduli (GPa) = 41.55313 51.48548 13.59129
#
# Poissons Ratio (x) = -0.03237 -0.16858
# Poissons Ratio (y) = -0.02613 0.35919
# Poissons Ratio (z) = -0.51542 1.36066
#
# Static dielectric constant tensor:
#      x y z
#    x 1.963750 0.000000 0.000000 
#    y 0.000000 1.879690 0.000000 
#    z 0.000000 0.000000 1.731060 
# 
# From -- ./inp_files/16867.got.cif
#   From: 2010.05.17/outbox.cif.g08.bks.cpg/sg54_9_cif.got.tgz:16867.got - 2010.06.03 13:09:01.
