data_PCOD9422391
_publ_section_title
;
Structure prediction by ZEFSAII (Michael W. Deem and Ramdas Pophale) SiO2 
 PCOD9422391
Probable space group: P C C A
;
_chemical_formula_sum "Si O2"
_cell_formula_units_Z 64
_cell_length_a 14.258743
_cell_length_b 18.488285
_cell_length_c 11.686213
_cell_angle_alpha 90.000000
_cell_angle_beta 90.000000
_cell_angle_gamma 90.000000
_cell_volume 3080.716016
_symmetry_space_group_name_H-M "P C C A"
_symmetry_group_IT_number 54
_symmetry_cell_setting 'orthorhombic'
loop_
_space_group_symop_operation_xyz
x,y,z
1/2-x,-y,z
1/2+x,-y,1/2-z
-x,y,1/2-z
-x,-y,-z
1/2+x,y,-z
1/2-x,y,1/2+z
x,-y,1/2+z
loop_
_atom_site_type_symbol
_atom_site_label
_atom_site_fract_x
_atom_site_fract_y
_atom_site_fract_z
Si Si1 0.177527 0.794263 0.462473
Si Si2 0.992140 0.225630 0.385325
Si Si3 0.143858 0.528148 0.048806
Si Si4 0.607549 0.696993 0.728654
Si Si5 0.646690 0.535616 0.689796
Si Si6 0.158974 0.962321 0.485452
Si Si7 0.353567 0.300764 0.017365
Si Si8 0.471279 0.931787 0.378806
O O1 0.115831 0.779543 0.576227
O O2 0.116120 0.761417 0.360380
O O3 0.185585 0.880687 0.451455
O O4 0.271880 0.747092 0.460926
O O5 0.041185 0.149776 0.423850
O O6 0.000000 0.236740 0.250000
O O7 0.048808 0.285254 0.454372
O O8 0.250000 0.500000 0.058113
O O9 0.102440 0.490603 0.932588
O O10 0.154409 0.612992 0.021447
O O11 0.105154 0.519522 0.180888
O O12 0.500000 0.677285 0.750000
O O13 0.654571 0.622746 0.686057
O O14 0.647115 0.721684 0.849988
O O15 0.750000 0.500000 0.690078
O O16 0.066962 0.960406 0.564240
O O17 0.250000 0.000000 0.537836
O O18 0.118057 0.016206 0.388675
O O19 0.500000 0.921608 0.250000
#
# Coordination Sequence:
#
# PCOD9422391 Si02
#       8
#     8   8   8   8   8   8   8   8
#     4  11  23  40  65  91 124 169 210 260 319 379
#     4  10  22  42  61  92 129 161 210 260 319 382
#     4   9  18  36  59  87 117 163 206 250 312 376
#     4  11  23  43  65  94 129 165 213 268 312 379
#     4   9  18  36  61  85 121 162 207 252 311 378
#     4  10  21  39  59  92 122 156 212 257 308 377
#     4  11  23  41  66  91 127 166 210 263 316 377
#     4   9  20  40  62  83 125 166 196 260 317 368
#
# _framework density 20.77439
#
# number of rings (size 3 to 8) (size 9 to 14) (size 15 to 20)
#    0.000    2.000    1.250    2.250    1.750    1.000 
#    9.000    3.125    0.000    0.000    0.000    0.000 
#    0.000    0.000    0.000    0.000    0.000    0.000 
#
# Total GULP energy -356564.633155 kJ/mol
# GULP energy per Si atom -5571.322393 kJ/mol
# Density = 2.072711 g / cm^3
# Si number density = 20.774390 Si / 1000 Ang^3
#
#
#
# Elastic Constant Matrix: (Units=GPa)
#
#
# Indices 1 2 3 4 5 6 
#
# 1 42.2785 28.9818 1.3991 0.0000 0.0000 0.0000
# 2 28.9818 90.9111 25.8385 0.0000 0.0000 0.0000
# 3 1.3991 25.8385 100.4200 0.0000 0.0000 0.0000
# 4 0.0000 0.0000 0.0000 26.0397 0.0000 0.0000
# 5 0.0000 0.0000 0.0000 0.0000 17.7691 0.0000
# 6 0.0000 0.0000 0.0000 0.0000 0.0000 16.5016
#
#
#
# Elastic Compliance Matrix: (Units=1/GPa)
#
#
# Indices 1 2 3 4 5 6 
#
# 1 0.030734 -0.010440 0.002258 0.000000 0.000000 0.000000
# 2 -0.010440 0.015414 -0.003821 0.000000 0.000000 0.000000
# 3 0.002258 -0.003821 0.010910 0.000000 0.000000 0.000000
# 4 0.000000 0.000000 0.000000 0.038403 0.000000 0.000000
# 5 0.000000 0.000000 0.000000 0.000000 0.056278 0.000000
# 6 0.000000 0.000000 0.000000 0.000000 0.000000 0.060600
#
#
# Mechanical properties :
#
#
# Convention : Reuss Voigt Hill
#
# Bulk Modulus (GPa) = 30.25414 38.44983 34.35199
# Shear Modulus (GPa) = 20.21338 23.88807 22.05072
#
# Velocity S-wave (km/s) = 3.12267 3.39467 3.26151
# Velocity P-wave (km/s) = 5.25321 5.82353 5.54571
#
# Compressibility (1/GPa) = 0.03305333
#
# Stress axis : x y z
#
# Youngs Moduli (GPa) = 32.53688 64.87723 91.66101
#
# Poissons Ratio (x) = 0.67730 -0.20697
# Poissons Ratio (y) = 0.33967 0.35020
# Poissons Ratio (z) = -0.07347 0.24787
#
# Static dielectric constant tensor:
#      x y z
#    x 1.770160 0.000000 0.000000 
#    y 0.000000 1.789490 0.000000 
#    z 0.000000 0.000000 1.825650 
# 
# From -- ./inp_files/8549.got.cif
#   From: 2010.05.17/outbox.cif.g08.bks.cpg/sg54_5_cif.got.tgz:8549.got - 2010.06.03 13:09:01.
