data_PCOD9422071
_publ_section_title
;
Structure prediction by ZEFSAII (Michael W. Deem and Ramdas Pophale) SiO2 
 PCOD9422071
Probable space group: P C C A
;
_chemical_formula_sum "Si O2"
_cell_formula_units_Z 56
_cell_length_a 12.903650
_cell_length_b 14.873215
_cell_length_c 14.112373
_cell_angle_alpha 90.000000
_cell_angle_beta 90.000000
_cell_angle_gamma 90.000000
_cell_volume 2708.429137
_symmetry_space_group_name_H-M "P C C A"
_symmetry_group_IT_number 54
_symmetry_cell_setting 'orthorhombic'
loop_
_space_group_symop_operation_xyz
x,y,z
1/2-x,-y,z
1/2+x,-y,1/2-z
-x,y,1/2-z
-x,-y,-z
1/2+x,y,-z
1/2-x,y,1/2+z
x,-y,1/2+z
loop_
_atom_site_type_symbol
_atom_site_label
_atom_site_fract_x
_atom_site_fract_y
_atom_site_fract_z
Si Si1 0.516063 0.504473 0.888714
Si Si2 0.997154 0.985455 0.636215
Si Si3 0.334038 0.424217 0.255423
Si Si4 0.094032 0.864607 0.496096
Si Si5 0.986256 0.291204 0.386520
Si Si6 0.284805 0.899213 0.379097
Si Si7 0.182792 0.258090 0.269792
O O1 0.615139 0.556448 0.847187
O O2 0.422307 0.553756 0.833351
O O3 0.527580 0.398122 0.868835
O O4 0.500000 0.500000 0.000000
O O5 0.000000 0.990578 0.750000
O O6 0.968118 0.080059 0.586421
O O7 0.091723 0.935346 0.584285
O O8 0.906438 0.914688 0.606239
O O9 0.250000 0.500000 0.272703
O O10 0.272367 0.331283 0.259814
O O11 0.045379 0.766833 0.520811
O O12 0.212429 0.857972 0.460345
O O13 0.900956 0.253444 0.313258
O O14 0.106764 0.277095 0.359687
O O15 0.267914 0.837897 0.288240
O O16 0.250000 0.000000 0.361482
#
# Coordination Sequence:
#
# PCOD9422071 Si02
#       7
#     8   8   8   8   8   8   8
#     4  11  25  43  67  99 139 178 222 289 355 407
#     4  10  20  43  70  93 134 187 227 287 351 405
#     4  11  21  45  68  99 135 174 230 284 338 416
#     4  10  22  38  64 103 134 169 235 289 338 419
#     4  11  21  41  70  99 127 179 228 275 352 418
#     4  10  22  40  64  98 137 178 227 282 339 401
#     4  11  21  41  74  95 132 181 228 280 340 419
#
# _framework density 20.676192
#
# number of rings (size 3 to 8) (size 9 to 14) (size 15 to 20)
#    0.000    1.429    4.286    1.714    2.000    0.571 
#    2.571   27.143    0.000    0.000    0.000    0.000 
#    0.000    0.000    0.000    0.000    0.000    0.000 
#
# Total GULP energy -311855.633739 kJ/mol
# GULP energy per Si atom -5568.850602 kJ/mol
# Density = 2.062913 g / cm^3
# Si number density = 20.676192 Si / 1000 Ang^3
#
#
#
# Elastic Constant Matrix: (Units=GPa)
#
#
# Indices 1 2 3 4 5 6 
#
# 1 71.4481 27.0621 26.8287 0.0000 0.0000 0.0000
# 2 27.0621 72.1501 13.9144 0.0000 0.0000 0.0000
# 3 26.8287 13.9144 107.6683 0.0000 0.0000 0.0000
# 4 0.0000 0.0000 0.0000 35.2496 0.0000 0.0000
# 5 0.0000 0.0000 0.0000 0.0000 24.4203 0.0000
# 6 0.0000 0.0000 0.0000 0.0000 0.0000 17.7040
#
#
#
# Elastic Compliance Matrix: (Units=1/GPa)
#
#
# Indices 1 2 3 4 5 6 
#
# 1 0.017590 -0.005899 -0.003621 0.000000 0.000000 0.000000
# 2 -0.005899 0.016193 -0.000623 0.000000 0.000000 0.000000
# 3 -0.003621 -0.000623 0.010270 0.000000 0.000000 0.000000
# 4 0.000000 0.000000 0.000000 0.028369 0.000000 0.000000
# 5 0.000000 0.000000 0.000000 0.000000 0.040949 0.000000
# 6 0.000000 0.000000 0.000000 0.000000 0.000000 0.056484
#
#
# Mechanical properties :
#
#
# Convention : Reuss Voigt Hill
#
# Bulk Modulus (GPa) = 42.07358 42.98633 42.52996
# Shear Modulus (GPa) = 25.24424 27.70553 26.47489
#
# Velocity S-wave (km/s) = 3.49798 3.66454 3.58222
# Velocity P-wave (km/s) = 6.05867 6.22419 6.14198
#
# Compressibility (1/GPa) = 0.02376789
#
# Stress axis : x y z
#
# Youngs Moduli (GPa) = 56.84956 61.75566 97.36666
#
# Poissons Ratio (x) = 0.36433 0.35254
# Poissons Ratio (y) = 0.33538 0.06062
# Poissons Ratio (z) = 0.20584 0.03845
#
# Static dielectric constant tensor:
#      x y z
#    x 1.926050 0.000000 0.000000 
#    y 0.000000 1.797960 0.000000 
#    z 0.000000 0.000000 1.779290 
# 
# From -- ./inp_files/12722.got.cif
#   From: 2010.05.17/outbox.cif.g08.bks.cpg/sg54_7_cif.got.tgz:12722.got - 2010.06.03 13:09:01.
