data_PCOD9422542
_publ_section_title
;
Structure prediction by ZEFSAII (Michael W. Deem and Ramdas Pophale) SiO2 
 PCOD9422542
Probable space group: P C C A
;
_chemical_formula_sum "Si O2"
_cell_formula_units_Z 40
_cell_length_a 7.664410
_cell_length_b 8.346637
_cell_length_c 25.265828
_cell_angle_alpha 90.000000
_cell_angle_beta 90.000000
_cell_angle_gamma 90.000000
_cell_volume 1616.306764
_symmetry_space_group_name_H-M "P C C A"
_symmetry_group_IT_number 54
_symmetry_cell_setting 'orthorhombic'
loop_
_space_group_symop_operation_xyz
x,y,z
1/2-x,-y,z
1/2+x,-y,1/2-z
-x,y,1/2-z
-x,-y,-z
1/2+x,y,-z
1/2-x,y,1/2+z
x,-y,1/2+z
loop_
_atom_site_type_symbol
_atom_site_label
_atom_site_fract_x
_atom_site_fract_y
_atom_site_fract_z
Si Si1 0.453243 0.035732 0.344343
Si Si2 0.453490 0.365593 0.308946
Si Si3 0.409471 0.901397 0.546312
Si Si4 0.883841 0.374532 0.031413
Si Si5 0.056082 0.309691 0.353218
O O1 0.531161 0.186710 0.313724
O O2 0.460756 0.108388 0.404600
O O3 0.250000 0.000000 0.333437
O O4 0.528974 0.857425 0.333962
O O5 0.500000 0.420284 0.250000
O O6 0.249159 0.334367 0.325996
O O7 0.524095 0.513655 0.344139
O O8 0.333946 0.747548 0.515349
O O9 0.250000 0.000000 0.569215
O O10 0.500000 0.000000 0.500000
O O11 0.750000 0.500000 0.056192
O O12 0.944003 0.282318 0.083317
O O13 0.000000 0.500000 0.000000
#
# Coordination Sequence:
#
# PCOD9422542 Si02
#       5
#     8   8   8   8   8
#     4  10  22  42  68  95 134 175 220 275 335 407
#     4  10  21  40  67  93 121 171 225 282 340 398
#     4  12  24  38  63  96 136 181 220 264 329 406
#     4  12  24  39  66  99 140 181 223 269 335 417
#     4  10  21  41  68  90 128 173 222 274 342 398
#
# _framework density 24.747776999999999
#
# number of rings (size 3 to 8) (size 9 to 14) (size 15 to 20)
#    0.000    1.200    4.000    3.000    5.600    0.800 
#    0.000    7.000    4.400    0.000    0.000    0.000 
#    0.000    0.000    0.000    0.000    0.000    0.000 
#
# Total GULP energy -222764.674640 kJ/mol
# GULP energy per Si atom -5569.116866 kJ/mol
# Density = 2.469145 g / cm^3
# Si number density = 24.747777 Si / 1000 Ang^3
#
#
#
# Elastic Constant Matrix: (Units=GPa)
#
#
# Indices 1 2 3 4 5 6 
#
# 1 37.1293 5.6168 0.0793 0.0000 0.0000 0.0000
# 2 5.6168 201.7308 11.5523 0.0000 0.0000 0.0000
# 3 0.0793 11.5523 80.5362 0.0000 0.0000 0.0000
# 4 0.0000 0.0000 0.0000 34.8592 0.0000 0.0000
# 5 0.0000 0.0000 0.0000 0.0000 22.4460 0.0000
# 6 0.0000 0.0000 0.0000 0.0000 0.0000 17.5163
#
#
#
# Elastic Compliance Matrix: (Units=1/GPa)
#
#
# Indices 1 2 3 4 5 6 
#
# 1 0.027047 -0.000758 0.000082 0.000000 0.000000 0.000000
# 2 -0.000758 0.005019 -0.000719 0.000000 0.000000 0.000000
# 3 0.000082 -0.000719 0.012520 0.000000 0.000000 0.000000
# 4 0.000000 0.000000 0.000000 0.028687 0.000000 0.000000
# 5 0.000000 0.000000 0.000000 0.000000 0.044551 0.000000
# 6 0.000000 0.000000 0.000000 0.000000 0.000000 0.057090
#
#
# Mechanical properties :
#
#
# Convention : Reuss Voigt Hill
#
# Bulk Modulus (GPa) = 23.92533 39.32144 31.62339
# Shear Modulus (GPa) = 26.09105 35.10750 30.59928
#
# Velocity S-wave (km/s) = 3.25049 3.77053 3.52013
# Velocity P-wave (km/s) = 4.87609 5.90587 5.41551
#
# Compressibility (1/GPa) = 0.04179670
#
# Stress axis : x y z
#
# Youngs Moduli (GPa) = 36.97223 199.22748 79.87307
#
# Poissons Ratio (x) = 0.15097 -0.00656
# Poissons Ratio (y) = 0.02802 0.05745
# Poissons Ratio (z) = -0.00303 0.14329
#
# Static dielectric constant tensor:
#      x y z
#    x 2.153760 0.000000 0.000000 
#    y 0.000000 -1.127690 0.000000 
#    z 0.000000 0.000000 1.893560 
# 
# From -- ./inp_files/23205.got.cif
#   From: 2010.05.17/outbox.cif.g08.bks.cpg/sg54_12_cif.got.tgz:23205.got - 2010.06.03 13:09:01.
