data_PCOD9422109
_publ_section_title
;
Structure prediction by ZEFSAII (Michael W. Deem and Ramdas Pophale) SiO2 
 PCOD9422109
Probable space group: P C C A
;
_chemical_formula_sum "Si O2"
_cell_formula_units_Z 56
_cell_length_a 9.506197
_cell_length_b 12.953834
_cell_length_c 23.351268
_cell_angle_alpha 90.000000
_cell_angle_beta 90.000000
_cell_angle_gamma 90.000000
_cell_volume 2875.514790
_symmetry_space_group_name_H-M "P C C A"
_symmetry_group_IT_number 54
_symmetry_cell_setting 'orthorhombic'
loop_
_space_group_symop_operation_xyz
x,y,z
1/2-x,-y,z
1/2+x,-y,1/2-z
-x,y,1/2-z
-x,-y,-z
1/2+x,y,-z
1/2-x,y,1/2+z
x,-y,1/2+z
loop_
_atom_site_type_symbol
_atom_site_label
_atom_site_fract_x
_atom_site_fract_y
_atom_site_fract_z
Si Si1 0.042128 0.723097 0.960750
Si Si2 0.254426 0.622971 0.054207
Si Si3 0.371534 0.076215 0.498206
Si Si4 0.733410 0.879331 0.734652
Si Si5 0.963706 0.158239 0.146058
Si Si6 0.444826 0.917218 0.877559
Si Si7 0.207625 0.785178 0.148808
O O1 0.920886 0.639671 0.954139
O O2 0.099520 0.759849 0.899140
O O3 0.159618 0.683099 0.005568
O O4 0.939940 0.820606 0.976684
O O5 0.250000 0.500000 0.053302
O O6 0.206298 0.677691 0.114008
O O7 0.345948 0.104492 0.431914
O O8 0.250000 0.000000 0.521137
O O9 0.500000 0.000000 0.500000
O O10 0.627441 0.884541 0.681361
O O11 0.678410 0.803684 0.783927
O O12 0.878588 0.841845 0.705536
O O13 0.750000 0.000000 0.755667
O O14 0.129485 0.180691 0.148283
O O15 0.956625 0.040172 0.125450
O O16 0.594557 0.859834 0.882414
#
# Coordination Sequence:
#
# PCOD9422109 Si02
#       7
#     8   8   8   8   8   8   8
#     4  11  23  39  63  91 122 163 196 250 317 373
#     4  11  25  44  64  86 114 156 212 272 317 358
#     4  12  23  34  56  91 136 165 193 232 293 379
#     4  10  21  37  57  85 126 165 198 236 287 366
#     4  10  21  34  58  88 123 159 198 231 293 370
#     4  11  21  34  54  88 129 161 193 230 291 369
#     4  11  22  37  59  84 112 162 208 252 296 357
#
# _framework density 19.474774
#
# number of rings (size 3 to 8) (size 9 to 14) (size 15 to 20)
#    0.000    1.143    2.857    4.714    4.000    2.286 
#    0.000    0.000    0.000    7.714    0.000    0.000 
#    0.000    0.000    0.000    0.000    0.000    0.000 
#
# Total GULP energy -311963.601431 kJ/mol
# GULP energy per Si atom -5570.778597 kJ/mol
# Density = 1.943045 g / cm^3
# Si number density = 19.474774 Si / 1000 Ang^3
#
#
#
# Elastic Constant Matrix: (Units=GPa)
#
#
# Indices 1 2 3 4 5 6 
#
# 1 87.1654 25.3129 0.1874 0.0000 0.0000 0.0000
# 2 25.3129 60.2015 24.2704 0.0000 0.0000 0.0000
# 3 0.1874 24.2704 87.6170 0.0000 0.0000 0.0000
# 4 0.0000 0.0000 0.0000 -7.4664 0.0000 0.0000
# 5 0.0000 0.0000 0.0000 0.0000 20.3596 0.0000
# 6 0.0000 0.0000 0.0000 0.0000 0.0000 27.8194
#
#
#
# Elastic Compliance Matrix: (Units=1/GPa)
#
#
# Indices 1 2 3 4 5 6 
#
# 1 0.013292 -0.006279 0.001711 0.000000 0.000000 0.000000
# 2 -0.006279 0.021665 -0.005988 0.000000 0.000000 0.000000
# 3 0.001711 -0.005988 0.013068 0.000000 0.000000 0.000000
# 4 0.000000 0.000000 0.000000 -0.133934 0.000000 0.000000
# 5 0.000000 0.000000 0.000000 0.000000 0.049117 0.000000
# 6 0.000000 0.000000 0.000000 0.000000 0.000000 0.035946
#
#
# Mechanical properties :
#
#
# Convention : Reuss Voigt Hill
#
# Bulk Modulus (GPa) = 37.15557 37.16949 37.16253
# Shear Modulus (GPa) = 171.01348 20.49006 95.75177
#
# Velocity S-wave (km/s) = 9.38102 3.24718 7.01953
# Velocity P-wave (km/s) = 11.68153 5.76076 9.20990
#
# Compressibility (1/GPa) = 0.02691386
#
# Stress axis : x y z
#
# Youngs Moduli (GPa) = 75.23282 46.15770 76.52093
#
# Poissons Ratio (x) = 0.28981 -0.13091
# Poissons Ratio (y) = 0.47236 0.45820
# Poissons Ratio (z) = -0.12871 0.27639
#
# Static dielectric constant tensor:
#      x y z
#    x 1.769690 0.000000 0.000000 
#    y 0.000000 1.640040 0.000000 
#    z 0.000000 0.000000 1.877250 
# 
# From -- ./inp_files/24207.got.cif
#   From: 2010.05.17/outbox.cif.g08.bks.cpg/sg54_13_cif.got.tgz:24207.got - 2010.06.03 13:09:01.
