data_PCOD9422907
_publ_section_title
;
Structure prediction by ZEFSAII (Michael W. Deem and Ramdas Pophale) SiO2 
 PCOD9422907
Probable space group: P C C A
;
_chemical_formula_sum "Si O2"
_cell_formula_units_Z 48
_cell_length_a 26.727997
_cell_length_b 6.251364
_cell_length_c 13.390579
_cell_angle_alpha 90.000000
_cell_angle_beta 90.000000
_cell_angle_gamma 90.000000
_cell_volume 2237.384151
_symmetry_space_group_name_H-M "P C C A"
_symmetry_group_IT_number 54
_symmetry_cell_setting 'orthorhombic'
loop_
_space_group_symop_operation_xyz
x,y,z
1/2-x,-y,z
1/2+x,-y,1/2-z
-x,y,1/2-z
-x,-y,-z
1/2+x,y,-z
1/2-x,y,1/2+z
x,-y,1/2+z
loop_
_atom_site_type_symbol
_atom_site_label
_atom_site_fract_x
_atom_site_fract_y
_atom_site_fract_z
Si Si1 0.000000 0.692649 0.250000
Si Si2 0.616811 0.872383 0.130549
Si Si3 0.939881 0.935232 0.836497
Si Si4 0.973900 0.620413 0.590799
Si Si5 0.152868 0.796129 0.528366
Si Si6 0.250000 0.000000 0.545642
Si Si7 0.201485 0.606165 0.922595
O O1 0.964451 0.549054 0.179768
O O2 0.033377 0.833409 0.173857
O O3 0.585913 0.920671 0.228646
O O4 0.575918 0.749341 0.061747
O O5 0.661260 0.706770 0.150813
O O6 0.641305 0.073519 0.074498
O O7 0.986156 0.783432 0.862950
O O8 0.896946 0.849425 0.910482
O O9 0.000000 0.500000 0.500000
O O10 0.171556 0.561157 0.494112
O O11 0.199697 0.897327 0.590070
O O12 0.226181 0.198199 0.484139
O O13 0.250000 0.500000 0.873559
#
# Coordination Sequence:
#
# PCOD9422907 Si02
#       7
#     4   8   8   8   8   4   8
#     4  12  24  44  62  88 138 172 214 294 326 406
#     4  11  22  40  59  94 126 159 222 267 323 408
#     4  12  25  41  60  98 128 171 226 270 338 413
#     4  12  25  42  65  91 130 175 225 273 337 403
#     4  10  22  39  67  89 125 173 209 275 337 395
#     4   8  18  42  60  96 124 158 222 264 318 412
#     4   9  19  39  66  89 125 170 213 269 333 388
#
# _framework density 21.453626
#
# number of rings (size 3 to 8) (size 9 to 14) (size 15 to 20)
#    0.000    1.333    3.333    2.000    4.667    2.667 
#    0.000    7.500    0.000    0.000    0.000    0.000 
#    0.000    0.000    0.000    0.000    0.000    0.000 
#
# Total GULP energy -267328.530925 kJ/mol
# GULP energy per Si atom -5569.344394 kJ/mol
# Density = 2.140480 g / cm^3
# Si number density = 21.453626 Si / 1000 Ang^3
#
#
#
# Elastic Constant Matrix: (Units=GPa)
#
#
# Indices 1 2 3 4 5 6 
#
# 1 143.5953 44.5708 2.7424 0.0000 0.0000 0.0000
# 2 44.5708 109.6222 17.3307 0.0000 0.0000 0.0000
# 3 2.7424 17.3307 35.4908 0.0000 0.0000 0.0000
# 4 0.0000 0.0000 0.0000 15.4499 0.0000 0.0000
# 5 0.0000 0.0000 0.0000 0.0000 15.2243 0.0000
# 6 0.0000 0.0000 0.0000 0.0000 0.0000 47.0549
#
#
#
# Elastic Compliance Matrix: (Units=1/GPa)
#
#
# Indices 1 2 3 4 5 6 
#
# 1 0.008006 -0.003421 0.001052 0.000000 0.000000 0.000000
# 2 -0.003421 0.011348 -0.005277 0.000000 0.000000 0.000000
# 3 0.001052 -0.005277 0.030672 0.000000 0.000000 0.000000
# 4 0.000000 0.000000 0.000000 0.064725 0.000000 0.000000
# 5 0.000000 0.000000 0.000000 0.000000 0.065684 0.000000
# 6 0.000000 0.000000 0.000000 0.000000 0.000000 0.021252
#
#
# Mechanical properties :
#
#
# Convention : Reuss Voigt Hill
#
# Bulk Modulus (GPa) = 28.79109 46.44403 37.61756
# Shear Modulus (GPa) = 21.87642 30.48345 26.17993
#
# Velocity S-wave (km/s) = 3.19675 3.77357 3.49707
# Velocity P-wave (km/s) = 5.20335 6.37825 5.82052
#
# Compressibility (1/GPa) = 0.03473297
#
# Stress axis : x y z
#
# Youngs Moduli (GPa) = 124.90777 88.12452 32.60328
#
# Poissons Ratio (x) = 0.30151 -0.03430
# Poissons Ratio (y) = 0.42736 0.17204
# Poissons Ratio (z) = -0.13142 0.46502
#
# Static dielectric constant tensor:
#      x y z
#    x 1.832370 0.000000 0.000000 
#    y 0.000000 1.846240 0.000000 
#    z 0.000000 0.000000 1.770490 
# 
# From -- ./inp_files/15325.got.cif
#   From: 2010.05.17/outbox.cif.g08.bks.cpg/sg54_8_cif.got.tgz:15325.got - 2010.06.03 13:09:01.
