data_PCOD9422504
_publ_section_title
;
Structure prediction by ZEFSAII (Michael W. Deem and Ramdas Pophale) SiO2 
 PCOD9422504
Probable space group: P C C A
;
_chemical_formula_sum "Si O2"
_cell_formula_units_Z 56
_cell_length_a 11.801349
_cell_length_b 13.867456
_cell_length_c 13.890021
_cell_angle_alpha 90.000000
_cell_angle_beta 90.000000
_cell_angle_gamma 90.000000
_cell_volume 2273.167053
_symmetry_space_group_name_H-M "P C C A"
_symmetry_group_IT_number 54
_symmetry_cell_setting 'orthorhombic'
loop_
_space_group_symop_operation_xyz
x,y,z
1/2-x,-y,z
1/2+x,-y,1/2-z
-x,y,1/2-z
-x,-y,-z
1/2+x,y,-z
1/2-x,y,1/2+z
x,-y,1/2+z
loop_
_atom_site_type_symbol
_atom_site_label
_atom_site_fract_x
_atom_site_fract_y
_atom_site_fract_z
Si Si1 0.307172 0.398761 0.859651
Si Si2 0.716953 0.108786 0.520209
Si Si3 0.115568 0.240588 0.871343
Si Si4 0.303923 0.202654 0.174311
Si Si5 0.865679 0.070980 0.227560
Si Si6 0.001236 0.617831 0.500708
Si Si7 0.304736 0.398123 0.646354
O O1 0.250000 0.500000 0.886838
O O2 0.211937 0.319767 0.853575
O O3 0.391146 0.360107 0.938728
O O4 0.357922 0.412284 0.752838
O O5 0.831059 0.166598 0.551657
O O6 0.661391 0.151868 0.424530
O O7 0.640125 0.104845 0.616146
O O8 0.750000 0.000000 0.496548
O O9 0.115929 0.188904 0.767287
O O10 0.017662 0.311136 0.910492
O O11 0.180612 0.158099 0.205337
O O12 0.286891 0.315069 0.154678
O O13 0.000000 0.045343 0.250000
O O14 0.750000 0.000000 0.235668
O O15 0.108845 0.637154 0.567471
O O16 0.000000 0.500000 0.500000
O O17 0.250000 0.500000 0.619770
#
# Coordination Sequence:
#
# PCOD9422504 Si02
#       7
#     8   8   8   8   8   8   8
#     4  10  21  40  62  94 138 192 248 301 375 476
#     4  10  21  43  75 112 152 204 266 333 407 481
#     4  10  22  41  67 107 143 196 255 321 391 471
#     4  10  21  43  74 102 155 200 264 326 399 480
#     4  10  23  46  82 121 164 213 274 340 415 493
#     4  12  23  36  67 100 140 188 251 309 391 476
#     4  10  23  40  65  97 144 194 250 308 381 463
#
# _framework density 24.635231999999998
#
# number of rings (size 3 to 8) (size 9 to 14) (size 15 to 20)
#    0.000    1.714    2.857    0.857    2.000    4.000 
#    0.000    6.429   15.714    0.000    0.000    0.000 
#    0.000    0.000    0.000    0.000    0.000    0.000 
#
# Total GULP energy -312699.013615 kJ/mol
# GULP energy per Si atom -5583.910957 kJ/mol
# Density = 2.457916 g / cm^3
# Si number density = 24.635232 Si / 1000 Ang^3
#
#
#
# Elastic Constant Matrix: (Units=GPa)
#
#
# Indices 1 2 3 4 5 6 
#
# 1 144.3459 36.8176 52.5891 0.0000 0.0000 0.0000
# 2 36.8176 144.0897 40.9649 0.0000 0.0000 0.0000
# 3 52.5891 40.9649 172.3388 0.0000 0.0000 0.0000
# 4 0.0000 0.0000 0.0000 49.0468 0.0000 0.0000
# 5 0.0000 0.0000 0.0000 0.0000 -20.4673 0.0000
# 6 0.0000 0.0000 0.0000 0.0000 0.0000 28.7212
#
#
#
# Elastic Compliance Matrix: (Units=1/GPa)
#
#
# Indices 1 2 3 4 5 6 
#
# 1 0.008071 -0.001461 -0.002116 0.000000 0.000000 0.000000
# 2 -0.001461 0.007708 -0.001386 0.000000 0.000000 0.000000
# 3 -0.002116 -0.001386 0.006778 0.000000 0.000000 0.000000
# 4 0.000000 0.000000 0.000000 0.020389 0.000000 0.000000
# 5 0.000000 0.000000 0.000000 0.000000 -0.048858 0.000000
# 6 0.000000 0.000000 0.000000 0.000000 0.000000 0.034817
#
#
# Mechanical properties :
#
#
# Convention : Reuss Voigt Hill
#
# Bulk Modulus (GPa) = 79.17209 80.16864 79.67036
# Shear Modulus (GPa) = 116.17128 33.48702 74.82915
#
# Velocity S-wave (km/s) = 6.87451 3.69089 5.51732
# Velocity P-wave (km/s) = 9.75804 7.12576 8.54388
#
# Compressibility (1/GPa) = 0.01263071
#
# Stress axis : x y z
#
# Youngs Moduli (GPa) = 123.89708 129.74340 147.54382
#
# Poissons Ratio (x) = 0.18954 0.31216
# Poissons Ratio (y) = 0.18100 0.20454
# Poissons Ratio (z) = 0.26213 0.17986
#
# Static dielectric constant tensor:
#      x y z
#    x 1.963050 0.000000 0.000000 
#    y 0.000000 1.994620 0.000000 
#    z 0.000000 0.000000 2.051340 
# 
# From -- ./inp_files/12735.got.cif
#   From: 2010.05.17/outbox.cif.g08.bks.cpg/sg54_7_cif.got.tgz:12735.got - 2010.06.03 13:09:01.
