data_PCOD9422619
_publ_section_title
;
Structure prediction by ZEFSAII (Michael W. Deem and Ramdas Pophale) SiO2 
 PCOD9422619
Probable space group: P C C A
;
_chemical_formula_sum "Si O2"
_cell_formula_units_Z 32
_cell_length_a 17.810265
_cell_length_b 7.154642
_cell_length_c 11.608288
_cell_angle_alpha 90.000000
_cell_angle_beta 90.000000
_cell_angle_gamma 90.000000
_cell_volume 1479.198519
_symmetry_space_group_name_H-M "P C C A"
_symmetry_group_IT_number 54
_symmetry_cell_setting 'orthorhombic'
loop_
_space_group_symop_operation_xyz
x,y,z
1/2-x,-y,z
1/2+x,-y,1/2-z
-x,y,1/2-z
-x,-y,-z
1/2+x,y,-z
1/2-x,y,1/2+z
x,-y,1/2+z
loop_
_atom_site_type_symbol
_atom_site_label
_atom_site_fract_x
_atom_site_fract_y
_atom_site_fract_z
Si Si1 0.665240 0.924547 0.196945
Si Si2 0.407501 0.177547 0.139671
Si Si3 0.074778 0.239389 0.898549
Si Si4 0.332356 0.583782 0.457638
O O1 0.618573 0.975786 0.312129
O O2 0.626251 0.053841 0.097725
O O3 0.750000 0.000000 0.210328
O O4 0.660899 0.713101 0.155858
O O5 0.488508 0.188345 0.079792
O O6 0.416760 0.285145 0.261775
O O7 0.346118 0.278629 0.063885
O O8 0.107833 0.416046 0.963486
O O9 0.250000 0.500000 0.459532
#
# Coordination Sequence:
#
# PCOD9422619 Si02
#       4
#     8   8   8   8
#     4  10  21  42  62  94 135 162 216 279 315 384
#     4   9  22  43  62  95 132 169 218 263 330 391
#     4   9  21  46  59  95 136 162 220 274 318 390
#     4  12  22  39  71  95 126 181 217 270 328 385
#
# _framework density 21.633337000000001
#
# number of rings (size 3 to 8) (size 9 to 14) (size 15 to 20)
#    1.500    0.500    2.500    0.750    0.000    5.000 
#   13.500    0.000    0.000    0.000    0.000    0.000 
#    0.000    0.000    0.000    0.000    0.000    0.000 
#
# Total GULP energy -178384.180525 kJ/mol
# GULP energy per Si atom -5574.505641 kJ/mol
# Density = 2.158410 g / cm^3
# Si number density = 21.633337 Si / 1000 Ang^3
#
#
#
# Elastic Constant Matrix: (Units=GPa)
#
#
# Indices 1 2 3 4 5 6 
#
# 1 106.9934 73.0701 18.9125 0.0000 0.0000 0.0000
# 2 73.0701 107.3461 31.3062 0.0000 0.0000 0.0000
# 3 18.9125 31.3062 44.7779 0.0000 0.0000 0.0000
# 4 0.0000 0.0000 0.0000 22.3416 0.0000 0.0000
# 5 0.0000 0.0000 0.0000 0.0000 17.7805 0.0000
# 6 0.0000 0.0000 0.0000 0.0000 0.0000 34.6711
#
#
#
# Elastic Compliance Matrix: (Units=1/GPa)
#
#
# Indices 1 2 3 4 5 6 
#
# 1 0.017515 -0.012266 0.001178 0.000000 0.000000 0.000000
# 2 -0.012266 0.020292 -0.009006 0.000000 0.000000 0.000000
# 3 0.001178 -0.009006 0.028131 0.000000 0.000000 0.000000
# 4 0.000000 0.000000 0.000000 0.044760 0.000000 0.000000
# 5 0.000000 0.000000 0.000000 0.000000 0.056241 0.000000
# 6 0.000000 0.000000 0.000000 0.000000 0.000000 0.028842
#
#
# Mechanical properties :
#
#
# Convention : Reuss Voigt Hill
#
# Bulk Modulus (GPa) = 38.83495 56.18836 47.51166
# Shear Modulus (GPa) = 20.44545 24.01387 22.22966
#
# Velocity S-wave (km/s) = 3.07757 3.33534 3.20904
# Velocity P-wave (km/s) = 5.53344 6.39235 5.97834
#
# Compressibility (1/GPa) = 0.02575000
#
# Stress axis : x y z
#
# Youngs Moduli (GPa) = 57.09359 49.28145 35.54738
#
# Poissons Ratio (x) = 0.60449 -0.04187
# Poissons Ratio (y) = 0.70031 0.32014
# Poissons Ratio (z) = -0.06726 0.44383
#
# Static dielectric constant tensor:
#      x y z
#    x 1.776080 0.000000 0.000000 
#    y 0.000000 1.757920 0.000000 
#    z 0.000000 0.000000 1.821950 
# 
# From -- ./inp_files/13838.got.cif
#   From: 2010.05.17/outbox.cif.g08.bks.cpg/sg54_7_cif.got.tgz:13838.got - 2010.06.03 13:09:01.
