data_PCOD9422079
_publ_section_title
;
Structure prediction by ZEFSAII (Michael W. Deem and Ramdas Pophale) SiO2 
 PCOD9422079
Probable space group: P C C A
;
_chemical_formula_sum "Si O2"
_cell_formula_units_Z 60
_cell_length_a 8.485144
_cell_length_b 11.892257
_cell_length_c 26.530777
_cell_angle_alpha 90.000000
_cell_angle_beta 90.000000
_cell_angle_gamma 90.000000
_cell_volume 2677.154728
_symmetry_space_group_name_H-M "P C C A"
_symmetry_group_IT_number 54
_symmetry_cell_setting 'orthorhombic'
loop_
_space_group_symop_operation_xyz
x,y,z
1/2-x,-y,z
1/2+x,-y,1/2-z
-x,y,1/2-z
-x,-y,-z
1/2+x,y,-z
1/2-x,y,1/2+z
x,-y,1/2+z
loop_
_atom_site_type_symbol
_atom_site_label
_atom_site_fract_x
_atom_site_fract_y
_atom_site_fract_z
Si Si1 0.899901 0.931207 0.959766
Si Si2 0.250000 0.000000 0.214079
Si Si3 0.901269 0.572011 0.879900
Si Si4 0.757414 0.298617 0.968078
Si Si5 0.782662 0.629945 0.662865
Si Si6 0.907793 0.622803 0.061805
Si Si7 0.480813 0.047254 0.853607
Si Si8 0.829355 0.149056 0.695125
O O1 0.816746 0.821047 0.981736
O O2 0.750000 0.000000 0.939849
O O3 0.007446 0.915861 0.910894
O O4 0.000000 0.000000 0.000000
O O5 0.364438 0.930157 0.178470
O O6 0.335945 0.087170 0.251310
O O7 0.750000 0.500000 0.859695
O O8 0.826494 0.662509 0.917049
O O9 0.027186 0.630383 0.842840
O O10 0.006143 0.488417 0.915657
O O11 0.942822 0.302476 0.956233
O O12 0.705582 0.380577 0.013372
O O13 0.750000 0.500000 0.675416
O O14 0.702999 0.658692 0.608384
O O15 0.690126 0.717582 0.698169
O O16 0.449609 0.913170 0.843311
O O17 0.338021 0.111113 0.827899
#
# Coordination Sequence:
#
# PCOD9422079 Si02
#       8
#     8   4   8   8   8   8   8   8
#     4  12  27  39  55  85 131 175 208 257 316 397
#     4  10  20  44  70 102 118 160 220 274 322 372
#     4   9  19  36  56  81 113 159 219 263 309 367
#     4  11  21  35  53  77 114 162 218 263 317 363
#     4  10  21  36  57  89 128 163 207 256 333 388
#     4  10  21  34  55  79 114 164 211 269 306 382
#     4  10  22  41  65  93 125 163 215 270 320 373
#     4  10  21  37  69  93 125 160 212 272 327 390
#
# _framework density 22.411854000000002
#
# number of rings (size 3 to 8) (size 9 to 14) (size 15 to 20)
#    0.000    1.867    0.667    4.400    5.600    3.733 
#    0.000    0.000    0.000    3.200    0.000    2.800 
#    0.000    0.000    0.000    0.000    0.000    0.000 
#
# Total GULP energy -334701.888608 kJ/mol
# GULP energy per Si atom -5578.364810 kJ/mol
# Density = 2.236084 g / cm^3
# Si number density = 22.411854 Si / 1000 Ang^3
#
#
#
# Elastic Constant Matrix: (Units=GPa)
#
#
# Indices 1 2 3 4 5 6 
#
# 1 95.6960 5.4519 15.1702 0.0000 0.0000 0.0000
# 2 5.4519 90.8076 4.7255 0.0000 0.0000 0.0000
# 3 15.1702 4.7255 59.8910 0.0000 0.0000 0.0000
# 4 0.0000 0.0000 0.0000 -2.6521 0.0000 0.0000
# 5 0.0000 0.0000 0.0000 0.0000 20.8199 0.0000
# 6 0.0000 0.0000 0.0000 0.0000 0.0000 35.5398
#
#
#
# Elastic Compliance Matrix: (Units=1/GPa)
#
#
# Indices 1 2 3 4 5 6 
#
# 1 0.010911 -0.000513 -0.002723 0.000000 0.000000 0.000000
# 2 -0.000513 0.011082 -0.000744 0.000000 0.000000 0.000000
# 3 -0.002723 -0.000744 0.017445 0.000000 0.000000 0.000000
# 4 0.000000 0.000000 0.000000 -0.377066 0.000000 0.000000
# 5 0.000000 0.000000 0.000000 0.000000 0.048031 0.000000
# 6 0.000000 0.000000 0.000000 0.000000 0.000000 0.028137
#
#
# Mechanical properties :
#
#
# Convention : Reuss Voigt Hill
#
# Bulk Modulus (GPa) = 31.76986 33.00997 32.38991
# Shear Modulus (GPa) = -20.57566 25.47799 2.45117
#
# Velocity S-wave (km/s) = -3.03325 3.37532 1.04693
# Velocity P-wave (km/s) = 1.39238 5.47276 3.99311
#
# Compressibility (1/GPa) = 0.03147637
#
# Stress axis : x y z
#
# Youngs Moduli (GPa) = 91.65324 90.23765 57.32139
#
# Poissons Ratio (x) = 0.04632 0.15609
# Poissons Ratio (y) = 0.04705 0.04267
# Poissons Ratio (z) = 0.24958 0.06717
#
# Static dielectric constant tensor:
#      x y z
#    x 1.828430 0.000000 0.000000 
#    y 0.000000 1.952710 0.000000 
#    z 0.000000 0.000000 1.806060 
# 
# From -- ./inp_files/27898.got.cif
#   From: 2010.05.17/outbox.cif.g08.bks.cpg/sg54_14_cif.got.tgz:27898.got - 2010.06.03 13:09:01.
