data_PCOD9422200
_publ_section_title
;
Structure prediction by ZEFSAII (Michael W. Deem and Ramdas Pophale) SiO2 
 PCOD9422200
Probable space group: P C C A
;
_chemical_formula_sum "Si O2"
_cell_formula_units_Z 64
_cell_length_a 15.369944
_cell_length_b 11.645989
_cell_length_c 17.824589
_cell_angle_alpha 90.000000
_cell_angle_beta 90.000000
_cell_angle_gamma 90.000000
_cell_volume 3190.569325
_symmetry_space_group_name_H-M "P C C A"
_symmetry_group_IT_number 54
_symmetry_cell_setting 'orthorhombic'
loop_
_space_group_symop_operation_xyz
x,y,z
1/2-x,-y,z
1/2+x,-y,1/2-z
-x,y,1/2-z
-x,-y,-z
1/2+x,y,-z
1/2-x,y,1/2+z
x,-y,1/2+z
loop_
_atom_site_type_symbol
_atom_site_label
_atom_site_fract_x
_atom_site_fract_y
_atom_site_fract_z
Si Si1 0.650232 0.003926 0.945069
Si Si2 0.568854 0.749812 0.460808
Si Si3 0.497726 0.842476 0.616533
Si Si4 0.438722 0.251142 0.822770
Si Si5 0.848363 0.461138 0.112695
Si Si6 0.849901 0.496094 0.445665
Si Si7 0.007955 0.402119 0.665979
Si Si8 0.648540 0.979125 0.123682
O O1 0.582226 0.929037 0.897441
O O2 0.750000 0.000000 0.920728
O O3 0.623701 0.136706 0.943062
O O4 0.643353 0.963632 0.032581
O O5 0.520035 0.781772 0.537246
O O6 0.501422 0.733877 0.394034
O O7 0.625134 0.634862 0.465381
O O8 0.477277 0.734220 0.667948
O O9 0.582787 0.915457 0.639909
O O10 0.500000 0.252891 0.750000
O O11 0.372383 0.356459 0.832755
O O12 0.388135 0.131727 0.833778
O O13 0.750000 0.500000 0.123815
O O14 0.916744 0.562324 0.128703
O O15 0.858068 0.433171 0.023741
O O16 0.750000 0.500000 0.420687
O O17 0.915919 0.541761 0.383324
O O18 0.000000 0.448291 0.750000
O O19 0.750000 0.000000 0.141224
#
# Coordination Sequence:
#
# PCOD9422200 Si02
#       8
#     8   8   8   8   8   8   8   8
#     4  10  21  36  66 100 127 167 215 276 333 385
#     4  11  20  42  63  91 127 167 225 276 328 392
#     4  11  21  41  65  93 130 172 217 277 329 392
#     4  12  24  42  65  93 130 180 225 273 339 404
#     4  11  25  43  69  97 127 170 228 280 330 399
#     4  11  25  42  70 100 129 176 229 281 333 406
#     4  12  26  43  63  96 138 176 211 270 343 402
#     4  10  22  39  67  95 124 166 221 274 329 397
#
# _framework density 20.059114999999998
#
# number of rings (size 3 to 8) (size 9 to 14) (size 15 to 20)
#    0.000    1.000    5.000    2.250    3.500    3.000 
#    0.000    0.625    0.000    0.000    0.000    0.000 
#    0.000    0.000    0.000    0.000    0.000    0.000 
#
# Total GULP energy -357648.636558 kJ/mol
# GULP energy per Si atom -5588.259946 kJ/mol
# Density = 2.001346 g / cm^3
# Si number density = 20.059115 Si / 1000 Ang^3
#
#
#
# Elastic Constant Matrix: (Units=GPa)
#
#
# Indices 1 2 3 4 5 6 
#
# 1 159.8213 61.3407 58.8525 0.0000 0.0000 0.0000
# 2 61.3407 125.0757 41.4651 0.0000 0.0000 0.0000
# 3 58.8525 41.4651 66.8899 0.0000 0.0000 0.0000
# 4 0.0000 0.0000 0.0000 -5.1154 0.0000 0.0000
# 5 0.0000 0.0000 0.0000 0.0000 13.9614 0.0000
# 6 0.0000 0.0000 0.0000 0.0000 0.0000 21.3698
#
#
#
# Elastic Compliance Matrix: (Units=1/GPa)
#
#
# Indices 1 2 3 4 5 6 
#
# 1 0.009821 -0.002457 -0.007118 0.000000 0.000000 0.000000
# 2 -0.002457 0.010678 -0.004458 0.000000 0.000000 0.000000
# 3 -0.007118 -0.004458 0.023976 0.000000 0.000000 0.000000
# 4 0.000000 0.000000 0.000000 -0.195487 0.000000 0.000000
# 5 0.000000 0.000000 0.000000 0.000000 0.071626 0.000000
# 6 0.000000 0.000000 0.000000 0.000000 0.000000 0.046795
#
#
# Mechanical properties :
#
#
# Convention : Reuss Voigt Hill
#
# Bulk Modulus (GPa) = 60.93841 75.01150 67.97495
# Shear Modulus (GPa) = 5297.63485 18.71837 2658.17661
#
# Velocity S-wave (km/s) = 51.44652 3.05808 36.44240
# Velocity P-wave (km/s) = 59.66103 7.06722 42.48167
#
# Compressibility (1/GPa) = 0.01641001
#
# Stress axis : x y z
#
# Youngs Moduli (GPa) = 101.82211 93.65205 41.70840
#
# Poissons Ratio (x) = 0.23008 0.29688
# Poissons Ratio (y) = 0.25015 0.18592
# Poissons Ratio (z) = 0.72477 0.41747
#
# Static dielectric constant tensor:
#      x y z
#    x 1.706450 0.000000 0.000000 
#    y 0.000000 1.773060 0.000000 
#    z 0.000000 0.000000 1.740030 
# 
# From -- ./inp_files/18230.got.cif
#   From: 2010.05.17/outbox.cif.g08.bks.cpg/sg54_10_cif.got.tgz:18230.got - 2010.06.03 13:09:01.
