data_PCOD9422342
_publ_section_title
;
Structure prediction by ZEFSAII (Michael W. Deem and Ramdas Pophale) SiO2 
 PCOD9422342
Probable space group: P C C A
;
_chemical_formula_sum "Si O2"
_cell_formula_units_Z 36
_cell_length_a 13.005397
_cell_length_b 10.796230
_cell_length_c 11.376247
_cell_angle_alpha 90.000000
_cell_angle_beta 90.000000
_cell_angle_gamma 90.000000
_cell_volume 1597.330392
_symmetry_space_group_name_H-M "P C C A"
_symmetry_group_IT_number 54
_symmetry_cell_setting 'orthorhombic'
loop_
_space_group_symop_operation_xyz
x,y,z
1/2-x,-y,z
1/2+x,-y,1/2-z
-x,y,1/2-z
-x,-y,-z
1/2+x,y,-z
1/2-x,y,1/2+z
x,-y,1/2+z
loop_
_atom_site_type_symbol
_atom_site_label
_atom_site_fract_x
_atom_site_fract_y
_atom_site_fract_z
Si Si1 0.920374 0.186459 0.853744
Si Si2 0.613326 0.216317 0.769887
Si Si3 0.250000 0.000000 0.633045
Si Si4 0.559724 0.369760 0.998223
Si Si5 0.222633 0.367214 0.801244
O O1 0.845438 0.084429 0.915613
O O2 0.846048 0.285095 0.787244
O O3 0.000000 0.140178 0.750000
O O4 0.989160 0.262211 0.944987
O O5 0.500000 0.169524 0.750000
O O6 0.685971 0.101651 0.796645
O O7 0.672159 0.294515 0.671299
O O8 0.599232 0.315642 0.875175
O O9 0.656788 0.385903 0.082935
O O10 0.500000 0.500000 0.000000
O O11 0.250000 0.500000 0.749233
#
# Coordination Sequence:
#
# PCOD9422342 Si02
#       5
#     8   8   4   8   8
#     4   9  20  40  61  87 122 161 206 257 310 368
#     4  11  24  41  62  90 124 165 210 257 314 376
#     4  10  22  40  62  86 120 166 212 260 308 368
#     4  11  23  40  65  95 127 162 206 260 319 376
#     4  10  21  38  62  91 124 161 203 255 314 376
#
# _framework density 22.537604000000002
#
# number of rings (size 3 to 8) (size 9 to 14) (size 15 to 20)
#    0.000    1.778    0.000    3.333    0.000   10.667 
#    0.000   11.111    0.000    0.000    0.000    0.000 
#    0.000    0.000    0.000    0.000    0.000    0.000 
#
# Total GULP energy -200819.341382 kJ/mol
# GULP energy per Si atom -5578.315038 kJ/mol
# Density = 2.248631 g / cm^3
# Si number density = 22.537604 Si / 1000 Ang^3
#
#
#
# Elastic Constant Matrix: (Units=GPa)
#
#
# Indices 1 2 3 4 5 6 
#
# 1 166.6335 64.7343 25.7043 0.0000 0.0000 0.0000
# 2 64.7343 129.8612 17.3186 0.0000 0.0000 0.0000
# 3 25.7043 17.3186 47.1443 0.0000 0.0000 0.0000
# 4 0.0000 0.0000 0.0000 14.3882 0.0000 0.0000
# 5 0.0000 0.0000 0.0000 0.0000 25.9793 0.0000
# 6 0.0000 0.0000 0.0000 0.0000 0.0000 34.7561
#
#
#
# Elastic Compliance Matrix: (Units=1/GPa)
#
#
# Indices 1 2 3 4 5 6 
#
# 1 0.007821 -0.003501 -0.002978 0.000000 0.000000 0.000000
# 2 -0.003501 0.009665 -0.001641 0.000000 0.000000 0.000000
# 3 -0.002978 -0.001641 0.023438 0.000000 0.000000 0.000000
# 4 0.000000 0.000000 0.000000 0.069502 0.000000 0.000000
# 5 0.000000 0.000000 0.000000 0.000000 0.038492 0.000000
# 6 0.000000 0.000000 0.000000 0.000000 0.000000 0.028772
#
#
# Mechanical properties :
#
#
# Convention : Reuss Voigt Hill
#
# Bulk Modulus (GPa) = 40.51461 62.12815 51.32138
# Shear Modulus (GPa) = 24.73312 30.75016 27.74164
#
# Velocity S-wave (km/s) = 3.31632 3.69778 3.51223
# Velocity P-wave (km/s) = 5.71659 6.77183 6.26646
#
# Compressibility (1/GPa) = 0.02468245
#
# Stress axis : x y z
#
# Youngs Moduli (GPa) = 127.86422 103.46766 42.66568
#
# Poissons Ratio (x) = 0.36229 0.12705
# Poissons Ratio (y) = 0.44771 0.07003
# Poissons Ratio (z) = 0.38076 0.16983
#
# Static dielectric constant tensor:
#      x y z
#    x 1.921060 0.000000 0.000000 
#    y 0.000000 1.827140 0.000000 
#    z 0.000000 0.000000 1.851260 
# 
# From -- ./inp_files/7377.got.cif
#   From: 2010.05.17/outbox.cif.g08.bks.cpg/sg54_4_cif.got.tgz:7377.got - 2010.06.03 13:09:01.
