data_PCOD9422009
_publ_section_title
;
Structure prediction by ZEFSAII (Michael W. Deem and Ramdas Pophale) SiO2 
 PCOD9422009
Probable space group: P C C A
;
_chemical_formula_sum "Si O2"
_cell_formula_units_Z 32
_cell_length_a 7.666790
_cell_length_b 5.334235
_cell_length_c 32.937586
_cell_angle_alpha 90.000000
_cell_angle_beta 90.000000
_cell_angle_gamma 90.000000
_cell_volume 1347.030654
_symmetry_space_group_name_H-M "P C C A"
_symmetry_group_IT_number 54
_symmetry_cell_setting 'orthorhombic'
loop_
_space_group_symop_operation_xyz
x,y,z
1/2-x,-y,z
1/2+x,-y,1/2-z
-x,y,1/2-z
-x,-y,-z
1/2+x,y,-z
1/2-x,y,1/2+z
x,-y,1/2+z
loop_
_atom_site_type_symbol
_atom_site_label
_atom_site_fract_x
_atom_site_fract_y
_atom_site_fract_z
Si Si1 0.565086 0.352145 0.667807
Si Si2 0.250000 0.500000 0.979620
Si Si3 0.250000 0.000000 0.533903
Si Si4 0.250000 0.000000 0.281565
Si Si5 0.500000 0.382888 0.250000
Si Si6 0.068932 0.837786 0.918247
O O1 0.750000 0.500000 0.661660
O O2 0.599560 0.084202 0.688418
O O3 0.479014 0.487375 0.706187
O O4 0.499595 0.286881 0.623324
O O5 0.105309 0.605878 0.948602
O O6 0.275505 0.749905 0.006688
O O7 0.077194 0.012113 0.561416
O O8 0.174306 0.779713 0.255335
O O9 0.250000 0.000000 0.912296
#
# Coordination Sequence:
#
# PCOD9422009 Si02
#       6
#     8   4   4   4   4   8
#     4  10  21  41  72 103 137 195 255 297 385 461
#     4  12  26  50  78 116 158 212 254 324 394 470
#     4  12  30  47  77 122 158 196 274 316 392 474
#     4  10  20  41  67  98 140 188 246 288 378 446
#     4  10  22  40  72 102 142 194 244 308 366 470
#     4  12  26  47  81 110 155 205 252 329 387 464
#
# _framework density 23.755956000000001
#
# number of rings (size 3 to 8) (size 9 to 14) (size 15 to 20)
#    0.000    1.000    3.750    2.250    3.500    0.000 
#    0.000   10.000   11.000    0.000    3.250    0.000 
#    0.000    0.000    0.000    0.000    0.000    0.000 
#
# Total GULP energy -178507.223615 kJ/mol
# GULP energy per Si atom -5578.350738 kJ/mol
# Density = 2.370189 g / cm^3
# Si number density = 23.755956 Si / 1000 Ang^3
#
#
#
# Elastic Constant Matrix: (Units=GPa)
#
#
# Indices 1 2 3 4 5 6 
#
# 1 62.7455 21.6537 56.8697 0.0000 0.0000 0.0000
# 2 21.6537 123.6844 75.2769 0.0000 0.0000 0.0000
# 3 56.8697 75.2769 214.6366 0.0000 0.0000 0.0000
# 4 0.0000 0.0000 0.0000 31.0316 0.0000 0.0000
# 5 0.0000 0.0000 0.0000 0.0000 18.7813 0.0000
# 6 0.0000 0.0000 0.0000 0.0000 0.0000 35.9530
#
#
#
# Elastic Compliance Matrix: (Units=1/GPa)
#
#
# Indices 1 2 3 4 5 6 
#
# 1 0.020988 -0.000369 -0.005432 0.000000 0.000000 0.000000
# 2 -0.000369 0.010286 -0.003510 0.000000 0.000000 0.000000
# 3 -0.005432 -0.003510 0.007329 0.000000 0.000000 0.000000
# 4 0.000000 0.000000 0.000000 0.032225 0.000000 0.000000
# 5 0.000000 0.000000 0.000000 0.000000 0.053244 0.000000
# 6 0.000000 0.000000 0.000000 0.000000 0.000000 0.027814
#
#
# Mechanical properties :
#
#
# Convention : Reuss Voigt Hill
#
# Bulk Modulus (GPa) = 50.04347 78.74079 64.39213
# Shear Modulus (GPa) = 28.22202 33.63759 30.92981
#
# Velocity S-wave (km/s) = 3.45047 3.76701 3.61221
# Velocity P-wave (km/s) = 6.08159 7.22068 6.67547
#
# Compressibility (1/GPa) = 0.01998263
#
# Stress axis : x y z
#
# Youngs Moduli (GPa) = 47.64737 97.22218 136.44245
#
# Poissons Ratio (x) = 0.03583 0.74109
# Poissons Ratio (y) = 0.01756 0.47888
# Poissons Ratio (z) = 0.25880 0.34122
#
# Static dielectric constant tensor:
#      x y z
#    x 2.024620 0.000000 0.000000 
#    y 0.000000 1.984090 0.000000 
#    z 0.000000 0.000000 1.943540 
# 
# From -- ./inp_files/27448.got.cif
#   From: 2010.05.17/outbox.cif.g08.bks.cpg/sg54_14_cif.got.tgz:27448.got - 2010.06.03 13:09:01.
