data_PCOD9422779
_publ_section_title
;
Structure prediction by ZEFSAII (Michael W. Deem and Ramdas Pophale) SiO2 
 PCOD9422779
Probable space group: P C C A
;
_chemical_formula_sum "Si O2"
_cell_formula_units_Z 32
_cell_length_a 5.478764
_cell_length_b 16.618291
_cell_length_c 17.112848
_cell_angle_alpha 90.000000
_cell_angle_beta 90.000000
_cell_angle_gamma 90.000000
_cell_volume 1558.085356
_symmetry_space_group_name_H-M "P C C A"
_symmetry_group_IT_number 54
_symmetry_cell_setting 'orthorhombic'
loop_
_space_group_symop_operation_xyz
x,y,z
1/2-x,-y,z
1/2+x,-y,1/2-z
-x,y,1/2-z
-x,-y,-z
1/2+x,y,-z
1/2-x,y,1/2+z
x,-y,1/2+z
loop_
_atom_site_type_symbol
_atom_site_label
_atom_site_fract_x
_atom_site_fract_y
_atom_site_fract_z
Si Si1 0.000000 0.295564 0.750000
Si Si2 0.750000 0.000000 0.199205
Si Si3 0.632216 0.421058 0.828566
Si Si4 0.652804 0.175692 0.668829
Si Si5 0.472401 0.698595 0.451343
O O1 0.182079 0.353461 0.703226
O O2 0.126609 0.235832 0.811340
O O3 0.727309 0.916006 0.153536
O O4 0.500000 0.007265 0.250000
O O5 0.750000 0.500000 0.865642
O O6 0.500000 0.450475 0.750000
O O7 0.463598 0.374198 0.888926
O O8 0.500000 0.175634 0.750000
O O9 0.518634 0.218331 0.597620
O O10 0.725891 0.693564 0.498354
#
# Coordination Sequence:
#
# PCOD9422779 Si02
#       5
#     4   4   8   8   8
#     4  12  18  40  70  96 128 164 226 282 326 392
#     4  10  22  36  66 108 130 160 220 296 332 374
#     4  12  25  41  69  98 128 173 233 286 332 393
#     4  11  22  41  70  98 130 175 227 280 329 399
#     4  12  27  44  66  97 140 184 220 267 339 406
#
# _framework density 20.538028000000001
#
# number of rings (size 3 to 8) (size 9 to 14) (size 15 to 20)
#    0.000    0.500    7.500    1.500    0.000    1.000 
#    0.000    1.250    0.000    0.000    0.000    0.000 
#    0.000    0.000    0.000    0.000    0.000    0.000 
#
# Total GULP energy -178818.324553 kJ/mol
# GULP energy per Si atom -5588.072642 kJ/mol
# Density = 2.049128 g / cm^3
# Si number density = 20.538028 Si / 1000 Ang^3
#
#
#
# Elastic Constant Matrix: (Units=GPa)
#
#
# Indices 1 2 3 4 5 6 
#
# 1 93.4716 21.6640 31.1960 0.0000 0.0000 0.0000
# 2 21.6640 156.9330 23.8345 0.0000 0.0000 0.0000
# 3 31.1960 23.8345 75.8373 0.0000 0.0000 0.0000
# 4 0.0000 0.0000 0.0000 -0.1094 0.0000 0.0000
# 5 0.0000 0.0000 0.0000 0.0000 38.6089 0.0000
# 6 0.0000 0.0000 0.0000 0.0000 0.0000 64.8095
#
#
#
# Elastic Compliance Matrix: (Units=1/GPa)
#
#
# Indices 1 2 3 4 5 6 
#
# 1 0.012547 -0.000996 -0.004848 0.000000 0.000000 0.000000
# 2 -0.000996 0.006771 -0.001718 0.000000 0.000000 0.000000
# 3 -0.004848 -0.001718 0.015721 0.000000 0.000000 0.000000
# 4 0.000000 0.000000 0.000000 -9.143935 0.000000 0.000000
# 5 0.000000 0.000000 0.000000 0.000000 0.025901 0.000000
# 6 0.000000 0.000000 0.000000 0.000000 0.000000 0.015430
#
#
# Mechanical properties :
#
#
# Convention : Reuss Voigt Hill
#
# Bulk Modulus (GPa) = 50.21706 53.29231 51.75469
# Shear Modulus (GPa) = -0.55274 37.29829 18.37278
#
# Velocity S-wave (km/s) = -0.51934 4.26615 2.99419
# Velocity P-wave (km/s) = 4.91368 7.09022 6.09981
#
# Compressibility (1/GPa) = 0.01991355
#
# Stress axis : x y z
#
# Youngs Moduli (GPa) = 79.69784 147.69803 63.61087
#
# Poissons Ratio (x) = 0.14707 0.30842
# Poissons Ratio (y) = 0.07936 0.10930
# Poissons Ratio (z) = 0.38641 0.25379
#
# Static dielectric constant tensor:
#      x y z
#    x 1.830160 0.000000 0.000000 
#    y 0.000000 1.716920 0.000000 
#    z 0.000000 0.000000 1.747490 
# 
# From -- ./inp_files/10743.got.cif
#   From: 2010.05.17/outbox.cif.g08.bks.cpg/sg54_6_cif.got.tgz:10743.got - 2010.06.03 13:09:01.
