data_PCOD9422493
_publ_section_title
;
Structure prediction by ZEFSAII (Michael W. Deem and Ramdas Pophale) SiO2 
 PCOD9422493
Probable space group: P C C A
;
_chemical_formula_sum "Si O2"
_cell_formula_units_Z 64
_cell_length_a 31.474265
_cell_length_b 10.483374
_cell_length_c 9.705226
_cell_angle_alpha 90.000000
_cell_angle_beta 90.000000
_cell_angle_gamma 90.000000
_cell_volume 3202.302319
_symmetry_space_group_name_H-M "P C C A"
_symmetry_group_IT_number 54
_symmetry_cell_setting 'orthorhombic'
loop_
_space_group_symop_operation_xyz
x,y,z
1/2-x,-y,z
1/2+x,-y,1/2-z
-x,y,1/2-z
-x,-y,-z
1/2+x,y,-z
1/2-x,y,1/2+z
x,-y,1/2+z
loop_
_atom_site_type_symbol
_atom_site_label
_atom_site_fract_x
_atom_site_fract_y
_atom_site_fract_z
Si Si1 0.606824 0.351279 0.641452
Si Si2 0.591288 0.965235 0.474077
Si Si3 0.796088 0.285651 0.814153
Si Si4 0.156174 0.766293 0.463238
Si Si5 0.831946 0.860007 0.569845
Si Si6 0.452203 0.878657 0.303169
Si Si7 0.142157 0.500757 0.111190
Si Si8 0.220374 0.117152 0.180952
O O1 0.645014 0.249837 0.658841
O O2 0.565566 0.262991 0.661676
O O3 0.614674 0.408358 0.489672
O O4 0.614792 0.457871 0.756667
O O5 0.610215 0.833034 0.531855
O O6 0.576681 0.938546 0.319174
O O7 0.630785 0.061694 0.495884
O O8 0.554649 0.029710 0.565523
O O9 0.825090 0.237962 0.688992
O O10 0.805086 0.208798 0.953723
O O11 0.814428 0.426925 0.843880
O O12 0.747972 0.243702 0.781192
O O13 0.153205 0.624675 0.524253
O O14 0.187854 0.845161 0.561767
O O15 0.803911 0.930886 0.682325
O O16 0.500000 0.873533 0.250000
O O17 0.250000 0.000000 0.137467
#
# Coordination Sequence:
#
# PCOD9422493 Si02
#       8
#     8   8   8   8   8   8   8   8
#     4  10  21  42  65  89 121 166 215 264 311 394
#     4  11  21  39  67  90 127 169 204 251 320 400
#     4  11  24  36  59  88 121 163 215 271 324 359
#     4  12  22  39  62  87 120 169 221 258 314 387
#     4  10  21  40  60  90 119 163 216 257 317 390
#     4  11  23  41  66 101 134 160 201 267 334 394
#     4  11  21  41  64  87 120 167 224 264 311 383
#     4  12  24  40  58  87 128 164 211 276 330 365
#
# _framework density 19.985620999999998
#
# number of rings (size 3 to 8) (size 9 to 14) (size 15 to 20)
#    0.000    1.000    3.750    4.125    0.000    1.500 
#    0.000    1.875    0.000    0.000    0.000    0.000 
#    0.000    0.000    0.000    0.000    0.000    0.000 
#
# Total GULP energy -357461.076673 kJ/mol
# GULP energy per Si atom -5585.329323 kJ/mol
# Density = 1.994013 g / cm^3
# Si number density = 19.985621 Si / 1000 Ang^3
#
#
#
# Elastic Constant Matrix: (Units=GPa)
#
#
# Indices 1 2 3 4 5 6 
#
# 1 51.3208 23.9111 5.2631 0.0000 0.0000 0.0000
# 2 23.9111 93.6767 23.7585 0.0000 0.0000 0.0000
# 3 5.2631 23.7585 71.9186 0.0000 0.0000 0.0000
# 4 0.0000 0.0000 0.0000 29.9067 0.0000 0.0000
# 5 0.0000 0.0000 0.0000 0.0000 26.4183 0.0000
# 6 0.0000 0.0000 0.0000 0.0000 0.0000 25.3243
#
#
#
# Elastic Compliance Matrix: (Units=1/GPa)
#
#
# Indices 1 2 3 4 5 6 
#
# 1 0.022120 -0.005714 0.000269 0.000000 0.000000 0.000000
# 2 -0.005714 0.013127 -0.003918 0.000000 0.000000 0.000000
# 3 0.000269 -0.003918 0.015179 0.000000 0.000000 0.000000
# 4 0.000000 0.000000 0.000000 0.033437 0.000000 0.000000
# 5 0.000000 0.000000 0.000000 0.000000 0.037852 0.000000
# 6 0.000000 0.000000 0.000000 0.000000 0.000000 0.039488
#
#
# Mechanical properties :
#
#
# Convention : Reuss Voigt Hill
#
# Bulk Modulus (GPa) = 31.54658 35.86460 33.70559
# Shear Modulus (GPa) = 26.24689 27.26210 26.75449
#
# Velocity S-wave (km/s) = 3.62786 3.69736 3.66278
# Velocity P-wave (km/s) = 5.77646 6.01760 5.89826
#
# Compressibility (1/GPa) = 0.03169916
#
# Stress axis : x y z
#
# Youngs Moduli (GPa) = 45.20767 76.17630 65.87872
#
# Poissons Ratio (x) = 0.43530 -0.01772
# Poissons Ratio (y) = 0.25834 0.25815
# Poissons Ratio (z) = -0.01216 0.29850
#
# Static dielectric constant tensor:
#      x y z
#    x 1.718070 0.000000 0.000000 
#    y 0.000000 1.753190 0.000000 
#    z 0.000000 0.000000 1.697440 
# 
# From -- ./inp_files/5962.got.cif
#   From: 2010.05.17/outbox.cif.g08.bks.cpg/sg54_3_cif.got.tgz:5962.got - 2010.06.03 13:09:01.
