data_PCOD9422326
_publ_section_title
;
Structure prediction by ZEFSAII (Michael W. Deem and Ramdas Pophale) SiO2 
 PCOD9422326
Probable space group: P C C A
;
_chemical_formula_sum "Si O2"
_cell_formula_units_Z 40
_cell_length_a 28.869994
_cell_length_b 4.801463
_cell_length_c 11.913709
_cell_angle_alpha 90.000000
_cell_angle_beta 90.000000
_cell_angle_gamma 90.000000
_cell_volume 1651.456992
_symmetry_space_group_name_H-M "P C C A"
_symmetry_group_IT_number 54
_symmetry_cell_setting 'orthorhombic'
loop_
_space_group_symop_operation_xyz
x,y,z
1/2-x,-y,z
1/2+x,-y,1/2-z
-x,y,1/2-z
-x,-y,-z
1/2+x,y,-z
1/2-x,y,1/2+z
x,-y,1/2+z
loop_
_atom_site_type_symbol
_atom_site_label
_atom_site_fract_x
_atom_site_fract_y
_atom_site_fract_z
Si Si1 0.351599 0.517294 0.306287
Si Si2 0.147352 0.015519 0.962962
Si Si3 0.952459 0.112652 0.049544
Si Si4 0.281045 0.749464 0.634208
Si Si5 0.548668 0.615027 0.693392
O O1 0.347988 0.830653 0.349599
O O2 0.312096 0.409927 0.225155
O O3 0.402600 0.471216 0.252746
O O4 0.349751 0.330301 0.419896
O O5 0.095652 0.960656 0.011092
O O6 0.186193 0.908714 0.046429
O O7 0.952612 0.437141 0.077933
O O8 0.948755 0.940845 0.166142
O O9 0.000000 0.000000 0.000000
O O10 0.250000 0.500000 0.582216
O O11 0.250000 0.000000 0.684016
O O12 0.500000 0.552688 0.750000
#
# Coordination Sequence:
#
# PCOD9422326 Si02
#       5
#     8   8   8   8   8
#     4  10  23  43  63  91 132 163 206 264 316 374
#     4  10  23  43  63  92 131 164 206 265 316 373
#     4  10  21  38  60  92 124 164 204 247 316 372
#     4  12  26  42  66  97 119 169 223 258 322 375
#     4  10  21  38  60  92 124 164 204 248 314 372
#
# _framework density 24.221034
#
# number of rings (size 3 to 8) (size 9 to 14) (size 15 to 20)
#    0.000    1.600    0.000    3.600    2.800    4.800 
#    3.600    0.000    0.000    0.000    0.000    0.000 
#    0.000    0.000    0.000    0.000    0.000    0.000 
#
# Total GULP energy -223681.908492 kJ/mol
# GULP energy per Si atom -5592.047712 kJ/mol
# Density = 2.416591 g / cm^3
# Si number density = 24.221034 Si / 1000 Ang^3
#
#
#
# Elastic Constant Matrix: (Units=GPa)
#
#
# Indices 1 2 3 4 5 6 
#
# 1 171.2046 23.6470 31.1317 0.0000 0.0000 0.0000
# 2 23.6470 93.4806 -5.0984 0.0000 0.0000 0.0000
# 3 31.1317 -5.0984 22.2096 0.0000 0.0000 0.0000
# 4 0.0000 0.0000 0.0000 23.6745 0.0000 0.0000
# 5 0.0000 0.0000 0.0000 0.0000 34.5731 0.0000
# 6 0.0000 0.0000 0.0000 0.0000 0.0000 44.7933
#
#
#
# Elastic Compliance Matrix: (Units=1/GPa)
#
#
# Indices 1 2 3 4 5 6 
#
# 1 0.008526 -0.002844 -0.012603 0.000000 0.000000 0.000000
# 2 -0.002844 0.011782 0.006691 0.000000 0.000000 0.000000
# 3 -0.012603 0.006691 0.064228 0.000000 0.000000 0.000000
# 4 0.000000 0.000000 0.000000 0.042239 0.000000 0.000000
# 5 0.000000 0.000000 0.000000 0.000000 0.028924 0.000000
# 6 0.000000 0.000000 0.000000 0.000000 0.000000 0.022325
#
#
# Mechanical properties :
#
#
# Convention : Reuss Voigt Hill
#
# Bulk Modulus (GPa) = 14.92031 42.91729 28.91880
# Shear Modulus (GPa) = 22.94871 36.42248 29.68560
#
# Velocity S-wave (km/s) = 3.08144 3.88203 3.50467
# Velocity P-wave (km/s) = 4.33979 6.15232 5.32376
#
# Compressibility (1/GPa) = 0.06702273
#
# Stress axis : x y z
#
# Youngs Moduli (GPa) = 117.29416 84.87691 15.56955
#
# Poissons Ratio (x) = 0.24139 0.19623
# Poissons Ratio (y) = 0.33359 -0.10418
# Poissons Ratio (z) = 1.47830 -0.56792
#
# Static dielectric constant tensor:
#      x y z
#    x 1.976430 0.000000 0.000000 
#    y 0.000000 1.855780 0.000000 
#    z 0.000000 0.000000 1.892280 
# 
# From -- ./inp_files/10149.got.cif
#   From: 2010.05.17/outbox.cif.g08.bks.cpg/sg54_6_cif.got.tgz:10149.got - 2010.06.03 13:09:01.
