data_PCOD9422535
_publ_section_title
;
Structure prediction by ZEFSAII (Michael W. Deem and Ramdas Pophale) SiO2 
 PCOD9422535
Probable space group: P C C A
;
_chemical_formula_sum "Si O2"
_cell_formula_units_Z 32
_cell_length_a 13.822110
_cell_length_b 8.525982
_cell_length_c 11.936328
_cell_angle_alpha 90.000000
_cell_angle_beta 90.000000
_cell_angle_gamma 90.000000
_cell_volume 1406.661175
_symmetry_space_group_name_H-M "P C C A"
_symmetry_group_IT_number 54
_symmetry_cell_setting 'orthorhombic'
loop_
_space_group_symop_operation_xyz
x,y,z
1/2-x,-y,z
1/2+x,-y,1/2-z
-x,y,1/2-z
-x,-y,-z
1/2+x,y,-z
1/2-x,y,1/2+z
x,-y,1/2+z
loop_
_atom_site_type_symbol
_atom_site_label
_atom_site_fract_x
_atom_site_fract_y
_atom_site_fract_z
Si Si1 0.590222 0.229667 0.480757
Si Si2 0.713380 0.262830 0.268988
Si Si3 0.396185 0.577545 0.306158
Si Si4 0.568817 0.055882 0.149096
O O1 0.680577 0.242757 0.397091
O O2 0.591439 0.376949 0.563914
O O3 0.494614 0.198071 0.405709
O O4 0.591003 0.075620 0.558283
O O5 0.825888 0.291547 0.249221
O O6 0.658033 0.415757 0.220250
O O7 0.666343 0.121409 0.201445
O O8 0.500000 0.575706 0.250000
O O9 0.500000 0.995413 0.250000
#
# Coordination Sequence:
#
# PCOD9422535 Si02
#       4
#     8   8   8   8
#     4  10  21  40  66  91 127 168 201 261 320 361
#     4  10  24  42  63  95 127 162 212 259 310 380
#     4  11  24  41  63  93 128 165 211 257 311 380
#     4   9  19  40  66  95 126 162 212 259 313 376
#
# _framework density 22.748905000000001
#
# number of rings (size 3 to 8) (size 9 to 14) (size 15 to 20)
#    0.000    2.000    0.000    3.000    0.000   11.000 
#    0.000    7.500    0.000    0.000    0.000    0.000 
#    0.000    0.000    0.000    0.000    0.000    0.000 
#
# Total GULP energy -179057.039203 kJ/mol
# GULP energy per Si atom -5595.532475 kJ/mol
# Density = 2.269713 g / cm^3
# Si number density = 22.748905 Si / 1000 Ang^3
#
#
#
# Elastic Constant Matrix: (Units=GPa)
#
#
# Indices 1 2 3 4 5 6 
#
# 1 131.1194 29.8291 26.4232 0.0000 0.0000 0.0000
# 2 29.8291 59.5115 25.5765 0.0000 0.0000 0.0000
# 3 26.4232 25.5765 122.3440 0.0000 0.0000 0.0000
# 4 0.0000 0.0000 0.0000 99.1595 0.0000 0.0000
# 5 0.0000 0.0000 0.0000 0.0000 1.7338 0.0000
# 6 0.0000 0.0000 0.0000 0.0000 0.0000 0.9627
#
#
#
# Elastic Compliance Matrix: (Units=1/GPa)
#
#
# Indices 1 2 3 4 5 6 
#
# 1 0.008733 -0.003919 -0.001067 0.000000 0.000000 0.000000
# 2 -0.003919 0.020221 -0.003381 0.000000 0.000000 0.000000
# 3 -0.001067 -0.003381 0.009111 0.000000 0.000000 0.000000
# 4 0.000000 0.000000 0.000000 0.010085 0.000000 0.000000
# 5 0.000000 0.000000 0.000000 0.000000 0.576783 0.000000
# 6 0.000000 0.000000 0.000000 0.000000 0.000000 1.038763
#
#
# Mechanical properties :
#
#
# Convention : Reuss Voigt Hill
#
# Bulk Modulus (GPa) = 46.87879 52.95917 49.91898
# Shear Modulus (GPa) = 2.96289 35.78093 19.37191
#
# Velocity S-wave (km/s) = 1.14248 3.97024 2.92130
# Velocity P-wave (km/s) = 4.73203 6.65939 5.77666
#
# Compressibility (1/GPa) = 0.02133161
#
# Stress axis : x y z
#
# Youngs Moduli (GPa) = 114.50624 49.45426 109.75891
#
# Poissons Ratio (x) = 0.19380 0.11710
# Poissons Ratio (y) = 0.44873 0.37108
# Poissons Ratio (z) = 0.12217 0.16720
#
# Static dielectric constant tensor:
#      x y z
#    x 1.847590 0.000000 0.000000 
#    y 0.000000 1.896680 0.000000 
#    z 0.000000 0.000000 1.826470 
# 
# From -- ./inp_files/3318.got.cif
#   From: 2010.05.17/outbox.cif.g08.bks.cpg/sg54_2_cif.got.tgz:3318.got - 2010.06.03 13:09:01.
