data_PCOD9422985
_publ_section_title
;
Structure prediction by ZEFSAII (Michael W. Deem and Ramdas Pophale) SiO2 
 PCOD9422985
Probable space group: P C C A
;
_chemical_formula_sum "Si O2"
_cell_formula_units_Z 48
_cell_length_a 9.634054
_cell_length_b 8.876856
_cell_length_c 27.143380
_cell_angle_alpha 90.000000
_cell_angle_beta 90.000000
_cell_angle_gamma 90.000000
_cell_volume 2321.304845
_symmetry_space_group_name_H-M "P C C A"
_symmetry_group_IT_number 54
_symmetry_cell_setting 'orthorhombic'
loop_
_space_group_symop_operation_xyz
x,y,z
1/2-x,-y,z
1/2+x,-y,1/2-z
-x,y,1/2-z
-x,-y,-z
1/2+x,y,-z
1/2-x,y,1/2+z
x,-y,1/2+z
loop_
_atom_site_type_symbol
_atom_site_label
_atom_site_fract_x
_atom_site_fract_y
_atom_site_fract_z
Si Si1 0.625927 0.604258 0.149290
Si Si2 0.747456 0.177336 0.572185
Si Si3 0.413255 0.835491 0.698664
Si Si4 0.085950 0.820420 0.700408
Si Si5 0.869623 0.389654 0.995351
Si Si6 0.012560 0.334080 0.598952
O O1 0.750000 0.500000 0.173565
O O2 0.699471 0.745204 0.123148
O O3 0.493768 0.679661 0.175931
O O4 0.560973 0.493199 0.108901
O O5 0.648316 0.244202 0.529715
O O6 0.905509 0.233166 0.567732
O O7 0.750000 0.000000 0.574243
O O8 0.500000 0.816751 0.750000
O O9 0.250552 0.799689 0.708465
O O10 0.460287 0.732812 0.653005
O O11 0.426287 0.008942 0.679227
O O12 0.000000 0.836409 0.750000
O O13 0.750000 0.500000 0.011966
O O14 0.857597 0.348664 0.937448
O O15 0.000000 0.500000 0.000000
#
# Coordination Sequence:
#
# PCOD9422985 Si02
#       6
#     8   8   8   8   8   8
#     4  10  22  40  65  96 133 175 224 275 343 409
#     4  11  23  42  68 100 132 177 228 282 343 410
#     4  10  24  44  69 101 137 180 229 283 346 411
#     4  10  23  44  67 100 137 179 226 287 345 403
#     4  12  23  45  67  95 136 177 220 277 345 407
#     4  11  24  42  67  96 134 179 222 278 342 407
#
# _framework density 20.678025999999999
#
# number of rings (size 3 to 8) (size 9 to 14) (size 15 to 20)
#    0.000    1.333    3.333    1.500    7.000    1.333 
#    3.000    0.000    0.000    0.000    0.000    0.000 
#    0.000    0.000    0.000    0.000    0.000    0.000 
#
# Total GULP energy -267362.018317 kJ/mol
# GULP energy per Si atom -5570.042048 kJ/mol
# Density = 2.063096 g / cm^3
# Si number density = 20.678026 Si / 1000 Ang^3
#
#
#
# Elastic Constant Matrix: (Units=GPa)
#
#
# Indices 1 2 3 4 5 6 
#
# 1 117.7482 54.1961 31.0172 0.0000 0.0000 0.0000
# 2 54.1961 155.6824 40.8697 0.0000 0.0000 0.0000
# 3 31.0172 40.8697 72.0962 0.0000 0.0000 0.0000
# 4 0.0000 0.0000 0.0000 32.3086 0.0000 0.0000
# 5 0.0000 0.0000 0.0000 0.0000 34.1187 0.0000
# 6 0.0000 0.0000 0.0000 0.0000 0.0000 29.4024
#
#
#
# Elastic Compliance Matrix: (Units=1/GPa)
#
#
# Indices 1 2 3 4 5 6 
#
# 1 0.010606 -0.002930 -0.002902 0.000000 0.000000 0.000000
# 2 -0.002930 0.008356 -0.003476 0.000000 0.000000 0.000000
# 3 -0.002902 -0.003476 0.017089 0.000000 0.000000 0.000000
# 4 0.000000 0.000000 0.000000 0.030952 0.000000 0.000000
# 5 0.000000 0.000000 0.000000 0.000000 0.029309 0.000000
# 6 0.000000 0.000000 0.000000 0.000000 0.000000 0.034011
#
#
# Mechanical properties :
#
#
# Convention : Reuss Voigt Hill
#
# Bulk Modulus (GPa) = 57.35671 66.41030 61.88350
# Shear Modulus (GPa) = 32.31001 33.79552 33.05276
#
# Velocity S-wave (km/s) = 3.95717 4.04712 4.00240
# Velocity P-wave (km/s) = 6.97690 7.35017 7.16597
#
# Compressibility (1/GPa) = 0.01743475
#
# Stress axis : x y z
#
# Youngs Moduli (GPa) = 94.28795 119.67453 58.51629
#
# Poissons Ratio (x) = 0.35069 0.16980
# Poissons Ratio (y) = 0.27630 0.20341
# Poissons Ratio (z) = 0.27359 0.41600
#
# Static dielectric constant tensor:
#      x y z
#    x 1.851330 0.000000 0.000000 
#    y 0.000000 1.828320 0.000000 
#    z 0.000000 0.000000 1.791800 
# 
# From -- ./inp_files/27703.got.cif
#   From: 2010.05.17/outbox.cif.g08.bks.cpg/sg54_14_cif.got.tgz:27703.got - 2010.06.03 13:09:01.
