data_PCOD9422089
_publ_section_title
;
Structure prediction by ZEFSAII (Michael W. Deem and Ramdas Pophale) SiO2 
 PCOD9422089
Probable space group: P C C A
;
_chemical_formula_sum "Si O2"
_cell_formula_units_Z 48
_cell_length_a 25.529461
_cell_length_b 5.190976
_cell_length_c 15.034384
_cell_angle_alpha 90.000000
_cell_angle_beta 90.000000
_cell_angle_gamma 90.000000
_cell_volume 1992.398955
_symmetry_space_group_name_H-M "P C C A"
_symmetry_group_IT_number 54
_symmetry_cell_setting 'orthorhombic'
loop_
_space_group_symop_operation_xyz
x,y,z
1/2-x,-y,z
1/2+x,-y,1/2-z
-x,y,1/2-z
-x,-y,-z
1/2+x,y,-z
1/2-x,y,1/2+z
x,-y,1/2+z
loop_
_atom_site_type_symbol
_atom_site_label
_atom_site_fract_x
_atom_site_fract_y
_atom_site_fract_z
Si Si1 0.327363 0.608436 0.779337
Si Si2 0.825831 0.768956 0.956928
Si Si3 0.913712 0.026988 0.664037
Si Si4 0.250000 0.000000 0.189337
Si Si5 0.092072 0.330547 0.167905
Si Si6 0.500000 0.660429 0.750000
Si Si7 0.833715 0.740178 0.567991
O O1 0.361558 0.526047 0.694703
O O2 0.311201 0.362510 0.838143
O O3 0.370511 0.749445 0.841276
O O4 0.284500 0.805354 0.747025
O O5 0.820833 0.488757 0.000146
O O6 0.812940 0.998128 0.025389
O O7 0.788380 0.832906 0.873823
O O8 0.887140 0.781317 0.924775
O O9 0.905854 0.893961 0.759667
O O10 0.894795 0.813929 0.592740
O O11 0.969310 0.162847 0.678009
O O12 0.039013 0.481766 0.191722
#
# Coordination Sequence:
#
# PCOD9422089 Si02
#       7
#     8   8   8   4   8   4   8
#     4  10  22  46  75 102 144 201 254 305 356 455
#     4  12  26  46  70 109 154 194 241 319 380 441
#     4  10  20  46  72 104 146 195 248 314 362 459
#     4  12  26  48  76 112 142 206 270 304 366 454
#     4  10  22  42  73 108 146 196 253 315 365 446
#     4  10  22  40  80 110 138 194 272 306 370 454
#     4  11  25  47  70 103 159 192 233 311 396 426
#
# _framework density 24.091560999999999
#
# number of rings (size 3 to 8) (size 9 to 14) (size 15 to 20)
#    0.000    1.333    3.333    1.500    2.333    3.333 
#    3.000    1.667    0.000    0.000    0.000    0.000 
#    0.000    0.000    0.000    0.000    0.000    0.000 
#
# Total GULP energy -268059.851521 kJ/mol
# GULP energy per Si atom -5584.580240 kJ/mol
# Density = 2.403673 g / cm^3
# Si number density = 24.091561 Si / 1000 Ang^3
#
#
#
# Elastic Constant Matrix: (Units=GPa)
#
#
# Indices 1 2 3 4 5 6 
#
# 1 136.1112 58.5738 41.0565 0.0000 0.0000 0.0000
# 2 58.5738 147.2688 36.6545 0.0000 0.0000 0.0000
# 3 41.0565 36.6545 66.7224 0.0000 0.0000 0.0000
# 4 0.0000 0.0000 0.0000 78.8391 0.0000 0.0000
# 5 0.0000 0.0000 0.0000 0.0000 15.9203 0.0000
# 6 0.0000 0.0000 0.0000 0.0000 0.0000 52.9542
#
#
#
# Elastic Compliance Matrix: (Units=1/GPa)
#
#
# Indices 1 2 3 4 5 6 
#
# 1 0.009936 -0.002815 -0.004568 0.000000 0.000000 0.000000
# 2 -0.002815 0.008663 -0.003027 0.000000 0.000000 0.000000
# 3 -0.004568 -0.003027 0.019461 0.000000 0.000000 0.000000
# 4 0.000000 0.000000 0.000000 0.012684 0.000000 0.000000
# 5 0.000000 0.000000 0.000000 0.000000 0.062813 0.000000
# 6 0.000000 0.000000 0.000000 0.000000 0.000000 0.018884
#
#
# Mechanical properties :
#
#
# Convention : Reuss Voigt Hill
#
# Bulk Modulus (GPa) = 58.00103 69.18577 63.59340
# Shear Modulus (GPa) = 31.44489 43.79722 37.62106
#
# Velocity S-wave (km/s) = 3.61671 4.26837 3.95598
# Velocity P-wave (km/s) = 6.44735 7.28506 6.87897
#
# Compressibility (1/GPa) = 0.01724107
#
# Stress axis : x y z
#
# Youngs Moduli (GPa) = 100.64281 115.42823 51.38483
#
# Poissons Ratio (x) = 0.32494 0.23470
# Poissons Ratio (y) = 0.28332 0.15555
# Poissons Ratio (z) = 0.45969 0.34941
#
# Static dielectric constant tensor:
#      x y z
#    x 1.972910 0.000000 0.000000 
#    y 0.000000 1.986300 0.000000 
#    z 0.000000 0.000000 2.027080 
# 
# From -- ./inp_files/15210.got.cif
#   From: 2010.05.17/outbox.cif.g08.bks.cpg/sg54_8_cif.got.tgz:15210.got - 2010.06.03 13:09:01.
