data_PCOD9422796
_publ_section_title
;
Structure prediction by ZEFSAII (Michael W. Deem and Ramdas Pophale) SiO2 
 PCOD9422796
Probable space group: P C C A
;
_chemical_formula_sum "Si O2"
_cell_formula_units_Z 60
_cell_length_a 29.949890
_cell_length_b 14.025837
_cell_length_c 5.692064
_cell_angle_alpha 90.000000
_cell_angle_beta 90.000000
_cell_angle_gamma 90.000000
_cell_volume 2391.078276
_symmetry_space_group_name_H-M "P C C A"
_symmetry_group_IT_number 54
_symmetry_cell_setting 'orthorhombic'
loop_
_space_group_symop_operation_xyz
x,y,z
1/2-x,-y,z
1/2+x,-y,1/2-z
-x,y,1/2-z
-x,-y,-z
1/2+x,y,-z
1/2-x,y,1/2+z
x,-y,1/2+z
loop_
_atom_site_type_symbol
_atom_site_label
_atom_site_fract_x
_atom_site_fract_y
_atom_site_fract_z
Si Si1 0.866341 0.165545 0.702389
Si Si2 0.456641 0.603907 0.847251
Si Si3 0.958336 0.056054 0.656011
Si Si4 0.414504 0.262229 0.950937
Si Si5 0.267169 0.607535 0.096459
Si Si6 0.266888 0.890802 0.865948
Si Si7 0.500000 0.266039 0.750000
Si Si8 0.129406 0.628368 0.552961
O O1 0.911110 0.108791 0.645342
O O2 0.820387 0.114333 0.650534
O O3 0.866689 0.268922 0.579005
O O4 0.875637 0.190724 0.974270
O O5 0.500000 0.547202 0.750000
O O6 0.439763 0.679979 0.655219
O O7 0.477483 0.664988 0.058203
O O8 0.409085 0.562868 0.933795
O O9 0.000000 0.122093 0.750000
O O10 0.960585 0.011162 0.392725
O O11 0.456007 0.209755 0.827625
O O12 0.390743 0.342486 0.800582
O O13 0.250000 0.500000 0.107189
O O14 0.252257 0.650423 0.350695
O O15 0.320328 0.595815 0.072562
O O16 0.248078 0.849313 0.619141
O O17 0.250000 0.000000 0.870840
#
# Coordination Sequence:
#
# PCOD9422796 Si02
#       8
#     8   8   8   8   8   8   4   8
#     4  11  25  38  67  90 129 168 220 290 352 399
#     4   8  15  30  52  87 133 176 206 257 318 392
#     4  10  25  45  65  91 128 183 240 286 340 418
#     4   9  19  33  53  91 126 166 212 266 341 396
#     4  10  24  46  72  99 135 184 229 275 344 422
#     4  10  25  44  63  84 108 157 217 268 332 403
#     4   8  14  30  52  78 130 170 208 244 320 400
#     4  10  22  37  62 100 132 169 222 286 342 418
#
# _framework density 25.09328
#
# number of rings (size 3 to 8) (size 9 to 14) (size 15 to 20)
#    0.000    2.400    0.000    0.000   11.200    6.400 
#    1.200    0.000    0.000    0.000    0.000    3.733 
#    0.000    0.000    0.000    0.000    0.000    0.000 
#
# Total GULP energy -334540.623354 kJ/mol
# GULP energy per Si atom -5575.677056 kJ/mol
# Density = 2.503617 g / cm^3
# Si number density = 25.093280 Si / 1000 Ang^3
#
#
#
# Elastic Constant Matrix: (Units=GPa)
#
#
# Indices 1 2 3 4 5 6 
#
# 1 216.7007 29.4128 48.0975 0.0000 0.0000 0.0000
# 2 29.4128 65.7591 24.8180 0.0000 0.0000 0.0000
# 3 48.0975 24.8180 115.5052 0.0000 0.0000 0.0000
# 4 0.0000 0.0000 0.0000 42.9410 0.0000 0.0000
# 5 0.0000 0.0000 0.0000 0.0000 35.0689 0.0000
# 6 0.0000 0.0000 0.0000 0.0000 0.0000 15.7817
#
#
#
# Elastic Compliance Matrix: (Units=1/GPa)
#
#
# Indices 1 2 3 4 5 6 
#
# 1 0.005245 -0.001656 -0.001828 0.000000 0.000000 0.000000
# 2 -0.001656 0.017072 -0.002979 0.000000 0.000000 0.000000
# 3 -0.001828 -0.002979 0.010059 0.000000 0.000000 0.000000
# 4 0.000000 0.000000 0.000000 0.023288 0.000000 0.000000
# 5 0.000000 0.000000 0.000000 0.000000 0.028515 0.000000
# 6 0.000000 0.000000 0.000000 0.000000 0.000000 0.063364
#
#
# Mechanical properties :
#
#
# Convention : Reuss Voigt Hill
#
# Bulk Modulus (GPa) = 51.41346 66.95795 59.18571
# Shear Modulus (GPa) = 29.94857 38.46742 34.20799
#
# Velocity S-wave (km/s) = 3.45844 3.91957 3.69620
# Velocity P-wave (km/s) = 6.03996 6.87209 6.46942
#
# Compressibility (1/GPa) = 0.01945016
#
# Stress axis : x y z
#
# Youngs Moduli (GPa) = 190.64888 58.57585 99.41400
#
# Poissons Ratio (x) = 0.09701 0.18176
# Poissons Ratio (y) = 0.31573 0.29611
# Poissons Ratio (z) = 0.34857 0.17447
#
# Static dielectric constant tensor:
#      x y z
#    x 2.039040 0.000000 0.000000 
#    y 0.000000 1.989350 0.000000 
#    z 0.000000 0.000000 2.188370 
# 
# From -- ./inp_files/1980.got.cif
#   From: 2010.05.17/outbox.cif.g08.bks.cpg/sg54_1_cif.got.tgz:1980.got - 2010.06.03 13:09:01.
