data_PCOD9422403
_publ_section_title
;
Structure prediction by ZEFSAII (Michael W. Deem and Ramdas Pophale) SiO2 
 PCOD9422403
Probable space group: P C C A
;
_chemical_formula_sum "Si O2"
_cell_formula_units_Z 56
_cell_length_a 15.566744
_cell_length_b 14.347402
_cell_length_c 12.977401
_cell_angle_alpha 90.000000
_cell_angle_beta 90.000000
_cell_angle_gamma 90.000000
_cell_volume 2898.403029
_symmetry_space_group_name_H-M "P C C A"
_symmetry_group_IT_number 54
_symmetry_cell_setting 'orthorhombic'
loop_
_space_group_symop_operation_xyz
x,y,z
1/2-x,-y,z
1/2+x,-y,1/2-z
-x,y,1/2-z
-x,-y,-z
1/2+x,y,-z
1/2-x,y,1/2+z
x,-y,1/2+z
loop_
_atom_site_type_symbol
_atom_site_label
_atom_site_fract_x
_atom_site_fract_y
_atom_site_fract_z
Si Si1 0.056777 0.526584 0.155066
Si Si2 0.596767 0.172319 0.954075
Si Si3 0.909252 0.382695 0.516637
Si Si4 0.790468 0.796409 0.751231
Si Si5 0.329223 0.068144 0.351588
Si Si6 0.206223 0.398763 0.787240
Si Si7 0.059965 0.892301 0.844093
O O1 0.126338 0.593071 0.208480
O O2 0.000000 0.485321 0.250000
O O3 0.990890 0.581555 0.081983
O O4 0.100467 0.449793 0.082064
O O5 0.660714 0.174237 0.855673
O O6 0.506684 0.118572 0.936644
O O7 0.575878 0.279071 0.977875
O O8 0.644414 0.127081 0.050035
O O9 0.830597 0.384540 0.597285
O O10 0.706219 0.860556 0.734221
O O11 0.765423 0.688377 0.743710
O O12 0.857282 0.825072 0.660114
O O13 0.250000 0.000000 0.376396
O O14 0.405254 0.996380 0.324576
O O15 0.250000 0.500000 0.783537
O O16 0.000000 0.861669 0.750000
#
# Coordination Sequence:
#
# PCOD9422403 Si02
#       7
#     8   8   8   8   8   8   8
#     4   9  21  40  60  86 124 161 201 252 307 357
#     4  11  21  38  63  89 120 161 208 241 311 371
#     4  10  21  39  61  89 122 159 205 251 302 370
#     4  10  22  40  60  88 126 157 198 259 299 360
#     4  10  21  41  60  88 125 153 204 259 302 355
#     4  11  22  39  61  89 125 161 205 249 306 363
#     4   9  21  39  61  86 118 162 202 243 310 367
#
# _framework density 19.320983999999999
#
# number of rings (size 3 to 8) (size 9 to 14) (size 15 to 20)
#    0.000    2.000    1.429    1.286    0.000    9.714 
#    7.714    0.000    0.000    0.000    0.000    0.000 
#    0.000    0.000    0.000    0.000    0.000    0.000 
#
# Total GULP energy -312238.792011 kJ/mol
# GULP energy per Si atom -5575.692714 kJ/mol
# Density = 1.927701 g / cm^3
# Si number density = 19.320984 Si / 1000 Ang^3
#
#
#
# Elastic Constant Matrix: (Units=GPa)
#
#
# Indices 1 2 3 4 5 6 
#
# 1 58.5437 25.6809 14.0483 0.0000 0.0000 0.0000
# 2 25.6809 92.9367 4.8517 0.0000 0.0000 0.0000
# 3 14.0483 4.8517 55.2329 0.0000 0.0000 0.0000
# 4 0.0000 0.0000 0.0000 23.4416 0.0000 0.0000
# 5 0.0000 0.0000 0.0000 0.0000 18.3383 0.0000
# 6 0.0000 0.0000 0.0000 0.0000 0.0000 22.2016
#
#
#
# Elastic Compliance Matrix: (Units=1/GPa)
#
#
# Indices 1 2 3 4 5 6 
#
# 1 0.020614 -0.005448 -0.004765 0.000000 0.000000 0.000000
# 2 -0.005448 0.012249 0.000310 0.000000 0.000000 0.000000
# 3 -0.004765 0.000310 0.019290 0.000000 0.000000 0.000000
# 4 0.000000 0.000000 0.000000 0.042659 0.000000 0.000000
# 5 0.000000 0.000000 0.000000 0.000000 0.054531 0.000000
# 6 0.000000 0.000000 0.000000 0.000000 0.000000 0.045042
#
#
# Mechanical properties :
#
#
# Convention : Reuss Voigt Hill
#
# Bulk Modulus (GPa) = 30.91379 32.87502 31.89441
# Shear Modulus (GPa) = 22.22490 23.60512 22.91501
#
# Velocity S-wave (km/s) = 3.39528 3.49912 3.44760
# Velocity P-wave (km/s) = 5.60406 5.77731 5.69134
#
# Compressibility (1/GPa) = 0.03234802
#
# Stress axis : x y z
#
# Youngs Moduli (GPa) = 48.51017 81.63835 51.84074
#
# Poissons Ratio (x) = 0.44473 0.24700
# Poissons Ratio (y) = 0.26426 -0.01605
# Poissons Ratio (z) = 0.23113 -0.02527
#
# Static dielectric constant tensor:
#      x y z
#    x 1.707040 0.000000 0.000000 
#    y 0.000000 1.653410 0.000000 
#    z 0.000000 0.000000 1.687900 
# 
# From -- ./inp_files/8453.got.cif
#   From: 2010.05.17/outbox.cif.g08.bks.cpg/sg54_5_cif.got.tgz:8453.got - 2010.06.03 13:09:01.
