data_PCOD9422755
_publ_section_title
;
Structure prediction by ZEFSAII (Michael W. Deem and Ramdas Pophale) SiO2 
 PCOD9422755
Probable space group: P C C A
;
_chemical_formula_sum "Si O2"
_cell_formula_units_Z 44
_cell_length_a 5.643819
_cell_length_b 14.006014
_cell_length_c 27.654298
_cell_angle_alpha 90.000000
_cell_angle_beta 90.000000
_cell_angle_gamma 90.000000
_cell_volume 2186.000575
_symmetry_space_group_name_H-M "P C C A"
_symmetry_group_IT_number 54
_symmetry_cell_setting 'orthorhombic'
loop_
_space_group_symop_operation_xyz
x,y,z
1/2-x,-y,z
1/2+x,-y,1/2-z
-x,y,1/2-z
-x,-y,-z
1/2+x,y,-z
1/2-x,y,1/2+z
x,-y,1/2+z
loop_
_atom_site_type_symbol
_atom_site_label
_atom_site_fract_x
_atom_site_fract_y
_atom_site_fract_z
Si Si1 0.463696 0.310828 0.299328
Si Si2 0.342245 0.592322 0.130354
Si Si3 0.515248 0.609955 0.519539
Si Si4 0.250000 0.500000 0.805137
Si Si5 0.250905 0.888214 0.971728
Si Si6 0.247836 0.717560 0.899241
O O1 0.500000 0.252578 0.250000
O O2 0.686556 0.350072 0.330401
O O3 0.317786 0.403170 0.279293
O O4 0.309309 0.268117 0.342905
O O5 0.250000 0.500000 0.100330
O O6 0.532900 0.532512 0.162035
O O7 0.494501 0.665595 0.099213
O O8 0.500000 0.500000 0.500000
O O9 0.260426 0.650302 0.503759
O O10 0.568839 0.642562 0.575088
O O11 0.254893 0.815743 0.927287
O O12 0.250000 0.000000 0.957723
O O13 0.500320 0.872276 0.000251
#
# Coordination Sequence:
#
# PCOD9422755 Si02
#       6
#     8   8   8   4   8   8
#     4  10  22  35  55  84 120 165 219 269 314 377
#     4   9  20  36  53  80 121 166 223 260 310 372
#     4  10  23  39  54  80 119 165 209 248 302 373
#     4   8  18  32  46  74 106 166 208 262 302 344
#     4  10  23  44  73 104 129 159 212 274 337 403
#     4  11  23  38  62  90 123 173 212 267 335 384
#
# _framework density 20.128083
#
# number of rings (size 3 to 8) (size 9 to 14) (size 15 to 20)
#    0.000    2.182    0.000    1.091    8.909   10.909 
#    6.545    0.000    0.000    0.000    4.727    0.000 
#    0.000    0.000    0.000    0.000    0.000    0.000 
#
# Total GULP energy -245042.865099 kJ/mol
# GULP energy per Si atom -5569.156025 kJ/mol
# Density = 2.008227 g / cm^3
# Si number density = 20.128083 Si / 1000 Ang^3
#
#
#
# Elastic Constant Matrix: (Units=GPa)
#
#
# Indices 1 2 3 4 5 6 
#
# 1 100.5651 37.4888 36.7211 0.0000 0.0000 0.0000
# 2 37.4888 97.3105 58.3762 0.0000 0.0000 0.0000
# 3 36.7211 58.3762 149.9937 0.0000 0.0000 0.0000
# 4 0.0000 0.0000 0.0000 4.4731 0.0000 0.0000
# 5 0.0000 0.0000 0.0000 0.0000 38.7402 0.0000
# 6 0.0000 0.0000 0.0000 0.0000 0.0000 22.1759
#
#
#
# Elastic Compliance Matrix: (Units=1/GPa)
#
#
# Indices 1 2 3 4 5 6 
#
# 1 0.011854 -0.003686 -0.001467 0.000000 0.000000 0.000000
# 2 -0.003686 0.014553 -0.004761 0.000000 0.000000 0.000000
# 3 -0.001467 -0.004761 0.008879 0.000000 0.000000 0.000000
# 4 0.000000 0.000000 0.000000 0.223560 0.000000 0.000000
# 5 0.000000 0.000000 0.000000 0.000000 0.025813 0.000000
# 6 0.000000 0.000000 0.000000 0.000000 0.000000 0.045094
#
#
# Mechanical properties :
#
#
# Convention : Reuss Voigt Hill
#
# Bulk Modulus (GPa) = 64.70072 68.11570 66.40821
# Shear Modulus (GPa) = 14.09504 27.43005 20.76255
#
# Velocity S-wave (km/s) = 2.64913 3.69558 3.21521
# Velocity P-wave (km/s) = 6.44759 7.21972 6.84455
#
# Compressibility (1/GPa) = 0.01545578
#
# Stress axis : x y z
#
# Youngs Moduli (GPa) = 84.36089 68.71478 112.62226
#
# Poissons Ratio (x) = 0.25331 0.16525
# Poissons Ratio (y) = 0.31099 0.53623
# Poissons Ratio (z) = 0.12378 0.32717
#
# Static dielectric constant tensor:
#      x y z
#    x 1.904760 0.000000 0.000000 
#    y 0.000000 1.702720 0.000000 
#    z 0.000000 0.000000 1.779220 
# 
# From -- ./inp_files/25319.got.cif
#   From: 2010.05.17/outbox.cif.g08.bks.cpg/sg54_13_cif.got.tgz:25319.got - 2010.06.03 13:09:01.
