data_PCOD9422773
_publ_section_title
;
Structure prediction by ZEFSAII (Michael W. Deem and Ramdas Pophale) SiO2 
 PCOD9422773
Probable space group: P C C A
;
_chemical_formula_sum "Si O2"
_cell_formula_units_Z 60
_cell_length_a 19.704200
_cell_length_b 5.476290
_cell_length_c 25.211307
_cell_angle_alpha 90.000000
_cell_angle_beta 90.000000
_cell_angle_gamma 90.000000
_cell_volume 2720.449110
_symmetry_space_group_name_H-M "P C C A"
_symmetry_group_IT_number 54
_symmetry_cell_setting 'orthorhombic'
loop_
_space_group_symop_operation_xyz
x,y,z
1/2-x,-y,z
1/2+x,-y,1/2-z
-x,y,1/2-z
-x,-y,-z
1/2+x,y,-z
1/2-x,y,1/2+z
x,-y,1/2+z
loop_
_atom_site_type_symbol
_atom_site_label
_atom_site_fract_x
_atom_site_fract_y
_atom_site_fract_z
Si Si1 0.675839 0.459200 0.407764
Si Si2 0.209868 0.738215 0.365905
Si Si3 0.028749 0.762671 0.929239
Si Si4 0.569801 0.937332 0.667314
Si Si5 0.500000 0.214587 0.750000
Si Si6 0.310088 0.199694 0.487396
Si Si7 0.584547 0.122862 0.472226
Si Si8 0.456610 0.549090 0.652497
O O1 0.750000 0.500000 0.384443
O O2 0.682713 0.629763 0.460799
O O3 0.643415 0.212885 0.433212
O O4 0.622043 0.489861 0.360638
O O5 0.250000 0.500000 0.345301
O O6 0.135577 0.768896 0.339589
O O7 0.199731 0.691593 0.429177
O O8 0.250000 0.000000 0.360479
O O9 0.988903 0.542410 0.902743
O O10 0.974801 0.976022 0.943766
O O11 0.074052 0.867293 0.880934
O O12 0.060899 0.679341 0.984767
O O13 0.496892 0.799644 0.662600
O O14 0.561747 0.061074 0.724585
O O15 0.475373 0.378882 0.701457
O O16 0.250000 0.000000 0.494388
O O17 0.381141 0.062386 0.486645
#
# Coordination Sequence:
#
# PCOD9422773 Si02
#       8
#     8   8   8   8   4   8   8   8
#     4  12  24  37  63  98 144 186 223 273 340 426
#     4  11  27  44  69 106 149 194 239 283 350 428
#     4  10  22  36  61  95 135 175 231 278 326 406
#     4  11  23  44  73  97 128 177 231 302 360 421
#     4  10  26  48  76  92 126 162 242 312 376 426
#     4  11  22  36  56  92 145 195 221 261 322 406
#     4  11  21  36  54  96 141 180 229 269 325 400
#     4  11  24  42  70  98 124 175 234 296 360 418
#
# _framework density 22.055181999999999
#
# number of rings (size 3 to 8) (size 9 to 14) (size 15 to 20)
#    0.000    1.067    5.333    0.800    7.467    0.533 
#    0.000    0.000    5.867    0.000    0.000    0.000 
#    0.000    0.000    0.000    0.000    0.000    0.000 
#
# Total GULP energy -334474.220862 kJ/mol
# GULP energy per Si atom -5574.570348 kJ/mol
# Density = 2.200498 g / cm^3
# Si number density = 22.055182 Si / 1000 Ang^3
#
#
#
# Elastic Constant Matrix: (Units=GPa)
#
#
# Indices 1 2 3 4 5 6 
#
# 1 93.1146 10.3946 18.4805 0.0000 0.0000 0.0000
# 2 10.3946 41.4669 13.9395 0.0000 0.0000 0.0000
# 3 18.4805 13.9395 85.5861 0.0000 0.0000 0.0000
# 4 0.0000 0.0000 0.0000 20.5237 0.0000 0.0000
# 5 0.0000 0.0000 0.0000 0.0000 19.4870 0.0000
# 6 0.0000 0.0000 0.0000 0.0000 0.0000 23.9748
#
#
#
# Elastic Compliance Matrix: (Units=1/GPa)
#
#
# Indices 1 2 3 4 5 6 
#
# 1 0.011398 -0.002147 -0.002111 0.000000 0.000000 0.000000
# 2 -0.002147 0.025917 -0.003757 0.000000 0.000000 0.000000
# 3 -0.002111 -0.003757 0.012752 0.000000 0.000000 0.000000
# 4 0.000000 0.000000 0.000000 0.048724 0.000000 0.000000
# 5 0.000000 0.000000 0.000000 0.000000 0.051316 0.000000
# 6 0.000000 0.000000 0.000000 0.000000 0.000000 0.041711
#
#
# Mechanical properties :
#
#
# Convention : Reuss Voigt Hill
#
# Bulk Modulus (GPa) = 29.38181 33.97740 31.67961
# Shear Modulus (GPa) = 22.81064 24.62061 23.71562
#
# Velocity S-wave (km/s) = 3.21947 3.34476 3.28271
# Velocity P-wave (km/s) = 5.21257 5.50960 5.36314
#
# Compressibility (1/GPa) = 0.03403466
#
# Stress axis : x y z
#
# Youngs Moduli (GPa) = 87.73286 38.58468 78.41878
#
# Poissons Ratio (x) = 0.08286 0.16558
# Poissons Ratio (y) = 0.18840 0.29465
# Poissons Ratio (z) = 0.18524 0.14498
#
# Static dielectric constant tensor:
#      x y z
#    x 2.168360 0.000000 0.000000 
#    y 0.000000 1.950870 0.000000 
#    z 0.000000 0.000000 1.786600 
# 
# From -- ./inp_files/24776.got.cif
#   From: 2010.05.17/outbox.cif.g08.bks.cpg/sg54_13_cif.got.tgz:24776.got - 2010.06.03 13:09:01.
