data_PCOD9422561
_publ_section_title
;
Structure prediction by ZEFSAII (Michael W. Deem and Ramdas Pophale) SiO2 
 PCOD9422561
Probable space group: P C C A
;
_chemical_formula_sum "Si O2"
_cell_formula_units_Z 56
_cell_length_a 8.259924
_cell_length_b 19.181322
_cell_length_c 14.355718
_cell_angle_alpha 90.000000
_cell_angle_beta 90.000000
_cell_angle_gamma 90.000000
_cell_volume 2274.466297
_symmetry_space_group_name_H-M "P C C A"
_symmetry_group_IT_number 54
_symmetry_cell_setting 'orthorhombic'
loop_
_space_group_symop_operation_xyz
x,y,z
1/2-x,-y,z
1/2+x,-y,1/2-z
-x,y,1/2-z
-x,-y,-z
1/2+x,y,-z
1/2-x,y,1/2+z
x,-y,1/2+z
loop_
_atom_site_type_symbol
_atom_site_label
_atom_site_fract_x
_atom_site_fract_y
_atom_site_fract_z
Si Si1 0.011241 0.862107 0.481314
Si Si2 0.719806 0.639548 0.868866
Si Si3 0.303625 0.385000 0.836133
Si Si4 0.809659 0.079898 0.126081
Si Si5 0.667343 0.072526 0.310237
Si Si6 0.995659 0.515673 0.109414
Si Si7 0.017227 0.701759 0.980783
O O1 0.974823 0.911396 0.569856
O O2 0.886131 0.881260 0.397578
O O3 0.183194 0.876069 0.434567
O O4 0.002400 0.783929 0.518048
O O5 0.772231 0.650623 0.763024
O O6 0.656663 0.559898 0.869813
O O7 0.863704 0.662006 0.937273
O O8 0.569150 0.680632 0.914685
O O9 0.149877 0.432103 0.863829
O O10 0.448553 0.442772 0.842410
O O11 0.344530 0.325796 0.910635
O O12 0.790440 0.103435 0.232906
O O13 0.750000 0.000000 0.123669
O O14 0.500000 0.059700 0.250000
O O15 0.750000 0.000000 0.339837
O O16 0.000000 0.500000 0.000000
#
# Coordination Sequence:
#
# PCOD9422561 Si02
#       7
#     8   8   8   8   8   8   8
#     4  11  23  42  68 101 146 191 238 287 359 423
#     4  12  27  50  75 108 153 193 248 305 372 445
#     4  11  27  49  76 114 144 190 248 309 376 442
#     4  10  21  40  69 104 140 183 239 301 357 416
#     4   9  20  39  66 103 142 184 235 300 361 424
#     4  11  25  50  81 109 143 184 240 317 378 427
#     4  12  27  47  71 104 150 206 241 300 361 451
#
# _framework density 24.621161000000001
#
# number of rings (size 3 to 8) (size 9 to 14) (size 15 to 20)
#    0.000    1.143    1.429    3.429    2.000    8.571 
#    0.000    5.714    0.000    0.000    0.000    0.000 
#    0.000    0.000    0.000    0.000    0.000    0.000 
#
# Total GULP energy -313381.902437 kJ/mol
# GULP energy per Si atom -5596.105401 kJ/mol
# Density = 2.456512 g / cm^3
# Si number density = 24.621161 Si / 1000 Ang^3
#
#
#
# Elastic Constant Matrix: (Units=GPa)
#
#
# Indices 1 2 3 4 5 6 
#
# 1 77.1614 40.0772 58.1620 0.0000 0.0000 0.0000
# 2 40.0772 113.1730 41.1136 0.0000 0.0000 0.0000
# 3 58.1620 41.1136 181.0105 0.0000 0.0000 0.0000
# 4 0.0000 0.0000 0.0000 -30.6185 0.0000 0.0000
# 5 0.0000 0.0000 0.0000 0.0000 27.6651 0.0000
# 6 0.0000 0.0000 0.0000 0.0000 0.0000 17.2086
#
#
#
# Elastic Compliance Matrix: (Units=1/GPa)
#
#
# Indices 1 2 3 4 5 6 
#
# 1 0.019409 -0.005022 -0.005096 0.000000 0.000000 0.000000
# 2 -0.005022 0.010930 -0.000869 0.000000 0.000000 0.000000
# 3 -0.005096 -0.000869 0.007359 0.000000 0.000000 0.000000
# 4 0.000000 0.000000 0.000000 -0.032660 0.000000 0.000000
# 5 0.000000 0.000000 0.000000 0.000000 0.036147 0.000000
# 6 0.000000 0.000000 0.000000 0.000000 0.000000 0.058110
#
#
# Mechanical properties :
#
#
# Convention : Reuss Voigt Hill
#
# Bulk Modulus (GPa) = 63.59281 72.22783 67.91032
# Shear Modulus (GPa) = 39.52212 18.31718 28.91965
#
# Velocity S-wave (km/s) = 4.01085 2.73052 3.43094
# Velocity P-wave (km/s) = 6.87996 6.27219 6.58309
#
# Compressibility (1/GPa) = 0.01572505
#
# Stress axis : x y z
#
# Youngs Moduli (GPa) = 51.52133 91.49027 135.88226
#
# Poissons Ratio (x) = 0.45947 0.69245
# Poissons Ratio (y) = 0.25874 0.11807
# Poissons Ratio (z) = 0.26255 0.07950
#
# Static dielectric constant tensor:
#      x y z
#    x 1.838180 0.000000 0.000000 
#    y 0.000000 1.900250 0.000000 
#    z 0.000000 0.000000 1.944370 
# 
# From -- ./inp_files/11878.got.cif
#   From: 2010.05.17/outbox.cif.g08.bks.cpg/sg54_6_cif.got.tgz:11878.got - 2010.06.03 13:09:01.
