data_PCOD9422396
_publ_section_title
;
Structure prediction by ZEFSAII (Michael W. Deem and Ramdas Pophale) SiO2 
 PCOD9422396
Probable space group: P C C A
;
_chemical_formula_sum "Si O2"
_cell_formula_units_Z 64
_cell_length_a 15.350266
_cell_length_b 20.065552
_cell_length_c 9.058099
_cell_angle_alpha 90.000000
_cell_angle_beta 90.000000
_cell_angle_gamma 90.000000
_cell_volume 2789.999209
_symmetry_space_group_name_H-M "P C C A"
_symmetry_group_IT_number 54
_symmetry_cell_setting 'orthorhombic'
loop_
_space_group_symop_operation_xyz
x,y,z
1/2-x,-y,z
1/2+x,-y,1/2-z
-x,y,1/2-z
-x,-y,-z
1/2+x,y,-z
1/2-x,y,1/2+z
x,-y,1/2+z
loop_
_atom_site_type_symbol
_atom_site_label
_atom_site_fract_x
_atom_site_fract_y
_atom_site_fract_z
Si Si1 0.845744 0.520217 0.018044
Si Si2 0.733271 0.249555 0.749936
Si Si3 0.917089 0.348014 0.357403
Si Si4 0.908044 0.572765 0.309689
Si Si5 0.700855 0.161331 0.500720
Si Si6 0.089273 0.052586 0.663752
Si Si7 0.170094 0.952062 0.475043
Si Si8 0.080351 0.714310 0.329039
O O1 0.750000 0.500000 0.972215
O O2 0.883308 0.581147 0.921370
O O3 0.898187 0.453743 0.973938
O O4 0.844215 0.541731 0.187747
O O5 0.664821 0.308446 0.782706
O O6 0.684869 0.189481 0.663899
O O7 0.782181 0.223310 0.895077
O O8 0.820159 0.262683 0.653179
O O9 0.945163 0.308326 0.506300
O O10 0.000000 0.353523 0.250000
O O11 0.907634 0.651038 0.281428
O O12 0.000000 0.547870 0.250000
O O13 0.625503 0.112803 0.437730
O O14 0.791764 0.120340 0.495112
O O15 0.153784 0.043460 0.801701
O O16 0.000000 0.066611 0.750000
O O17 0.091903 0.983991 0.569233
O O18 0.250000 0.000000 0.513218
O O19 0.000000 0.753437 0.250000
#
# Coordination Sequence:
#
# PCOD9422396 Si02
#       8
#     8   8   8   8   8   8   8   8
#     4  11  22  39  64  94 129 166 219 278 346 416
#     4  12  24  47  67  95 137 185 239 280 347 408
#     4  11  26  45  66 100 136 183 233 290 347 418
#     4  10  21  39  60  94 125 165 211 273 344 405
#     4  11  24  43  69  94 133 181 230 280 335 414
#     4  11  23  41  67 103 136 172 223 281 348 406
#     4  10  21  41  67  94 132 174 216 271 341 411
#     4  10  24  43  69  96 134 181 233 287 349 413
#
# _framework density 22.939074999999999
#
# number of rings (size 3 to 8) (size 9 to 14) (size 15 to 20)
#    0.000    1.250    2.500    3.375    3.500    3.500 
#    2.250    0.000    0.000    0.000    0.000    0.000 
#    0.000    0.000    0.000    0.000    0.000    0.000 
#
# Total GULP energy -357050.288599 kJ/mol
# GULP energy per Si atom -5578.910759 kJ/mol
# Density = 2.288686 g / cm^3
# Si number density = 22.939075 Si / 1000 Ang^3
#
#
#
# Elastic Constant Matrix: (Units=GPa)
#
#
# Indices 1 2 3 4 5 6 
#
# 1 94.1154 16.5907 17.4816 0.0000 0.0000 0.0000
# 2 16.5907 49.8818 14.4423 0.0000 0.0000 0.0000
# 3 17.4816 14.4423 72.9171 0.0000 0.0000 0.0000
# 4 0.0000 0.0000 0.0000 37.9145 0.0000 0.0000
# 5 0.0000 0.0000 0.0000 0.0000 28.7839 0.0000
# 6 0.0000 0.0000 0.0000 0.0000 0.0000 28.4792
#
#
#
# Elastic Compliance Matrix: (Units=1/GPa)
#
#
# Indices 1 2 3 4 5 6 
#
# 1 0.011593 -0.003237 -0.002138 0.000000 0.000000 0.000000
# 2 -0.003237 0.022171 -0.003615 0.000000 0.000000 0.000000
# 3 -0.002138 -0.003615 0.014943 0.000000 0.000000 0.000000
# 4 0.000000 0.000000 0.000000 0.026375 0.000000 0.000000
# 5 0.000000 0.000000 0.000000 0.000000 0.034742 0.000000
# 6 0.000000 0.000000 0.000000 0.000000 0.000000 0.035113
#
#
# Mechanical properties :
#
#
# Convention : Reuss Voigt Hill
#
# Bulk Modulus (GPa) = 32.54569 34.88260 33.71414
# Shear Modulus (GPa) = 28.87517 30.26217 29.56867
#
# Velocity S-wave (km/s) = 3.55177 3.63608 3.59417
# Velocity P-wave (km/s) = 5.57125 5.73304 5.65272
#
# Compressibility (1/GPa) = 0.03072604
#
# Stress axis : x y z
#
# Youngs Moduli (GPa) = 86.25889 45.10470 66.92142
#
# Poissons Ratio (x) = 0.14599 0.14310
# Poissons Ratio (y) = 0.27920 0.24194
# Poissons Ratio (z) = 0.18445 0.16306
#
# Static dielectric constant tensor:
#      x y z
#    x 1.946510 0.000000 0.000000 
#    y 0.000000 1.893300 0.000000 
#    z 0.000000 0.000000 1.963350 
# 
# From -- ./inp_files/3749.got.cif
#   From: 2010.05.17/outbox.cif.g08.bks.cpg/sg54_2_cif.got.tgz:3749.got - 2010.06.03 13:09:01.
