data_PCOD9422989
_publ_section_title
;
Structure prediction by ZEFSAII (Michael W. Deem and Ramdas Pophale) SiO2 
 PCOD9422989
Probable space group: P C C A
;
_chemical_formula_sum "Si O2"
_cell_formula_units_Z 36
_cell_length_a 21.791836
_cell_length_b 5.314458
_cell_length_c 13.890969
_cell_angle_alpha 90.000000
_cell_angle_beta 90.000000
_cell_angle_gamma 90.000000
_cell_volume 1608.738084
_symmetry_space_group_name_H-M "P C C A"
_symmetry_group_IT_number 54
_symmetry_cell_setting 'orthorhombic'
loop_
_space_group_symop_operation_xyz
x,y,z
1/2-x,-y,z
1/2+x,-y,1/2-z
-x,y,1/2-z
-x,-y,-z
1/2+x,y,-z
1/2-x,y,1/2+z
x,-y,1/2+z
loop_
_atom_site_type_symbol
_atom_site_label
_atom_site_fract_x
_atom_site_fract_y
_atom_site_fract_z
Si Si1 0.686024 0.873289 0.041515
Si Si2 0.059249 0.028704 0.435370
Si Si3 0.192123 0.653224 0.761404
Si Si4 0.250000 0.500000 0.078237
Si Si5 0.061624 0.468731 0.811189
O O1 0.696257 0.607528 0.988785
O O2 0.750000 0.000000 0.019370
O O3 0.623275 0.995958 0.007294
O O4 0.681618 0.864957 0.158325
O O5 0.060360 0.308613 0.390437
O O6 0.058962 0.807362 0.357022
O O7 0.000000 0.000000 0.500000
O O8 0.250000 0.500000 0.805969
O O9 0.218696 0.694800 0.654757
O O10 0.127288 0.506798 0.757676
O O11 0.000000 0.504493 0.750000
#
# Coordination Sequence:
#
# PCOD9422989 Si02
#       5
#     8   8   8   4   8
#     4  11  23  41  69  96 137 175 225 287 348 401
#     4  11  26  43  71  99 138 182 225 287 346 413
#     4   9  21  41  65  93 138 166 224 282 343 390
#     4  10  22  40  66 100 124 180 232 278 332 428
#     4  11  24  45  69  97 138 183 226 285 344 413
#
# _framework density 22.377789
#
# number of rings (size 3 to 8) (size 9 to 14) (size 15 to 20)
#    0.667    0.889    1.111    2.667    6.222    2.667 
#    4.000    0.000    0.000    0.000    0.000    0.000 
#    0.000    0.000    0.000    0.000    0.000    0.000 
#
# Total GULP energy -200606.209559 kJ/mol
# GULP energy per Si atom -5572.394710 kJ/mol
# Density = 2.232686 g / cm^3
# Si number density = 22.377789 Si / 1000 Ang^3
#
#
#
# Elastic Constant Matrix: (Units=GPa)
#
#
# Indices 1 2 3 4 5 6 
#
# 1 218.8795 9.9026 34.9921 0.0000 0.0000 0.0000
# 2 9.9026 41.8215 10.1791 0.0000 0.0000 0.0000
# 3 34.9921 10.1791 81.0051 0.0000 0.0000 0.0000
# 4 0.0000 0.0000 0.0000 20.2360 0.0000 0.0000
# 5 0.0000 0.0000 0.0000 0.0000 28.1796 0.0000
# 6 0.0000 0.0000 0.0000 0.0000 0.0000 38.6109
#
#
#
# Elastic Compliance Matrix: (Units=1/GPa)
#
#
# Indices 1 2 3 4 5 6 
#
# 1 0.004926 -0.000669 -0.002044 0.000000 0.000000 0.000000
# 2 -0.000669 0.024756 -0.002822 0.000000 0.000000 0.000000
# 3 -0.002044 -0.002822 0.013582 0.000000 0.000000 0.000000
# 4 0.000000 0.000000 0.000000 0.049417 0.000000 0.000000
# 5 0.000000 0.000000 0.000000 0.000000 0.035487 0.000000
# 6 0.000000 0.000000 0.000000 0.000000 0.000000 0.025899
#
#
# Mechanical properties :
#
#
# Convention : Reuss Voigt Hill
#
# Bulk Modulus (GPa) = 31.06045 50.20598 40.63322
# Shear Modulus (GPa) = 28.43037 36.51412 32.47224
#
# Velocity S-wave (km/s) = 3.56824 4.04383 3.81345
# Velocity P-wave (km/s) = 5.55757 6.65490 6.13084
#
# Compressibility (1/GPa) = 0.03219528
#
# Stress axis : x y z
#
# Youngs Moduli (GPa) = 203.01618 40.39367 73.62496
#
# Poissons Ratio (x) = 0.02702 0.15047
# Poissons Ratio (y) = 0.13579 0.20777
# Poissons Ratio (z) = 0.41491 0.11399
#
# Static dielectric constant tensor:
#      x y z
#    x 1.865580 0.000000 0.000000 
#    y 0.000000 1.986640 0.000000 
#    z 0.000000 0.000000 1.811940 
# 
# From -- ./inp_files/9716.got.cif
#   From: 2010.05.17/outbox.cif.g08.bks.cpg/sg54_5_cif.got.tgz:9716.got - 2010.06.03 13:09:01.
