data_PCOD9422499
_publ_section_title
;
Structure prediction by ZEFSAII (Michael W. Deem and Ramdas Pophale) SiO2 
 PCOD9422499
Probable space group: P C C A
;
_chemical_formula_sum "Si O2"
_cell_formula_units_Z 64
_cell_length_a 18.720265
_cell_length_b 10.051637
_cell_length_c 14.151372
_cell_angle_alpha 90.000000
_cell_angle_beta 90.000000
_cell_angle_gamma 90.000000
_cell_volume 2662.853881
_symmetry_space_group_name_H-M "P C C A"
_symmetry_group_IT_number 54
_symmetry_cell_setting 'orthorhombic'
loop_
_space_group_symop_operation_xyz
x,y,z
1/2-x,-y,z
1/2+x,-y,1/2-z
-x,y,1/2-z
-x,-y,-z
1/2+x,y,-z
1/2-x,y,1/2+z
x,-y,1/2+z
loop_
_atom_site_type_symbol
_atom_site_label
_atom_site_fract_x
_atom_site_fract_y
_atom_site_fract_z
Si Si1 0.050651 0.637350 0.103068
Si Si2 0.337743 0.618615 0.455987
Si Si3 0.426198 0.011431 0.809735
Si Si4 0.812441 0.316499 0.536825
Si Si5 0.163865 0.751756 0.250078
Si Si6 0.540191 0.662603 0.349316
Si Si7 0.171109 0.735261 0.755336
Si Si8 0.553245 0.162064 0.021485
O O1 0.110054 0.671101 0.182200
O O2 0.025123 0.485248 0.111679
O O3 0.983902 0.736991 0.097523
O O4 0.091615 0.665410 0.005652
O O5 0.269545 0.703344 0.488771
O O6 0.330690 0.467043 0.490157
O O7 0.333485 0.634195 0.343876
O O8 0.500000 0.017678 0.750000
O O9 0.377300 0.889869 0.770068
O O10 0.445488 0.974973 0.919782
O O11 0.374698 0.137841 0.792647
O O12 0.824799 0.318849 0.649580
O O13 0.863929 0.199521 0.507245
O O14 0.248058 0.767304 0.222660
O O15 0.500000 0.675600 0.250000
O O16 0.624278 0.670111 0.326339
O O17 0.525113 0.784370 0.420263
#
# Coordination Sequence:
#
# PCOD9422499 Si02
#       8
#     8   8   8   8   8   8   8   8
#     4  12  24  39  72 101 144 180 236 288 369 441
#     4  10  21  40  62 101 139 178 227 293 353 427
#     4  11  23  48  73  96 135 190 243 295 354 426
#     4   9  20  38  64  93 137 172 228 282 357 417
#     4  10  23  41  70  98 132 186 234 291 351 435
#     4  12  27  42  68 106 153 186 237 300 361 426
#     4  11  25  45  68 100 143 183 237 301 364 418
#     4  11  24  43  67 102 132 192 242 292 352 434
#
# _framework density 24.034362999999999
#
# number of rings (size 3 to 8) (size 9 to 14) (size 15 to 20)
#    0.000    1.250    2.500    2.625    7.000    1.500 
#    2.250    1.875    0.000    0.000    0.000    0.000 
#    0.000    0.000    0.000    0.000    0.000    0.000 
#
# Total GULP energy -357284.627473 kJ/mol
# GULP energy per Si atom -5582.572304 kJ/mol
# Density = 2.397966 g / cm^3
# Si number density = 24.034363 Si / 1000 Ang^3
#
#
#
# Elastic Constant Matrix: (Units=GPa)
#
#
# Indices 1 2 3 4 5 6 
#
# 1 119.6993 26.0057 14.3577 0.0000 0.0000 0.0000
# 2 26.0057 106.8138 10.9340 0.0000 0.0000 0.0000
# 3 14.3577 10.9340 96.8180 0.0000 0.0000 0.0000
# 4 0.0000 0.0000 0.0000 19.6904 0.0000 0.0000
# 5 0.0000 0.0000 0.0000 0.0000 37.6375 0.0000
# 6 0.0000 0.0000 0.0000 0.0000 0.0000 24.1296
#
#
#
# Elastic Compliance Matrix: (Units=1/GPa)
#
#
# Indices 1 2 3 4 5 6 
#
# 1 0.008933 -0.002063 -0.001092 0.000000 0.000000 0.000000
# 2 -0.002063 0.009948 -0.000818 0.000000 0.000000 0.000000
# 3 -0.001092 -0.000818 0.010583 0.000000 0.000000 0.000000
# 4 0.000000 0.000000 0.000000 0.050786 0.000000 0.000000
# 5 0.000000 0.000000 0.000000 0.000000 0.026569 0.000000
# 6 0.000000 0.000000 0.000000 0.000000 0.000000 0.041443
#
#
# Mechanical properties :
#
#
# Convention : Reuss Voigt Hill
#
# Bulk Modulus (GPa) = 46.46970 47.32508 46.89739
# Shear Modulus (GPa) = 30.60333 34.42709 32.51521
#
# Velocity S-wave (km/s) = 3.57223 3.78883 3.68212
# Velocity P-wave (km/s) = 6.03250 6.23487 6.13452
#
# Compressibility (1/GPa) = 0.02151940
#
# Stress axis : x y z
#
# Youngs Moduli (GPa) = 111.93841 100.52172 94.49215
#
# Poissons Ratio (x) = 0.20740 0.10317
# Poissons Ratio (y) = 0.23096 0.07725
# Poissons Ratio (z) = 0.12221 0.08218
#
# Static dielectric constant tensor:
#      x y z
#    x 1.970630 0.000000 0.000000 
#    y 0.000000 1.877710 0.000000 
#    z 0.000000 0.000000 2.021650 
# 
# From -- ./inp_files/14320.got.cif
#   From: 2010.05.17/outbox.cif.g08.bks.cpg/sg54_8_cif.got.tgz:14320.got - 2010.06.03 13:09:01.
