data_PCOD9422360
_publ_section_title
;
Structure prediction by ZEFSAII (Michael W. Deem and Ramdas Pophale) SiO2 
 PCOD9422360
Probable space group: P C C A
;
_chemical_formula_sum "Si O2"
_cell_formula_units_Z 32
_cell_length_a 5.530639
_cell_length_b 8.413880
_cell_length_c 30.356818
_cell_angle_alpha 90.000000
_cell_angle_beta 90.000000
_cell_angle_gamma 90.000000
_cell_volume 1412.628202
_symmetry_space_group_name_H-M "P C C A"
_symmetry_group_IT_number 54
_symmetry_cell_setting 'orthorhombic'
loop_
_space_group_symop_operation_xyz
x,y,z
1/2-x,-y,z
1/2+x,-y,1/2-z
-x,y,1/2-z
-x,-y,-z
1/2+x,y,-z
1/2-x,y,1/2+z
x,-y,1/2+z
loop_
_atom_site_type_symbol
_atom_site_label
_atom_site_fract_x
_atom_site_fract_y
_atom_site_fract_z
Si Si1 0.750000 0.500000 0.121548
Si Si2 0.059591 0.819914 0.517077
Si Si3 0.613687 0.165391 0.798101
Si Si4 0.379681 0.833794 0.393314
Si Si5 0.750000 0.500000 0.824257
O O1 0.735100 0.329064 0.098411
O O2 0.498586 0.505914 0.148464
O O3 0.799718 0.745871 0.503833
O O4 0.089593 0.824393 0.570040
O O5 0.000000 0.000000 0.500000
O O6 0.500000 0.159344 0.750000
O O7 0.446539 0.167219 0.841730
O O8 0.758766 0.331939 0.798984
O O9 0.750000 0.000000 0.803496
O O10 0.250000 0.000000 0.402491
#
# Coordination Sequence:
#
# PCOD9422360 Si02
#       5
#     4   8   8   8   4
#     4  10  24  43  66 107 124 176 236 265 338 411
#     4  10  21  38  63  96 123 169 229 262 333 413
#     4  11  25  41  67 105 138 180 230 274 331 406
#     4  11  22  41  70  93 138 178 217 288 335 391
#     4  10  24  47  68  93 142 180 222 275 334 391
#
# _framework density 22.652813999999999
#
# number of rings (size 3 to 8) (size 9 to 14) (size 15 to 20)
#    0.000    1.500    2.500    2.250    3.500   11.000 
#    0.000    1.250    0.000    0.000    0.000    0.000 
#    0.000    0.000    0.000    0.000    0.000    0.000 
#
# Total GULP energy -178228.594976 kJ/mol
# GULP energy per Si atom -5569.643593 kJ/mol
# Density = 2.260125 g / cm^3
# Si number density = 22.652814 Si / 1000 Ang^3
#
#
#
# Elastic Constant Matrix: (Units=GPa)
#
#
# Indices 1 2 3 4 5 6 
#
# 1 110.9550 15.9645 19.7415 0.0000 0.0000 0.0000
# 2 15.9645 190.7664 -3.0043 0.0000 0.0000 0.0000
# 3 19.7415 -3.0043 126.3119 0.0000 0.0000 0.0000
# 4 0.0000 0.0000 0.0000 -85.2135 0.0000 0.0000
# 5 0.0000 0.0000 0.0000 0.0000 48.9024 0.0000
# 6 0.0000 0.0000 0.0000 0.0000 0.0000 31.2427
#
#
#
# Elastic Compliance Matrix: (Units=1/GPa)
#
#
# Indices 1 2 3 4 5 6 
#
# 1 0.009394 -0.000810 -0.001487 0.000000 0.000000 0.000000
# 2 -0.000810 0.005314 0.000253 0.000000 0.000000 0.000000
# 3 -0.001487 0.000253 0.008155 0.000000 0.000000 0.000000
# 4 0.000000 0.000000 0.000000 -0.011735 0.000000 0.000000
# 5 0.000000 0.000000 0.000000 0.000000 0.020449 0.000000
# 6 0.000000 0.000000 0.000000 0.000000 0.000000 0.032007
#
#
# Mechanical properties :
#
#
# Convention : Reuss Voigt Hill
#
# Bulk Modulus (GPa) = 53.26291 54.82632 54.04461
# Shear Modulus (GPa) = 67.63110 25.34175 46.48643
#
# Velocity S-wave (km/s) = 5.46995 3.34833 4.53495
# Velocity P-wave (km/s) = 7.96602 6.26130 7.16454
#
# Compressibility (1/GPa) = 0.01877479
#
# Stress axis : x y z
#
# Youngs Moduli (GPa) = 106.45328 188.19121 122.61813
#
# Poissons Ratio (x) = 0.15235 0.18239
# Poissons Ratio (y) = 0.08618 -0.03101
# Poissons Ratio (z) = 0.15834 -0.04760
#
# Static dielectric constant tensor:
#      x y z
#    x 3.121740 0.000000 0.000000 
#    y 0.000000 2.100270 0.000000 
#    z 0.000000 0.000000 2.712590 
# 
# From -- ./inp_files/26873.got.cif
#   From: 2010.05.17/outbox.cif.g08.bks.cpg/sg54_14_cif.got.tgz:26873.got - 2010.06.03 13:09:01.
