data_PCOD9422427
_publ_section_title
;
Structure prediction by ZEFSAII (Michael W. Deem and Ramdas Pophale) SiO2 
 PCOD9422427
Probable space group: P C C A
;
_chemical_formula_sum "Si O2"
_cell_formula_units_Z 40
_cell_length_a 28.652718
_cell_length_b 7.271760
_cell_length_c 9.574043
_cell_angle_alpha 90.000000
_cell_angle_beta 90.000000
_cell_angle_gamma 90.000000
_cell_volume 1994.806322
_symmetry_space_group_name_H-M "P C C A"
_symmetry_group_IT_number 54
_symmetry_cell_setting 'orthorhombic'
loop_
_space_group_symop_operation_xyz
x,y,z
1/2-x,-y,z
1/2+x,-y,1/2-z
-x,y,1/2-z
-x,-y,-z
1/2+x,y,-z
1/2-x,y,1/2+z
x,-y,1/2+z
loop_
_atom_site_type_symbol
_atom_site_label
_atom_site_fract_x
_atom_site_fract_y
_atom_site_fract_z
Si Si1 0.864410 0.104261 0.781083
Si Si2 0.926093 0.979117 0.030097
Si Si3 0.498345 0.693205 0.415027
Si Si4 0.716426 0.859444 0.159145
Si Si5 0.782653 0.324357 0.878467
O O1 0.906969 0.110628 0.672849
O O2 0.829829 0.952945 0.715292
O O3 0.883869 0.030705 0.927238
O O4 0.833008 0.286946 0.805404
O O5 0.954345 0.169734 0.055910
O O6 0.958731 0.826379 0.957840
O O7 0.500000 0.652927 0.250000
O O8 0.500000 0.500000 0.500000
O O9 0.707895 0.706940 0.042546
O O10 0.748722 0.806011 0.288503
O O11 0.750000 0.000000 0.076249
O O12 0.750000 0.500000 0.869554
#
# Coordination Sequence:
#
# PCOD9422427 Si02
#       5
#     8   8   8   8   8
#     4  11  22  43  69  98 128 186 234 280 347 431
#     4  11  24  47  73 102 144 182 237 293 358 434
#     4  11  26  46  73 107 146 185 230 295 374 432
#     4  10  21  39  63  86 126 177 223 270 345 414
#     4  11  23  40  61  94 134 173 225 290 343 399
#
# _framework density 20.052071999999999
#
# number of rings (size 3 to 8) (size 9 to 14) (size 15 to 20)
#    0.000    1.200    4.000    2.400    5.600    0.000 
#    7.200    0.000    0.000    0.000    0.000    0.000 
#    0.000    0.000    0.000    0.000    0.000    0.000 
#
# Total GULP energy -222724.176663 kJ/mol
# GULP energy per Si atom -5568.104417 kJ/mol
# Density = 2.000643 g / cm^3
# Si number density = 20.052072 Si / 1000 Ang^3
#
#
#
# Elastic Constant Matrix: (Units=GPa)
#
#
# Indices 1 2 3 4 5 6 
#
# 1 82.5685 44.9202 31.0370 0.0000 0.0000 0.0000
# 2 44.9202 122.0598 52.2944 0.0000 0.0000 0.0000
# 3 31.0370 52.2944 132.2017 0.0000 0.0000 0.0000
# 4 0.0000 0.0000 0.0000 22.4188 0.0000 0.0000
# 5 0.0000 0.0000 0.0000 0.0000 39.4067 0.0000
# 6 0.0000 0.0000 0.0000 0.0000 0.0000 31.5985
#
#
#
# Elastic Compliance Matrix: (Units=1/GPa)
#
#
# Indices 1 2 3 4 5 6 
#
# 1 0.015439 -0.004971 -0.001658 0.000000 0.000000 0.000000
# 2 -0.004971 0.011465 -0.003368 0.000000 0.000000 0.000000
# 3 -0.001658 -0.003368 0.009286 0.000000 0.000000 0.000000
# 4 0.000000 0.000000 0.000000 0.044605 0.000000 0.000000
# 5 0.000000 0.000000 0.000000 0.000000 0.025376 0.000000
# 6 0.000000 0.000000 0.000000 0.000000 0.000000 0.031647
#
#
# Mechanical properties :
#
#
# Convention : Reuss Voigt Hill
#
# Bulk Modulus (GPa) = 61.74823 65.92589 63.83706
# Shear Modulus (GPa) = 30.63489 32.59004 31.61246
#
# Velocity S-wave (km/s) = 3.91291 4.03584 3.97485
# Velocity P-wave (km/s) = 7.16067 7.39365 7.27809
#
# Compressibility (1/GPa) = 0.01619480
#
# Stress axis : x y z
#
# Youngs Moduli (GPa) = 64.77065 87.21960 107.69149
#
# Poissons Ratio (x) = 0.43361 0.17856
# Poissons Ratio (y) = 0.32201 0.36272
# Poissons Ratio (z) = 0.10740 0.29377
#
# Static dielectric constant tensor:
#      x y z
#    x 1.689700 0.000000 0.000000 
#    y 0.000000 -0.274140 0.000000 
#    z 0.000000 0.000000 1.702970 
# 
# From -- ./inp_files/5438.got.cif
#   From: 2010.05.17/outbox.cif.g08.bks.cpg/sg54_3_cif.got.tgz:5438.got - 2010.06.03 13:09:01.
