data_PCOD9422767
_publ_section_title
;
Structure prediction by ZEFSAII (Michael W. Deem and Ramdas Pophale) SiO2 
 PCOD9422767
Probable space group: P C C A
;
_chemical_formula_sum "Si O2"
_cell_formula_units_Z 64
_cell_length_a 25.252286
_cell_length_b 8.595487
_cell_length_c 14.009269
_cell_angle_alpha 90.000000
_cell_angle_beta 90.000000
_cell_angle_gamma 90.000000
_cell_volume 3040.791634
_symmetry_space_group_name_H-M "P C C A"
_symmetry_group_IT_number 54
_symmetry_cell_setting 'orthorhombic'
loop_
_space_group_symop_operation_xyz
x,y,z
1/2-x,-y,z
1/2+x,-y,1/2-z
-x,y,1/2-z
-x,-y,-z
1/2+x,y,-z
1/2-x,y,1/2+z
x,-y,1/2+z
loop_
_atom_site_type_symbol
_atom_site_label
_atom_site_fract_x
_atom_site_fract_y
_atom_site_fract_z
Si Si1 0.438898 0.542946 0.509723
Si Si2 0.133205 0.641629 0.377531
Si Si3 0.292975 0.613240 0.274961
Si Si4 0.215959 0.126962 0.861613
Si Si5 0.554190 0.679809 0.795023
Si Si6 0.445772 0.008457 0.603072
Si Si7 0.443758 0.134118 0.901828
Si Si8 0.644083 0.904508 0.262982
O O1 0.500000 0.500000 0.500000
O O2 0.403943 0.413556 0.461260
O O3 0.425560 0.572127 0.619687
O O4 0.431121 0.700472 0.449244
O O5 0.170324 0.499485 0.339598
O O6 0.168673 0.784379 0.411125
O O7 0.097386 0.693839 0.287559
O O8 0.250000 0.500000 0.224047
O O9 0.255936 0.735719 0.331870
O O10 0.330608 0.734397 0.221219
O O11 0.250000 0.000000 0.917555
O O12 0.188360 0.028303 0.774544
O O13 0.500000 0.616408 0.750000
O O14 0.540383 0.843090 0.846448
O O15 0.441568 0.988046 0.489359
O O16 0.494460 0.122652 0.628719
O O17 0.388809 0.047987 0.645007
O O18 0.400936 0.103521 0.820178
#
# Coordination Sequence:
#
# PCOD9422767 Si02
#       8
#     8   8   8   8   8   8   8   8
#     4  11  23  38  57  91 133 168 208 251 305 395
#     4  11  20  39  64  88 131 171 200 263 325 373
#     4   9  20  37  60  92 121 159 214 264 320 375
#     4   9  20  36  65  94 116 163 221 264 318 384
#     4  11  21  36  60  90 128 168 211 246 311 381
#     4  10  22  36  59  92 129 167 206 256 306 378
#     4  10  22  37  57  91 132 165 211 250 303 387
#     4  11  18  37  65  88 121 165 210 256 321 371
#
# _framework density 21.047149999999998
#
# number of rings (size 3 to 8) (size 9 to 14) (size 15 to 20)
#    0.000    1.750    3.750    1.125    0.000    2.000 
#    2.250    0.000    0.000   22.500    0.000    0.000 
#    0.000    0.000    0.000    0.000    0.000    0.000 
#
# Total GULP energy -357191.601310 kJ/mol
# GULP energy per Si atom -5581.118770 kJ/mol
# Density = 2.099925 g / cm^3
# Si number density = 21.047150 Si / 1000 Ang^3
#
#
#
# Elastic Constant Matrix: (Units=GPa)
#
#
# Indices 1 2 3 4 5 6 
#
# 1 100.1095 25.2266 15.9031 0.0000 0.0000 0.0000
# 2 25.2266 63.0624 7.3268 0.0000 0.0000 0.0000
# 3 15.9031 7.3268 49.9795 0.0000 0.0000 0.0000
# 4 0.0000 0.0000 0.0000 13.2713 0.0000 0.0000
# 5 0.0000 0.0000 0.0000 0.0000 17.0771 0.0000
# 6 0.0000 0.0000 0.0000 0.0000 0.0000 55.3198
#
#
#
# Elastic Compliance Matrix: (Units=1/GPa)
#
#
# Indices 1 2 3 4 5 6 
#
# 1 0.011548 -0.004265 -0.003049 0.000000 0.000000 0.000000
# 2 -0.004265 0.017707 -0.001239 0.000000 0.000000 0.000000
# 3 -0.003049 -0.001239 0.021160 0.000000 0.000000 0.000000
# 4 0.000000 0.000000 0.000000 0.075350 0.000000 0.000000
# 5 0.000000 0.000000 0.000000 0.000000 0.058558 0.000000
# 6 0.000000 0.000000 0.000000 0.000000 0.000000 0.018077
#
#
# Mechanical properties :
#
#
# Convention : Reuss Voigt Hill
#
# Bulk Modulus (GPa) = 30.02172 34.45160 32.23666
# Shear Modulus (GPa) = 21.68159 28.11331 24.89745
#
# Velocity S-wave (km/s) = 3.21307 3.65873 3.44312
# Velocity P-wave (km/s) = 5.29717 5.85258 5.58179
#
# Compressibility (1/GPa) = 0.03330922
#
# Stress axis : x y z
#
# Youngs Moduli (GPa) = 86.59298 56.47338 47.25893
#
# Poissons Ratio (x) = 0.24088 0.14411
# Poissons Ratio (y) = 0.36935 0.05854
# Poissons Ratio (z) = 0.26405 0.06995
#
# Static dielectric constant tensor:
#      x y z
#    x 1.767480 0.000000 0.000000 
#    y 0.000000 1.798220 0.000000 
#    z 0.000000 0.000000 1.111220 
# 
# From -- ./inp_files/15016.got.cif
#   From: 2010.05.17/outbox.cif.g08.bks.cpg/sg54_8_cif.got.tgz:15016.got - 2010.06.03 13:09:01.
