data_PCOD9422968
_publ_section_title
;
Structure prediction by ZEFSAII (Michael W. Deem and Ramdas Pophale) SiO2 
 PCOD9422968
Probable space group: P C C A
;
_chemical_formula_sum "Si O2"
_cell_formula_units_Z 32
_cell_length_a 19.460261
_cell_length_b 5.206112
_cell_length_c 13.802465
_cell_angle_alpha 90.000000
_cell_angle_beta 90.000000
_cell_angle_gamma 90.000000
_cell_volume 1398.359452
_symmetry_space_group_name_H-M "P C C A"
_symmetry_group_IT_number 54
_symmetry_cell_setting 'orthorhombic'
loop_
_space_group_symop_operation_xyz
x,y,z
1/2-x,-y,z
1/2+x,-y,1/2-z
-x,y,1/2-z
-x,-y,-z
1/2+x,y,-z
1/2-x,y,1/2+z
x,-y,1/2+z
loop_
_atom_site_type_symbol
_atom_site_label
_atom_site_fract_x
_atom_site_fract_y
_atom_site_fract_z
Si Si1 0.602583 0.654808 0.178245
Si Si2 0.750000 0.000000 0.492359
Si Si3 0.750000 0.500000 0.125538
Si Si4 0.955135 0.587560 0.886520
Si Si5 0.398889 0.929731 0.518614
O O1 0.677009 0.521202 0.179599
O O2 0.533962 0.516646 0.137285
O O3 0.580311 0.694075 0.288612
O O4 0.608288 0.882165 0.097712
O O5 0.754219 0.252356 0.557842
O O6 0.677262 0.010594 0.439471
O O7 0.920440 0.336884 0.931388
O O8 0.947031 0.830526 0.957185
#
# Coordination Sequence:
#
# PCOD9422968 Si02
#       5
#     8   4   4   8   8
#     4  10  24  43  64  95 131 165 213 261 313 379
#     4  10  22  40  64  94 126 168 216 254 310 382
#     4  10  22  40  64  88 128 172 202 260 322 366
#     4  11  25  40  67  97 124 168 215 258 314 378
#     4  11  23  42  65  92 130 168 207 263 316 366
#
# _framework density 22.883959000000001
#
# number of rings (size 3 to 8) (size 9 to 14) (size 15 to 20)
#    0.000    1.500    0.000    4.500    0.000   16.000 
#    0.000    1.250    0.000    0.000    0.000    0.000 
#    0.000    0.000    0.000    0.000    0.000    0.000 
#
# Total GULP energy -178604.877358 kJ/mol
# GULP energy per Si atom -5581.402417 kJ/mol
# Density = 2.283187 g / cm^3
# Si number density = 22.883959 Si / 1000 Ang^3
#
#
#
# Elastic Constant Matrix: (Units=GPa)
#
#
# Indices 1 2 3 4 5 6 
#
# 1 184.9740 34.7990 43.8448 0.0000 0.0000 0.0000
# 2 34.7990 126.8008 46.7288 0.0000 0.0000 0.0000
# 3 43.8448 46.7288 116.4352 0.0000 0.0000 0.0000
# 4 0.0000 0.0000 0.0000 12.0795 0.0000 0.0000
# 5 0.0000 0.0000 0.0000 0.0000 37.6091 0.0000
# 6 0.0000 0.0000 0.0000 0.0000 0.0000 35.3252
#
#
#
# Elastic Compliance Matrix: (Units=1/GPa)
#
#
# Indices 1 2 3 4 5 6 
#
# 1 0.006034 -0.000961 -0.001887 0.000000 0.000000 0.000000
# 2 -0.000961 0.009408 -0.003414 0.000000 0.000000 0.000000
# 3 -0.001887 -0.003414 0.010669 0.000000 0.000000 0.000000
# 4 0.000000 0.000000 0.000000 0.082785 0.000000 0.000000
# 5 0.000000 0.000000 0.000000 0.000000 0.026589 0.000000
# 6 0.000000 0.000000 0.000000 0.000000 0.000000 0.028308
#
#
# Mechanical properties :
#
#
# Convention : Reuss Voigt Hill
#
# Bulk Modulus (GPa) = 73.59114 75.43947 74.51531
# Shear Modulus (GPa) = 27.64777 37.19192 32.41984
#
# Velocity S-wave (km/s) = 3.47965 4.03580 3.76800
# Velocity P-wave (km/s) = 6.95501 7.39963 7.18076
#
# Compressibility (1/GPa) = 0.01358859
#
# Stress axis : x y z
#
# Youngs Moduli (GPa) = 165.72494 106.29052 93.72921
#
# Poissons Ratio (x) = 0.10212 0.17683
# Poissons Ratio (y) = 0.15922 0.31999
# Poissons Ratio (z) = 0.31266 0.36288
#
# Static dielectric constant tensor:
#      x y z
#    x 1.978750 0.000000 0.000000 
#    y 0.000000 1.805080 0.000000 
#    z 0.000000 0.000000 1.861580 
# 
# From -- ./inp_files/13750.got.cif
#   From: 2010.05.17/outbox.cif.g08.bks.cpg/sg54_7_cif.got.tgz:13750.got - 2010.06.03 13:09:01.
