data_PCOD9422355
_publ_section_title
;
Structure prediction by ZEFSAII (Michael W. Deem and Ramdas Pophale) SiO2 
 PCOD9422355
Probable space group: P C C A
;
_chemical_formula_sum "Si O2"
_cell_formula_units_Z 52
_cell_length_a 14.808843
_cell_length_b 20.570207
_cell_length_c 8.545209
_cell_angle_alpha 90.000000
_cell_angle_beta 90.000000
_cell_angle_gamma 90.000000
_cell_volume 2603.049820
_symmetry_space_group_name_H-M "P C C A"
_symmetry_group_IT_number 54
_symmetry_cell_setting 'orthorhombic'
loop_
_space_group_symop_operation_xyz
x,y,z
1/2-x,-y,z
1/2+x,-y,1/2-z
-x,y,1/2-z
-x,-y,-z
1/2+x,y,-z
1/2-x,y,1/2+z
x,-y,1/2+z
loop_
_atom_site_type_symbol
_atom_site_label
_atom_site_fract_x
_atom_site_fract_y
_atom_site_fract_z
Si Si1 0.024878 0.929239 0.566744
Si Si2 0.449447 0.402777 0.496192
Si Si3 0.378055 0.311364 0.068253
Si Si4 0.316228 0.151429 0.433083
Si Si5 0.500000 0.505311 0.750000
Si Si6 0.375655 0.160812 0.073551
Si Si7 0.187507 0.302546 0.927293
O O1 0.959994 0.881653 0.471466
O O2 0.000000 0.926908 0.750000
O O3 0.124633 0.900557 0.529825
O O4 0.000000 0.000000 0.500000
O O5 0.542036 0.361629 0.469879
O O6 0.455130 0.456846 0.628409
O O7 0.433889 0.446105 0.341339
O O8 0.372720 0.350979 0.527819
O O9 0.405279 0.235731 0.052343
O O10 0.343578 0.313926 0.248283
O O11 0.291805 0.318680 0.955947
O O12 0.342956 0.148186 0.250786
O O13 0.209724 0.143410 0.464064
O O14 0.331139 0.227770 0.476083
#
# Coordination Sequence:
#
# PCOD9422355 Si02
#       7
#     8   8   8   8   4   8   8
#     4  12  25  41  62  91 124 166 206 243 295 362
#     4  11  21  43  58  82 118 161 196 248 294 357
#     4  10  21  38  63  90 118 153 199 247 300 350
#     4  10  21  40  63  92 124 158 200 255 303 354
#     4  10  24  38  62  80 118 160 202 234 302 360
#     4  10  21  40  63  92 124 158 200 255 303 354
#     4  10  21  38  63  90 118 153 199 247 300 350
#
# _framework density 19.976569000000001
#
# number of rings (size 3 to 8) (size 9 to 14) (size 15 to 20)
#    0.000    1.538    1.538    3.231    2.154    4.308 
#    2.769    7.692    0.000    0.000    0.000    0.000 
#    0.000    0.000    0.000    0.000    0.000    0.000 
#
# Total GULP energy -290278.401635 kJ/mol
# GULP energy per Si atom -5582.276955 kJ/mol
# Density = 1.993110 g / cm^3
# Si number density = 19.976569 Si / 1000 Ang^3
#
#
#
# Elastic Constant Matrix: (Units=GPa)
#
#
# Indices 1 2 3 4 5 6 
#
# 1 56.9409 51.3152 0.7153 0.0000 0.0000 0.0000
# 2 51.3152 92.4894 11.1136 0.0000 0.0000 0.0000
# 3 0.7153 11.1136 36.7299 0.0000 0.0000 0.0000
# 4 0.0000 0.0000 0.0000 28.6744 0.0000 0.0000
# 5 0.0000 0.0000 0.0000 0.0000 23.3378 0.0000
# 6 0.0000 0.0000 0.0000 0.0000 0.0000 4.2308
#
#
#
# Elastic Compliance Matrix: (Units=1/GPa)
#
#
# Indices 1 2 3 4 5 6 
#
# 1 0.036192 -0.020750 0.005574 0.000000 0.000000 0.000000
# 2 -0.020750 0.023116 -0.006590 0.000000 0.000000 0.000000
# 3 0.005574 -0.006590 0.029111 0.000000 0.000000 0.000000
# 4 0.000000 0.000000 0.000000 0.034874 0.000000 0.000000
# 5 0.000000 0.000000 0.000000 0.000000 0.042849 0.000000
# 6 0.000000 0.000000 0.000000 0.000000 0.000000 0.236360
#
#
# Mechanical properties :
#
#
# Convention : Reuss Voigt Hill
#
# Bulk Modulus (GPa) = 22.27848 34.71650 28.49749
# Shear Modulus (GPa) = 10.84604 19.44968 15.14786
#
# Velocity S-wave (km/s) = 2.33263 3.12368 2.75668
# Velocity P-wave (km/s) = 4.29318 5.51599 4.94255
#
# Compressibility (1/GPa) = 0.04488636
#
# Stress axis : x y z
#
# Youngs Moduli (GPa) = 27.63057 43.25934 34.35085
#
# Poissons Ratio (x) = 0.89762 -0.19146
# Poissons Ratio (y) = 0.57333 0.22639
# Poissons Ratio (z) = -0.15400 0.28510
#
# Static dielectric constant tensor:
#      x y z
#    x 1.665580 0.000000 0.000000 
#    y 0.000000 1.699330 0.000000 
#    z 0.000000 0.000000 1.750680 
# 
# From -- ./inp_files/3655.got.cif
#   From: 2010.05.17/outbox.cif.g08.bks.cpg/sg54_2_cif.got.tgz:3655.got - 2010.06.03 13:09:01.
