data_PCOD9422893
_publ_section_title
;
Structure prediction by ZEFSAII (Michael W. Deem and Ramdas Pophale) SiO2 
 PCOD9422893
Probable space group: P C C A
;
_chemical_formula_sum "Si O2"
_cell_formula_units_Z 64
_cell_length_a 15.342251
_cell_length_b 8.675083
_cell_length_c 24.975471
_cell_angle_alpha 90.000000
_cell_angle_beta 90.000000
_cell_angle_gamma 90.000000
_cell_volume 3324.117826
_symmetry_space_group_name_H-M "P C C A"
_symmetry_group_IT_number 54
_symmetry_cell_setting 'orthorhombic'
loop_
_space_group_symop_operation_xyz
x,y,z
1/2-x,-y,z
1/2+x,-y,1/2-z
-x,y,1/2-z
-x,-y,-z
1/2+x,y,-z
1/2-x,y,1/2+z
x,-y,1/2+z
loop_
_atom_site_type_symbol
_atom_site_label
_atom_site_fract_x
_atom_site_fract_y
_atom_site_fract_z
Si Si1 0.151271 0.938844 0.254647
Si Si2 0.847728 0.936027 0.363690
Si Si3 0.896043 0.584766 0.246256
Si Si4 0.654639 0.432345 0.635013
Si Si5 0.156540 0.435585 0.635536
Si Si6 0.848458 0.934359 0.634270
Si Si7 0.996280 0.065644 0.559287
Si Si8 0.503692 0.563368 0.560150
O O1 0.116537 0.977985 0.195634
O O2 0.145801 0.754414 0.261236
O O3 0.250000 0.000000 0.252877
O O4 0.113398 0.014733 0.307834
O O5 0.841599 0.750327 0.364361
O O6 0.917366 0.984327 0.407955
O O7 0.750000 0.000000 0.371209
O O8 0.872239 0.483463 0.195043
O O9 0.864258 0.517594 0.303051
O O10 0.000000 0.606087 0.250000
O O11 0.750000 0.500000 0.624497
O O12 0.655305 0.248858 0.631095
O O13 0.586480 0.501594 0.592825
O O14 0.250000 0.500000 0.619749
O O15 0.081003 0.484614 0.594844
O O16 0.750000 0.000000 0.629801
O O17 0.911304 0.003497 0.589569
O O18 0.993938 0.251108 0.558844
O O19 0.000000 0.000000 0.500000
O O20 0.500000 0.500000 0.500000
#
# Coordination Sequence:
#
# PCOD9422893 Si02
#       8
#     8   8   8   8   8   8   8   8
#     4   9  19  37  61  93 124 162 203 245 308 379
#     4   9  21  39  61  90 122 161 200 248 311 369
#     4  11  21  39  65  95 132 171 204 258 325 379
#     4  12  24  42  66  94 128 168 212 264 319 383
#     4  10  22  39  64  91 125 164 205 253 312 378
#     4  11  24  41  63  95 125 164 209 260 316 377
#     4  11  24  43  63  90 123 165 211 263 314 372
#     4  11  24  44  65  91 126 167 215 265 319 380
#
# _framework density 19.253228
#
# number of rings (size 3 to 8) (size 9 to 14) (size 15 to 20)
#    0.000    1.500    1.250    4.125    3.500    6.000 
#    2.250    2.500    0.000    0.000    0.000    0.000 
#    0.000    0.000    0.000    0.000    0.000    0.000 
#
# Total GULP energy -357665.955192 kJ/mol
# GULP energy per Si atom -5588.530550 kJ/mol
# Density = 1.920941 g / cm^3
# Si number density = 19.253228 Si / 1000 Ang^3
#
#
#
# Elastic Constant Matrix: (Units=GPa)
#
#
# Indices 1 2 3 4 5 6 
#
# 1 150.9275 52.2358 92.3040 0.0000 0.0000 0.0000
# 2 52.2358 89.4492 62.7947 0.0000 0.0000 0.0000
# 3 92.3040 62.7947 197.9428 0.0000 0.0000 0.0000
# 4 0.0000 0.0000 0.0000 33.4427 0.0000 0.0000
# 5 0.0000 0.0000 0.0000 0.0000 17.4542 0.0000
# 6 0.0000 0.0000 0.0000 0.0000 0.0000 30.4105
#
#
#
# Elastic Compliance Matrix: (Units=1/GPa)
#
#
# Indices 1 2 3 4 5 6 
#
# 1 0.009969 -0.003291 -0.003605 0.000000 0.000000 0.000000
# 2 -0.003291 0.015469 -0.003373 0.000000 0.000000 0.000000
# 3 -0.003605 -0.003373 0.007803 0.000000 0.000000 0.000000
# 4 0.000000 0.000000 0.000000 0.029902 0.000000 0.000000
# 5 0.000000 0.000000 0.000000 0.000000 0.057293 0.000000
# 6 0.000000 0.000000 0.000000 0.000000 0.000000 0.032883
#
#
# Mechanical properties :
#
#
# Convention : Reuss Voigt Hill
#
# Bulk Modulus (GPa) = 78.71466 94.77648 86.74557
# Shear Modulus (GPa) = 28.07546 31.66049 29.86797
#
# Velocity S-wave (km/s) = 3.82281 4.05955 3.94296
# Velocity P-wave (km/s) = 7.77546 8.44431 8.11678
#
# Compressibility (1/GPa) = 0.01270411
#
# Stress axis : x y z
#
# Youngs Moduli (GPa) = 100.30689 64.64483 128.15812
#
# Poissons Ratio (x) = 0.21276 0.46198
# Poissons Ratio (y) = 0.33013 0.43223
# Poissons Ratio (z) = 0.36159 0.21802
#
# Static dielectric constant tensor:
#      x y z
#    x 1.651230 0.000000 0.000000 
#    y 0.000000 1.650250 0.000000 
#    z 0.000000 0.000000 1.659640 
# 
# From -- ./inp_files/24492.got.cif
#   From: 2010.05.17/outbox.cif.g08.bks.cpg/sg54_13_cif.got.tgz:24492.got - 2010.06.03 13:09:01.
