data_PCOD9422832
_publ_section_title
;
Structure prediction by ZEFSAII (Michael W. Deem and Ramdas Pophale) SiO2 
 PCOD9422832
Probable space group: P C C A
;
_chemical_formula_sum "Si O2"
_cell_formula_units_Z 64
_cell_length_a 29.764295
_cell_length_b 9.758523
_cell_length_c 9.960089
_cell_angle_alpha 90.000000
_cell_angle_beta 90.000000
_cell_angle_gamma 90.000000
_cell_volume 2892.963202
_symmetry_space_group_name_H-M "P C C A"
_symmetry_group_IT_number 54
_symmetry_cell_setting 'orthorhombic'
loop_
_space_group_symop_operation_xyz
x,y,z
1/2-x,-y,z
1/2+x,-y,1/2-z
-x,y,1/2-z
-x,-y,-z
1/2+x,y,-z
1/2-x,y,1/2+z
x,-y,1/2+z
loop_
_atom_site_type_symbol
_atom_site_label
_atom_site_fract_x
_atom_site_fract_y
_atom_site_fract_z
Si Si1 0.084180 0.614128 0.078182
Si Si2 0.386006 0.561074 0.854659
Si Si3 0.978724 0.894172 0.895703
Si Si4 0.697874 0.758769 0.587533
Si Si5 0.012239 0.333012 0.895138
Si Si6 0.655495 0.026289 0.685037
Si Si7 0.764788 0.837706 0.811744
Si Si8 0.396403 0.927122 0.569603
O O1 0.113483 0.545035 0.194998
O O2 0.083496 0.777611 0.096752
O O3 0.031773 0.568723 0.090602
O O4 0.108372 0.576024 0.940186
O O5 0.344173 0.654818 0.900718
O O6 0.435591 0.627348 0.878959
O O7 0.000000 0.900247 0.750000
O O8 0.927603 0.943765 0.895212
O O9 0.987730 0.752397 0.968592
O O10 0.000000 0.000000 0.000000
O O11 0.679195 0.913913 0.591349
O O12 0.729564 0.757716 0.718362
O O13 0.725794 0.758018 0.449585
O O14 0.000000 0.262712 0.750000
O O15 0.642650 0.946392 0.821046
O O16 0.689065 0.145558 0.727705
O O17 0.615492 0.071217 0.587555
O O18 0.750000 0.000000 0.332072
#
# Coordination Sequence:
#
# PCOD9422832 Si02
#       8
#     8   8   8   8   8   8   8   8
#     4  11  25  44  67  94 139 182 236 284 331 397
#     4  11  25  45  70  94 130 185 241 283 331 395
#     4  12  24  37  60  97 143 181 222 276 357 419
#     4  11  22  41  67 100 133 173 222 280 343 414
#     4  10  23  44  69  94 139 186 225 290 342 404
#     4  11  22  39  66 102 135 172 216 279 354 424
#     4  10  22  38  67 105 138 170 212 281 359 424
#     4  12  24  39  65 100 141 179 222 282 348 417
#
# _framework density 22.122644999999999
#
# number of rings (size 3 to 8) (size 9 to 14) (size 15 to 20)
#    0.000    1.000    3.750    3.375    5.250    2.000 
#    0.000    0.000    0.000    6.000    0.000    0.000 
#    0.000    0.000    0.000    0.000    0.000    0.000 
#
# Total GULP energy -356965.988493 kJ/mol
# GULP energy per Si atom -5577.593570 kJ/mol
# Density = 2.207229 g / cm^3
# Si number density = 22.122645 Si / 1000 Ang^3
#
#
#
# Elastic Constant Matrix: (Units=GPa)
#
#
# Indices 1 2 3 4 5 6 
#
# 1 103.6743 26.0394 47.7828 0.0000 0.0000 0.0000
# 2 26.0394 40.4372 35.6013 0.0000 0.0000 0.0000
# 3 47.7828 35.6013 124.2358 0.0000 0.0000 0.0000
# 4 0.0000 0.0000 0.0000 19.9584 0.0000 0.0000
# 5 0.0000 0.0000 0.0000 0.0000 46.8570 0.0000
# 6 0.0000 0.0000 0.0000 0.0000 0.0000 26.2641
#
#
#
# Elastic Compliance Matrix: (Units=1/GPa)
#
#
# Indices 1 2 3 4 5 6 
#
# 1 0.012460 -0.005088 -0.003334 0.000000 0.000000 0.000000
# 2 -0.005088 0.035152 -0.008116 0.000000 0.000000 0.000000
# 3 -0.003334 -0.008116 0.011657 0.000000 0.000000 0.000000
# 4 0.000000 0.000000 0.000000 0.050104 0.000000 0.000000
# 5 0.000000 0.000000 0.000000 0.000000 0.021342 0.000000
# 6 0.000000 0.000000 0.000000 0.000000 0.000000 0.038075
#
#
# Mechanical properties :
#
#
# Convention : Reuss Voigt Hill
#
# Bulk Modulus (GPa) = 38.17946 54.13272 46.15609
# Shear Modulus (GPa) = 23.74189 29.21084 26.47636
#
# Velocity S-wave (km/s) = 3.27952 3.63768 3.46323
# Velocity P-wave (km/s) = 5.62458 6.49354 6.07462
#
# Compressibility (1/GPa) = 0.02619210
#
# Stress axis : x y z
#
# Youngs Moduli (GPa) = 80.25461 28.44804 85.78217
#
# Poissons Ratio (x) = 0.14475 0.28603
# Poissons Ratio (y) = 0.40835 0.69622
# Poissons Ratio (z) = 0.26759 0.23089
#
# Static dielectric constant tensor:
#      x y z
#    x 2.085080 0.000000 0.000000 
#    y 0.000000 1.886610 0.000000 
#    z 0.000000 0.000000 1.960790 
# 
# From -- ./inp_files/5958.got.cif
#   From: 2010.05.17/outbox.cif.g08.bks.cpg/sg54_3_cif.got.tgz:5958.got - 2010.06.03 13:09:01.
