data_PCOD9422657
_publ_section_title
;
Structure prediction by ZEFSAII (Michael W. Deem and Ramdas Pophale) SiO2 
 PCOD9422657
Probable space group: P C C A
;
_chemical_formula_sum "Si O2"
_cell_formula_units_Z 32
_cell_length_a 12.473417
_cell_length_b 10.241681
_cell_length_c 9.198110
_cell_angle_alpha 90.000000
_cell_angle_beta 90.000000
_cell_angle_gamma 90.000000
_cell_volume 1175.047127
_symmetry_space_group_name_H-M "P C C A"
_symmetry_group_IT_number 54
_symmetry_cell_setting 'orthorhombic'
loop_
_space_group_symop_operation_xyz
x,y,z
1/2-x,-y,z
1/2+x,-y,1/2-z
-x,y,1/2-z
-x,-y,-z
1/2+x,y,-z
1/2-x,y,1/2+z
x,-y,1/2+z
loop_
_atom_site_type_symbol
_atom_site_label
_atom_site_fract_x
_atom_site_fract_y
_atom_site_fract_z
Si Si1 0.641658 0.796800 0.743814
Si Si2 0.904614 0.592110 0.442683
Si Si3 0.825853 0.868372 0.948520
Si Si4 0.000000 0.961903 0.750000
Si Si5 0.250000 0.500000 0.816652
O O1 0.568021 0.733383 0.871385
O O2 0.756814 0.803972 0.819892
O O3 0.662221 0.762770 0.576883
O O4 0.596984 0.942045 0.710623
O O5 0.821813 0.587191 0.574450
O O6 0.841463 0.547622 0.296330
O O7 0.000000 0.500000 0.500000
O O8 0.750000 0.000000 0.978995
O O9 0.944978 0.889318 0.883177
#
# Coordination Sequence:
#
# PCOD9422657 Si02
#       5
#     8   8   8   4   4
#     4  11  23  40  70 104 150 198 255 311 403 460
#     4  11  24  45  77 109 150 206 262 335 395 474
#     4  10  21  42  69 107 155 206 252 323 384 485
#     4  10  22  38  72 108 152 202 256 316 382 480
#     4  10  24  46  74 104 154 190 266 336 382 458
#
# _framework density 27.232951
#
# number of rings (size 3 to 8) (size 9 to 14) (size 15 to 20)
#    0.000    1.500    0.000    5.250    3.500    2.000 
#    0.000    0.000    0.000    0.000    0.000    0.000 
#    0.000    0.000    0.000    0.000    0.000    0.000 
#
# Total GULP energy -178331.923892 kJ/mol
# GULP energy per Si atom -5572.872622 kJ/mol
# Density = 2.717097 g / cm^3
# Si number density = 27.232951 Si / 1000 Ang^3
#
#
#
# Elastic Constant Matrix: (Units=GPa)
#
#
# Indices 1 2 3 4 5 6 
#
# 1 171.1421 69.6082 109.4927 0.0000 0.0000 0.0000
# 2 69.6082 75.4612 72.0144 0.0000 0.0000 0.0000
# 3 109.4927 72.0144 218.3060 0.0000 0.0000 0.0000
# 4 0.0000 0.0000 0.0000 25.9123 0.0000 0.0000
# 5 0.0000 0.0000 0.0000 0.0000 62.4410 0.0000
# 6 0.0000 0.0000 0.0000 0.0000 0.0000 54.9889
#
#
#
# Elastic Compliance Matrix: (Units=1/GPa)
#
#
# Indices 1 2 3 4 5 6 
#
# 1 0.010578 -0.006851 -0.003045 0.000000 0.000000 0.000000
# 2 -0.006851 0.023778 -0.004408 0.000000 0.000000 0.000000
# 3 -0.003045 -0.004408 0.007562 0.000000 0.000000 0.000000
# 4 0.000000 0.000000 0.000000 0.038592 0.000000 0.000000
# 5 0.000000 0.000000 0.000000 0.000000 0.016015 0.000000
# 6 0.000000 0.000000 0.000000 0.000000 0.000000 0.018185
#
#
# Mechanical properties :
#
#
# Convention : Reuss Voigt Hill
#
# Bulk Modulus (GPa) = 75.13329 107.45999 91.29664
# Shear Modulus (GPa) = 33.83969 42.92138 38.38053
#
# Velocity S-wave (km/s) = 3.52888 3.97430 3.75819
# Velocity P-wave (km/s) = 6.65229 7.78494 7.24080
#
# Compressibility (1/GPa) = 0.01330968
#
# Stress axis : x y z
#
# Youngs Moduli (GPa) = 94.53484 42.05576 132.23824
#
# Poissons Ratio (x) = 0.28814 0.40272
# Poissons Ratio (y) = 0.64769 0.58284
# Poissons Ratio (z) = 0.28790 0.18536
#
# Static dielectric constant tensor:
#      x y z
#    x 2.105870 0.000000 0.000000 
#    y 0.000000 2.959250 0.000000 
#    z 0.000000 0.000000 2.116920 
# 
# From -- ./inp_files/3286.got.cif
#   From: 2010.05.17/outbox.cif.g08.bks.cpg/sg54_2_cif.got.tgz:3286.got - 2010.06.03 13:09:01.
