data_PCOD9422163
_publ_section_title
;
Structure prediction by ZEFSAII (Michael W. Deem and Ramdas Pophale) SiO2 
 PCOD9422163
Probable space group: P C C A
;
_chemical_formula_sum "Si O2"
_cell_formula_units_Z 56
_cell_length_a 5.191948
_cell_length_b 30.909172
_cell_length_c 17.406045
_cell_angle_alpha 90.000000
_cell_angle_beta 90.000000
_cell_angle_gamma 90.000000
_cell_volume 2793.301454
_symmetry_space_group_name_H-M "P C C A"
_symmetry_group_IT_number 54
_symmetry_cell_setting 'orthorhombic'
loop_
_space_group_symop_operation_xyz
x,y,z
1/2-x,-y,z
1/2+x,-y,1/2-z
-x,y,1/2-z
-x,-y,-z
1/2+x,y,-z
1/2-x,y,1/2+z
x,-y,1/2+z
loop_
_atom_site_type_symbol
_atom_site_label
_atom_site_fract_x
_atom_site_fract_y
_atom_site_fract_z
Si Si1 0.174063 0.680614 0.952746
Si Si2 0.752365 0.947946 0.299664
Si Si3 0.659585 0.110883 0.445064
Si Si4 0.998584 0.753880 0.658624
Si Si5 0.642308 0.577854 0.045878
Si Si6 0.996226 0.192994 0.842482
Si Si7 0.749293 0.550671 0.212838
O O1 0.088827 0.710377 0.882797
O O2 0.156190 0.629286 0.937864
O O3 0.462528 0.689831 0.981082
O O4 0.500000 0.934939 0.250000
O O5 0.787166 0.926952 0.383034
O O6 0.000000 0.935212 0.250000
O O7 0.750000 0.000000 0.306960
O O8 0.407582 0.109760 0.499293
O O9 0.605241 0.152580 0.391175
O O10 0.783213 0.790269 0.637861
O O11 0.000000 0.748349 0.750000
O O12 0.285482 0.769893 0.639793
O O13 0.729436 0.554142 0.122299
O O14 0.353091 0.567615 0.019498
O O15 0.000000 0.184395 0.750000
O O16 0.750000 0.500000 0.234640
O O17 0.500000 0.571684 0.250000
O O18 0.000000 0.571075 0.250000
#
# Coordination Sequence:
#
# PCOD9422163 Si02
#       7
#     8   8   8   8   8   8   8
#     4  10  21  36  55  79 110 145 180 227 281 332
#     4  10  22  42  66  88 115 157 198 229 278 347
#     4  12  25  38  59  92 122 150 190 241 292 336
#     4  10  21  37  57  81 107 144 192 235 276 327
#     4  10  21  37  56  82 113 148 190 229 278 343
#     4  10  22  39  57  79 113 152 190 231 276 336
#     4  10  21  37  57  83 113 145 184 232 285 335
#
# _framework density 20.047962999999999
#
# number of rings (size 3 to 8) (size 9 to 14) (size 15 to 20)
#    0.000    1.714    0.000    3.857    0.000    6.857 
#    0.000    2.143    0.000    0.000    0.000    0.000 
#    0.000    0.000    0.000    0.000    0.000    0.000 
#
# Total GULP energy -312580.773322 kJ/mol
# GULP energy per Si atom -5581.799524 kJ/mol
# Density = 2.000233 g / cm^3
# Si number density = 20.047963 Si / 1000 Ang^3
#
#
#
# Elastic Constant Matrix: (Units=GPa)
#
#
# Indices 1 2 3 4 5 6 
#
# 1 150.1354 24.1548 41.0973 0.0000 0.0000 0.0000
# 2 24.1548 -182.7653 -159.1433 0.0000 0.0000 0.0000
# 3 41.0973 -159.1433 -101.9939 0.0000 0.0000 0.0000
# 4 0.0000 0.0000 0.0000 24.3719 0.0000 0.0000
# 5 0.0000 0.0000 0.0000 0.0000 35.7509 0.0000
# 6 0.0000 0.0000 0.0000 0.0000 0.0000 11.6670
#
#
#
# Elastic Compliance Matrix: (Units=1/GPa)
#
#
# Indices 1 2 3 4 5 6 
#
# 1 0.007026 0.004284 -0.003854 0.000000 0.000000 0.000000
# 2 0.004284 0.017868 -0.026154 0.000000 0.000000 0.000000
# 3 -0.003854 -0.026154 0.029451 0.000000 0.000000 0.000000
# 4 0.000000 0.000000 0.000000 0.041031 0.000000 0.000000
# 5 0.000000 0.000000 0.000000 0.000000 0.027971 0.000000
# 6 0.000000 0.000000 0.000000 0.000000 0.000000 0.085712
#
#
# Mechanical properties :
#
#
# Convention : Reuss Voigt Hill
#
# Bulk Modulus (GPa) = 344.96433 -35.82290 154.57072
# Shear Modulus (GPa) = 19.12252 11.64245 15.38248
#
# Velocity S-wave (km/s) = 3.09178 2.41245 2.77299
# Velocity P-wave (km/s) = 13.60840 3.18552 9.35524
#
# Compressibility (1/GPa) = 0.00289885
#
# Stress axis : x y z
#
# Youngs Moduli (GPa) = 142.32240 55.96546 33.95490
#
# Poissons Ratio (x) = -0.23978 0.13086
# Poissons Ratio (y) = -0.60977 0.88805
# Poissons Ratio (z) = 0.54850 1.46371
#
# Static dielectric constant tensor:
#      x y z
#    x 1.745620 0.000000 0.000000 
#    y 0.000000 1.704510 0.000000 
#    z 0.000000 0.000000 1.695700 
# 
# From -- ./inp_files/11005.got.cif
#   From: 2010.05.17/outbox.cif.g08.bks.cpg/sg54_6_cif.got.tgz:11005.got - 2010.06.03 13:09:01.
