data_PCOD9422911
_publ_section_title
;
Structure prediction by ZEFSAII (Michael W. Deem and Ramdas Pophale) SiO2 
 PCOD9422911
Probable space group: P C C A
;
_chemical_formula_sum "Si O2"
_cell_formula_units_Z 32
_cell_length_a 23.516438
_cell_length_b 4.946881
_cell_length_c 9.604012
_cell_angle_alpha 90.000000
_cell_angle_beta 90.000000
_cell_angle_gamma 90.000000
_cell_volume 1117.263723
_symmetry_space_group_name_H-M "P C C A"
_symmetry_group_IT_number 54
_symmetry_cell_setting 'orthorhombic'
loop_
_space_group_symop_operation_xyz
x,y,z
1/2-x,-y,z
1/2+x,-y,1/2-z
-x,y,1/2-z
-x,-y,-z
1/2+x,y,-z
1/2-x,y,1/2+z
x,-y,1/2+z
loop_
_atom_site_type_symbol
_atom_site_label
_atom_site_fract_x
_atom_site_fract_y
_atom_site_fract_z
Si Si1 0.250000 0.500000 0.591093
Si Si2 0.936525 0.659220 0.785455
Si Si3 0.750000 0.000000 0.720567
Si Si4 0.153121 0.644807 0.925029
Si Si5 0.435553 0.947442 0.954072
O O1 0.231243 0.246628 0.681551
O O2 0.305118 0.435220 0.498842
O O3 0.935546 0.956790 0.707816
O O4 0.000000 -0.450615 0.750000
O O5 0.885349 0.523168 0.700138
O O6 0.925395 0.685286 0.949192
O O7 0.801292 0.860757 0.637762
O O8 0.110439 0.837264 0.009463
O O9 0.500000 0.000000 0.000000
#
# Coordination Sequence:
#
# PCOD9422911 Si02
#       5
#     4   8   4   8   8
#     4  12  26  46  74 114 160 214 274 334 408 484
#     4   8  15  30  59 103 151 194 256 317 401 472
#     4  12  26  46  72 112 160 212 272 334 404 488
#     4  10  22  39  70 109 155 205 267 329 406 476
#     4   8  15  31  62 109 153 205 261 329 406 486
#
# _framework density 28.641406
#
# number of rings (size 3 to 8) (size 9 to 14) (size 15 to 20)
#    1.500    1.000    0.000    3.000    0.000    0.000 
#    0.000    0.000    0.000    1.500    6.500    0.000 
#    0.000    0.000    0.000    0.000    0.000    0.000 
#
# Total GULP energy -178731.950362 kJ/mol
# GULP energy per Si atom -5585.373449 kJ/mol
# Density = 2.857622 g / cm^3
# Si number density = 28.641406 Si / 1000 Ang^3
#
#
#
# Elastic Constant Matrix: (Units=GPa)
#
#
# Indices 1 2 3 4 5 6 
#
# 1 198.7375 20.6134 29.8080 0.0000 0.0000 0.0000
# 2 20.6134 86.1612 20.8924 0.0000 0.0000 0.0000
# 3 29.8080 20.8924 129.4566 0.0000 0.0000 0.0000
# 4 0.0000 0.0000 0.0000 24.5635 0.0000 0.0000
# 5 0.0000 0.0000 0.0000 0.0000 51.6829 0.0000
# 6 0.0000 0.0000 0.0000 0.0000 0.0000 27.7786
#
#
#
# Elastic Compliance Matrix: (Units=1/GPa)
#
#
# Indices 1 2 3 4 5 6 
#
# 1 0.005295 -0.001011 -0.001056 0.000000 0.000000 0.000000
# 2 -0.001011 0.012272 -0.001748 0.000000 0.000000 0.000000
# 3 -0.001056 -0.001748 0.008250 0.000000 0.000000 0.000000
# 4 0.000000 0.000000 0.000000 0.040711 0.000000 0.000000
# 5 0.000000 0.000000 0.000000 0.000000 0.019349 0.000000
# 6 0.000000 0.000000 0.000000 0.000000 0.000000 0.035999
#
#
# Mechanical properties :
#
#
# Convention : Reuss Voigt Hill
#
# Bulk Modulus (GPa) = 54.98292 61.88700 58.43496
# Shear Modulus (GPa) = 36.88222 43.67443 40.27833
#
# Velocity S-wave (km/s) = 3.59238 3.90920 3.75413
# Velocity P-wave (km/s) = 6.03702 6.48307 6.26402
#
# Compressibility (1/GPa) = 0.01818747
#
# Stress axis : x y z
#
# Youngs Moduli (GPa) = 188.85762 81.48795 121.21458
#
# Poissons Ratio (x) = 0.08236 0.12801
# Poissons Ratio (y) = 0.19088 0.21185
# Poissons Ratio (z) = 0.19945 0.14242
#
# Static dielectric constant tensor:
#      x y z
#    x 2.314540 0.000000 0.000000 
#    y 0.000000 2.315910 0.000000 
#    z 0.000000 0.000000 2.280850 
# 
# From -- ./inp_files/9687.got.cif
#   From: 2010.05.17/outbox.cif.g08.bks.cpg/sg54_5_cif.got.tgz:9687.got - 2010.06.03 13:09:01.
