data_PCOD9422692
_publ_section_title
;
Structure prediction by ZEFSAII (Michael W. Deem and Ramdas Pophale) SiO2 
 PCOD9422692
Probable space group: P C C A
;
_chemical_formula_sum "Si O2"
_cell_formula_units_Z 36
_cell_length_a 14.046364
_cell_length_b 6.036831
_cell_length_c 20.555149
_cell_angle_alpha 90.000000
_cell_angle_beta 90.000000
_cell_angle_gamma 90.000000
_cell_volume 1742.984664
_symmetry_space_group_name_H-M "P C C A"
_symmetry_group_IT_number 54
_symmetry_cell_setting 'orthorhombic'
loop_
_space_group_symop_operation_xyz
x,y,z
1/2-x,-y,z
1/2+x,-y,1/2-z
-x,y,1/2-z
-x,-y,-z
1/2+x,y,-z
1/2-x,y,1/2+z
x,-y,1/2+z
loop_
_atom_site_type_symbol
_atom_site_label
_atom_site_fract_x
_atom_site_fract_y
_atom_site_fract_z
Si Si1 0.250000 0.000000 0.995868
Si Si2 0.250000 0.500000 0.559392
Si Si3 0.969633 0.521089 0.923788
Si Si4 0.616177 0.866241 0.108987
Si Si5 0.928960 0.746157 0.190748
Si Si6 0.250000 0.500000 0.835625
O O1 0.155533 0.005722 0.951066
O O2 0.246527 0.754322 0.028692
O O3 0.357079 0.492469 0.588016
O O4 0.015535 0.755060 0.904082
O O5 0.021880 0.348400 0.875201
O O6 0.000000 0.500000 0.000000
O O7 0.697137 0.680596 0.119907
O O8 0.607351 0.010966 0.173126
O O9 0.835060 0.604336 0.204840
O O10 0.000000 0.738647 0.250000
#
# Coordination Sequence:
#
# PCOD9422692 Si02
#       6
#     4   4   8   8   8   4
#     4  12  22  40  72 104 142 188 244 294 370 438
#     4  12  27  41  68 108 150 188 234 310 378 424
#     4  11  25  43  69 102 141 185 235 305 364 434
#     4  11  22  40  72  99 137 182 249 292 360 442
#     4  11  25  43  68 102 137 187 239 299 365 442
#     4  10  21  43  68  96 130 188 238 292 348 440
#
# _framework density 20.654226000000001
#
# number of rings (size 3 to 8) (size 9 to 14) (size 15 to 20)
#    0.000    0.889    4.444    2.000    3.111    6.222 
#    0.000    2.222    0.000    0.000    0.000    0.000 
#    0.000    0.000    0.000    0.000    0.000    0.000 
#
# Total GULP energy -200549.992404 kJ/mol
# GULP energy per Si atom -5570.833122 kJ/mol
# Density = 2.060722 g / cm^3
# Si number density = 20.654226 Si / 1000 Ang^3
#
#
#
# Elastic Constant Matrix: (Units=GPa)
#
#
# Indices 1 2 3 4 5 6 
#
# 1 180.4774 57.5281 27.3635 0.0000 0.0000 0.0000
# 2 57.5281 117.4978 36.6911 0.0000 0.0000 0.0000
# 3 27.3635 36.6911 55.2481 0.0000 0.0000 0.0000
# 4 0.0000 0.0000 0.0000 -9.6490 0.0000 0.0000
# 5 0.0000 0.0000 0.0000 0.0000 26.4940 0.0000
# 6 0.0000 0.0000 0.0000 0.0000 0.0000 33.3940
#
#
#
# Elastic Compliance Matrix: (Units=1/GPa)
#
#
# Indices 1 2 3 4 5 6 
#
# 1 0.006654 -0.002812 -0.001428 0.000000 0.000000 0.000000
# 2 -0.002812 0.011926 -0.006527 0.000000 0.000000 0.000000
# 3 -0.001428 -0.006527 0.023143 0.000000 0.000000 0.000000
# 4 0.000000 0.000000 0.000000 -0.103637 0.000000 0.000000
# 5 0.000000 0.000000 0.000000 0.000000 0.037744 0.000000
# 6 0.000000 0.000000 0.000000 0.000000 0.000000 0.029946
#
#
# Mechanical properties :
#
#
# Convention : Reuss Voigt Hill
#
# Bulk Modulus (GPa) = 49.53627 66.26541 57.90084
# Shear Modulus (GPa) = 146.89323 25.49050 86.19187
#
# Velocity S-wave (km/s) = 8.44243 3.51686 6.46695
# Velocity P-wave (km/s) = 10.91185 6.97452 9.15730
#
# Compressibility (1/GPa) = 0.02018723
#
# Stress axis : x y z
#
# Youngs Moduli (GPa) = 150.29362 83.85191 43.21054
#
# Poissons Ratio (x) = 0.23577 0.06171
# Poissons Ratio (y) = 0.42258 0.28206
# Poissons Ratio (z) = 0.21464 0.54734
#
# Static dielectric constant tensor:
#      x y z
#    x 1.712530 0.000000 0.000000 
#    y 0.000000 1.814470 0.000000 
#    z 0.000000 0.000000 1.735460 
# 
# From -- ./inp_files/21386.got.cif
#   From: 2010.05.17/outbox.cif.g08.bks.cpg/sg54_11_cif.got.tgz:21386.got - 2010.06.03 13:09:01.
