data_PCOD9422500
_publ_section_title
;
Structure prediction by ZEFSAII (Michael W. Deem and Ramdas Pophale) SiO2 
 PCOD9422500
Probable space group: P C C A
;
_chemical_formula_sum "Si O2"
_cell_formula_units_Z 40
_cell_length_a 15.429360
_cell_length_b 13.909815
_cell_length_c 9.510126
_cell_angle_alpha 90.000000
_cell_angle_beta 90.000000
_cell_angle_gamma 90.000000
_cell_volume 2041.058898
_symmetry_space_group_name_H-M "P C C A"
_symmetry_group_IT_number 54
_symmetry_cell_setting 'orthorhombic'
loop_
_space_group_symop_operation_xyz
x,y,z
1/2-x,-y,z
1/2+x,-y,1/2-z
-x,y,1/2-z
-x,-y,-z
1/2+x,y,-z
1/2-x,y,1/2+z
x,-y,1/2+z
loop_
_atom_site_type_symbol
_atom_site_label
_atom_site_fract_x
_atom_site_fract_y
_atom_site_fract_z
Si Si1 0.645701 0.731985 0.571844
Si Si2 0.834333 0.060500 0.952563
Si Si3 0.016057 0.597012 0.084228
Si Si4 0.587006 0.937765 0.662151
Si Si5 0.687812 0.284326 0.398597
O O1 0.557419 0.674680 0.547513
O O2 0.619946 0.844456 0.577439
O O3 0.717419 0.697361 0.461263
O O4 0.683297 0.714997 0.729147
O O5 0.850038 0.034972 0.790394
O O6 0.829125 0.175509 0.953114
O O7 0.750000 0.000000 0.998941
O O8 0.911235 0.025160 0.053606
O O9 0.110664 0.643598 0.057986
O O10 0.000000 0.578795 0.250000
O O11 0.000000 0.500000 0.000000
O O12 0.500000 0.914236 0.750000
#
# Coordination Sequence:
#
# PCOD9422500 Si02
#       5
#     8   8   8   8   8
#     4  10  21  40  62  88 123 161 205 252 313 368
#     4  11  21  36  58  86 124 163 205 246 300 366
#     4  10  23  44  65  88 119 158 204 262 317 371
#     4  11  22  36  57  87 124 167 207 254 302 364
#     4  10  22  39  63  89 125 164 201 256 312 368
#
# _framework density 19.597670000000001
#
# number of rings (size 3 to 8) (size 9 to 14) (size 15 to 20)
#    0.000    1.600    2.000    4.200    2.800    2.400 
#    0.000    5.000    0.000    0.000    0.000    0.000 
#    0.000    0.000    0.000    0.000    0.000    0.000 
#
# Total GULP energy -223131.560235 kJ/mol
# GULP energy per Si atom -5578.289006 kJ/mol
# Density = 1.955306 g / cm^3
# Si number density = 19.597670 Si / 1000 Ang^3
#
#
#
# Elastic Constant Matrix: (Units=GPa)
#
#
# Indices 1 2 3 4 5 6 
#
# 1 52.3419 -9.9420 -9.8529 0.0000 0.0000 0.0000
# 2 -9.9420 50.9860 17.6036 0.0000 0.0000 0.0000
# 3 -9.8529 17.6036 -2.0760 0.0000 0.0000 0.0000
# 4 0.0000 0.0000 0.0000 30.8231 0.0000 0.0000
# 5 0.0000 0.0000 0.0000 0.0000 37.5036 0.0000
# 6 0.0000 0.0000 0.0000 0.0000 0.0000 28.2027
#
#
#
# Elastic Compliance Matrix: (Units=1/GPa)
#
#
# Indices 1 2 3 4 5 6 
#
# 1 0.018031 0.008418 -0.014198 0.000000 0.000000 0.000000
# 2 0.008418 0.008924 0.035715 0.000000 0.000000 0.000000
# 3 -0.014198 0.035715 -0.111461 0.000000 0.000000 0.000000
# 4 0.000000 0.000000 0.000000 0.032443 0.000000 0.000000
# 5 0.000000 0.000000 0.000000 0.000000 0.026664 0.000000
# 6 0.000000 0.000000 0.000000 0.000000 0.000000 0.035458
#
#
# Mechanical properties :
#
#
# Convention : Reuss Voigt Hill
#
# Bulk Modulus (GPa) = -40.59128 10.76326 -14.91401
# Shear Modulus (GPa) = -86.17177 26.20210 -29.98484
#
# Velocity S-wave (km/s) = -6.63821 3.66047 -3.91579
# Velocity P-wave (km/s) = 8.91694 4.83419 5.29822
#
# Compressibility (1/GPa) = -0.02463583
#
# Stress axis : x y z
#
# Youngs Moduli (GPa) = 55.45865 112.06226 -8.97173
#
# Poissons Ratio (x) = -0.94334 -0.12738
# Poissons Ratio (y) = -0.46685 0.32043
# Poissons Ratio (z) = 0.78739 -4.00230
#
# Static dielectric constant tensor:
#      x y z
#    x 1.799650 0.000000 0.000000 
#    y 0.000000 1.673750 0.000000 
#    z 0.000000 0.000000 1.692080 
# 
# From -- ./inp_files/3409.got.cif
#   From: 2010.05.17/outbox.cif.g08.bks.cpg/sg54_2_cif.got.tgz:3409.got - 2010.06.03 13:09:01.
