data_PCOD9422597
_publ_section_title
;
Structure prediction by ZEFSAII (Michael W. Deem and Ramdas Pophale) SiO2 
 PCOD9422597
Probable space group: P C C A
;
_chemical_formula_sum "Si O2"
_cell_formula_units_Z 48
_cell_length_a 13.570542
_cell_length_b 27.733178
_cell_length_c 5.494384
_cell_angle_alpha 90.000000
_cell_angle_beta 90.000000
_cell_angle_gamma 90.000000
_cell_volume 2067.834807
_symmetry_space_group_name_H-M "P C C A"
_symmetry_group_IT_number 54
_symmetry_cell_setting 'orthorhombic'
loop_
_space_group_symop_operation_xyz
x,y,z
1/2-x,-y,z
1/2+x,-y,1/2-z
-x,y,1/2-z
-x,-y,-z
1/2+x,y,-z
1/2-x,y,1/2+z
x,-y,1/2+z
loop_
_atom_site_type_symbol
_atom_site_label
_atom_site_fract_x
_atom_site_fract_y
_atom_site_fract_z
Si Si1 0.779344 0.177435 0.766895
Si Si2 0.000000 0.896189 0.750000
Si Si3 0.500000 0.835893 0.750000
Si Si4 0.136050 0.481129 0.844047
Si Si5 0.796726 0.284797 0.281952
Si Si6 0.363720 0.018308 0.658528
Si Si7 0.500000 0.605070 0.750000
Si Si8 0.000000 0.665300 0.750000
O O1 0.747453 0.151343 0.518854
O O2 0.894804 0.190644 0.756862
O O3 0.718009 0.227104 0.777554
O O4 0.902014 0.929593 0.756541
O O5 0.000540 0.865996 0.501119
O O6 0.250000 0.500000 0.864117
O O7 0.096888 0.511999 0.616751
O O8 0.099038 0.428114 0.768222
O O9 0.755664 0.303519 0.538143
O O10 0.907318 0.300242 0.264467
O O11 0.250000 0.000000 0.636019
O O12 0.402594 0.013652 0.383453
O O13 0.494686 0.634593 0.498972
#
# Coordination Sequence:
#
# PCOD9422597 Si02
#       8
#     8   4   4   8   8   8   4   4
#     4  10  23  45  72 102 137 185 231 276 340 427
#     4  12  24  43  67 100 146 172 226 300 344 388
#     4  12  26  45  67 112 142 176 230 296 348 394
#     4  10  21  41  65  95 127 187 229 270 334 423
#     4  10  23  45  72 102 137 185 231 276 340 427
#     4  10  21  41  65  95 127 187 229 270 334 423
#     4  12  24  43  67 100 146 172 226 300 344 388
#     4  12  26  45  67 112 142 176 230 296 348 394
#
# _framework density 23.212683999999999
#
# number of rings (size 3 to 8) (size 9 to 14) (size 15 to 20)
#    0.000    1.333    0.000    5.000    0.000    5.333 
#   36.000    0.000    0.000    0.000    0.000    0.000 
#    0.000    0.000    0.000    0.000    0.000    0.000 
#
# Total GULP energy -267724.947248 kJ/mol
# GULP energy per Si atom -5577.603068 kJ/mol
# Density = 2.315985 g / cm^3
# Si number density = 23.212684 Si / 1000 Ang^3
#
#
#
# Elastic Constant Matrix: (Units=GPa)
#
#
# Indices 1 2 3 4 5 6 
#
# 1 163.2540 43.2956 81.9957 0.0000 0.0000 0.0000
# 2 43.2956 72.3935 26.2524 0.0000 0.0000 0.0000
# 3 81.9957 26.2524 282.0692 0.0000 0.0000 0.0000
# 4 0.0000 0.0000 0.0000 72.1481 0.0000 0.0000
# 5 0.0000 0.0000 0.0000 0.0000 25.8312 0.0000
# 6 0.0000 0.0000 0.0000 0.0000 0.0000 43.3914
#
#
#
# Elastic Compliance Matrix: (Units=1/GPa)
#
#
# Indices 1 2 3 4 5 6 
#
# 1 0.008248 -0.004205 -0.002006 0.000000 0.000000 0.000000
# 2 -0.004205 0.016440 -0.000308 0.000000 0.000000 0.000000
# 3 -0.002006 -0.000308 0.004157 0.000000 0.000000 0.000000
# 4 0.000000 0.000000 0.000000 0.013860 0.000000 0.000000
# 5 0.000000 0.000000 0.000000 0.000000 0.038713 0.000000
# 6 0.000000 0.000000 0.000000 0.000000 0.000000 0.023046
#
#
# Mechanical properties :
#
#
# Convention : Reuss Voigt Hill
#
# Bulk Modulus (GPa) = 63.26415 91.20045 77.23230
# Shear Modulus (GPa) = 40.72568 52.68568 46.70568
#
# Velocity S-wave (km/s) = 4.19317 4.76930 4.49048
# Velocity P-wave (km/s) = 7.12438 8.34881 7.76078
#
# Compressibility (1/GPa) = 0.01580674
#
# Stress axis : x y z
#
# Youngs Moduli (GPa) = 121.23490 60.82705 240.55267
#
# Poissons Ratio (x) = 0.25581 0.48264
# Poissons Ratio (y) = 0.50985 0.07399
# Poissons Ratio (z) = 0.24324 0.01871
#
# Static dielectric constant tensor:
#      x y z
#    x 1.882320 0.000000 0.000000 
#    y 0.000000 1.848230 0.000000 
#    z 0.000000 0.000000 1.968230 
# 
# From -- ./inp_files/661.got.cif
#   From: 2010.05.17/outbox.cif.g08.bks.cpg/sg54_1_cif.got.tgz:661.got - 2010.06.03 13:09:01.
