data_PCOD9422083
_publ_section_title
;
Structure prediction by ZEFSAII (Michael W. Deem and Ramdas Pophale) SiO2 
 PCOD9422083
Probable space group: P C C A
;
_chemical_formula_sum "Si O2"
_cell_formula_units_Z 56
_cell_length_a 27.473686
_cell_length_b 5.720190
_cell_length_c 13.678349
_cell_angle_alpha 90.000000
_cell_angle_beta 90.000000
_cell_angle_gamma 90.000000
_cell_volume 2149.616887
_symmetry_space_group_name_H-M "P C C A"
_symmetry_group_IT_number 54
_symmetry_cell_setting 'orthorhombic'
loop_
_space_group_symop_operation_xyz
x,y,z
1/2-x,-y,z
1/2+x,-y,1/2-z
-x,y,1/2-z
-x,-y,-z
1/2+x,y,-z
1/2-x,y,1/2+z
x,-y,1/2+z
loop_
_atom_site_type_symbol
_atom_site_label
_atom_site_fract_x
_atom_site_fract_y
_atom_site_fract_z
Si Si1 0.394484 0.410147 0.938249
Si Si2 0.519788 0.836886 0.362304
Si Si3 0.621304 0.033962 0.400632
Si Si4 0.766613 0.746096 0.698735
Si Si5 0.516262 0.659707 0.634259
Si Si6 0.635573 0.060923 0.699244
Si Si7 0.811200 0.239055 0.537296
O O1 0.428062 0.623219 0.901228
O O2 0.404647 0.218035 0.852281
O O3 0.340444 0.517596 0.956253
O O4 0.398297 0.245143 0.033547
O O5 0.500000 0.835224 0.250000
O O6 0.577776 0.849784 0.381714
O O7 0.500258 0.086055 0.400905
O O8 0.505583 0.585098 0.403571
O O9 0.627970 0.109297 0.288831
O O10 0.669835 0.902553 0.441349
O O11 0.750000 0.500000 0.742458
O O12 0.823614 0.745742 0.721039
O O13 0.742637 0.746138 0.587044
O O14 0.750000 0.000000 0.739065
O O15 0.500000 0.662015 0.750000
O O16 0.661887 0.918490 0.616439
#
# Coordination Sequence:
#
# PCOD9422083 Si02
#       7
#     8   8   8   8   8   8   8
#     4  11  24  42  70 102 146 192 241 308 373 434
#     4  10  23  43  65  98 142 195 245 302 359 430
#     4  11  26  43  70 108 143 189 252 306 371 441
#     4  10  20  44  72 103 138 190 235 288 371 436
#     4  10  23  40  67  97 137 196 245 294 359 434
#     4  10  22  44  73 100 143 196 243 299 371 452
#     4  10  24  43  70 104 143 186 236 309 369 445
#
# _framework density 26.051155000000001
#
# number of rings (size 3 to 8) (size 9 to 14) (size 15 to 20)
#    0.000    1.714    1.429    1.714   10.000    2.286 
#    0.000   11.429    0.000    0.000    0.000    0.000 
#    0.000    0.000    0.000    0.000    0.000    0.000 
#
# Total GULP energy -311747.622825 kJ/mol
# GULP energy per Si atom -5566.921836 kJ/mol
# Density = 2.599186 g / cm^3
# Si number density = 26.051155 Si / 1000 Ang^3
#
#
#
# Elastic Constant Matrix: (Units=GPa)
#
#
# Indices 1 2 3 4 5 6 
#
# 1 60.9337 -1.6673 -5.2689 0.0000 0.0000 0.0000
# 2 -1.6673 148.3384 26.3152 0.0000 0.0000 0.0000
# 3 -5.2689 26.3152 129.6668 0.0000 0.0000 0.0000
# 4 0.0000 0.0000 0.0000 8.2724 0.0000 0.0000
# 5 0.0000 0.0000 0.0000 0.0000 27.9368 0.0000
# 6 0.0000 0.0000 0.0000 0.0000 0.0000 51.4143
#
#
#
# Elastic Compliance Matrix: (Units=1/GPa)
#
#
# Indices 1 2 3 4 5 6 
#
# 1 0.016470 0.000069 0.000655 0.000000 0.000000 0.000000
# 2 0.000069 0.006993 -0.001416 0.000000 0.000000 0.000000
# 3 0.000655 -0.001416 0.008026 0.000000 0.000000 0.000000
# 4 0.000000 0.000000 0.000000 0.120883 0.000000 0.000000
# 5 0.000000 0.000000 0.000000 0.000000 0.035795 0.000000
# 6 0.000000 0.000000 0.000000 0.000000 0.000000 0.019450
#
#
# Mechanical properties :
#
#
# Convention : Reuss Voigt Hill
#
# Bulk Modulus (GPa) = 33.21740 41.96632 37.59186
# Shear Modulus (GPa) = 22.82716 38.82870 30.82793
#
# Velocity S-wave (km/s) = 2.96335 3.86486 3.44373
# Velocity P-wave (km/s) = 4.94845 6.00503 5.50216
#
# Compressibility (1/GPa) = 0.03010471
#
# Stress axis : x y z
#
# Youngs Moduli (GPa) = 60.71714 142.99200 124.59242
#
# Poissons Ratio (x) = -0.00985 -0.08164
# Poissons Ratio (y) = -0.00418 0.17648
# Poissons Ratio (z) = -0.03979 0.20254
#
# Static dielectric constant tensor:
#      x y z
#    x 2.423920 0.000000 0.000000 
#    y 0.000000 2.011140 0.000000 
#    z 0.000000 0.000000 2.219920 
# 
# From -- ./inp_files/15363.got.cif
#   From: 2010.05.17/outbox.cif.g08.bks.cpg/sg54_8_cif.got.tgz:15363.got - 2010.06.03 13:09:01.
