data_PCOD9422601
_publ_section_title
;
Structure prediction by ZEFSAII (Michael W. Deem and Ramdas Pophale) SiO2 
 PCOD9422601
Probable space group: P C C A
;
_chemical_formula_sum "Si O2"
_cell_formula_units_Z 44
_cell_length_a 26.344170
_cell_length_b 5.133308
_cell_length_c 13.944904
_cell_angle_alpha 90.000000
_cell_angle_beta 90.000000
_cell_angle_gamma 90.000000
_cell_volume 1885.807558
_symmetry_space_group_name_H-M "P C C A"
_symmetry_group_IT_number 54
_symmetry_cell_setting 'orthorhombic'
loop_
_space_group_symop_operation_xyz
x,y,z
1/2-x,-y,z
1/2+x,-y,1/2-z
-x,y,1/2-z
-x,-y,-z
1/2+x,y,-z
1/2-x,y,1/2+z
x,-y,1/2+z
loop_
_atom_site_type_symbol
_atom_site_label
_atom_site_fract_x
_atom_site_fract_y
_atom_site_fract_z
Si Si1 0.750000 0.000000 0.276331
Si Si2 0.800082 0.585665 0.131184
Si Si3 0.895308 0.173251 0.597464
Si Si4 0.354466 0.828712 0.229030
Si Si5 0.556822 0.942772 0.411727
Si Si6 0.503392 0.464605 0.139803
O O1 0.772305 0.780287 0.205341
O O2 0.697819 0.911553 0.325150
O O3 0.750000 0.500000 0.073799
O O4 0.842454 0.704553 0.063185
O O5 0.833184 0.395749 0.200171
O O6 0.917936 0.996524 0.513807
O O7 0.939125 0.380626 0.619455
O O8 0.878586 0.031943 0.694830
O O9 0.399770 0.807947 0.153777
O O10 0.515890 0.709893 0.421516
O O11 0.531176 0.203526 0.370452
O O12 0.500000 0.554604 0.250000
#
# Coordination Sequence:
#
# PCOD9422601 Si02
#       6
#     4   8   8   8   8   8
#     4   8  18  38  64  96 126 172 220 270 334 398
#     4   9  19  39  67  94 128 174 222 273 337 399
#     4  11  24  41  66  96 134 175 221 281 335 400
#     4  10  21  41  66  94 133 175 222 276 337 397
#     4  12  27  42  67 102 133 178 228 273 337 405
#     4  12  25  45  67  96 137 178 226 276 338 403
#
# _framework density 23.332177999999999
#
# number of rings (size 3 to 8) (size 9 to 14) (size 15 to 20)
#    0.000    1.455    1.818    2.727    7.636    0.000 
#    0.000    8.182    0.000    0.000    0.000    0.000 
#    0.000    0.000    0.000    0.000    0.000    0.000 
#
# Total GULP energy -245401.152942 kJ/mol
# GULP energy per Si atom -5577.298930 kJ/mol
# Density = 2.327907 g / cm^3
# Si number density = 23.332178 Si / 1000 Ang^3
#
#
#
# Elastic Constant Matrix: (Units=GPa)
#
#
# Indices 1 2 3 4 5 6 
#
# 1 202.9231 38.7702 37.2294 0.0000 0.0000 0.0000
# 2 38.7702 66.7144 -7.8511 0.0000 0.0000 0.0000
# 3 37.2294 -7.8511 45.6909 0.0000 0.0000 0.0000
# 4 0.0000 0.0000 0.0000 15.8614 0.0000 0.0000
# 5 0.0000 0.0000 0.0000 0.0000 21.1814 0.0000
# 6 0.0000 0.0000 0.0000 0.0000 0.0000 37.2631
#
#
#
# Elastic Compliance Matrix: (Units=1/GPa)
#
#
# Indices 1 2 3 4 5 6 
#
# 1 0.007073 -0.004888 -0.006603 0.000000 0.000000 0.000000
# 2 -0.004888 0.018676 0.007192 0.000000 0.000000 0.000000
# 3 -0.006603 0.007192 0.028502 0.000000 0.000000 0.000000
# 4 0.000000 0.000000 0.000000 0.063046 0.000000 0.000000
# 5 0.000000 0.000000 0.000000 0.000000 0.047211 0.000000
# 6 0.000000 0.000000 0.000000 0.000000 0.000000 0.026836
#
#
# Mechanical properties :
#
#
# Convention : Reuss Voigt Hill
#
# Bulk Modulus (GPa) = 21.90435 50.18061 36.04248
# Shear Modulus (GPa) = 23.23836 31.33982 27.28909
#
# Velocity S-wave (km/s) = 3.15934 3.66895 3.42364
# Velocity P-wave (km/s) = 4.76623 6.28506 5.57759
#
# Compressibility (1/GPa) = 0.04565303
#
# Stress axis : x y z
#
# Youngs Moduli (GPa) = 141.37764 53.54476 35.08492
#
# Poissons Ratio (x) = 0.26171 0.23167
# Poissons Ratio (y) = 0.69100 -0.25232
# Poissons Ratio (z) = 0.93355 -0.38507
#
# Static dielectric constant tensor:
#      x y z
#    x 2.015140 0.000000 0.000000 
#    y 0.000000 2.013890 0.000000 
#    z 0.000000 0.000000 1.854510 
# 
# From -- ./inp_files/15276.got.cif
#   From: 2010.05.17/outbox.cif.g08.bks.cpg/sg54_8_cif.got.tgz:15276.got - 2010.06.03 13:09:01.
