data_PCOD9422172
_publ_section_title
;
Structure prediction by ZEFSAII (Michael W. Deem and Ramdas Pophale) SiO2 
 PCOD9422172
Probable space group: P C C A
;
_chemical_formula_sum "Si O2"
_cell_formula_units_Z 36
_cell_length_a 4.743505
_cell_length_b 27.309197
_cell_length_c 10.719098
_cell_angle_alpha 90.000000
_cell_angle_beta 90.000000
_cell_angle_gamma 90.000000
_cell_volume 1388.566024
_symmetry_space_group_name_H-M "P C C A"
_symmetry_group_IT_number 54
_symmetry_cell_setting 'orthorhombic'
loop_
_space_group_symop_operation_xyz
x,y,z
1/2-x,-y,z
1/2+x,-y,1/2-z
-x,y,1/2-z
-x,-y,-z
1/2+x,y,-z
1/2-x,y,1/2+z
x,-y,1/2+z
loop_
_atom_site_type_symbol
_atom_site_label
_atom_site_fract_x
_atom_site_fract_y
_atom_site_fract_z
Si Si1 0.000000 0.698151 0.250000
Si Si2 0.500000 0.533279 0.750000
Si Si3 0.667973 0.050821 0.589457
Si Si4 0.500000 0.235992 0.750000
Si Si5 0.241877 0.384232 0.421951
Si Si6 0.702030 0.155748 0.084613
O O1 0.253178 0.730393 0.191296
O O2 0.844150 0.663543 0.150957
O O3 0.750000 0.500000 0.805902
O O4 0.655120 0.568112 0.651187
O O5 0.352108 0.050537 0.538847
O O6 0.736194 0.103200 0.647917
O O7 0.750000 0.000000 0.654844
O O8 0.319848 0.201034 0.839762
O O9 0.910520 0.384309 0.447101
O O10 0.377888 0.156993 0.045352
#
# Coordination Sequence:
#
# PCOD9422172 Si02
#       6
#     4   4   8   4   8   8
#     4  11  26  42  60  88 118 156 206 257 300 352
#     4  11  24  41  64 100 136 163 202 249 296 354
#     4   8  14  27  49  74 102 138 176 219 277 343
#     4  12  24  39  60  86 118 153 198 254 310 358
#     4  11  24  43  66  91 124 166 209 250 296 353
#     4  10  21  36  56  83 113 147 189 238 295 359
#
# _framework density 25.926024999999999
#
# number of rings (size 3 to 8) (size 9 to 14) (size 15 to 20)
#    0.000    1.778    0.000    4.000    0.000   11.556 
#    0.000    0.000    0.000   14.667    0.000    0.000 
#    0.000    0.000    0.000    0.000    0.000    0.000 
#
# Total GULP energy -201640.133562 kJ/mol
# GULP energy per Si atom -5601.114821 kJ/mol
# Density = 2.586702 g / cm^3
# Si number density = 25.926025 Si / 1000 Ang^3
#
#
#
# Elastic Constant Matrix: (Units=GPa)
#
#
# Indices 1 2 3 4 5 6 
#
# 1 106.2742 28.8543 5.8482 0.0000 0.0000 0.0000
# 2 28.8543 152.9498 20.1294 0.0000 0.0000 0.0000
# 3 5.8482 20.1294 39.9890 0.0000 0.0000 0.0000
# 4 0.0000 0.0000 0.0000 10.2349 0.0000 0.0000
# 5 0.0000 0.0000 0.0000 0.0000 45.1826 0.0000
# 6 0.0000 0.0000 0.0000 0.0000 0.0000 21.8341
#
#
#
# Elastic Compliance Matrix: (Units=1/GPa)
#
#
# Indices 1 2 3 4 5 6 
#
# 1 0.009929 -0.001801 -0.000545 0.000000 0.000000 0.000000
# 2 -0.001801 0.007329 -0.003426 0.000000 0.000000 0.000000
# 3 -0.000545 -0.003426 0.026811 0.000000 0.000000 0.000000
# 4 0.000000 0.000000 0.000000 0.097705 0.000000 0.000000
# 5 0.000000 0.000000 0.000000 0.000000 0.022132 0.000000
# 6 0.000000 0.000000 0.000000 0.000000 0.000000 0.045800
#
#
# Mechanical properties :
#
#
# Convention : Reuss Voigt Hill
#
# Bulk Modulus (GPa) = 30.74658 45.43074 38.08866
# Shear Modulus (GPa) = 21.54320 31.74239 26.64279
#
# Velocity S-wave (km/s) = 2.88575 3.50286 3.20917
# Velocity P-wave (km/s) = 4.79463 5.82420 5.33431
#
# Compressibility (1/GPa) = 0.03252394
#
# Stress axis : x y z
#
# Youngs Moduli (GPa) = 100.71814 136.44886 37.29812
#
# Poissons Ratio (x) = 0.24579 0.02034
# Poissons Ratio (y) = 0.18142 0.12777
# Poissons Ratio (z) = 0.05492 0.46743
#
# Static dielectric constant tensor:
#      x y z
#    x 1.925060 0.000000 0.000000 
#    y 0.000000 2.063980 0.000000 
#    z 0.000000 0.000000 2.051480 
# 
# From -- ./inp_files/6412.got.cif
#   From: 2010.05.17/outbox.cif.g08.bks.cpg/sg54_4_cif.got.tgz:6412.got - 2010.06.03 13:09:01.
