data_PCOD9422635
_publ_section_title
;
Structure prediction by ZEFSAII (Michael W. Deem and Ramdas Pophale) SiO2 
 PCOD9422635
Probable space group: P C C A
;
_chemical_formula_sum "Si O2"
_cell_formula_units_Z 64
_cell_length_a 16.453677
_cell_length_b 11.117675
_cell_length_c 16.854043
_cell_angle_alpha 90.000000
_cell_angle_beta 90.000000
_cell_angle_gamma 90.000000
_cell_volume 3083.053346
_symmetry_space_group_name_H-M "P C C A"
_symmetry_group_IT_number 54
_symmetry_cell_setting 'orthorhombic'
loop_
_space_group_symop_operation_xyz
x,y,z
1/2-x,-y,z
1/2+x,-y,1/2-z
-x,y,1/2-z
-x,-y,-z
1/2+x,y,-z
1/2-x,y,1/2+z
x,-y,1/2+z
loop_
_atom_site_type_symbol
_atom_site_label
_atom_site_fract_x
_atom_site_fract_y
_atom_site_fract_z
Si Si1 0.397374 0.873809 0.057535
Si Si2 0.330017 0.145123 0.261594
Si Si3 0.860153 0.881603 0.764684
Si Si4 0.142126 0.711480 0.884853
Si Si5 0.426415 0.859046 0.524446
Si Si6 0.940546 0.698321 0.322275
Si Si7 0.463155 0.479697 0.412639
Si Si8 0.325822 0.726609 0.919900
O O1 0.392981 0.841030 0.150095
O O2 0.382198 0.016239 0.045609
O O3 0.488633 0.866321 0.023028
O O4 0.338125 0.790374 0.005062
O O5 0.237653 0.123857 0.236877
O O6 0.355333 0.266887 0.216259
O O7 0.339966 0.169577 0.354670
O O8 0.380209 0.023627 0.243882
O O9 0.880049 0.798987 0.688752
O O10 0.082358 0.598488 0.884004
O O11 0.237618 0.677193 0.892518
O O12 0.129416 0.782725 0.966572
O O13 0.447430 0.787839 0.604023
O O14 0.000000 0.727681 0.250000
O O15 0.965267 0.568454 0.355332
O O16 0.500000 0.500000 0.500000
O O17 0.395067 0.374809 0.414235
#
# Coordination Sequence:
#
# PCOD9422635 Si02
#       8
#     8   8   8   8   8   8   8   8
#     4  11  22  39  64 100 132 166 217 268 338 396
#     4  10  21  42  65  98 128 169 222 260 346 406
#     4  10  23  39  65 101 138 162 207 285 335 407
#     4  11  25  44  64  93 134 174 215 269 340 383
#     4  11  23  41  64  97 130 173 218 266 331 411
#     4  12  22  42  69  94 125 178 222 273 320 399
#     4  12  24  45  66  90 126 173 233 267 313 385
#     4  11  23  43  66  91 130 177 215 272 328 399
#
# _framework density 20.758641999999998
#
# number of rings (size 3 to 8) (size 9 to 14) (size 15 to 20)
#    0.000    1.000    5.000    1.125    1.750    3.000 
#    4.500    0.000    0.000    3.000    0.000    0.000 
#    0.000    0.000    0.000    0.000    0.000    0.000 
#
# Total GULP energy -357139.501462 kJ/mol
# GULP energy per Si atom -5580.304710 kJ/mol
# Density = 2.071139 g / cm^3
# Si number density = 20.758642 Si / 1000 Ang^3
#
#
#
# Elastic Constant Matrix: (Units=GPa)
#
#
# Indices 1 2 3 4 5 6 
#
# 1 37.3002 14.5014 20.2436 0.0000 0.0000 0.0000
# 2 14.5014 55.7946 16.0070 0.0000 0.0000 0.0000
# 3 20.2436 16.0070 130.5456 0.0000 0.0000 0.0000
# 4 0.0000 0.0000 0.0000 9.4767 0.0000 0.0000
# 5 0.0000 0.0000 0.0000 0.0000 23.9429 0.0000
# 6 0.0000 0.0000 0.0000 0.0000 0.0000 35.2356
#
#
#
# Elastic Compliance Matrix: (Units=1/GPa)
#
#
# Indices 1 2 3 4 5 6 
#
# 1 0.031769 -0.007093 -0.004057 0.000000 0.000000 0.000000
# 2 -0.007093 0.020160 -0.001372 0.000000 0.000000 0.000000
# 3 -0.004057 -0.001372 0.008457 0.000000 0.000000 0.000000
# 4 0.000000 0.000000 0.000000 0.105521 0.000000 0.000000
# 5 0.000000 0.000000 0.000000 0.000000 0.041766 0.000000
# 6 0.000000 0.000000 0.000000 0.000000 0.000000 0.028380
#
#
# Mechanical properties :
#
#
# Convention : Reuss Voigt Hill
#
# Bulk Modulus (GPa) = 28.29435 36.12716 32.21076
# Shear Modulus (GPa) = 18.32317 25.25695 21.79006
#
# Velocity S-wave (km/s) = 2.97421 3.49190 3.24340
# Velocity P-wave (km/s) = 5.04523 5.80509 5.43844
#
# Compressibility (1/GPa) = 0.03534274
#
# Stress axis : x y z
#
# Youngs Moduli (GPa) = 31.47746 49.60304 118.23898
#
# Poissons Ratio (x) = 0.35184 0.47965
# Poissons Ratio (y) = 0.22327 0.16223
# Poissons Ratio (z) = 0.12769 0.06806
#
# Static dielectric constant tensor:
#      x y z
#    x 1.814630 0.000000 0.000000 
#    y 0.000000 1.725940 0.000000 
#    z 0.000000 0.000000 1.740880 
# 
# From -- ./inp_files/14318.got.cif
#   From: 2010.05.17/outbox.cif.g08.bks.cpg/sg54_8_cif.got.tgz:14318.got - 2010.06.03 13:09:01.
