data_PCOD9422020
_publ_section_title
;
Structure prediction by ZEFSAII (Michael W. Deem and Ramdas Pophale) SiO2 
 PCOD9422020
Probable space group: P C C A
;
_chemical_formula_sum "Si O2"
_cell_formula_units_Z 44
_cell_length_a 8.476171
_cell_length_b 8.904050
_cell_length_c 23.706309
_cell_angle_alpha 90.000000
_cell_angle_beta 90.000000
_cell_angle_gamma 90.000000
_cell_volume 1789.168489
_symmetry_space_group_name_H-M "P C C A"
_symmetry_group_IT_number 54
_symmetry_cell_setting 'orthorhombic'
loop_
_space_group_symop_operation_xyz
x,y,z
1/2-x,-y,z
1/2+x,-y,1/2-z
-x,y,1/2-z
-x,-y,-z
1/2+x,y,-z
1/2-x,y,1/2+z
x,-y,1/2+z
loop_
_atom_site_type_symbol
_atom_site_label
_atom_site_fract_x
_atom_site_fract_y
_atom_site_fract_z
Si Si1 0.250000 0.000000 0.337485
Si Si2 0.596316 0.095801 0.322323
Si Si3 0.750000 0.500000 0.400555
Si Si4 0.914300 0.205622 0.946867
Si Si5 0.022204 0.434099 0.688552
Si Si6 0.783420 0.219599 0.060898
Si Si7 0.250000 0.500000 0.387275
O O1 0.300784 0.870756 0.381577
O O2 0.083477 0.957824 0.307418
O O3 0.601537 0.104320 0.391202
O O4 0.604723 0.271635 0.304730
O O5 0.750000 0.000000 0.304914
O O6 0.686443 0.357649 0.434833
O O7 0.614907 0.538982 0.354767
O O8 0.098581 0.241208 0.951160
O O9 0.861363 0.143842 0.007050
O O10 0.860048 0.407692 0.655393
O O11 0.000000 0.501279 0.750000
O O12 0.844815 0.386707 0.072981
#
# Coordination Sequence:
#
# PCOD9422020 Si02
#       7
#     4   8   4   8   8   8   4
#     4  10  22  44  62 100 136 186 224 272 346 406
#     4  10  23  45  66  95 138 176 228 285 337 417
#     4  10  20  42  62  90 134 170 212 288 342 400
#     4  10  23  38  59  99 131 178 226 265 333 420
#     4  11  24  45  68  99 129 171 238 290 351 414
#     4  11  24  37  64  95 140 178 226 274 332 418
#     4  12  22  44  64  94 138 170 212 298 326 406
#
# _framework density 24.592428999999999
#
# number of rings (size 3 to 8) (size 9 to 14) (size 15 to 20)
#    0.000    1.455    5.455    1.091    6.364    4.364 
#    1.636    0.000    0.000    0.000    0.000    0.000 
#    0.000    0.000    0.000    0.000    0.000    0.000 
#
# Total GULP energy -245736.891248 kJ/mol
# GULP energy per Si atom -5584.929347 kJ/mol
# Density = 2.453646 g / cm^3
# Si number density = 24.592429 Si / 1000 Ang^3
#
#
#
# Elastic Constant Matrix: (Units=GPa)
#
#
# Indices 1 2 3 4 5 6 
#
# 1 124.0536 31.7236 32.0955 0.0000 0.0000 0.0000
# 2 31.7236 63.1571 -11.0157 0.0000 0.0000 0.0000
# 3 32.0955 -11.0157 88.9638 0.0000 0.0000 0.0000
# 4 0.0000 0.0000 0.0000 8.0987 0.0000 0.0000
# 5 0.0000 0.0000 0.0000 0.0000 30.4592 0.0000
# 6 0.0000 0.0000 0.0000 0.0000 0.0000 27.6373
#
#
#
# Elastic Compliance Matrix: (Units=1/GPa)
#
#
# Indices 1 2 3 4 5 6 
#
# 1 0.010887 -0.006289 -0.004707 0.000000 0.000000 0.000000
# 2 -0.006289 0.019816 0.004723 0.000000 0.000000 0.000000
# 3 -0.004707 0.004723 0.013523 0.000000 0.000000 0.000000
# 4 0.000000 0.000000 0.000000 0.123477 0.000000 0.000000
# 5 0.000000 0.000000 0.000000 0.000000 0.032831 0.000000
# 6 0.000000 0.000000 0.000000 0.000000 0.000000 0.036183
#
#
# Mechanical properties :
#
#
# Convention : Reuss Voigt Hill
#
# Bulk Modulus (GPa) = 31.56522 42.42014 36.99268
# Shear Modulus (GPa) = 19.24377 28.13044 23.68710
#
# Velocity S-wave (km/s) = 2.80037 3.38578 3.10689
# Velocity P-wave (km/s) = 4.82901 5.70713 5.28633
#
# Compressibility (1/GPa) = 0.03168044
#
# Stress axis : x y z
#
# Youngs Moduli (GPa) = 91.85197 50.46311 73.94655
#
# Poissons Ratio (x) = 0.31739 0.34803
# Poissons Ratio (y) = 0.57770 -0.34923
# Poissons Ratio (z) = 0.43230 -0.23833
#
# Static dielectric constant tensor:
#      x y z
#    x 2.048270 0.000000 0.000000 
#    y 0.000000 2.018810 0.000000 
#    z 0.000000 0.000000 1.965480 
# 
# From -- ./inp_files/27659.got.cif
#   From: 2010.05.17/outbox.cif.g08.bks.cpg/sg54_14_cif.got.tgz:27659.got - 2010.06.03 13:09:01.
