data_PCOD9422164
_publ_section_title
;
Structure prediction by ZEFSAII (Michael W. Deem and Ramdas Pophale) SiO2 
 PCOD9422164
Probable space group: P C C A
;
_chemical_formula_sum "Si O2"
_cell_formula_units_Z 56
_cell_length_a 5.148870
_cell_length_b 33.833467
_cell_length_c 16.970449
_cell_angle_alpha 90.000000
_cell_angle_beta 90.000000
_cell_angle_gamma 90.000000
_cell_volume 2956.322189
_symmetry_space_group_name_H-M "P C C A"
_symmetry_group_IT_number 54
_symmetry_cell_setting 'orthorhombic'
loop_
_space_group_symop_operation_xyz
x,y,z
1/2-x,-y,z
1/2+x,-y,1/2-z
-x,y,1/2-z
-x,-y,-z
1/2+x,y,-z
1/2-x,y,1/2+z
x,-y,1/2+z
loop_
_atom_site_type_symbol
_atom_site_label
_atom_site_fract_x
_atom_site_fract_y
_atom_site_fract_z
Si Si1 0.358128 0.603187 0.051262
Si Si2 0.489469 0.816535 0.655295
Si Si3 0.999430 0.026891 0.656595
Si Si4 0.750593 0.454207 0.304775
Si Si5 0.991445 0.766359 0.656076
Si Si6 0.431084 0.105106 0.446456
Si Si7 0.672977 0.304714 0.949915
O O1 0.277893 0.575176 0.122493
O O2 0.346438 0.649438 0.074773
O O3 0.647055 0.596427 0.017997
O O4 0.500000 0.823237 0.750000
O O5 0.710481 0.784099 0.635281
O O6 0.538395 0.856435 0.608100
O O7 0.208516 0.798930 0.635219
O O8 0.000000 0.036775 0.750000
O O9 0.982391 0.066230 0.605519
O O10 0.750000 0.000000 0.640666
O O11 0.250000 0.000000 0.639447
O O12 0.750000 0.500000 0.332096
O O13 0.500000 0.447406 0.250000
O O14 0.000000 0.449008 0.250000
O O15 0.000000 0.760814 0.750000
O O16 0.076950 0.726148 0.614564
O O17 0.146755 0.105343 0.484964
O O18 0.467965 0.298765 0.021503
#
# Coordination Sequence:
#
# PCOD9422164 Si02
#       7
#     8   8   8   8   8   8   8
#     4  10  21  37  56  82 114 150 192 232 282 347
#     4  10  22  40  58  79 112 148 184 226 270 326
#     4  10  22  41  63  84 111 150 187 219 267 328
#     4  10  21  37  57  83 114 148 189 239 292 340
#     4  10  21  37  58  82 107 143 188 229 272 324
#     4  12  25  38  58  88 116 144 182 228 276 321
#     4  10  21  36  55  80 112 146 180 227 280 331
#
# _framework density 18.942454000000001
#
# number of rings (size 3 to 8) (size 9 to 14) (size 15 to 20)
#    0.000    1.714    0.000    3.857    0.000    6.286 
#    0.000    7.857    0.000    0.000    0.000    0.000 
#    0.000    0.000    0.000    0.000    0.000    0.000 
#
# Total GULP energy -312940.743875 kJ/mol
# GULP energy per Si atom -5588.227569 kJ/mol
# Density = 1.889934 g / cm^3
# Si number density = 18.942454 Si / 1000 Ang^3
#
#
#
# Elastic Constant Matrix: (Units=GPa)
#
#
# Indices 1 2 3 4 5 6 
#
# 1 82.7289 14.6728 6.7011 0.0000 0.0000 0.0000
# 2 14.6728 119.5381 70.5281 0.0000 0.0000 0.0000
# 3 6.7011 70.5281 48.0043 0.0000 0.0000 0.0000
# 4 0.0000 0.0000 0.0000 42.3957 0.0000 0.0000
# 5 0.0000 0.0000 0.0000 0.0000 48.1344 0.0000
# 6 0.0000 0.0000 0.0000 0.0000 0.0000 -114.5161
#
#
#
# Elastic Compliance Matrix: (Units=1/GPa)
#
#
# Indices 1 2 3 4 5 6 
#
# 1 0.012449 -0.003775 0.003809 0.000000 0.000000 0.000000
# 2 -0.003775 0.063967 -0.093454 0.000000 0.000000 0.000000
# 3 0.003809 -0.093454 0.157602 0.000000 0.000000 0.000000
# 4 0.000000 0.000000 0.000000 0.023587 0.000000 0.000000
# 5 0.000000 0.000000 0.000000 0.000000 0.020775 0.000000
# 6 0.000000 0.000000 0.000000 0.000000 0.000000 -0.008732
#
#
# Mechanical properties :
#
#
# Convention : Reuss Voigt Hill
#
# Bulk Modulus (GPa) = 21.19629 48.23059 34.71344
# Shear Modulus (GPa) = 10.58842 5.76075 8.17459
#
# Velocity S-wave (km/s) = 2.36684 1.74579 2.07963
# Velocity P-wave (km/s) = 4.32242 5.43881 4.91243
#
# Compressibility (1/GPa) = 0.04717808
#
# Stress axis : x y z
#
# Youngs Moduli (GPa) = 80.32935 15.63304 6.34509
#
# Poissons Ratio (x) = 0.05902 -0.02417
# Poissons Ratio (y) = 0.30328 0.59297
# Poissons Ratio (z) = -0.30598 1.46096
#
# Static dielectric constant tensor:
#      x y z
#    x 1.640000 0.000000 0.000000 
#    y 0.000000 1.627060 0.000000 
#    z 0.000000 0.000000 1.630490 
# 
# From -- ./inp_files/11000.got.cif
#   From: 2010.05.17/outbox.cif.g08.bks.cpg/sg54_6_cif.got.tgz:11000.got - 2010.06.03 13:09:01.
