data_PCOD9422724
_publ_section_title
;
Structure prediction by ZEFSAII (Michael W. Deem and Ramdas Pophale) SiO2 
 PCOD9422724
Probable space group: P C C A
;
_chemical_formula_sum "Si O2"
_cell_formula_units_Z 40
_cell_length_a 11.670345
_cell_length_b 8.193026
_cell_length_c 15.579280
_cell_angle_alpha 90.000000
_cell_angle_beta 90.000000
_cell_angle_gamma 90.000000
_cell_volume 1489.619712
_symmetry_space_group_name_H-M "P C C A"
_symmetry_group_IT_number 54
_symmetry_cell_setting 'orthorhombic'
loop_
_space_group_symop_operation_xyz
x,y,z
1/2-x,-y,z
1/2+x,-y,1/2-z
-x,y,1/2-z
-x,-y,-z
1/2+x,y,-z
1/2-x,y,1/2+z
x,-y,1/2+z
loop_
_atom_site_type_symbol
_atom_site_label
_atom_site_fract_x
_atom_site_fract_y
_atom_site_fract_z
Si Si1 0.428492 0.850083 0.397662
Si Si2 0.707165 0.662980 0.894167
Si Si3 0.750000 0.000000 0.986343
Si Si4 0.788444 0.277059 0.705986
Si Si5 0.022706 0.504385 0.852084
Si Si6 0.000000 0.954260 0.250000
O O1 0.313115 0.804568 0.344930
O O2 0.476750 0.666422 0.411154
O O3 0.372318 0.978909 0.463667
O O4 0.516323 0.938379 0.334632
O O5 0.750000 0.500000 0.940687
O O6 0.745047 0.829315 0.936922
O O7 0.757728 0.665595 0.797998
O O8 0.572203 0.626734 0.881449
O O9 0.855774 0.413894 0.652524
O O10 0.888007 0.150321 0.731211
O O11 0.000000 0.544419 0.750000
#
# Coordination Sequence:
#
# PCOD9422724 Si02
#       6
#     8   8   4   8   8   4
#     4  12  25  45  73 107 145 194 259 321 376 449
#     4  11  26  47  73 107 153 202 248 306 387 463
#     4  12  30  46  68 112 162 204 236 312 398 464
#     4  11  22  45  76 107 140 186 257 326 367 433
#     4  10  21  44  73 106 136 192 262 318 375 436
#     4  12  22  40  76 110 136 182 256 322 376 430
#
# _framework density 26.852492999999999
#
# number of rings (size 3 to 8) (size 9 to 14) (size 15 to 20)
#    0.000    0.800    6.000    3.000    2.800    2.400 
#    0.000    7.000    0.000    0.000    0.000    0.000 
#    0.000    0.000    0.000    0.000    0.000    0.000 
#
# Total GULP energy -223982.833144 kJ/mol
# GULP energy per Si atom -5599.570829 kJ/mol
# Density = 2.679138 g / cm^3
# Si number density = 26.852493 Si / 1000 Ang^3
#
#
#
# Elastic Constant Matrix: (Units=GPa)
#
#
# Indices 1 2 3 4 5 6 
#
# 1 127.5302 47.5898 15.1614 0.0000 0.0000 0.0000
# 2 47.5898 212.0517 48.4133 0.0000 0.0000 0.0000
# 3 15.1614 48.4133 66.4808 0.0000 0.0000 0.0000
# 4 0.0000 0.0000 0.0000 -48.7957 0.0000 0.0000
# 5 0.0000 0.0000 0.0000 0.0000 -5.4068 0.0000
# 6 0.0000 0.0000 0.0000 0.0000 0.0000 59.5778
#
#
#
# Elastic Compliance Matrix: (Units=1/GPa)
#
#
# Indices 1 2 3 4 5 6 
#
# 1 0.008582 -0.001774 -0.000665 0.000000 0.000000 0.000000
# 2 -0.001774 0.006023 -0.003982 0.000000 0.000000 0.000000
# 3 -0.000665 -0.003982 0.018093 0.000000 0.000000 0.000000
# 4 0.000000 0.000000 0.000000 -0.020494 0.000000 0.000000
# 5 0.000000 0.000000 0.000000 0.000000 -0.184951 0.000000
# 6 0.000000 0.000000 0.000000 0.000000 0.000000 0.016785
#
#
# Mechanical properties :
#
#
# Convention : Reuss Voigt Hill
#
# Bulk Modulus (GPa) = 50.36105 69.82129 60.09117
# Shear Modulus (GPa) = -36.62986 20.73495 -7.94746
#
# Velocity S-wave (km/s) = -3.69740 2.78183 -1.72224
# Velocity P-wave (km/s) = 0.75349 6.03128 4.29791
#
# Compressibility (1/GPa) = 0.01985661
#
# Stress axis : x y z
#
# Youngs Moduli (GPa) = 116.51686 166.02932 55.26963
#
# Poissons Ratio (x) = 0.29458 0.03677
# Poissons Ratio (y) = 0.20673 0.22006
# Poissons Ratio (z) = 0.07751 0.66105
#
# Static dielectric constant tensor:
#      x y z
#    x 2.132350 0.000000 0.000000 
#    y 0.000000 2.185430 0.000000 
#    z 0.000000 0.000000 2.227490 
# 
# From -- ./inp_files/17157.got.cif
#   From: 2010.05.17/outbox.cif.g08.bks.cpg/sg54_9_cif.got.tgz:17157.got - 2010.06.03 13:09:01.
