data_PCOD9422039
_publ_section_title
;
Structure prediction by ZEFSAII (Michael W. Deem and Ramdas Pophale) SiO2 
 PCOD9422039
Probable space group: P C C A
;
_chemical_formula_sum "Si O2"
_cell_formula_units_Z 56
_cell_length_a 10.626218
_cell_length_b 15.504211
_cell_length_c 15.685550
_cell_angle_alpha 90.000000
_cell_angle_beta 90.000000
_cell_angle_gamma 90.000000
_cell_volume 2584.212024
_symmetry_space_group_name_H-M "P C C A"
_symmetry_group_IT_number 54
_symmetry_cell_setting 'orthorhombic'
loop_
_space_group_symop_operation_xyz
x,y,z
1/2-x,-y,z
1/2+x,-y,1/2-z
-x,y,1/2-z
-x,-y,-z
1/2+x,y,-z
1/2-x,y,1/2+z
x,-y,1/2+z
loop_
_atom_site_type_symbol
_atom_site_label
_atom_site_fract_x
_atom_site_fract_y
_atom_site_fract_z
Si Si1 0.466367 0.144772 0.967446
Si Si2 0.895718 0.241138 0.875699
Si Si3 0.633378 0.439927 0.407977
Si Si4 0.066377 0.268032 0.338200
Si Si5 0.620537 0.976236 0.592656
Si Si6 0.333230 0.186031 0.308929
Si Si7 0.883586 0.538264 0.613301
O O1 0.514013 0.227389 0.915700
O O2 0.437287 0.070628 0.896939
O O3 0.371860 0.187913 0.037207
O O4 0.549259 0.087434 0.030181
O O5 0.854451 0.339775 0.885357
O O6 0.833538 0.201820 0.791710
O O7 0.046285 0.233672 0.852624
O O8 0.750000 0.500000 0.379911
O O9 0.626181 0.447500 0.510926
O O10 0.501638 0.475626 0.371805
O O11 0.203411 0.222975 0.345644
O O12 0.086815 0.369385 0.346814
O O13 0.000000 0.247620 0.250000
O O14 0.649209 0.915872 0.672938
O O15 0.750000 0.000000 0.547124
O O16 0.750000 0.500000 0.642536
#
# Coordination Sequence:
#
# PCOD9422039 Si02
#       7
#     8   8   8   8   8   8   8
#     4  10  22  42  69  97 128 176 222 279 329 417
#     4  10  21  44  69  97 128 179 233 263 345 407
#     4  10  21  39  69 100 130 173 236 280 318 407
#     4  12  25  43  62 101 140 170 223 282 343 392
#     4  10  20  42  67  94 131 170 226 271 337 403
#     4  10  23  42  65  95 135 176 214 291 334 403
#     4  10  22  43  65  94 136 185 215 278 341 393
#
# _framework density 21.670048999999999
#
# number of rings (size 3 to 8) (size 9 to 14) (size 15 to 20)
#    0.000    1.714    2.857    0.857    2.000    1.143 
#   12.857    0.714    0.000    0.000    0.000    0.000 
#    0.000    0.000    0.000    0.000    0.000    0.000 
#
# Total GULP energy -312238.061754 kJ/mol
# GULP energy per Si atom -5575.679674 kJ/mol
# Density = 2.162073 g / cm^3
# Si number density = 21.670049 Si / 1000 Ang^3
#
#
#
# Elastic Constant Matrix: (Units=GPa)
#
#
# Indices 1 2 3 4 5 6 
#
# 1 59.3169 31.7520 2.0982 0.0000 0.0000 0.0000
# 2 31.7520 173.6659 49.5741 0.0000 0.0000 0.0000
# 3 2.0982 49.5741 73.7934 0.0000 0.0000 0.0000
# 4 0.0000 0.0000 0.0000 34.1442 0.0000 0.0000
# 5 0.0000 0.0000 0.0000 0.0000 -32.5663 0.0000
# 6 0.0000 0.0000 0.0000 0.0000 0.0000 25.8848
#
#
#
# Elastic Compliance Matrix: (Units=1/GPa)
#
#
# Indices 1 2 3 4 5 6 
#
# 1 0.018976 -0.004102 0.002216 0.000000 0.000000 0.000000
# 2 -0.004102 0.008011 -0.005265 0.000000 0.000000 0.000000
# 3 0.002216 -0.005265 0.017026 0.000000 0.000000 0.000000
# 4 0.000000 0.000000 0.000000 0.029288 0.000000 0.000000
# 5 0.000000 0.000000 0.000000 0.000000 -0.030707 0.000000
# 6 0.000000 0.000000 0.000000 0.000000 0.000000 0.038633
#
#
# Mechanical properties :
#
#
# Convention : Reuss Voigt Hill
#
# Bulk Modulus (GPa) = 33.65815 52.62498 43.14156
# Shear Modulus (GPa) = 47.42381 20.38264 33.90322
#
# Velocity S-wave (km/s) = 4.68316 3.07023 3.95969
# Velocity P-wave (km/s) = 6.69391 6.07502 6.39196
#
# Compressibility (1/GPa) = 0.02971049
#
# Stress axis : x y z
#
# Youngs Moduli (GPa) = 52.69802 124.82552 58.73540
#
# Poissons Ratio (x) = 0.51205 -0.13017
# Poissons Ratio (y) = 0.21617 0.30926
# Poissons Ratio (z) = -0.11679 0.65724
#
# Static dielectric constant tensor:
#      x y z
#    x 1.967130 0.000000 0.000000 
#    y 0.000000 1.788910 0.000000 
#    z 0.000000 0.000000 1.822110 
# 
# From -- ./inp_files/12687.got.cif
#   From: 2010.05.17/outbox.cif.g08.bks.cpg/sg54_7_cif.got.tgz:12687.got - 2010.06.03 13:09:01.
