data_PCOD9422484
_publ_section_title
;
Structure prediction by ZEFSAII (Michael W. Deem and Ramdas Pophale) SiO2 
 PCOD9422484
Probable space group: P C C A
;
_chemical_formula_sum "Si O2"
_cell_formula_units_Z 32
_cell_length_a 8.771507
_cell_length_b 7.758430
_cell_length_c 20.377173
_cell_angle_alpha 90.000000
_cell_angle_beta 90.000000
_cell_angle_gamma 90.000000
_cell_volume 1386.730262
_symmetry_space_group_name_H-M "P C C A"
_symmetry_group_IT_number 54
_symmetry_cell_setting 'orthorhombic'
loop_
_space_group_symop_operation_xyz
x,y,z
1/2-x,-y,z
1/2+x,-y,1/2-z
-x,y,1/2-z
-x,-y,-z
1/2+x,y,-z
1/2-x,y,1/2+z
x,-y,1/2+z
loop_
_atom_site_type_symbol
_atom_site_label
_atom_site_fract_x
_atom_site_fract_y
_atom_site_fract_z
Si Si1 0.575141 0.233494 0.816836
Si Si2 0.918334 0.815860 0.317172
Si Si3 0.944614 0.171580 0.538958
Si Si4 0.860400 0.335942 0.061935
O O1 0.500000 0.298733 0.750000
O O2 0.753830 0.275048 0.823709
O O3 0.463037 0.290476 0.874935
O O4 0.585873 0.024846 0.811972
O O5 0.000000 0.755906 0.250000
O O6 0.002208 0.799927 0.386453
O O7 0.764148 0.190997 0.542868
O O8 0.020795 0.323880 0.497285
O O9 0.000000 0.000000 0.500000
O O10 0.750000 0.500000 0.071400
#
# Coordination Sequence:
#
# PCOD9422484 Si02
#       4
#     8   8   8   8
#     4  10  21  40  67 100 139 180 234 290 357 422
#     4  10  21  39  69 104 134 173 234 308 350 409
#     4  12  24  41  70 100 133 179 240 293 351 424
#     4  12  26  44  66 102 148 189 230 294 363 431
#
# _framework density 23.075863999999999
#
# number of rings (size 3 to 8) (size 9 to 14) (size 15 to 20)
#    0.000    1.000    2.500    4.500    3.500    2.000 
#    0.000    3.750    0.000    1.500    0.000    0.000 
#    0.000    0.000    0.000    0.000    0.000    0.000 
#
# Total GULP energy -178628.567914 kJ/mol
# GULP energy per Si atom -5582.142747 kJ/mol
# Density = 2.302334 g / cm^3
# Si number density = 23.075864 Si / 1000 Ang^3
#
#
#
# Elastic Constant Matrix: (Units=GPa)
#
#
# Indices 1 2 3 4 5 6 
#
# 1 198.1118 40.4466 96.5769 0.0000 0.0000 0.0000
# 2 40.4466 109.9480 23.9489 0.0000 0.0000 0.0000
# 3 96.5769 23.9489 201.0897 0.0000 0.0000 0.0000
# 4 0.0000 0.0000 0.0000 -9.6414 0.0000 0.0000
# 5 0.0000 0.0000 0.0000 0.0000 47.1955 0.0000
# 6 0.0000 0.0000 0.0000 0.0000 0.0000 23.1223
#
#
#
# Elastic Compliance Matrix: (Units=1/GPa)
#
#
# Indices 1 2 3 4 5 6 
#
# 1 0.006949 -0.001878 -0.003114 0.000000 0.000000 0.000000
# 2 -0.001878 0.009845 -0.000271 0.000000 0.000000 0.000000
# 3 -0.003114 -0.000271 0.006501 0.000000 0.000000 0.000000
# 4 0.000000 0.000000 0.000000 -0.103720 0.000000 0.000000
# 5 0.000000 0.000000 0.000000 0.000000 0.021188 0.000000
# 6 0.000000 0.000000 0.000000 0.000000 0.000000 0.043248
#
#
# Mechanical properties :
#
#
# Convention : Reuss Voigt Hill
#
# Bulk Modulus (GPa) = 78.30898 92.34382 85.32640
# Shear Modulus (GPa) = -4141.99644 35.34708 -2053.32468
#
# Velocity S-wave (km/s) = -42.41278 3.91804 -29.86213
# Velocity P-wave (km/s) = 48.62561 7.78283 33.94022
#
# Compressibility (1/GPa) = 0.01276993
#
# Stress axis : x y z
#
# Youngs Moduli (GPa) = 143.90607 101.57408 153.83356
#
# Poissons Ratio (x) = 0.19077 0.47899
# Poissons Ratio (y) = 0.27027 0.04161
# Poissons Ratio (z) = 0.44808 0.02748
#
# Static dielectric constant tensor:
#      x y z
#    x 1.873350 0.000000 0.000000 
#    y 0.000000 2.031360 0.000000 
#    z 0.000000 0.000000 1.888610 
# 
# From -- ./inp_files/20028.got.cif
#   From: 2010.05.17/outbox.cif.g08.bks.cpg/sg54_11_cif.got.tgz:20028.got - 2010.06.03 13:09:01.
