data_PCOD9422551
_publ_section_title
;
Structure prediction by ZEFSAII (Michael W. Deem and Ramdas Pophale) SiO2 
 PCOD9422551
Probable space group: P C C A
;
_chemical_formula_sum "Si O2"
_cell_formula_units_Z 32
_cell_length_a 9.499218
_cell_length_b 9.579183
_cell_length_c 14.167018
_cell_angle_alpha 90.000000
_cell_angle_beta 90.000000
_cell_angle_gamma 90.000000
_cell_volume 1289.124227
_symmetry_space_group_name_H-M "P C C A"
_symmetry_group_IT_number 54
_symmetry_cell_setting 'orthorhombic'
loop_
_space_group_symop_operation_xyz
x,y,z
1/2-x,-y,z
1/2+x,-y,1/2-z
-x,y,1/2-z
-x,-y,-z
1/2+x,y,-z
1/2-x,y,1/2+z
x,-y,1/2+z
loop_
_atom_site_type_symbol
_atom_site_label
_atom_site_fract_x
_atom_site_fract_y
_atom_site_fract_z
Si Si1 0.147497 0.223887 0.772820
Si Si2 0.716980 0.159896 0.908810
Si Si3 0.890494 0.790575 0.599880
Si Si4 0.905736 0.487999 0.592223
O O1 0.221700 0.257957 0.673625
O O2 0.274230 0.149419 0.828652
O O3 0.096491 0.354788 0.838760
O O4 0.000000 0.146620 0.750000
O O5 0.548319 0.159483 0.919589
O O6 0.750000 0.000000 0.883456
O O7 0.803852 0.199985 0.002165
O O8 0.919994 0.636243 0.643048
O O9 0.750000 0.500000 0.551489
O O10 0.000000 0.500000 0.500000
#
# Coordination Sequence:
#
# PCOD9422551 Si02
#       4
#     8   8   8   8
#     4  11  25  43  67 105 146 192 246 312 384 458
#     4  12  26  46  72 104 146 198 255 318 388 471
#     4  11  24  45  71 102 139 191 251 316 386 455
#     4  10  21  40  67  99 139 183 237 308 374 444
#
# _framework density 24.823056999999999
#
# number of rings (size 3 to 8) (size 9 to 14) (size 15 to 20)
#    0.000    1.000    0.000    7.500    0.000    9.000 
#    0.000   11.250    0.000    0.000    0.000    0.000 
#    0.000    0.000    0.000    0.000    0.000    0.000 
#
# Total GULP energy -178451.409452 kJ/mol
# GULP energy per Si atom -5576.606545 kJ/mol
# Density = 2.476656 g / cm^3
# Si number density = 24.823057 Si / 1000 Ang^3
#
#
#
# Elastic Constant Matrix: (Units=GPa)
#
#
# Indices 1 2 3 4 5 6 
#
# 1 289.1663 18.4970 91.3684 0.0000 0.0000 0.0000
# 2 18.4970 96.9319 -3.0269 0.0000 0.0000 0.0000
# 3 91.3684 -3.0269 167.6685 0.0000 0.0000 0.0000
# 4 0.0000 0.0000 0.0000 -102.9535 0.0000 0.0000
# 5 0.0000 0.0000 0.0000 0.0000 59.1931 0.0000
# 6 0.0000 0.0000 0.0000 0.0000 0.0000 25.3660
#
#
#
# Elastic Compliance Matrix: (Units=1/GPa)
#
#
# Indices 1 2 3 4 5 6 
#
# 1 0.004252 -0.000884 -0.002333 0.000000 0.000000 0.000000
# 2 -0.000884 0.010506 0.000672 0.000000 0.000000 0.000000
# 3 -0.002333 0.000672 0.007248 0.000000 0.000000 0.000000
# 4 0.000000 0.000000 0.000000 -0.009713 0.000000 0.000000
# 5 0.000000 0.000000 0.000000 0.000000 0.016894 0.000000
# 6 0.000000 0.000000 0.000000 0.000000 0.000000 0.039423
#
#
# Mechanical properties :
#
#
# Convention : Reuss Voigt Hill
#
# Bulk Modulus (GPa) = 59.12136 85.27150 72.19643
# Shear Modulus (GPa) = 63.02085 26.11634 44.56859
#
# Velocity S-wave (km/s) = 5.04412 3.24713 4.24187
# Velocity P-wave (km/s) = 7.60217 6.96310 7.28964
#
# Compressibility (1/GPa) = 0.01691436
#
# Stress axis : x y z
#
# Youngs Moduli (GPa) = 235.18675 95.18164 137.97661
#
# Poissons Ratio (x) = 0.08416 0.32190
# Poissons Ratio (y) = 0.20796 -0.09265
# Poissons Ratio (z) = 0.54869 -0.06392
#
# Static dielectric constant tensor:
#      x y z
#    x 1.971370 0.000000 0.000000 
#    y 0.000000 2.074870 0.000000 
#    z 0.000000 0.000000 1.984130 
# 
# From -- ./inp_files/11232.got.cif
#   From: 2010.05.17/outbox.cif.g08.bks.cpg/sg54_6_cif.got.tgz:11232.got - 2010.06.03 13:09:01.
