data_PCOD9422305
_publ_section_title
;
Structure prediction by ZEFSAII (Michael W. Deem and Ramdas Pophale) SiO2 
 PCOD9422305
Probable space group: P C C A
;
_chemical_formula_sum "Si O2"
_cell_formula_units_Z 56
_cell_length_a 8.591400
_cell_length_b 24.320380
_cell_length_c 14.638263
_cell_angle_alpha 90.000000
_cell_angle_beta 90.000000
_cell_angle_gamma 90.000000
_cell_volume 3058.608151
_symmetry_space_group_name_H-M "P C C A"
_symmetry_group_IT_number 54
_symmetry_cell_setting 'orthorhombic'
loop_
_space_group_symop_operation_xyz
x,y,z
1/2-x,-y,z
1/2+x,-y,1/2-z
-x,y,1/2-z
-x,-y,-z
1/2+x,y,-z
1/2-x,y,1/2+z
x,-y,1/2+z
loop_
_atom_site_type_symbol
_atom_site_label
_atom_site_fract_x
_atom_site_fract_y
_atom_site_fract_z
Si Si1 0.190114 0.652091 0.891329
Si Si2 0.182967 0.648878 0.595874
Si Si3 0.185893 0.732867 0.241920
Si Si4 0.186937 0.561294 0.744648
Si Si5 0.680441 0.940861 0.415205
Si Si6 0.811607 0.941480 0.616952
Si Si7 0.314979 0.138613 0.233378
O O1 0.240865 0.704768 0.831805
O O2 0.239087 0.599542 0.829535
O O3 0.003680 0.652141 0.899606
O O4 0.261924 0.649956 0.991827
O O5 0.253350 0.698879 0.654783
O O6 0.230609 0.593935 0.651983
O O7 0.224493 0.797014 0.232661
O O8 0.000000 0.727435 0.250000
O O9 0.250000 0.500000 0.747891
O O10 0.000000 0.559340 0.750000
O O11 0.722375 0.933707 0.521365
O O12 0.495728 0.943055 0.400500
O O13 0.760465 0.892741 0.357500
O O14 0.750000 0.000000 0.387178
O O15 0.771283 0.892981 0.685354
O O16 0.750000 0.000000 0.654673
O O17 0.500000 0.133083 0.250000
#
# Coordination Sequence:
#
# PCOD9422305 Si02
#       7
#     8   8   8   8   8   8   8
#     4  10  21  38  59  83 113 149 189 229 276 329
#     4  10  21  38  59  83 113 149 189 229 276 329
#     4  10  22  39  59  82 110 145 186 233 280 327
#     4   9  20  36  55  83 116 149 185 230 274 322
#     4  11  22  38  59  83 112 146 183 226 277 332
#     4  11  22  38  59  83 112 146 183 226 277 332
#     4  11  23  39  58  83 112 144 185 229 277 333
#
# _framework density 18.308982
#
# number of rings (size 3 to 8) (size 9 to 14) (size 15 to 20)
#    0.000    1.714    0.000    6.429    0.000    7.429 
#    0.000    2.857    0.000    0.000    0.000    0.000 
#    0.000    0.000    0.000    0.000    0.000    0.000 
#
# Total GULP energy -312894.618018 kJ/mol
# GULP energy per Si atom -5587.403893 kJ/mol
# Density = 1.826731 g / cm^3
# Si number density = 18.308982 Si / 1000 Ang^3
#
#
#
# Elastic Constant Matrix: (Units=GPa)
#
#
# Indices 1 2 3 4 5 6 
#
# 1 36.2196 6.2636 -3.2204 0.0000 0.0000 0.0000
# 2 6.2636 117.4105 39.3530 0.0000 0.0000 0.0000
# 3 -3.2204 39.3530 109.0113 0.0000 0.0000 0.0000
# 4 0.0000 0.0000 0.0000 12.1670 0.0000 0.0000
# 5 0.0000 0.0000 0.0000 0.0000 33.1716 0.0000
# 6 0.0000 0.0000 0.0000 0.0000 0.0000 31.6355
#
#
#
# Elastic Compliance Matrix: (Units=1/GPa)
#
#
# Indices 1 2 3 4 5 6 
#
# 1 0.028098 -0.002022 0.001560 0.000000 0.000000 0.000000
# 2 -0.002022 0.009835 -0.003610 0.000000 0.000000 0.000000
# 3 0.001560 -0.003610 0.010523 0.000000 0.000000 0.000000
# 4 0.000000 0.000000 0.000000 0.082190 0.000000 0.000000
# 5 0.000000 0.000000 0.000000 0.000000 0.030146 0.000000
# 6 0.000000 0.000000 0.000000 0.000000 0.000000 0.031610
#
#
# Mechanical properties :
#
#
# Convention : Reuss Voigt Hill
#
# Bulk Modulus (GPa) = 24.80688 38.60374 31.70531
# Shear Modulus (GPa) = 23.36640 30.07783 26.72212
#
# Velocity S-wave (km/s) = 3.57631 4.05753 3.82450
# Velocity P-wave (km/s) = 5.53459 6.56367 6.07098
#
# Compressibility (1/GPa) = 0.04031140
#
# Stress axis : x y z
#
# Youngs Moduli (GPa) = 35.59007 101.67744 95.03255
#
# Poissons Ratio (x) = 0.20557 -0.14824
# Poissons Ratio (y) = 0.07196 0.34308
# Poissons Ratio (z) = -0.05552 0.36707
#
# Static dielectric constant tensor:
#      x y z
#    x 1.618280 0.000000 0.000000 
#    y 0.000000 1.587440 0.000000 
#    z 0.000000 0.000000 1.619160 
# 
# From -- ./inp_files/11876.got.cif
#   From: 2010.05.17/outbox.cif.g08.bks.cpg/sg54_6_cif.got.tgz:11876.got - 2010.06.03 13:09:01.
