data_PCOD9422077
_publ_section_title
;
Structure prediction by ZEFSAII (Michael W. Deem and Ramdas Pophale) SiO2 
 PCOD9422077
Probable space group: P C C A
;
_chemical_formula_sum "Si O2"
_cell_formula_units_Z 40
_cell_length_a 20.412686
_cell_length_b 8.152431
_cell_length_c 9.210023
_cell_angle_alpha 90.000000
_cell_angle_beta 90.000000
_cell_angle_gamma 90.000000
_cell_volume 1532.667688
_symmetry_space_group_name_H-M "P C C A"
_symmetry_group_IT_number 54
_symmetry_cell_setting 'orthorhombic'
loop_
_space_group_symop_operation_xyz
x,y,z
1/2-x,-y,z
1/2+x,-y,1/2-z
-x,y,1/2-z
-x,-y,-z
1/2+x,y,-z
1/2-x,y,1/2+z
x,-y,1/2+z
loop_
_atom_site_type_symbol
_atom_site_label
_atom_site_fract_x
_atom_site_fract_y
_atom_site_fract_z
Si Si1 0.845125 0.278302 0.984330
Si Si2 0.907087 0.273067 0.502376
Si Si3 0.374681 0.509799 0.758483
Si Si4 0.440695 0.052408 0.141253
Si Si5 0.816296 0.038437 0.644933
O O1 0.827795 0.371570 0.836533
O O2 0.919249 0.212552 0.950224
O O3 0.812310 0.111193 0.031214
O O4 0.840948 0.399696 0.119238
O O5 0.924242 0.380282 0.644319
O O6 0.904790 0.390363 0.363074
O O7 0.835869 0.199713 0.552359
O O8 0.945898 0.109410 0.458687
O O9 0.500000 0.069451 0.250000
O O10 0.377668 0.018955 0.246612
O O11 0.750000 0.000000 0.729866
#
# Coordination Sequence:
#
# PCOD9422077 Si02
#       5
#     8   8   8   8   8
#     4  10  22  43  71  99 139 179 232 285 351 414
#     4  10  22  43  71  99 139 179 232 285 351 414
#     4  10  20  44  68 101 140 180 224 289 354 417
#     4  11  24  45  74 106 145 191 244 294 352 429
#     4  11  24  46  73 100 135 187 242 294 352 431
#
# _framework density 26.098286000000002
#
# number of rings (size 3 to 8) (size 9 to 14) (size 15 to 20)
#    0.000    1.600    4.000    0.000    0.000    6.400 
#    0.000   12.000    0.000    0.000    0.000    0.000 
#    0.000    0.000    0.000    0.000    0.000    0.000 
#
# Total GULP energy -223462.536679 kJ/mol
# GULP energy per Si atom -5586.563417 kJ/mol
# Density = 2.603889 g / cm^3
# Si number density = 26.098286 Si / 1000 Ang^3
#
#
#
# Elastic Constant Matrix: (Units=GPa)
#
#
# Indices 1 2 3 4 5 6 
#
# 1 101.0461 4.5030 12.3111 0.0000 0.0000 0.0000
# 2 4.5030 153.8811 73.8364 0.0000 0.0000 0.0000
# 3 12.3111 73.8364 198.5475 0.0000 0.0000 0.0000
# 4 0.0000 0.0000 0.0000 60.7081 0.0000 0.0000
# 5 0.0000 0.0000 0.0000 0.0000 28.8576 0.0000
# 6 0.0000 0.0000 0.0000 0.0000 0.0000 17.7870
#
#
#
# Elastic Compliance Matrix: (Units=1/GPa)
#
#
# Indices 1 2 3 4 5 6 
#
# 1 0.009972 0.000006 -0.000621 0.000000 0.000000 0.000000
# 2 0.000006 0.007910 -0.002942 0.000000 0.000000 0.000000
# 3 -0.000621 -0.002942 0.006169 0.000000 0.000000 0.000000
# 4 0.000000 0.000000 0.000000 0.016472 0.000000 0.000000
# 5 0.000000 0.000000 0.000000 0.000000 0.034653 0.000000
# 6 0.000000 0.000000 0.000000 0.000000 0.000000 0.056221
#
#
# Mechanical properties :
#
#
# Convention : Reuss Voigt Hill
#
# Bulk Modulus (GPa) = 59.03941 70.53063 64.78502
# Shear Modulus (GPa) = 34.68464 45.65882 40.17173
#
# Velocity S-wave (km/s) = 3.64950 4.18723 3.92758
# Velocity P-wave (km/s) = 6.35842 7.10358 6.74131
#
# Compressibility (1/GPa) = 0.01693784
#
# Stress axis : x y z
#
# Youngs Moduli (GPa) = 100.28274 126.42250 162.09773
#
# Poissons Ratio (x) = -0.00075 0.10058
# Poissons Ratio (y) = -0.00060 0.47688
# Poissons Ratio (z) = 0.06223 0.37193
#
# Static dielectric constant tensor:
#      x y z
#    x 2.218700 0.000000 0.000000 
#    y 0.000000 2.097380 0.000000 
#    z 0.000000 0.000000 2.068800 
# 
# From -- ./inp_files/5437.got.cif
#   From: 2010.05.17/outbox.cif.g08.bks.cpg/sg54_3_cif.got.tgz:5437.got - 2010.06.03 13:09:01.
