data_PCOD9422328
_publ_section_title
;
Structure prediction by ZEFSAII (Michael W. Deem and Ramdas Pophale) SiO2 
 PCOD9422328
Probable space group: P C C A
;
_chemical_formula_sum "Si O2"
_cell_formula_units_Z 48
_cell_length_a 21.642838
_cell_length_b 7.376476
_cell_length_c 13.145792
_cell_angle_alpha 90.000000
_cell_angle_beta 90.000000
_cell_angle_gamma 90.000000
_cell_volume 2098.697759
_symmetry_space_group_name_H-M "P C C A"
_symmetry_group_IT_number 54
_symmetry_cell_setting 'orthorhombic'
loop_
_space_group_symop_operation_xyz
x,y,z
1/2-x,-y,z
1/2+x,-y,1/2-z
-x,y,1/2-z
-x,-y,-z
1/2+x,y,-z
1/2-x,y,1/2+z
x,-y,1/2+z
loop_
_atom_site_type_symbol
_atom_site_label
_atom_site_fract_x
_atom_site_fract_y
_atom_site_fract_z
Si Si1 0.224589 0.316524 0.201218
Si Si2 0.052709 0.259540 0.691764
Si Si3 0.433323 0.098601 0.989778
Si Si4 0.510073 0.354749 0.866225
Si Si5 0.138089 0.223160 0.028955
Si Si6 0.836009 0.387256 0.676021
O O1 0.250000 0.500000 0.144778
O O2 0.188588 0.200276 0.118353
O O3 0.179487 0.410268 0.284521
O O4 0.283454 0.261410 0.269082
O O5 0.085599 0.153867 0.603209
O O6 0.017321 0.428010 0.638288
O O7 0.100342 0.334448 0.772102
O O8 0.000000 0.147899 0.750000
O O9 0.381939 0.952154 0.961880
O O10 0.451096 0.273692 0.924784
O O11 0.500000 0.000000 0.000000
O O12 0.500000 0.296622 0.750000
O O13 0.574668 0.288241 0.915836
O O14 0.161418 0.363863 0.944160
#
# Coordination Sequence:
#
# PCOD9422328 Si02
#       6
#     8   8   8   8   8   8
#     4   8  20  38  63  96 116 167 226 277 317 382
#     4  11  20  39  63  92 129 169 218 262 323 403
#     4  10  23  35  58  92 132 170 201 264 335 393
#     4  10  21  38  60  96 131 171 219 262 327 404
#     4  11  20  40  63  94 130 168 219 276 336 395
#     4   9  21  37  66  91 122 169 216 279 325 386
#
# _framework density 22.871324999999999
#
# number of rings (size 3 to 8) (size 9 to 14) (size 15 to 20)
#    1.000    1.000    1.667    2.500    2.333    6.667 
#    0.000    0.833    0.000    2.000    0.000    0.000 
#    0.000    0.000    0.000    0.000    0.000    0.000 
#
# Total GULP energy -267404.305061 kJ/mol
# GULP energy per Si atom -5570.923022 kJ/mol
# Density = 2.281927 g / cm^3
# Si number density = 22.871325 Si / 1000 Ang^3
#
#
#
# Elastic Constant Matrix: (Units=GPa)
#
#
# Indices 1 2 3 4 5 6 
#
# 1 93.3349 7.8031 32.1655 0.0000 0.0000 0.0000
# 2 7.8031 36.3192 15.0598 0.0000 0.0000 0.0000
# 3 32.1655 15.0598 111.8050 0.0000 0.0000 0.0000
# 4 0.0000 0.0000 0.0000 7.2517 0.0000 0.0000
# 5 0.0000 0.0000 0.0000 0.0000 41.1586 0.0000
# 6 0.0000 0.0000 0.0000 0.0000 0.0000 14.3550
#
#
#
# Elastic Compliance Matrix: (Units=1/GPa)
#
#
# Indices 1 2 3 4 5 6 
#
# 1 0.011943 -0.001209 -0.003273 0.000000 0.000000 0.000000
# 2 -0.001209 0.029285 -0.003597 0.000000 0.000000 0.000000
# 3 -0.003273 -0.003597 0.010370 0.000000 0.000000 0.000000
# 4 0.000000 0.000000 0.000000 0.137900 0.000000 0.000000
# 5 0.000000 0.000000 0.000000 0.000000 0.024296 0.000000
# 6 0.000000 0.000000 0.000000 0.000000 0.000000 0.069662
#
#
# Mechanical properties :
#
#
# Convention : Reuss Voigt Hill
#
# Bulk Modulus (GPa) = 28.21605 39.05730 33.63668
# Shear Modulus (GPa) = 16.05511 24.98177 20.51844
#
# Velocity S-wave (km/s) = 2.65236 3.30854 2.99845
# Velocity P-wave (km/s) = 4.66301 5.63110 5.16977
#
# Compressibility (1/GPa) = 0.03544082
#
# Stress axis : x y z
#
# Youngs Moduli (GPa) = 83.72994 34.14742 96.42935
#
# Poissons Ratio (x) = 0.04128 0.31563
# Poissons Ratio (y) = 0.10121 0.34684
# Poissons Ratio (z) = 0.27406 0.12282
#
# Static dielectric constant tensor:
#      x y z
#    x 1.871170 0.000000 0.000000 
#    y 0.000000 1.948090 0.000000 
#    z 0.000000 0.000000 1.951510 
# 
# From -- ./inp_files/9906.got.cif
#   From: 2010.05.17/outbox.cif.g08.bks.cpg/sg54_5_cif.got.tgz:9906.got - 2010.06.03 13:09:01.
