data_PCOD9422549
_publ_section_title
;
Structure prediction by ZEFSAII (Michael W. Deem and Ramdas Pophale) SiO2 
 PCOD9422549
Probable space group: P C C A
;
_chemical_formula_sum "Si O2"
_cell_formula_units_Z 32
_cell_length_a 5.564857
_cell_length_b 8.818037
_cell_length_c 30.915804
_cell_angle_alpha 90.000000
_cell_angle_beta 90.000000
_cell_angle_gamma 90.000000
_cell_volume 1517.072971
_symmetry_space_group_name_H-M "P C C A"
_symmetry_group_IT_number 54
_symmetry_cell_setting 'orthorhombic'
loop_
_space_group_symop_operation_xyz
x,y,z
1/2-x,-y,z
1/2+x,-y,1/2-z
-x,y,1/2-z
-x,-y,-z
1/2+x,y,-z
1/2-x,y,1/2+z
x,-y,1/2+z
loop_
_atom_site_type_symbol
_atom_site_label
_atom_site_fract_x
_atom_site_fract_y
_atom_site_fract_z
Si Si1 0.750000 0.500000 0.474010
Si Si2 0.500000 0.907656 0.750000
Si Si3 0.250000 0.500000 0.876073
Si Si4 0.576762 0.252599 0.914452
Si Si5 0.452918 0.763191 0.657417
Si Si6 0.750000 0.000000 0.099238
O O1 0.500000 0.500000 0.500000
O O2 0.745546 0.343371 0.445918
O O3 0.449631 0.811804 0.706828
O O4 0.750000 0.000000 0.742640
O O5 0.376998 0.379008 0.906311
O O6 0.439802 0.595063 0.848210
O O7 0.701913 0.226999 0.867969
O O8 0.447268 0.096507 0.927260
O O9 0.618043 0.880309 0.630410
#
# Coordination Sequence:
#
# PCOD9422549 Si02
#       6
#     4   4   4   8   8   4
#     4  12  27  46  73 106 138 184 232 297 366 435
#     4  12  26  44  64 102 146 186 236 292 342 402
#     4  10  21  40  67  98 130 182 236 281 338 425
#     4  11  22  44  70 101 136 184 233 288 357 436
#     4  11  22  42  68  99 138 187 234 284 349 414
#     4  10  22  38  72  98 134 188 234 276 348 428
#
# _framework density 21.093252
#
# number of rings (size 3 to 8) (size 9 to 14) (size 15 to 20)
#    0.000    1.000    3.750    3.000    7.000    0.000 
#    4.500    1.250    0.000    0.000    0.000    0.000 
#    0.000    0.000    0.000    0.000    0.000    0.000 
#
# Total GULP energy -178670.935906 kJ/mol
# GULP energy per Si atom -5583.466747 kJ/mol
# Density = 2.104524 g / cm^3
# Si number density = 21.093252 Si / 1000 Ang^3
#
#
#
# Elastic Constant Matrix: (Units=GPa)
#
#
# Indices 1 2 3 4 5 6 
#
# 1 103.0888 36.1092 33.8723 0.0000 0.0000 0.0000
# 2 36.1092 116.9533 31.4248 0.0000 0.0000 0.0000
# 3 33.8723 31.4248 88.4136 0.0000 0.0000 0.0000
# 4 0.0000 0.0000 0.0000 -2.3372 0.0000 0.0000
# 5 0.0000 0.0000 0.0000 0.0000 13.8672 0.0000
# 6 0.0000 0.0000 0.0000 0.0000 0.0000 41.0848
#
#
#
# Elastic Compliance Matrix: (Units=1/GPa)
#
#
# Indices 1 2 3 4 5 6 
#
# 1 0.011815 -0.002688 -0.003571 0.000000 0.000000 0.000000
# 2 -0.002688 0.010065 -0.002547 0.000000 0.000000 0.000000
# 3 -0.003571 -0.002547 0.013584 0.000000 0.000000 0.000000
# 4 0.000000 0.000000 0.000000 -0.427862 0.000000 0.000000
# 5 0.000000 0.000000 0.000000 0.000000 0.072113 0.000000
# 6 0.000000 0.000000 0.000000 0.000000 0.000000 0.024340
#
#
# Mechanical properties :
#
#
# Convention : Reuss Voigt Hill
#
# Bulk Modulus (GPa) = 56.02076 56.80759 56.41417
# Shear Modulus (GPa) = -18.35661 24.32626 2.98483
#
# Velocity S-wave (km/s) = -2.95322 3.39967 1.19085
# Velocity P-wave (km/s) = 3.87138 6.51156 5.35668
#
# Compressibility (1/GPa) = 0.01785053
#
# Stress axis : x y z
#
# Youngs Moduli (GPa) = 84.63510 99.35458 73.61599
#
# Poissons Ratio (x) = 0.26711 0.26289
# Poissons Ratio (y) = 0.22754 0.18753
# Poissons Ratio (z) = 0.30224 0.25310
#
# Static dielectric constant tensor:
#      x y z
#    x 1.847140 0.000000 0.000000 
#    y 0.000000 1.801370 0.000000 
#    z 0.000000 0.000000 1.748330 
# 
# From -- ./inp_files/26909.got.cif
#   From: 2010.05.17/outbox.cif.g08.bks.cpg/sg54_14_cif.got.tgz:26909.got - 2010.06.03 13:09:01.
