data_PCOD9422556
_publ_section_title
;
Structure prediction by ZEFSAII (Michael W. Deem and Ramdas Pophale) SiO2 
 PCOD9422556
Probable space group: P C C A
;
_chemical_formula_sum "Si O2"
_cell_formula_units_Z 40
_cell_length_a 16.821128
_cell_length_b 10.668740
_cell_length_c 9.366667
_cell_angle_alpha 90.000000
_cell_angle_beta 90.000000
_cell_angle_gamma 90.000000
_cell_volume 1680.944318
_symmetry_space_group_name_H-M "P C C A"
_symmetry_group_IT_number 54
_symmetry_cell_setting 'orthorhombic'
loop_
_space_group_symop_operation_xyz
x,y,z
1/2-x,-y,z
1/2+x,-y,1/2-z
-x,y,1/2-z
-x,-y,-z
1/2+x,y,-z
1/2-x,y,1/2+z
x,-y,1/2+z
loop_
_atom_site_type_symbol
_atom_site_label
_atom_site_fract_x
_atom_site_fract_y
_atom_site_fract_z
Si Si1 0.572959 0.368707 0.143268
Si Si2 0.183148 0.407679 0.374372
Si Si3 0.931935 0.103853 0.525438
Si Si4 0.277839 0.718992 0.666270
Si Si5 0.167121 0.023189 0.706414
O O1 0.500000 0.385506 0.250000
O O2 0.604689 0.507907 0.098658
O O3 0.550051 0.253724 0.036356
O O4 0.648926 0.314856 0.228757
O O5 0.250000 0.500000 0.311740
O O6 0.217013 0.362153 0.524477
O O7 0.195640 0.298736 0.255935
O O8 0.897198 0.063418 0.678398
O O9 0.869024 0.077328 0.400510
O O10 0.000000 0.000000 0.500000
O O11 0.303504 0.857138 0.615570
O O12 0.250000 0.000000 0.787907
#
# Coordination Sequence:
#
# PCOD9422556 Si02
#       5
#     8   8   8   8   8
#     4  10  22  42  67  99 137 184 233 288 351 431
#     4  10  21  40  68  93 133 182 229 287 353 407
#     4  11  23  45  69  99 144 188 225 292 366 431
#     4  10  23  41  66  95 138 179 229 293 357 418
#     4  11  25  40  70 104 139 180 241 292 361 429
#
# _framework density 23.796147999999999
#
# number of rings (size 3 to 8) (size 9 to 14) (size 15 to 20)
#    0.000    1.600    0.000    5.400   11.200    0.800 
#    0.000    0.000    0.000    2.400    0.000    0.000 
#    0.000    0.000    0.000    0.000    0.000    0.000 
#
# Total GULP energy -222768.185142 kJ/mol
# GULP energy per Si atom -5569.204629 kJ/mol
# Density = 2.374199 g / cm^3
# Si number density = 23.796148 Si / 1000 Ang^3
#
#
#
# Elastic Constant Matrix: (Units=GPa)
#
#
# Indices 1 2 3 4 5 6 
#
# 1 89.4737 50.0554 17.8476 0.0000 0.0000 0.0000
# 2 50.0554 105.8461 67.5587 0.0000 0.0000 0.0000
# 3 17.8476 67.5587 105.7631 0.0000 0.0000 0.0000
# 4 0.0000 0.0000 0.0000 15.4645 0.0000 0.0000
# 5 0.0000 0.0000 0.0000 0.0000 28.8661 0.0000
# 6 0.0000 0.0000 0.0000 0.0000 0.0000 19.2874
#
#
#
# Elastic Compliance Matrix: (Units=1/GPa)
#
#
# Indices 1 2 3 4 5 6 
#
# 1 0.015967 -0.009845 0.003594 0.000000 0.000000 0.000000
# 2 -0.009845 0.022022 -0.012405 0.000000 0.000000 0.000000
# 3 0.003594 -0.012405 0.016773 0.000000 0.000000 0.000000
# 4 0.000000 0.000000 0.000000 0.064664 0.000000 0.000000
# 5 0.000000 0.000000 0.000000 0.000000 0.034643 0.000000
# 6 0.000000 0.000000 0.000000 0.000000 0.000000 0.051847
#
#
# Mechanical properties :
#
#
# Convention : Reuss Voigt Hill
#
# Bulk Modulus (GPa) = 57.30938 63.55625 60.43282
# Shear Modulus (GPa) = 20.07668 23.76500 21.92084
#
# Velocity S-wave (km/s) = 2.90779 3.16364 3.03841
# Velocity P-wave (km/s) = 5.95058 6.33336 6.14495
#
# Compressibility (1/GPa) = 0.01744915
#
# Stress axis : x y z
#
# Youngs Moduli (GPa) = 62.62778 45.40988 59.62027
#
# Poissons Ratio (x) = 0.44707 -0.21430
# Poissons Ratio (y) = 0.61659 0.73962
# Poissons Ratio (z) = -0.22511 0.56333
#
# Static dielectric constant tensor:
#      x y z
#    x 1.972030 0.000000 0.000000 
#    y 0.000000 2.301910 0.000000 
#    z 0.000000 0.000000 1.857630 
# 
# From -- ./inp_files/3987.got.cif
#   From: 2010.05.17/outbox.cif.g08.bks.cpg/sg54_2_cif.got.tgz:3987.got - 2010.06.03 13:09:01.
