data_PCOD9422655
_publ_section_title
;
Structure prediction by ZEFSAII (Michael W. Deem and Ramdas Pophale) SiO2 
 PCOD9422655
Probable space group: P C C A
;
_chemical_formula_sum "Si O2"
_cell_formula_units_Z 32
_cell_length_a 8.840799
_cell_length_b 5.370298
_cell_length_c 32.276455
_cell_angle_alpha 90.000000
_cell_angle_beta 90.000000
_cell_angle_gamma 90.000000
_cell_volume 1532.412661
_symmetry_space_group_name_H-M "P C C A"
_symmetry_group_IT_number 54
_symmetry_cell_setting 'orthorhombic'
loop_
_space_group_symop_operation_xyz
x,y,z
1/2-x,-y,z
1/2+x,-y,1/2-z
-x,y,1/2-z
-x,-y,-z
1/2+x,y,-z
1/2-x,y,1/2+z
x,-y,1/2+z
loop_
_atom_site_type_symbol
_atom_site_label
_atom_site_fract_x
_atom_site_fract_y
_atom_site_fract_z
Si Si1 0.093585 0.928154 0.065587
Si Si2 0.849558 0.751631 0.222533
Si Si3 0.117022 0.320774 0.479510
Si Si4 0.150915 0.250321 0.874221
O O1 0.972833 0.140897 0.051494
O O2 0.250000 0.000000 0.088217
O O3 0.991684 0.752174 0.094640
O O4 0.156552 0.818696 0.022243
O O5 0.750000 0.500000 0.228532
O O6 0.895469 0.763906 0.173973
O O7 0.000000 0.745477 0.250000
O O8 0.750000 0.000000 0.231211
O O9 0.250000 0.500000 0.463876
O O10 0.000000 0.500000 0.500000
O O11 0.250000 0.500000 0.877691
O O12 0.250000 0.000000 0.882292
#
# Coordination Sequence:
#
# PCOD9422655 Si02
#       4
#     8   8   8   8
#     4  11  25  41  62  95 125 167 228 274 329 393
#     4  10  21  42  69 102 136 173 219 264 325 396
#     4  11  24  41  62  88 127 170 220 280 335 387
#     4  10  25  43  66  97 134 177 216 267 333 398
#
# _framework density 20.882106
#
# number of rings (size 3 to 8) (size 9 to 14) (size 15 to 20)
#    0.000    1.500    2.500    0.750    7.000    1.000 
#    0.000    1.250    0.000    0.000    0.000    0.000 
#    0.000    0.000    0.000    0.000    0.000    0.000 
#
# Total GULP energy -178414.634685 kJ/mol
# GULP energy per Si atom -5575.457334 kJ/mol
# Density = 2.083458 g / cm^3
# Si number density = 20.882106 Si / 1000 Ang^3
#
#
#
# Elastic Constant Matrix: (Units=GPa)
#
#
# Indices 1 2 3 4 5 6 
#
# 1 103.0834 31.8120 76.4263 0.0000 0.0000 0.0000
# 2 31.8120 114.7786 36.6289 0.0000 0.0000 0.0000
# 3 76.4263 36.6289 116.3227 0.0000 0.0000 0.0000
# 4 0.0000 0.0000 0.0000 23.1527 0.0000 0.0000
# 5 0.0000 0.0000 0.0000 0.0000-1587.2983 0.0000
# 6 0.0000 0.0000 0.0000 0.0000 0.0000 53.5532
#
#
#
# Elastic Compliance Matrix: (Units=1/GPa)
#
#
# Indices 1 2 3 4 5 6 
#
# 1 0.019125 -0.001435 -0.012113 0.000000 0.000000 0.000000
# 2 -0.001435 0.009793 -0.002141 0.000000 0.000000 0.000000
# 3 -0.012113 -0.002141 0.017230 0.000000 0.000000 0.000000
# 4 0.000000 0.000000 0.000000 0.043191 0.000000 0.000000
# 5 0.000000 0.000000 0.000000 0.000000 -0.000630 0.000000
# 6 0.000000 0.000000 0.000000 0.000000 0.000000 0.018673
#
#
# Mechanical properties :
#
#
# Convention : Reuss Voigt Hill
#
# Bulk Modulus (GPa) = 67.70958 69.32436 68.51697
# Shear Modulus (GPa) = 34.79859 -289.49730 -127.34936
#
# Velocity S-wave (km/s) = 4.08662 -11.78707 -7.81776
# Velocity P-wave (km/s) = 7.40016 12.32789 6.97189
#
# Compressibility (1/GPa) = 0.01476896
#
# Stress axis : x y z
#
# Youngs Moduli (GPa) = 52.28868 102.10961 58.03915
#
# Poissons Ratio (x) = 0.14651 0.70305
# Poissons Ratio (y) = 0.07503 0.12427
# Poissons Ratio (z) = 0.63339 0.21863
#
# Static dielectric constant tensor:
#      x y z
#    x 1.684690 0.000000 0.000000 
#    y 0.000000 1.752370 0.000000 
#    z 0.000000 0.000000 1.769890 
# 
# From -- ./inp_files/27492.got.cif
#   From: 2010.05.17/outbox.cif.g08.bks.cpg/sg54_14_cif.got.tgz:27492.got - 2010.06.03 13:09:01.
