data_PCOD9422649
_publ_section_title
;
Structure prediction by ZEFSAII (Michael W. Deem and Ramdas Pophale) SiO2 
 PCOD9422649
Probable space group: P C C A
;
_chemical_formula_sum "Si O2"
_cell_formula_units_Z 56
_cell_length_a 9.126515
_cell_length_b 13.386107
_cell_length_c 21.723276
_cell_angle_alpha 90.000000
_cell_angle_beta 90.000000
_cell_angle_gamma 90.000000
_cell_volume 2653.900181
_symmetry_space_group_name_H-M "P C C A"
_symmetry_group_IT_number 54
_symmetry_cell_setting 'orthorhombic'
loop_
_space_group_symop_operation_xyz
x,y,z
1/2-x,-y,z
1/2+x,-y,1/2-z
-x,y,1/2-z
-x,-y,-z
1/2+x,y,-z
1/2-x,y,1/2+z
x,-y,1/2+z
loop_
_atom_site_type_symbol
_atom_site_label
_atom_site_fract_x
_atom_site_fract_y
_atom_site_fract_z
Si Si1 0.630686 0.582481 0.853851
Si Si2 0.105446 0.558629 0.795318
Si Si3 0.649660 0.248332 0.633157
Si Si4 0.299452 0.217013 0.634752
Si Si5 0.462924 0.389285 0.018849
Si Si6 0.176203 0.103894 0.255313
Si Si7 0.282223 0.257157 0.498167
O O1 0.750000 0.500000 0.874442
O O2 0.515336 0.524096 0.812535
O O3 0.725824 0.680357 0.839560
O O4 0.526185 0.616033 0.908609
O O5 0.250000 0.500000 0.772192
O O6 0.156195 0.633374 0.849372
O O7 0.000000 0.623851 0.750000
O O8 0.475444 0.226475 0.630431
O O9 0.708445 0.186246 0.691884
O O10 0.732547 0.219644 0.569245
O O11 0.267219 0.136874 0.687650
O O12 0.246900 0.202367 0.563295
O O13 0.551027 0.292999 0.996071
O O14 0.500000 0.500000 0.000000
O O15 0.297205 0.364806 0.001928
O O16 0.000000 0.093820 0.250000
O O17 0.250000 0.000000 0.273036
#
# Coordination Sequence:
#
# PCOD9422649 Si02
#       7
#     8   8   8   8   8   8   8
#     4  11  21  36  58  89 132 179 225 265 314 392
#     4  12  25  38  58  93 136 181 229 271 325 388
#     4  11  22  42  68  94 135 177 217 275 339 395
#     4  10  21  42  68  94 134 178 214 276 336 386
#     4  11  20  33  51  85 127 179 223 263 309 372
#     4  10  24  49  75  97 127 169 220 282 352 413
#     4  11  21  37  60  92 130 171 224 267 326 397
#
# _framework density 21.101019000000001
#
# number of rings (size 3 to 8) (size 9 to 14) (size 15 to 20)
#    0.000    1.143    2.857    5.571    2.000    0.000 
#    7.714    0.714    0.000    3.429    0.000    0.000 
#    0.000    0.000    0.000    0.000    0.000    0.000 
#
# Total GULP energy -311814.129874 kJ/mol
# GULP energy per Si atom -5568.109462 kJ/mol
# Density = 2.105299 g / cm^3
# Si number density = 21.101019 Si / 1000 Ang^3
#
#
#
# Elastic Constant Matrix: (Units=GPa)
#
#
# Indices 1 2 3 4 5 6 
#
# 1 53.7584 10.9798 25.1523 0.0000 0.0000 0.0000
# 2 10.9798 48.0969 36.5371 0.0000 0.0000 0.0000
# 3 25.1523 36.5371 141.2439 0.0000 0.0000 0.0000
# 4 0.0000 0.0000 0.0000 13.2714 0.0000 0.0000
# 5 0.0000 0.0000 0.0000 0.0000 33.4204 0.0000
# 6 0.0000 0.0000 0.0000 0.0000 0.0000 26.4977
#
#
#
# Elastic Compliance Matrix: (Units=1/GPa)
#
#
# Indices 1 2 3 4 5 6 
#
# 1 0.020508 -0.002374 -0.003038 0.000000 0.000000 0.000000
# 2 -0.002374 0.026151 -0.006342 0.000000 0.000000 0.000000
# 3 -0.003038 -0.006342 0.009262 0.000000 0.000000 0.000000
# 4 0.000000 0.000000 0.000000 0.075350 0.000000 0.000000
# 5 0.000000 0.000000 0.000000 0.000000 0.029922 0.000000
# 6 0.000000 0.000000 0.000000 0.000000 0.000000 0.037739
#
#
# Mechanical properties :
#
#
# Convention : Reuss Voigt Hill
#
# Bulk Modulus (GPa) = 30.85202 43.15974 37.00588
# Shear Modulus (GPa) = 21.43684 25.99989 23.71837
#
# Velocity S-wave (km/s) = 3.19080 3.51403 3.35631
# Velocity P-wave (km/s) = 5.31298 6.07970 5.70923
#
# Compressibility (1/GPa) = 0.03241279
#
# Stress axis : x y z
#
# Youngs Moduli (GPa) = 48.76158 38.23938 107.97386
#
# Poissons Ratio (x) = 0.09078 0.32801
# Poissons Ratio (y) = 0.11576 0.68477
# Poissons Ratio (z) = 0.14813 0.24252
#
# Static dielectric constant tensor:
#      x y z
#    x 1.780220 0.000000 0.000000 
#    y 0.000000 1.537210 0.000000 
#    z 0.000000 0.000000 1.643750 
# 
# From -- ./inp_files/20560.got.cif
#   From: 2010.05.17/outbox.cif.g08.bks.cpg/sg54_11_cif.got.tgz:20560.got - 2010.06.03 13:09:01.
