data_PCOD9422906
_publ_section_title
;
Structure prediction by ZEFSAII (Michael W. Deem and Ramdas Pophale) SiO2 
 PCOD9422906
Probable space group: P C C A
;
_chemical_formula_sum "Si O2"
_cell_formula_units_Z 64
_cell_length_a 15.492882
_cell_length_b 15.066581
_cell_length_c 11.021207
_cell_angle_alpha 90.000000
_cell_angle_beta 90.000000
_cell_angle_gamma 90.000000
_cell_volume 2572.622616
_symmetry_space_group_name_H-M "P C C A"
_symmetry_group_IT_number 54
_symmetry_cell_setting 'orthorhombic'
loop_
_space_group_symop_operation_xyz
x,y,z
1/2-x,-y,z
1/2+x,-y,1/2-z
-x,y,1/2-z
-x,-y,-z
1/2+x,y,-z
1/2-x,y,1/2+z
x,-y,1/2+z
loop_
_atom_site_type_symbol
_atom_site_label
_atom_site_fract_x
_atom_site_fract_y
_atom_site_fract_z
Si Si1 0.703990 0.814795 0.936126
Si Si2 0.602437 0.658758 0.004456
Si Si3 0.434335 0.750054 0.019707
Si Si4 0.383297 0.080635 0.615122
Si Si5 0.165635 0.729843 0.285455
Si Si6 0.846398 0.960998 0.614014
Si Si7 0.350328 0.645625 0.234963
Si Si8 0.094751 0.458890 0.702384
O O1 0.790389 0.867767 0.898128
O O2 0.650468 0.809415 0.810133
O O3 0.690776 0.710192 0.970590
O O4 0.666007 0.864670 0.052491
O O5 0.520038 0.713163 0.958592
O O6 0.591539 0.658755 0.147093
O O7 0.598777 0.563956 0.940676
O O8 0.450897 0.840854 0.091288
O O9 0.394193 0.680767 0.113946
O O10 0.363443 0.764159 0.915150
O O11 0.387387 0.042365 0.751461
O O12 0.387597 0.015532 0.499094
O O13 0.264575 0.701127 0.264196
O O14 0.117792 0.636103 0.261790
O O15 0.750000 0.000000 0.631956
O O16 0.341314 0.539755 0.227396
O O17 0.000000 0.483724 0.750000
#
# Coordination Sequence:
#
# PCOD9422906 Si02
#       8
#     8   8   8   8   8   8   8   8
#     4  10  22  41  70  96 140 176 234 293 348 423
#     4  11  25  46  69  99 139 187 239 289 364 438
#     4  12  25  43  72  99 140 190 236 291 362 437
#     4  11  23  40  69 104 141 179 241 292 357 425
#     4  11  25  43  67 104 136 182 241 297 357 420
#     4  10  22  39  67 106 138 183 231 294 358 426
#     4  12  26  42  70 101 136 185 238 302 357 419
#     4  11  24  46  67  98 140 186 233 293 354 427
#
# _framework density 24.877337000000001
#
# number of rings (size 3 to 8) (size 9 to 14) (size 15 to 20)
#    0.000    1.000    2.500    4.125    8.750    1.000 
#    0.000    0.625    0.000    3.000    0.000    0.000 
#    0.000    0.000    0.000    0.000    0.000    0.000 
#
# Total GULP energy -357617.539960 kJ/mol
# GULP energy per Si atom -5587.774062 kJ/mol
# Density = 2.482072 g / cm^3
# Si number density = 24.877337 Si / 1000 Ang^3
#
#
#
# Elastic Constant Matrix: (Units=GPa)
#
#
# Indices 1 2 3 4 5 6 
#
# 1 80.6388 8.2621 19.9224 0.0000 0.0000 0.0000
# 2 8.2621 93.6199 37.1277 0.0000 0.0000 0.0000
# 3 19.9224 37.1277 171.7809 0.0000 0.0000 0.0000
# 4 0.0000 0.0000 0.0000 27.1287 0.0000 0.0000
# 5 0.0000 0.0000 0.0000 0.0000 25.1720 0.0000
# 6 0.0000 0.0000 0.0000 0.0000 0.0000 10.0714
#
#
#
# Elastic Compliance Matrix: (Units=1/GPa)
#
#
# Indices 1 2 3 4 5 6 
#
# 1 0.012797 -0.000591 -0.001356 0.000000 0.000000 0.000000
# 2 -0.000591 0.011710 -0.002462 0.000000 0.000000 0.000000
# 3 -0.001356 -0.002462 0.006511 0.000000 0.000000 0.000000
# 4 0.000000 0.000000 0.000000 0.036861 0.000000 0.000000
# 5 0.000000 0.000000 0.000000 0.000000 0.039727 0.000000
# 6 0.000000 0.000000 0.000000 0.000000 0.000000 0.099291
#
#
# Mechanical properties :
#
#
# Convention : Reuss Voigt Hill
#
# Bulk Modulus (GPa) = 45.05007 52.96268 49.00638
# Shear Modulus (GPa) = 22.40983 31.18958 26.79971
#
# Velocity S-wave (km/s) = 3.00461 3.54465 3.28575
# Velocity P-wave (km/s) = 5.49410 6.17159 5.84267
#
# Compressibility (1/GPa) = 0.02219752
#
# Stress axis : x y z
#
# Youngs Moduli (GPa) = 78.14540 85.39553 153.58940
#
# Poissons Ratio (x) = 0.05051 0.20831
# Poissons Ratio (y) = 0.04622 0.37820
# Poissons Ratio (z) = 0.10599 0.21028
#
# Static dielectric constant tensor:
#      x y z
#    x 2.032880 0.000000 0.000000 
#    y 0.000000 1.959780 0.000000 
#    z 0.000000 0.000000 2.045790 
# 
# From -- ./inp_files/9085.got.cif
#   From: 2010.05.17/outbox.cif.g08.bks.cpg/sg54_5_cif.got.tgz:9085.got - 2010.06.03 13:09:01.
