data_PCOD9422244
_publ_section_title
;
Structure prediction by ZEFSAII (Michael W. Deem and Ramdas Pophale) SiO2 
 PCOD9422244
Probable space group: P C C A
;
_chemical_formula_sum "Si O2"
_cell_formula_units_Z 56
_cell_length_a 14.618987
_cell_length_b 26.818110
_cell_length_c 5.541899
_cell_angle_alpha 90.000000
_cell_angle_beta 90.000000
_cell_angle_gamma 90.000000
_cell_volume 2172.721462
_symmetry_space_group_name_H-M "P C C A"
_symmetry_group_IT_number 54
_symmetry_cell_setting 'orthorhombic'
loop_
_space_group_symop_operation_xyz
x,y,z
1/2-x,-y,z
1/2+x,-y,1/2-z
-x,y,1/2-z
-x,-y,-z
1/2+x,y,-z
1/2-x,y,1/2+z
x,-y,1/2+z
loop_
_atom_site_type_symbol
_atom_site_label
_atom_site_fract_x
_atom_site_fract_y
_atom_site_fract_z
Si Si1 0.448435 0.886193 0.499005
Si Si2 0.853464 0.019596 0.914336
Si Si3 0.272406 0.189952 0.506057
Si Si4 0.145116 0.519179 0.090804
Si Si5 0.555631 0.620117 0.001276
Si Si6 0.983397 0.777134 0.999312
Si Si7 0.703928 0.302266 0.485027
O O1 0.500000 0.896242 0.750000
O O2 0.362049 0.922194 0.520946
O O3 0.450082 0.825839 0.494697
O O4 0.500000 0.899545 0.250000
O O5 0.750000 0.000000 0.893888
O O6 0.894641 0.008006 0.649809
O O7 0.247931 0.163519 0.257451
O O8 0.379018 0.204048 0.500007
O O9 0.214951 0.242084 0.512425
O O10 0.250000 0.500000 0.110824
O O11 0.104332 0.509329 0.357337
O O12 0.132170 0.576785 0.024936
O O13 0.500000 0.611455 0.250000
O O14 0.500000 0.618695 0.750000
O O15 0.607379 0.672395 0.019763
O O16 0.000000 0.750320 0.250000
O O17 0.000000 0.750124 0.750000
O O18 0.761208 0.318269 0.720971
#
# Coordination Sequence:
#
# PCOD9422244 Si02
#       7
#     8   8   8   8   8   8   8
#     4  10  21  37  63  90 126 167 210 266 320 374
#     4  10  21  37  60  89 126 169 214 260 316 382
#     4  10  21  42  68 101 131 174 218 266 331 416
#     4  10  23  40  65  97 126 186 227 266 333 406
#     4  12  26  43  68 101 139 171 226 290 332 382
#     4  10  21  40  69  98 131 170 219 275 328 387
#     4  10  23  43  69  96 135 179 217 265 338 413
#
# _framework density 25.774125999999999
#
# number of rings (size 3 to 8) (size 9 to 14) (size 15 to 20)
#    0.000    1.714    0.000    3.429    4.000    3.429 
#    0.000   17.143   75.429    0.000    0.000    0.000 
#    0.000    0.000    0.000    0.000    0.000    0.000 
#
# Total GULP energy -313168.238441 kJ/mol
# GULP energy per Si atom -5592.289972 kJ/mol
# Density = 2.571546 g / cm^3
# Si number density = 25.774126 Si / 1000 Ang^3
#
#
#
# Elastic Constant Matrix: (Units=GPa)
#
#
# Indices 1 2 3 4 5 6 
#
# 1 81.7872 39.2517 30.5422 0.0000 0.0000 0.0000
# 2 39.2517 108.9700 7.6391 0.0000 0.0000 0.0000
# 3 30.5422 7.6391 267.6266 0.0000 0.0000 0.0000
# 4 0.0000 0.0000 0.0000 -11.8898 0.0000 0.0000
# 5 0.0000 0.0000 0.0000 0.0000 32.1882 0.0000
# 6 0.0000 0.0000 0.0000 0.0000 0.0000 29.2348
#
#
#
# Elastic Compliance Matrix: (Units=1/GPa)
#
#
# Indices 1 2 3 4 5 6 
#
# 1 0.015442 -0.005450 -0.001607 0.000000 0.000000 0.000000
# 2 -0.005450 0.011119 0.000305 0.000000 0.000000 0.000000
# 3 -0.001607 0.000305 0.003911 0.000000 0.000000 0.000000
# 4 0.000000 0.000000 0.000000 -0.084105 0.000000 0.000000
# 5 0.000000 0.000000 0.000000 0.000000 0.031067 0.000000
# 6 0.000000 0.000000 0.000000 0.000000 0.000000 0.034206
#
#
# Mechanical properties :
#
#
# Convention : Reuss Voigt Hill
#
# Bulk Modulus (GPa) = 58.93392 68.13887 63.53640
# Shear Modulus (GPa) = 162.33889 35.30336 98.82112
#
# Velocity S-wave (km/s) = 7.94493 3.70499 6.19875
# Velocity P-wave (km/s) = 10.34784 6.69305 8.71420
#
# Compressibility (1/GPa) = 0.01696816
#
# Stress axis : x y z
#
# Youngs Moduli (GPa) = 64.75688 89.93982 255.67450
#
# Poissons Ratio (x) = 0.49015 0.41081
# Poissons Ratio (y) = 0.35291 -0.07787
# Poissons Ratio (z) = 0.10405 -0.02739
#
# Static dielectric constant tensor:
#      x y z
#    x 2.034260 0.000000 0.000000 
#    y 0.000000 1.983710 0.000000 
#    z 0.000000 0.000000 2.101990 
# 
# From -- ./inp_files/726.got.cif
#   From: 2010.05.17/outbox.cif.g08.bks.cpg/sg54_1_cif.got.tgz:726.got - 2010.06.03 13:09:01.
