data_PCOD9422429
_publ_section_title
;
Structure prediction by ZEFSAII (Michael W. Deem and Ramdas Pophale) SiO2 
 PCOD9422429
Probable space group: P C C A
;
_chemical_formula_sum "Si O2"
_cell_formula_units_Z 24
_cell_length_a 7.335362
_cell_length_b 8.416146
_cell_length_c 15.329184
_cell_angle_alpha 90.000000
_cell_angle_beta 90.000000
_cell_angle_gamma 90.000000
_cell_volume 946.354495
_symmetry_space_group_name_H-M "P C C A"
_symmetry_group_IT_number 54
_symmetry_cell_setting 'orthorhombic'
loop_
_space_group_symop_operation_xyz
x,y,z
1/2-x,-y,z
1/2+x,-y,1/2-z
-x,y,1/2-z
-x,-y,-z
1/2+x,y,-z
1/2-x,y,1/2+z
x,-y,1/2+z
loop_
_atom_site_type_symbol
_atom_site_label
_atom_site_fract_x
_atom_site_fract_y
_atom_site_fract_z
Si Si1 0.250000 0.000000 0.394892
Si Si2 0.000000 0.915153 0.250000
Si Si3 0.785546 0.331646 0.850513
Si Si4 0.146867 0.331691 0.971403
O O1 0.237842 0.836651 0.447268
O O2 0.072744 0.006625 0.333083
O O3 0.832675 0.803819 0.282028
O O4 0.750000 0.500000 0.804716
O O5 0.965944 0.337025 0.912408
O O6 0.628999 0.317662 0.923488
O O7 0.250000 0.500000 0.955400
#
# Coordination Sequence:
#
# PCOD9422429 Si02
#       4
#     4   4   8   8
#     4  10  24  40  58  90 124 160 210 252 308 374
#     4  10  24  38  58  94 128 166 204 254 324 372
#     4  10  21  39  63  92 121 159 210 254 307 370
#     4  10  21  39  63  88 116 159 207 253 304 363
#
# _framework density 25.360475000000001
#
# number of rings (size 3 to 8) (size 9 to 14) (size 15 to 20)
#    0.000    2.000    0.000    4.000    0.000   17.333 
#    0.000    1.667    0.000    0.000    0.000    0.000 
#    0.000    0.000    0.000    0.000    0.000    0.000 
#
# Total GULP energy -134125.530310 kJ/mol
# GULP energy per Si atom -5588.563763 kJ/mol
# Density = 2.530275 g / cm^3
# Si number density = 25.360475 Si / 1000 Ang^3
#
#
#
# Elastic Constant Matrix: (Units=GPa)
#
#
# Indices 1 2 3 4 5 6 
#
# 1 40.9499 35.0655 -10.5382 0.0000 0.0000 0.0000
# 2 35.0655 195.3941 44.4967 0.0000 0.0000 0.0000
# 3 -10.5382 44.4967 51.0137 0.0000 0.0000 0.0000
# 4 0.0000 0.0000 0.0000 38.3789 0.0000 0.0000
# 5 0.0000 0.0000 0.0000 0.0000 38.9963 0.0000
# 6 0.0000 0.0000 0.0000 0.0000 0.0000 54.7863
#
#
#
# Elastic Compliance Matrix: (Units=1/GPa)
#
#
# Indices 1 2 3 4 5 6 
#
# 1 0.038075 -0.010762 0.017253 0.000000 0.000000 0.000000
# 2 -0.010762 0.009428 -0.010447 0.000000 0.000000 0.000000
# 3 0.017253 -0.010447 0.032279 0.000000 0.000000 0.000000
# 4 0.000000 0.000000 0.000000 0.026056 0.000000 0.000000
# 5 0.000000 0.000000 0.000000 0.000000 0.025643 0.000000
# 6 0.000000 0.000000 0.000000 0.000000 0.000000 0.018253
#
#
# Mechanical properties :
#
#
# Convention : Reuss Voigt Hill
#
# Bulk Modulus (GPa) = 13.91402 47.26731 30.59066
# Shear Modulus (GPa) = 27.53243 40.98790 34.26017
#
# Velocity S-wave (km/s) = 3.29848 4.02458 3.67948
# Velocity P-wave (km/s) = 4.47270 6.34625 5.48999
#
# Compressibility (1/GPa) = 0.07186995
#
# Stress axis : x y z
#
# Youngs Moduli (GPa) = 26.26369 106.06401 30.97995
#
# Poissons Ratio (x) = 1.14145 -0.53448
# Poissons Ratio (y) = 0.28265 0.32365
# Poissons Ratio (z) = -0.45312 1.10805
#
# Static dielectric constant tensor:
#      x y z
#    x 2.164690 0.000000 0.000000 
#    y 0.000000 1.973310 0.000000 
#    z 0.000000 0.000000 1.934920 
# 
# From -- ./inp_files/11082.got.cif
#   From: 2010.05.17/outbox.cif.g08.bks.cpg/sg54_6_cif.got.tgz:11082.got - 2010.06.03 13:09:01.
