data_PCOD9422049
_publ_section_title
;
Structure prediction by ZEFSAII (Michael W. Deem and Ramdas Pophale) SiO2 
 PCOD9422049
Probable space group: P C C A
;
_chemical_formula_sum "Si O2"
_cell_formula_units_Z 40
_cell_length_a 24.303143
_cell_length_b 6.089745
_cell_length_c 10.923178
_cell_angle_alpha 90.000000
_cell_angle_beta 90.000000
_cell_angle_gamma 90.000000
_cell_volume 1616.629728
_symmetry_space_group_name_H-M "P C C A"
_symmetry_group_IT_number 54
_symmetry_cell_setting 'orthorhombic'
loop_
_space_group_symop_operation_xyz
x,y,z
1/2-x,-y,z
1/2+x,-y,1/2-z
-x,y,1/2-z
-x,-y,-z
1/2+x,y,-z
1/2-x,y,1/2+z
x,-y,1/2+z
loop_
_atom_site_type_symbol
_atom_site_label
_atom_site_fract_x
_atom_site_fract_y
_atom_site_fract_z
Si Si1 0.070693 0.976919 0.112411
Si Si2 0.000000 0.381221 0.750000
Si Si3 0.250000 0.000000 0.588459
Si Si4 0.663325 0.687511 0.306981
Si Si5 0.469574 0.303720 0.925717
Si Si6 0.809547 0.618266 0.531929
O O1 0.043430 0.784927 0.191145
O O2 0.118970 0.119883 0.167184
O O3 0.078052 0.842424 0.985048
O O4 0.019673 0.139653 0.094041
O O5 0.957241 0.556205 0.692246
O O6 0.278952 0.185090 0.670336
O O7 0.205672 0.131846 0.506458
O O8 0.660085 0.507025 0.417683
O O9 0.664548 0.601429 0.167720
O O10 0.500000 0.500000 0.000000
O O11 0.750000 0.500000 0.542122
#
# Coordination Sequence:
#
# PCOD9422049 Si02
#       6
#     8   4   4   8   8   8
#     4  10  22  43  68 104 136 188 243 300 375 453
#     4  10  20  42  70  96 138 184 240 306 372 444
#     4  10  22  44  74 104 144 190 246 312 362 436
#     4  11  24  46  74 108 148 193 245 299 374 445
#     4   9  20  42  65  90 140 176 233 296 362 432
#     4  10  22  44  74 106 148 193 242 302 368 438
#
# _framework density 24.742833000000001
#
# number of rings (size 3 to 8) (size 9 to 14) (size 15 to 20)
#    0.000    2.000    0.000    3.000    0.000    4.800 
#   28.800    0.000    4.400    0.000    0.000    0.000 
#    0.000    0.000    0.000    0.000    0.000    0.000 
#
# Total GULP energy -223104.797987 kJ/mol
# GULP energy per Si atom -5577.619950 kJ/mol
# Density = 2.468652 g / cm^3
# Si number density = 24.742833 Si / 1000 Ang^3
#
#
#
# Elastic Constant Matrix: (Units=GPa)
#
#
# Indices 1 2 3 4 5 6 
#
# 1 85.7298 24.5799 41.1533 0.0000 0.0000 0.0000
# 2 24.5799 163.8369 87.4758 0.0000 0.0000 0.0000
# 3 41.1533 87.4758 157.8663 0.0000 0.0000 0.0000
# 4 0.0000 0.0000 0.0000 61.9891 0.0000 0.0000
# 5 0.0000 0.0000 0.0000 0.0000 27.0351 0.0000
# 6 0.0000 0.0000 0.0000 0.0000 0.0000 51.1231
#
#
#
# Elastic Compliance Matrix: (Units=1/GPa)
#
#
# Indices 1 2 3 4 5 6 
#
# 1 0.013338 -0.000205 -0.003363 0.000000 0.000000 0.000000
# 2 -0.000205 0.008671 -0.004751 0.000000 0.000000 0.000000
# 3 -0.003363 -0.004751 0.009844 0.000000 0.000000 0.000000
# 4 0.000000 0.000000 0.000000 0.016132 0.000000 0.000000
# 5 0.000000 0.000000 0.000000 0.000000 0.036989 0.000000
# 6 0.000000 0.000000 0.000000 0.000000 0.000000 0.019561
#
#
# Mechanical properties :
#
#
# Convention : Reuss Voigt Hill
#
# Bulk Modulus (GPa) = 65.73164 79.31679 72.52422
# Shear Modulus (GPa) = 39.60537 44.97773 42.29155
#
# Velocity S-wave (km/s) = 4.00519 4.26820 4.13879
# Velocity P-wave (km/s) = 6.92909 7.51107 7.22594
#
# Compressibility (1/GPa) = 0.01521337
#
# Stress axis : x y z
#
# Youngs Moduli (GPa) = 74.97441 115.32330 101.58488
#
# Poissons Ratio (x) = 0.02368 0.34165
# Poissons Ratio (y) = 0.01540 0.48266
# Poissons Ratio (z) = 0.25215 0.54794
#
# Static dielectric constant tensor:
#      x y z
#    x 1.983870 0.000000 0.000000 
#    y 0.000000 1.893250 0.000000 
#    z 0.000000 0.000000 2.957660 
# 
# From -- ./inp_files/10168.got.cif
#   From: 2010.05.17/outbox.cif.g08.bks.cpg/sg54_6_cif.got.tgz:10168.got - 2010.06.03 13:09:01.
