data_PCOD9422898
_publ_section_title
;
Structure prediction by ZEFSAII (Michael W. Deem and Ramdas Pophale) SiO2 
 PCOD9422898
Probable space group: P C C A
;
_chemical_formula_sum "Si O2"
_cell_formula_units_Z 48
_cell_length_a 17.922959
_cell_length_b 5.642993
_cell_length_c 20.996977
_cell_angle_alpha 90.000000
_cell_angle_beta 90.000000
_cell_angle_gamma 90.000000
_cell_volume 2123.616032
_symmetry_space_group_name_H-M "P C C A"
_symmetry_group_IT_number 54
_symmetry_cell_setting 'orthorhombic'
loop_
_space_group_symop_operation_xyz
x,y,z
1/2-x,-y,z
1/2+x,-y,1/2-z
-x,y,1/2-z
-x,-y,-z
1/2+x,y,-z
1/2-x,y,1/2+z
x,-y,1/2+z
loop_
_atom_site_type_symbol
_atom_site_label
_atom_site_fract_x
_atom_site_fract_y
_atom_site_fract_z
Si Si1 0.161373 0.712016 0.839963
Si Si2 0.172774 0.960885 0.530957
Si Si3 0.570609 0.755320 0.042634
Si Si4 0.330589 0.212711 0.293823
Si Si5 0.318439 0.313218 0.152960
Si Si6 0.578254 0.572926 0.420342
O O1 0.135312 0.658195 0.911627
O O2 0.135191 0.476689 0.802181
O O3 0.249493 0.749163 0.827130
O O4 0.131250 0.976134 0.821963
O O5 0.103602 0.000563 0.483331
O O6 0.181776 0.143564 0.590535
O O7 0.250000 0.000000 0.494615
O O8 0.153439 0.709960 0.560136
O O9 0.493461 0.741814 0.080582
O O10 0.563141 0.610668 0.977110
O O11 0.318710 0.172489 0.218768
O O12 0.250000 0.500000 0.156959
O O13 0.397671 0.447108 0.144156
#
# Coordination Sequence:
#
# PCOD9422898 Si02
#       6
#     8   8   8   8   8   8
#     4  10  22  39  65  93 127 177 212 277 336 395
#     4  11  23  34  68  97 122 168 219 286 328 401
#     4  10  24  42  62  94 137 171 220 272 355 407
#     4  10  23  39  67  94 131 174 222 282 329 385
#     4  11  21  40  64  93 125 169 229 276 334 393
#     4  10  23  43  65  91 133 176 217 281 339 410
#
# _framework density 22.602957
#
# number of rings (size 3 to 8) (size 9 to 14) (size 15 to 20)
#    0.000    1.667    3.333    0.500    9.333    1.333 
#    0.000    0.833    0.000    0.000    0.000    0.000 
#    0.000    0.000    0.000    0.000    0.000    0.000 
#
# Total GULP energy -267259.799736 kJ/mol
# GULP energy per Si atom -5567.912495 kJ/mol
# Density = 2.255151 g / cm^3
# Si number density = 22.602957 Si / 1000 Ang^3
#
#
#
# Elastic Constant Matrix: (Units=GPa)
#
#
# Indices 1 2 3 4 5 6 
#
# 1 54.4008 -16.0977 3.0134 0.0000 0.0000 0.0000
# 2 -16.0977 80.7780 -20.2380 0.0000 0.0000 0.0000
# 3 3.0134 -20.2380 59.2728 0.0000 0.0000 0.0000
# 4 0.0000 0.0000 0.0000 9.5044 0.0000 0.0000
# 5 0.0000 0.0000 0.0000 0.0000 28.7795 0.0000
# 6 0.0000 0.0000 0.0000 0.0000 0.0000 19.3485
#
#
#
# Elastic Compliance Matrix: (Units=1/GPa)
#
#
# Indices 1 2 3 4 5 6 
#
# 1 0.019541 0.003986 0.000368 0.000000 0.000000 0.000000
# 2 0.003986 0.014351 0.004697 0.000000 0.000000 0.000000
# 3 0.000368 0.004697 0.018456 0.000000 0.000000 0.000000
# 4 0.000000 0.000000 0.000000 0.105215 0.000000 0.000000
# 5 0.000000 0.000000 0.000000 0.000000 0.034747 0.000000
# 6 0.000000 0.000000 0.000000 0.000000 0.000000 0.051684
#
#
# Mechanical properties :
#
#
# Convention : Reuss Voigt Hill
#
# Bulk Modulus (GPa) = 14.19424 14.20075 14.19749
# Shear Modulus (GPa) = 20.05013 26.71141 23.38077
#
# Velocity S-wave (km/s) = 2.98158 3.44141 3.21972
# Velocity P-wave (km/s) = 4.25988 4.69973 4.48520
#
# Compressibility (1/GPa) = 0.07045113
#
# Stress axis : x y z
#
# Youngs Moduli (GPa) = 51.17357 69.68213 54.18204
#
# Poissons Ratio (x) = -0.27778 -0.01992
# Poissons Ratio (y) = -0.20400 -0.25451
# Poissons Ratio (z) = -0.01881 -0.32732
#
# Static dielectric constant tensor:
#      x y z
#    x 1.861550 0.000000 0.000000 
#    y 0.000000 1.870120 0.000000 
#    z 0.000000 0.000000 1.843310 
# 
# From -- ./inp_files/22096.got.cif
#   From: 2010.05.17/outbox.cif.g08.bks.cpg/sg54_12_cif.got.tgz:22096.got - 2010.06.03 13:09:01.
