data_PCOD9422853
_publ_section_title
;
Structure prediction by ZEFSAII (Michael W. Deem and Ramdas Pophale) SiO2 
 PCOD9422853
Probable space group: P C C A
;
_chemical_formula_sum "Si O2"
_cell_formula_units_Z 64
_cell_length_a 27.113703
_cell_length_b 12.230128
_cell_length_c 9.229983
_cell_angle_alpha 90.000000
_cell_angle_beta 90.000000
_cell_angle_gamma 90.000000
_cell_volume 3060.699820
_symmetry_space_group_name_H-M "P C C A"
_symmetry_group_IT_number 54
_symmetry_cell_setting 'orthorhombic'
loop_
_space_group_symop_operation_xyz
x,y,z
1/2-x,-y,z
1/2+x,-y,1/2-z
-x,y,1/2-z
-x,-y,-z
1/2+x,y,-z
1/2-x,y,1/2+z
x,-y,1/2+z
loop_
_atom_site_type_symbol
_atom_site_label
_atom_site_fract_x
_atom_site_fract_y
_atom_site_fract_z
Si Si1 0.408093 0.471020 0.927527
Si Si2 0.949679 0.615813 0.843596
Si Si3 0.892247 0.160862 0.305655
Si Si4 0.804037 0.509252 0.935041
Si Si5 0.201995 0.246037 0.057096
Si Si6 0.394289 0.770386 0.518502
Si Si7 0.963412 0.041137 0.876777
Si Si8 0.301059 0.721575 0.711922
O O1 0.444715 0.558424 0.000770
O O2 0.351339 0.493844 0.964375
O O3 0.416826 0.349530 0.990325
O O4 0.415353 0.461546 0.756614
O O5 0.926783 0.736462 0.850977
O O6 0.000000 0.619483 0.750000
O O7 0.842011 0.166359 0.397124
O O8 0.924356 0.052227 0.328833
O O9 0.877732 0.184632 0.138862
O O10 0.750000 0.500000 0.009813
O O11 0.809712 0.632619 0.878572
O O12 0.801552 0.408642 0.823146
O O13 0.255135 0.223619 0.126974
O O14 0.202951 0.257577 0.883051
O O15 0.434820 0.853446 0.571612
O O16 0.350783 0.763392 0.635365
O O17 0.000000 0.070928 0.750000
O O18 0.000000 0.000000 0.000000
#
# Coordination Sequence:
#
# PCOD9422853 Si02
#       8
#     8   8   8   8   8   8   8   8
#     4  10  22  39  59  91 131 172 212 267 321 394
#     4  11  23  39  60  88 130 172 216 263 330 388
#     4  11  24  43  68  93 132 172 221 280 336 392
#     4   9  20  35  57  92 132 175 221 263 316 387
#     4  11  22  39  65  96 134 180 218 270 330 397
#     4  10  24  43  65  97 134 168 222 279 331 397
#     4  12  26  48  74  99 124 171 229 284 341 394
#     4  10  23  38  64  98 135 176 222 267 331 397
#
# _framework density 20.910250999999999
#
# number of rings (size 3 to 8) (size 9 to 14) (size 15 to 20)
#    0.000    1.500    2.500    1.500    7.000    7.000 
#    0.000    0.625    0.000    3.000    0.000    0.000 
#    0.000    0.000    0.000    0.000    0.000    0.000 
#
# Total GULP energy -357600.379512 kJ/mol
# GULP energy per Si atom -5587.505930 kJ/mol
# Density = 2.086266 g / cm^3
# Si number density = 20.910251 Si / 1000 Ang^3
#
#
#
# Elastic Constant Matrix: (Units=GPa)
#
#
# Indices 1 2 3 4 5 6 
#
# 1 98.0003 21.0247 25.6555 0.0000 0.0000 0.0000
# 2 21.0247 45.6837 -2.7046 0.0000 0.0000 0.0000
# 3 25.6555 -2.7046 91.1147 0.0000 0.0000 0.0000
# 4 0.0000 0.0000 0.0000 17.9363 0.0000 0.0000
# 5 0.0000 0.0000 0.0000 0.0000 35.3409 0.0000
# 6 0.0000 0.0000 0.0000 0.0000 0.0000 31.6251
#
#
#
# Elastic Compliance Matrix: (Units=1/GPa)
#
#
# Indices 1 2 3 4 5 6 
#
# 1 0.012443 -0.005944 -0.003680 0.000000 0.000000 0.000000
# 2 -0.005944 0.024768 0.002409 0.000000 0.000000 0.000000
# 3 -0.003680 0.002409 0.012083 0.000000 0.000000 0.000000
# 4 0.000000 0.000000 0.000000 0.055753 0.000000 0.000000
# 5 0.000000 0.000000 0.000000 0.000000 0.028296 0.000000
# 6 0.000000 0.000000 0.000000 0.000000 0.000000 0.031620
#
#
# Mechanical properties :
#
#
# Convention : Reuss Voigt Hill
#
# Bulk Modulus (GPa) = 28.68377 35.86109 32.27243
# Shear Modulus (GPa) = 26.17603 29.70198 27.93901
#
# Velocity S-wave (km/s) = 3.54196 3.77298 3.65929
# Velocity P-wave (km/s) = 5.52038 6.01396 5.77245
#
# Compressibility (1/GPa) = 0.03486292
#
# Stress axis : x y z
#
# Youngs Moduli (GPa) = 80.36833 40.37474 82.76179
#
# Poissons Ratio (x) = 0.24000 0.30456
# Poissons Ratio (y) = 0.47773 -0.19937
# Poissons Ratio (z) = 0.29575 -0.09726
#
# Static dielectric constant tensor:
#      x y z
#    x 1.783580 0.000000 0.000000 
#    y 0.000000 1.730200 0.000000 
#    z 0.000000 0.000000 2.024740 
# 
# From -- ./inp_files/5968.got.cif
#   From: 2010.05.17/outbox.cif.g08.bks.cpg/sg54_3_cif.got.tgz:5968.got - 2010.06.03 13:09:01.
