data_PCOD9422737
_publ_section_title
;
Structure prediction by ZEFSAII (Michael W. Deem and Ramdas Pophale) SiO2 
 PCOD9422737
Probable space group: P C C A
;
_chemical_formula_sum "Si O2"
_cell_formula_units_Z 20
_cell_length_a 4.987797
_cell_length_b 5.053963
_cell_length_c 33.044596
_cell_angle_alpha 90.000000
_cell_angle_beta 90.000000
_cell_angle_gamma 90.000000
_cell_volume 832.992851
_symmetry_space_group_name_H-M "P C C A"
_symmetry_group_IT_number 54
_symmetry_cell_setting 'orthorhombic'
loop_
_space_group_symop_operation_xyz
x,y,z
1/2-x,-y,z
1/2+x,-y,1/2-z
-x,y,1/2-z
-x,-y,-z
1/2+x,y,-z
1/2-x,y,1/2+z
x,-y,1/2+z
loop_
_atom_site_type_symbol
_atom_site_label
_atom_site_fract_x
_atom_site_fract_y
_atom_site_fract_z
Si Si1 0.250000 0.500000 0.669343
Si Si2 0.568545 0.740167 0.907522
Si Si3 0.750000 0.500000 0.530266
Si Si4 0.750000 0.000000 0.277421
O O1 0.034592 0.361369 0.638705
O O2 0.342433 0.252967 0.696140
O O3 0.750000 0.500000 0.923926
O O4 0.315830 0.731827 0.937111
O O5 0.750000 0.000000 0.907358
O O6 0.500000 0.500000 0.500000
O O7 0.500000 0.086120 0.250000
#
# Coordination Sequence:
#
# PCOD9422737 Si02
#       4
#     4   8   4   4
#     4  10  21  50  67 106 142 188 238 288 343 456
#     4  10  23  46  73 100 140 197 244 287 369 427
#     4  12  25  48  71 110 146 188 246 316 367 432
#     4  12  26  44  74 108 142 182 228 298 362 416
#
# _framework density 24.009808
#
# number of rings (size 3 to 8) (size 9 to 14) (size 15 to 20)
#    1.200    0.000    4.000    1.200    0.000    6.400 
#    0.000    0.000    0.000    0.000    0.000    0.000 
#    0.000    0.000    0.000    0.000    0.000    0.000 
#
# Total GULP energy -111341.999844 kJ/mol
# GULP energy per Si atom -5567.099992 kJ/mol
# Density = 2.395516 g / cm^3
# Si number density = 24.009808 Si / 1000 Ang^3
#
#
#
# Elastic Constant Matrix: (Units=GPa)
#
#
# Indices 1 2 3 4 5 6 
#
# 1 124.1218 43.2505 47.2746 0.0000 0.0000 0.0000
# 2 43.2505 209.0933 59.8832 0.0000 0.0000 0.0000
# 3 47.2746 59.8832 154.6759 0.0000 0.0000 0.0000
# 4 0.0000 0.0000 0.0000 190.7684 0.0000 0.0000
# 5 0.0000 0.0000 0.0000 0.0000 60.0832 0.0000
# 6 0.0000 0.0000 0.0000 0.0000 0.0000 24.5506
#
#
#
# Elastic Compliance Matrix: (Units=1/GPa)
#
#
# Indices 1 2 3 4 5 6 
#
# 1 0.009405 -0.001262 -0.002386 0.000000 0.000000 0.000000
# 2 -0.001262 0.005548 -0.001762 0.000000 0.000000 0.000000
# 3 -0.002386 -0.001762 0.007877 0.000000 0.000000 0.000000
# 4 0.000000 0.000000 0.000000 0.005242 0.000000 0.000000
# 5 0.000000 0.000000 0.000000 0.000000 0.016644 0.000000
# 6 0.000000 0.000000 0.000000 0.000000 0.000000 0.040732
#
#
# Mechanical properties :
#
#
# Convention : Reuss Voigt Hill
#
# Bulk Modulus (GPa) = 83.26798 87.63418 85.45108
# Shear Modulus (GPa) = 49.86452 77.57929 63.72190
#
# Velocity S-wave (km/s) = 4.56218 5.69049 5.15728
# Velocity P-wave (km/s) = 7.90616 8.93051 8.43390
#
# Compressibility (1/GPa) = 0.01200942
#
# Stress axis : x y z
#
# Youngs Moduli (GPa) = 106.32504 180.23422 126.95774
#
# Poissons Ratio (x) = 0.22748 0.30291
# Poissons Ratio (y) = 0.13419 0.22374
# Poissons Ratio (z) = 0.25368 0.31763
#
# Static dielectric constant tensor:
#      x y z
#    x 2.100450 0.000000 0.000000 
#    y 0.000000 1.956870 0.000000 
#    z 0.000000 0.000000 1.996170 
# 
# From -- ./inp_files/24960.got.cif
#   From: 2010.05.17/outbox.cif.g08.bks.cpg/sg54_13_cif.got.tgz:24960.got - 2010.06.03 13:09:01.
