data_PCOD9422645
_publ_section_title
;
Structure prediction by ZEFSAII (Michael W. Deem and Ramdas Pophale) SiO2 
 PCOD9422645
Probable space group: P C C A
;
_chemical_formula_sum "Si O2"
_cell_formula_units_Z 64
_cell_length_a 9.031423
_cell_length_b 15.403153
_cell_length_c 21.258943
_cell_angle_alpha 90.000000
_cell_angle_beta 90.000000
_cell_angle_gamma 90.000000
_cell_volume 2957.382375
_symmetry_space_group_name_H-M "P C C A"
_symmetry_group_IT_number 54
_symmetry_cell_setting 'orthorhombic'
loop_
_space_group_symop_operation_xyz
x,y,z
1/2-x,-y,z
1/2+x,-y,1/2-z
-x,y,1/2-z
-x,-y,-z
1/2+x,y,-z
1/2-x,y,1/2+z
x,-y,1/2+z
loop_
_atom_site_type_symbol
_atom_site_label
_atom_site_fract_x
_atom_site_fract_y
_atom_site_fract_z
Si Si1 0.139756 0.434570 0.495264
Si Si2 0.233028 0.356914 0.123592
Si Si3 0.132231 0.120402 0.022308
Si Si4 0.430289 0.934065 0.574798
Si Si5 0.443128 0.728996 0.414559
Si Si6 0.778109 0.234740 0.691592
Si Si7 0.676963 0.582756 0.242690
Si Si8 0.623402 0.809435 0.823722
O O1 0.250000 0.500000 0.460494
O O2 0.204024 0.408218 0.564038
O O3 0.130197 0.341488 0.461000
O O4 0.000000 0.500000 0.500000
O O5 0.254065 0.406432 0.188861
O O6 0.307295 0.262623 0.130813
O O7 0.059477 0.333836 0.120900
O O8 0.307480 0.113642 0.030968
O O9 0.048893 0.204403 0.047792
O O10 0.078308 0.035955 0.062104
O O11 0.084807 0.101637 0.950893
O O12 0.389620 0.902776 0.643838
O O13 0.330742 0.780868 0.368100
O O14 0.728908 0.332193 0.706646
O O15 0.775422 0.188176 0.760754
O O16 0.953405 0.223324 0.680959
O O17 0.750000 0.500000 0.211021
O O18 0.500000 0.576276 0.250000
#
# Coordination Sequence:
#
# PCOD9422645 Si02
#       8
#     8   8   8   8   8   8   8   8
#     4  12  27  43  60  96 137 183 237 289 354 415
#     4  11  23  43  65  89 133 177 222 283 344 408
#     4  10  23  39  68 104 130 179 215 272 349 409
#     4  10  21  42  68 100 140 164 221 279 334 421
#     4  12  24  42  66  95 134 181 231 279 346 417
#     4  10  25  42  65  97 127 178 230 274 341 419
#     4  11  24  41  65  91 124 169 227 286 338 398
#     4  10  22  43  69  93 133 174 220 278 349 406
#
# _framework density 21.640757000000001
#
# number of rings (size 3 to 8) (size 9 to 14) (size 15 to 20)
#    0.000    1.250    3.750    1.125    7.000    0.500 
#    0.000    0.000   11.000    0.000    0.000    0.000 
#    0.000    0.000    0.000    0.000    0.000    0.000 
#
# Total GULP energy -356568.158885 kJ/mol
# GULP energy per Si atom -5571.377483 kJ/mol
# Density = 2.159150 g / cm^3
# Si number density = 21.640757 Si / 1000 Ang^3
#
#
#
# Elastic Constant Matrix: (Units=GPa)
#
#
# Indices 1 2 3 4 5 6 
#
# 1 70.1822 5.7366 7.5096 0.0000 0.0000 0.0000
# 2 5.7366 85.5592 24.7848 0.0000 0.0000 0.0000
# 3 7.5096 24.7848 58.7169 0.0000 0.0000 0.0000
# 4 0.0000 0.0000 0.0000 8572.6780 0.0000 0.0000
# 5 0.0000 0.0000 0.0000 0.0000 28.5568 0.0000
# 6 0.0000 0.0000 0.0000 0.0000 0.0000 32.5076
#
#
#
# Elastic Compliance Matrix: (Units=1/GPa)
#
#
# Indices 1 2 3 4 5 6 
#
# 1 0.014465 -0.000494 -0.001641 0.000000 0.000000 0.000000
# 2 -0.000494 0.013333 -0.005565 0.000000 0.000000 0.000000
# 3 -0.001641 -0.005565 0.019590 0.000000 0.000000 0.000000
# 4 0.000000 0.000000 0.000000 0.000117 0.000000 0.000000
# 5 0.000000 0.000000 0.000000 0.000000 0.035018 0.000000
# 6 0.000000 0.000000 0.000000 0.000000 0.000000 0.030762
#
#
# Mechanical properties :
#
#
# Convention : Reuss Voigt Hill
#
# Bulk Modulus (GPa) = 31.26315 32.28005 31.77160
# Shear Modulus (GPa) = 35.88171 1738.51030 887.19600
#
# Velocity S-wave (km/s) = 4.07635 28.37418 20.26957
# Velocity P-wave (km/s) = 6.05254 32.99102 23.71751
#
# Compressibility (1/GPa) = 0.03198654
#
# Stress axis : x y z
#
# Youngs Moduli (GPa) = 69.13406 75.00216 51.04729
#
# Poissons Ratio (x) = 0.03708 0.08378
# Poissons Ratio (y) = 0.03418 0.28406
# Poissons Ratio (z) = 0.11347 0.41736
#
# Static dielectric constant tensor:
#      x y z
#    x 1.966000 0.000000 0.000000 
#    y 0.000000 1.819720 0.000000 
#    z 0.000000 0.000000 1.906680 
# 
# From -- ./inp_files/23696.got.cif
#   From: 2010.05.17/outbox.cif.g08.bks.cpg/sg54_12_cif.got.tgz:23696.got - 2010.06.03 13:09:01.
