data_PCOD9422011
_publ_section_title
;
Structure prediction by ZEFSAII (Michael W. Deem and Ramdas Pophale) SiO2 
 PCOD9422011
Probable space group: P C C A
;
_chemical_formula_sum "Si O2"
_cell_formula_units_Z 56
_cell_length_a 11.858215
_cell_length_b 12.852663
_cell_length_c 16.229764
_cell_angle_alpha 90.000000
_cell_angle_beta 90.000000
_cell_angle_gamma 90.000000
_cell_volume 2473.572508
_symmetry_space_group_name_H-M "P C C A"
_symmetry_group_IT_number 54
_symmetry_cell_setting 'orthorhombic'
loop_
_space_group_symop_operation_xyz
x,y,z
1/2-x,-y,z
1/2+x,-y,1/2-z
-x,y,1/2-z
-x,-y,-z
1/2+x,y,-z
1/2-x,y,1/2+z
x,-y,1/2+z
loop_
_atom_site_type_symbol
_atom_site_label
_atom_site_fract_x
_atom_site_fract_y
_atom_site_fract_z
Si Si1 0.532500 0.419596 0.844843
Si Si2 0.122760 0.843671 0.207048
Si Si3 0.649753 0.580297 0.676124
Si Si4 0.493107 0.909316 0.936088
Si Si5 0.718024 0.185544 0.129889
Si Si6 0.795097 0.632303 0.363096
Si Si7 0.596382 0.287079 0.519690
O O1 0.500000 0.388554 0.750000
O O2 0.465425 0.529014 0.854939
O O3 0.665708 0.406540 0.861870
O O4 0.473860 0.346814 0.911633
O O5 0.215120 0.861475 0.277830
O O6 0.184181 0.753892 0.155372
O O7 0.000000 0.810976 0.250000
O O8 0.076110 0.926935 0.141969
O O9 0.750000 0.500000 0.653092
O O10 0.669548 0.696295 0.644176
O O11 0.654190 0.587627 0.776118
O O12 0.364361 0.895369 0.912088
O O13 0.521741 0.794327 0.969391
O O14 0.500000 0.000000 0.000000
O O15 0.820963 0.211488 0.071398
O O16 0.844560 0.630952 0.456296
#
# Coordination Sequence:
#
# PCOD9422011 Si02
#       7
#     8   8   8   8   8   8   8
#     4  12  23  41  66  96 138 187 231 294 347 432
#     4   8  17  38  70  93 126 177 227 283 352 433
#     4  11  21  43  64  96 137 187 243 286 348 431
#     4  10  22  41  67 100 130 169 223 291 363 425
#     4  10  20  41  68  93 131 179 229 281 347 429
#     4  10  22  41  61  98 136 181 239 292 361 417
#     4  11  23  42  66  97 136 175 228 296 361 426
#
# _framework density 22.639322
#
# number of rings (size 3 to 8) (size 9 to 14) (size 15 to 20)
#    0.000    1.714    2.857    1.714    0.000    6.286 
#    2.571    4.286    0.000   15.429    0.000    0.000 
#    0.000    0.000    0.000    0.000    0.000    0.000 
#
# Total GULP energy -311984.851448 kJ/mol
# GULP energy per Si atom -5571.158062 kJ/mol
# Density = 2.258779 g / cm^3
# Si number density = 22.639322 Si / 1000 Ang^3
#
#
#
# Elastic Constant Matrix: (Units=GPa)
#
#
# Indices 1 2 3 4 5 6 
#
# 1 49.5012 0.4411 25.9760 0.0000 0.0000 0.0000
# 2 0.4411 40.9388 11.1928 0.0000 0.0000 0.0000
# 3 25.9760 11.1928 93.3778 0.0000 0.0000 0.0000
# 4 0.0000 0.0000 0.0000 56.4461 0.0000 0.0000
# 5 0.0000 0.0000 0.0000 0.0000 35.5990 0.0000
# 6 0.0000 0.0000 0.0000 0.0000 0.0000 17.4470
#
#
#
# Elastic Compliance Matrix: (Units=1/GPa)
#
#
# Indices 1 2 3 4 5 6 
#
# 1 0.023756 0.001603 -0.006801 0.000000 0.000000 0.000000
# 2 0.001603 0.025363 -0.003486 0.000000 0.000000 0.000000
# 3 -0.006801 -0.003486 0.013019 0.000000 0.000000 0.000000
# 4 0.000000 0.000000 0.000000 0.017716 0.000000 0.000000
# 5 0.000000 0.000000 0.000000 0.000000 0.028091 0.000000
# 6 0.000000 0.000000 0.000000 0.000000 0.000000 0.057316
#
#
# Mechanical properties :
#
#
# Convention : Reuss Voigt Hill
#
# Bulk Modulus (GPa) = 22.33614 28.78195 25.55905
# Shear Modulus (GPa) = 25.30994 31.64561 28.47777
#
# Velocity S-wave (km/s) = 3.34722 3.74279 3.55052
# Velocity P-wave (km/s) = 4.98257 5.60525 5.30306
#
# Compressibility (1/GPa) = 0.04477050
#
# Stress axis : x y z
#
# Youngs Moduli (GPa) = 42.09475 39.42827 76.81160
#
# Poissons Ratio (x) = -0.06322 0.52237
# Poissons Ratio (y) = -0.06749 0.26777
# Poissons Ratio (z) = 0.28627 0.13745
#
# Static dielectric constant tensor:
#      x y z
#    x 2.259670 0.000000 0.000000 
#    y 0.000000 1.862310 0.000000 
#    z 0.000000 0.000000 1.936110 
# 
# From -- ./inp_files/13563.got.cif
#   From: 2010.05.17/outbox.cif.g08.bks.cpg/sg54_7_cif.got.tgz:13563.got - 2010.06.03 13:09:01.
