data_PCOD9422338
_publ_section_title
;
Structure prediction by ZEFSAII (Michael W. Deem and Ramdas Pophale) SiO2 
 PCOD9422338
Probable space group: P C C A
;
_chemical_formula_sum "Si O2"
_cell_formula_units_Z 48
_cell_length_a 8.051176
_cell_length_b 15.164216
_cell_length_c 17.773518
_cell_angle_alpha 90.000000
_cell_angle_beta 90.000000
_cell_angle_gamma 90.000000
_cell_volume 2169.964759
_symmetry_space_group_name_H-M "P C C A"
_symmetry_group_IT_number 54
_symmetry_cell_setting 'orthorhombic'
loop_
_space_group_symop_operation_xyz
x,y,z
1/2-x,-y,z
1/2+x,-y,1/2-z
-x,y,1/2-z
-x,-y,-z
1/2+x,y,-z
1/2-x,y,1/2+z
x,-y,1/2+z
loop_
_atom_site_type_symbol
_atom_site_label
_atom_site_fract_x
_atom_site_fract_y
_atom_site_fract_z
Si Si1 0.500000 0.894448 0.750000
Si Si2 0.422366 0.551811 0.175257
Si Si3 0.944610 0.139344 0.457201
Si Si4 0.947002 0.573763 0.062625
Si Si5 0.201355 0.103200 0.888761
Si Si6 0.750000 0.000000 0.356147
Si Si7 0.231482 0.673837 0.550443
O O1 0.375054 0.853180 0.813019
O O2 0.381298 0.951985 0.697298
O O3 0.250000 0.500000 0.189337
O O4 0.500000 0.590213 0.250000
O O5 0.547887 0.480228 0.139179
O O6 0.376876 0.623338 0.112848
O O7 0.934305 0.108550 0.544097
O O8 0.846364 0.068744 0.407851
O O9 0.841455 0.229686 0.453291
O O10 0.129768 0.145607 0.422852
O O11 0.079286 0.653462 0.070248
O O12 0.000000 0.500000 0.000000
O O13 0.789224 0.621806 0.028564
O O14 0.250000 0.000000 0.874364
#
# Coordination Sequence:
#
# PCOD9422338 Si02
#       7
#     4   8   8   8   8   4   8
#     4  12  24  42  66  90 128 164 246 274 360 414
#     4   9  19  36  59  87 123 161 201 249 317 396
#     4  12  24  41  70  94 134 173 239 282 341 409
#     4   9  18  36  62  88 118 161 207 252 317 394
#     4  12  23  43  65  97 122 178 231 286 343 415
#     4  12  22  42  66  92 124 186 222 290 338 424
#     4  10  21  38  61  95 125 162 212 273 323 386
#
# _framework density 22.120176000000001
#
# number of rings (size 3 to 8) (size 9 to 14) (size 15 to 20)
#    0.000    1.333    3.333    4.000    0.000    2.667 
#    4.500    0.000   12.833    0.000    0.000    0.000 
#    0.000    0.000    0.000    0.000    0.000    0.000 
#
# Total GULP energy -268090.690307 kJ/mol
# GULP energy per Si atom -5585.222715 kJ/mol
# Density = 2.206983 g / cm^3
# Si number density = 22.120176 Si / 1000 Ang^3
#
#
#
# Elastic Constant Matrix: (Units=GPa)
#
#
# Indices 1 2 3 4 5 6 
#
# 1 102.4841 32.0583 48.1932 0.0000 0.0000 0.0000
# 2 32.0583 54.0139 16.7672 0.0000 0.0000 0.0000
# 3 48.1932 16.7672 135.2338 0.0000 0.0000 0.0000
# 4 0.0000 0.0000 0.0000 -4.9740 0.0000 0.0000
# 5 0.0000 0.0000 0.0000 0.0000 32.0715 0.0000
# 6 0.0000 0.0000 0.0000 0.0000 0.0000 24.4217
#
#
#
# Elastic Compliance Matrix: (Units=1/GPa)
#
#
# Indices 1 2 3 4 5 6 
#
# 1 0.013848 -0.006955 -0.004073 0.000000 0.000000 0.000000
# 2 -0.006955 0.022748 -0.000342 0.000000 0.000000 0.000000
# 3 -0.004073 -0.000342 0.008888 0.000000 0.000000 0.000000
# 4 0.000000 0.000000 0.000000 -0.201045 0.000000 0.000000
# 5 0.000000 0.000000 0.000000 0.000000 0.031180 0.000000
# 6 0.000000 0.000000 0.000000 0.000000 0.000000 0.040947
#
#
# Mechanical properties :
#
#
# Convention : Reuss Voigt Hill
#
# Bulk Modulus (GPa) = 43.96523 53.97434 48.96978
# Shear Modulus (GPa) = -94.14220 23.28471 -35.42875
#
# Velocity S-wave (km/s) = -6.53084 3.24797 -4.00640
# Velocity P-wave (km/s) = 6.07868 6.20639 0.88569
#
# Compressibility (1/GPa) = 0.02274525
#
# Stress axis : x y z
#
# Youngs Moduli (GPa) = 72.21007 43.96025 112.50588
#
# Poissons Ratio (x) = 0.30574 0.45822
# Poissons Ratio (y) = 0.50222 0.03846
# Poissons Ratio (z) = 0.29410 0.01503
#
# Static dielectric constant tensor:
#      x y z
#    x 1.831580 0.000000 0.000000 
#    y 0.000000 1.806400 0.000000 
#    z 0.000000 0.000000 1.802900 
# 
# From -- ./inp_files/16663.got.cif
#   From: 2010.05.17/outbox.cif.g08.bks.cpg/sg54_9_cif.got.tgz:16663.got - 2010.06.03 13:09:01.
