data_PCOD9422140
_publ_section_title
;
Structure prediction by ZEFSAII (Michael W. Deem and Ramdas Pophale) SiO2 
 PCOD9422140
Probable space group: P C C A
;
_chemical_formula_sum "Si O2"
_cell_formula_units_Z 60
_cell_length_a 10.740512
_cell_length_b 12.922272
_cell_length_c 20.537288
_cell_angle_alpha 90.000000
_cell_angle_beta 90.000000
_cell_angle_gamma 90.000000
_cell_volume 2850.407528
_symmetry_space_group_name_H-M "P C C A"
_symmetry_group_IT_number 54
_symmetry_cell_setting 'orthorhombic'
loop_
_space_group_symop_operation_xyz
x,y,z
1/2-x,-y,z
1/2+x,-y,1/2-z
-x,y,1/2-z
-x,-y,-z
1/2+x,y,-z
1/2-x,y,1/2+z
x,-y,1/2+z
loop_
_atom_site_type_symbol
_atom_site_label
_atom_site_fract_x
_atom_site_fract_y
_atom_site_fract_z
Si Si1 0.065604 0.932292 0.908070
Si Si2 0.893634 0.502912 0.870461
Si Si3 0.863050 0.049834 0.718752
Si Si4 0.148785 0.083546 0.549430
Si Si5 0.040175 0.706191 0.057921
Si Si6 0.500000 0.596081 0.750000
Si Si7 0.449380 0.703944 0.402881
Si Si8 0.173818 0.268685 0.846923
O O1 0.002960 0.821632 0.892209
O O2 0.124394 0.973464 0.842570
O O3 0.153668 0.908998 0.970313
O O4 0.977503 0.024664 0.931567
O O5 0.750000 0.500000 0.887432
O O6 0.946241 0.407382 0.912308
O O7 0.913829 0.472075 0.795939
O O8 0.961558 0.611533 0.880877
O O9 0.825599 0.161598 0.692081
O O10 0.000000 0.055951 0.750000
O O11 0.750000 0.000000 0.760432
O O12 0.137097 0.200737 0.576442
O O13 0.250000 0.000000 0.570964
O O14 0.907440 0.743152 0.086804
O O15 0.053758 0.694894 0.981007
O O16 0.407773 0.659357 0.798103
O O17 0.312886 0.697212 0.368399
#
# Coordination Sequence:
#
# PCOD9422140 Si02
#       8
#     8   8   8   8   8   4   8   8
#     4  10  22  39  62 103 133 178 224 273 351 416
#     4  11  27  47  70 101 140 172 239 302 352 429
#     4  12  24  45  67 102 143 190 240 298 361 430
#     4  10  21  35  67  98 142 178 222 272 343 437
#     4  10  24  42  69 107 135 187 228 293 360 426
#     4  10  26  50  70  94 122 196 230 290 352 416
#     4  11  25  42  74 104 138 185 227 297 364 435
#     4  11  23  46  74  97 141 185 244 285 365 438
#
# _framework density 21.049620999999998
#
# number of rings (size 3 to 8) (size 9 to 14) (size 15 to 20)
#    0.000    1.333    3.333    0.800    7.467    2.133 
#    3.600    0.000    0.000    0.000    0.000    0.000 
#    0.000    0.000    0.000    0.000    0.000    0.000 
#
# Total GULP energy -334481.801938 kJ/mol
# GULP energy per Si atom -5574.696699 kJ/mol
# Density = 2.100171 g / cm^3
# Si number density = 21.049621 Si / 1000 Ang^3
#
#
#
# Elastic Constant Matrix: (Units=GPa)
#
#
# Indices 1 2 3 4 5 6 
#
# 1 108.8847 43.5929 29.5407 0.0000 0.0000 0.0000
# 2 43.5929 150.5301 31.9323 0.0000 0.0000 0.0000
# 3 29.5407 31.9323 74.1160 0.0000 0.0000 0.0000
# 4 0.0000 0.0000 0.0000 6.9172 0.0000 0.0000
# 5 0.0000 0.0000 0.0000 0.0000 20.3310 0.0000
# 6 0.0000 0.0000 0.0000 0.0000 0.0000 41.7801
#
#
#
# Elastic Compliance Matrix: (Units=1/GPa)
#
#
# Indices 1 2 3 4 5 6 
#
# 1 0.011093 -0.002503 -0.003343 0.000000 0.000000 0.000000
# 2 -0.002503 0.007876 -0.002396 0.000000 0.000000 0.000000
# 3 -0.003343 -0.002396 0.015857 0.000000 0.000000 0.000000
# 4 0.000000 0.000000 0.000000 0.144567 0.000000 0.000000
# 5 0.000000 0.000000 0.000000 0.000000 0.049186 0.000000
# 6 0.000000 0.000000 0.000000 0.000000 0.000000 0.023935
#
#
# Mechanical properties :
#
#
# Convention : Reuss Voigt Hill
#
# Bulk Modulus (GPa) = 54.51809 60.40696 57.46253
# Shear Modulus (GPa) = 18.17437 29.03666 23.60552
#
# Velocity S-wave (km/s) = 2.94156 3.71811 3.35240
# Velocity P-wave (km/s) = 6.12316 6.86965 6.50712
#
# Compressibility (1/GPa) = 0.01834253
#
# Stress axis : x y z
#
# Youngs Moduli (GPa) = 90.14516 126.96197 63.06401
#
# Poissons Ratio (x) = 0.31784 0.21082
# Poissons Ratio (y) = 0.22567 0.15108
# Poissons Ratio (z) = 0.30134 0.30416
#
# Static dielectric constant tensor:
#      x y z
#    x 1.924600 0.000000 0.000000 
#    y 0.000000 1.773560 0.000000 
#    z 0.000000 0.000000 1.796290 
# 
# From -- ./inp_files/21230.got.cif
#   From: 2010.05.17/outbox.cif.g08.bks.cpg/sg54_11_cif.got.tgz:21230.got - 2010.06.03 13:09:01.
