data_PCOD9422145
_publ_section_title
;
Structure prediction by ZEFSAII (Michael W. Deem and Ramdas Pophale) SiO2 
 PCOD9422145
Probable space group: P C C A
;
_chemical_formula_sum "Si O2"
_cell_formula_units_Z 56
_cell_length_a 16.691755
_cell_length_b 33.413737
_cell_length_c 5.034241
_cell_angle_alpha 90.000000
_cell_angle_beta 90.000000
_cell_angle_gamma 90.000000
_cell_volume 2807.766925
_symmetry_space_group_name_H-M "P C C A"
_symmetry_group_IT_number 54
_symmetry_cell_setting 'orthorhombic'
loop_
_space_group_symop_operation_xyz
x,y,z
1/2-x,-y,z
1/2+x,-y,1/2-z
-x,y,1/2-z
-x,-y,-z
1/2+x,y,-z
1/2-x,y,1/2+z
x,-y,1/2+z
loop_
_atom_site_type_symbol
_atom_site_label
_atom_site_fract_x
_atom_site_fract_y
_atom_site_fract_z
Si Si1 0.196575 0.309383 0.136625
Si Si2 0.055097 0.250117 0.990184
Si Si3 0.944771 0.841324 0.008329
Si Si4 0.414061 0.971964 0.172238
Si Si5 0.302192 0.103085 0.694259
Si Si6 0.303187 0.599573 0.064684
Si Si7 0.903759 0.475097 0.248893
O O1 0.228540 0.304636 0.435327
O O2 0.130142 0.277796 0.053110
O O3 0.166540 0.355037 0.102708
O O4 0.000000 0.248933 0.250000
O O5 0.079702 0.204357 0.921496
O O6 0.000000 0.265421 0.750000
O O7 0.000000 0.857223 0.250000
O O8 0.869206 0.867339 0.922021
O O9 0.000000 0.839509 0.750000
O O10 0.500000 0.952038 0.250000
O O11 0.342485 0.940706 0.188475
O O12 0.410943 0.008252 0.382666
O O13 0.227311 0.108435 0.495289
O O14 0.227477 0.595406 0.264242
O O15 0.364677 0.565801 0.153817
O O16 0.879883 0.509713 0.458150
O O17 0.000000 0.471322 0.250000
#
# Coordination Sequence:
#
# PCOD9422145 Si02
#       7
#     8   8   8   8   8   8   8
#     4  10  21  37  57  83 117 150 181 230 287 339
#     4  10  21  38  61  88 113 147 194 235 277 335
#     4  10  22  41  62  83 116 156 192 233 280 341
#     4  10  22  40  61  83 112 155 198 233 282 346
#     4  12  25  38  59  91 121 151 192 243 295 340
#     4  10  21  36  54  79 108 142 183 220 268 331
#     4  10  21  36  53  76 106 139 179 228 278 322
#
# _framework density 19.944676999999999
#
# number of rings (size 3 to 8) (size 9 to 14) (size 15 to 20)
#    0.000    1.714    0.000    3.857    0.000    6.857 
#    0.000    2.143    0.000    0.000    0.000    0.000 
#    0.000    0.000    0.000    0.000    0.000    0.000 
#
# Total GULP energy -312791.172783 kJ/mol
# GULP energy per Si atom -5585.556657 kJ/mol
# Density = 1.989928 g / cm^3
# Si number density = 19.944677 Si / 1000 Ang^3
#
#
#
# Elastic Constant Matrix: (Units=GPa)
#
#
# Indices 1 2 3 4 5 6 
#
# 1 42.2943 34.9494 -3.2685 0.0000 0.0000 0.0000
# 2 34.9494 65.3687 -7.3886 0.0000 0.0000 0.0000
# 3 -3.2685 -7.3886 74.1162 0.0000 0.0000 0.0000
# 4 0.0000 0.0000 0.0000 22.8661 0.0000 0.0000
# 5 0.0000 0.0000 0.0000 0.0000 36.7639 0.0000
# 6 0.0000 0.0000 0.0000 0.0000 0.0000 73.0024
#
#
#
# Elastic Compliance Matrix: (Units=1/GPa)
#
#
# Indices 1 2 3 4 5 6 
#
# 1 0.042369 -0.022697 -0.000394 0.000000 0.000000 0.000000
# 2 -0.022697 0.027631 0.001754 0.000000 0.000000 0.000000
# 3 -0.000394 0.001754 0.013650 0.000000 0.000000 0.000000
# 4 0.000000 0.000000 0.000000 0.043733 0.000000 0.000000
# 5 0.000000 0.000000 0.000000 0.000000 0.027201 0.000000
# 6 0.000000 0.000000 0.000000 0.000000 0.000000 0.013698
#
#
# Mechanical properties :
#
#
# Convention : Reuss Voigt Hill
#
# Bulk Modulus (GPa) = 24.40556 25.59598 25.00077
# Shear Modulus (GPa) = 22.26033 37.02560 29.64297
#
# Velocity S-wave (km/s) = 3.34444 4.31329 3.85939
# Velocity P-wave (km/s) = 5.21315 6.13737 5.69404
#
# Compressibility (1/GPa) = 0.04097426
#
# Stress axis : x y z
#
# Youngs Moduli (GPa) = 23.60221 36.19116 73.26133
#
# Poissons Ratio (x) = 0.82143 0.02888
# Poissons Ratio (y) = 0.53570 -0.12847
# Poissons Ratio (z) = 0.00931 -0.06347
#
# Static dielectric constant tensor:
#      x y z
#    x 1.684080 0.000000 0.000000 
#    y 0.000000 1.699900 0.000000 
#    z 0.000000 0.000000 1.498710 
# 
# From -- ./inp_files/764.got.cif
#   From: 2010.05.17/outbox.cif.g08.bks.cpg/sg54_1_cif.got.tgz:764.got - 2010.06.03 13:09:01.
