data_PCOD9422555
_publ_section_title
;
Structure prediction by ZEFSAII (Michael W. Deem and Ramdas Pophale) SiO2 
 PCOD9422555
Probable space group: P C C A
;
_chemical_formula_sum "Si O2"
_cell_formula_units_Z 60
_cell_length_a 28.028791
_cell_length_b 9.490486
_cell_length_c 10.831338
_cell_angle_alpha 90.000000
_cell_angle_beta 90.000000
_cell_angle_gamma 90.000000
_cell_volume 2881.210087
_symmetry_space_group_name_H-M "P C C A"
_symmetry_group_IT_number 54
_symmetry_cell_setting 'orthorhombic'
loop_
_space_group_symop_operation_xyz
x,y,z
1/2-x,-y,z
1/2+x,-y,1/2-z
-x,y,1/2-z
-x,-y,-z
1/2+x,y,-z
1/2-x,y,1/2+z
x,-y,1/2+z
loop_
_atom_site_type_symbol
_atom_site_label
_atom_site_fract_x
_atom_site_fract_y
_atom_site_fract_z
Si Si1 0.988002 0.164831 0.117345
Si Si2 0.068532 0.108291 0.926246
Si Si3 0.275305 0.783949 0.450662
Si Si4 0.550064 0.573966 0.982282
Si Si5 0.250000 0.500000 0.805196
Si Si6 0.682989 0.076298 0.095127
Si Si7 0.920869 0.608133 0.205192
Si Si8 0.820147 0.705124 0.303623
O O1 0.000000 0.231827 0.250000
O O2 0.955327 0.027298 0.137149
O O3 0.958093 0.266017 0.026178
O O4 0.038248 0.125134 0.052481
O O5 0.126523 0.092063 0.938765
O O6 0.056207 0.249040 0.848921
O O7 0.267334 0.635071 0.383086
O O8 0.222839 0.845459 0.492145
O O9 0.312257 0.751854 0.558930
O O10 0.300541 0.916141 0.384449
O O11 0.558788 0.554694 0.835992
O O12 0.500000 0.500000 0.000000
O O13 0.582341 0.498034 0.088143
O O14 0.210446 0.433510 0.718917
O O15 0.693498 0.162288 0.219688
O O16 0.870617 0.662286 0.253027
#
# Coordination Sequence:
#
# PCOD9422555 Si02
#       8
#     8   8   8   8   4   8   8   8
#     4  11  25  40  67  98 138 182 236 286 353 411
#     4  10  24  43  66  97 137 179 232 292 348 408
#     4  10  21  40  68  91 136 170 221 277 345 402
#     4  12  25  45  69  98 137 185 228 283 347 420
#     4  10  22  40  62  98 134 170 220 276 328 412
#     4   9  22  42  65  95 126 175 231 277 338 418
#     4  11  26  44  71  97 138 178 230 284 347 417
#     4  10  23  42  64  97 131 176 220 280 344 404
#
# _framework density 20.824584000000002
#
# number of rings (size 3 to 8) (size 9 to 14) (size 15 to 20)
#    0.000    1.600    1.333    1.600    7.467    5.333 
#    2.400    0.000    0.000    0.000    0.000    0.000 
#    0.000    0.000    0.000    0.000    0.000    0.000 
#
# Total GULP energy -334113.922712 kJ/mol
# GULP energy per Si atom -5568.565379 kJ/mol
# Density = 2.077719 g / cm^3
# Si number density = 20.824584 Si / 1000 Ang^3
#
#
#
# Elastic Constant Matrix: (Units=GPa)
#
#
# Indices 1 2 3 4 5 6 
#
# 1 45.7899 29.3674 15.3204 0.0000 0.0000 0.0000
# 2 29.3674 129.0401 19.2672 0.0000 0.0000 0.0000
# 3 15.3204 19.2672 57.3274 0.0000 0.0000 0.0000
# 4 0.0000 0.0000 0.0000 25.9883 0.0000 0.0000
# 5 0.0000 0.0000 0.0000 0.0000 23.4943 0.0000
# 6 0.0000 0.0000 0.0000 0.0000 0.0000 34.8284
#
#
#
# Elastic Compliance Matrix: (Units=1/GPa)
#
#
# Indices 1 2 3 4 5 6 
#
# 1 0.027093 -0.005353 -0.005441 0.000000 0.000000 0.000000
# 2 -0.005353 0.009217 -0.001667 0.000000 0.000000 0.000000
# 3 -0.005441 -0.001667 0.019458 0.000000 0.000000 0.000000
# 4 0.000000 0.000000 0.000000 0.038479 0.000000 0.000000
# 5 0.000000 0.000000 0.000000 0.000000 0.042564 0.000000
# 6 0.000000 0.000000 0.000000 0.000000 0.000000 0.028712
#
#
# Mechanical properties :
#
#
# Convention : Reuss Voigt Hill
#
# Bulk Modulus (GPa) = 32.42075 40.00749 36.21412
# Shear Modulus (GPa) = 24.90946 28.07568 26.49257
#
# Velocity S-wave (km/s) = 3.46230 3.67577 3.57063
# Velocity P-wave (km/s) = 5.62011 6.10478 5.86745
#
# Compressibility (1/GPa) = 0.03084444
#
# Stress axis : x y z
#
# Youngs Moduli (GPa) = 36.91017 108.49774 51.39262
#
# Poissons Ratio (x) = 0.58084 0.27964
# Poissons Ratio (y) = 0.19760 0.08567
# Poissons Ratio (z) = 0.20083 0.18087
#
# Static dielectric constant tensor:
#      x y z
#    x 1.782120 0.000000 0.000000 
#    y 0.000000 1.789820 0.000000 
#    z 0.000000 0.000000 1.451700 
# 
# From -- ./inp_files/10355.got.cif
#   From: 2010.05.17/outbox.cif.g08.bks.cpg/sg54_6_cif.got.tgz:10355.got - 2010.06.03 13:09:01.
