data_PCOD9422488
_publ_section_title
;
Structure prediction by ZEFSAII (Michael W. Deem and Ramdas Pophale) SiO2 
 PCOD9422488
Probable space group: P C C A
;
_chemical_formula_sum "Si O2"
_cell_formula_units_Z 56
_cell_length_a 15.267006
_cell_length_b 5.506215
_cell_length_c 28.699277
_cell_angle_alpha 90.000000
_cell_angle_beta 90.000000
_cell_angle_gamma 90.000000
_cell_volume 2412.559303
_symmetry_space_group_name_H-M "P C C A"
_symmetry_group_IT_number 54
_symmetry_cell_setting 'orthorhombic'
loop_
_space_group_symop_operation_xyz
x,y,z
1/2-x,-y,z
1/2+x,-y,1/2-z
-x,y,1/2-z
-x,-y,-z
1/2+x,y,-z
1/2-x,y,1/2+z
x,-y,1/2+z
loop_
_atom_site_type_symbol
_atom_site_label
_atom_site_fract_x
_atom_site_fract_y
_atom_site_fract_z
Si Si1 0.863052 0.500342 0.575423
Si Si2 0.859796 0.227417 0.667255
Si Si3 0.468186 0.492407 0.700855
Si Si4 0.298438 0.739459 0.512674
Si Si5 0.016683 0.146335 0.369861
Si Si6 0.990074 0.174217 0.956204
Si Si7 0.297492 0.248359 0.230122
O O1 0.825478 0.346253 0.619291
O O2 0.808208 0.684648 0.543178
O O3 0.942866 0.656126 0.595974
O O4 0.917428 0.314978 0.543377
O O5 0.801573 0.236489 0.713245
O O6 0.946489 0.377753 0.680598
O O7 0.898944 0.961095 0.657495
O O8 0.500000 0.383383 0.750000
O O9 0.449345 0.274852 0.665056
O O10 0.394878 0.695230 0.710763
O O11 0.250000 0.500000 0.531231
O O12 0.395117 0.717116 0.534100
O O13 0.250000 0.000000 0.520049
O O14 0.983188 0.940736 0.404616
O O15 0.000000 0.000000 0.000000
O O16 0.250000 0.500000 0.217634
O O17 0.250000 0.000000 0.214552
#
# Coordination Sequence:
#
# PCOD9422488 Si02
#       7
#     8   8   8   8   8   8   8
#     4  10  22  42  67  98 131 180 241 283 342 419
#     4   9  22  41  65 101 129 178 229 289 340 410
#     4   9  21  41  70  99 128 180 234 291 335 419
#     4  12  27  42  66 103 145 187 225 285 367 424
#     4  10  21  39  77  97 128 171 254 285 337 398
#     4  11  22  43  72  99 133 187 240 292 337 431
#     4  11  26  43  67 101 143 183 220 280 366 428
#
# _framework density 23.211863000000001
#
# number of rings (size 3 to 8) (size 9 to 14) (size 15 to 20)
#    0.000    1.714    1.429    1.286   12.000    1.143 
#    0.000    0.000    9.429    0.000    0.000    0.000 
#    0.000    0.000    0.000    0.000    0.000    0.000 
#
# Total GULP energy -312454.114004 kJ/mol
# GULP energy per Si atom -5579.537750 kJ/mol
# Density = 2.315903 g / cm^3
# Si number density = 23.211863 Si / 1000 Ang^3
#
#
#
# Elastic Constant Matrix: (Units=GPa)
#
#
# Indices 1 2 3 4 5 6 
#
# 1 68.9621 34.2817 5.6650 0.0000 0.0000 0.0000
# 2 34.2817 114.2513 27.9799 0.0000 0.0000 0.0000
# 3 5.6650 27.9799 54.2891 0.0000 0.0000 0.0000
# 4 0.0000 0.0000 0.0000 24.1620 0.0000 0.0000
# 5 0.0000 0.0000 0.0000 0.0000 30.5478 0.0000
# 6 0.0000 0.0000 0.0000 0.0000 0.0000 44.8933
#
#
#
# Elastic Compliance Matrix: (Units=1/GPa)
#
#
# Indices 1 2 3 4 5 6 
#
# 1 0.017089 -0.005368 0.000984 0.000000 0.000000 0.000000
# 2 -0.005368 0.011703 -0.005472 0.000000 0.000000 0.000000
# 3 0.000984 -0.005472 0.021137 0.000000 0.000000 0.000000
# 4 0.000000 0.000000 0.000000 0.041387 0.000000 0.000000
# 5 0.000000 0.000000 0.000000 0.000000 0.032736 0.000000
# 6 0.000000 0.000000 0.000000 0.000000 0.000000 0.022275
#
#
# Mechanical properties :
#
#
# Convention : Reuss Voigt Hill
#
# Bulk Modulus (GPa) = 33.09446 41.48396 37.28921
# Shear Modulus (GPa) = 28.39100 31.22570 29.80835
#
# Velocity S-wave (km/s) = 3.50111 3.67174 3.58744
# Velocity P-wave (km/s) = 5.53464 5.99051 5.76708
#
# Compressibility (1/GPa) = 0.03021653
#
# Stress axis : x y z
#
# Youngs Moduli (GPa) = 58.51854 85.44492 47.30980
#
# Poissons Ratio (x) = 0.45870 -0.04654
# Poissons Ratio (y) = 0.31415 0.25886
# Poissons Ratio (z) = -0.05756 0.46752
#
# Static dielectric constant tensor:
#      x y z
#    x 1.786700 0.000000 0.000000 
#    y 0.000000 2.147730 0.000000 
#    z 0.000000 0.000000 1.914560 
# 
# From -- ./inp_files/28242.got.cif
#   From: 2010.05.17/outbox.cif.g08.bks.cpg/sg54_15_cif.got.tgz:28242.got - 2010.06.03 13:09:01.
