data_PCOD9422450
_publ_section_title
;
Structure prediction by ZEFSAII (Michael W. Deem and Ramdas Pophale) SiO2 
 PCOD9422450
Probable space group: P C C A
;
_chemical_formula_sum "Si O2"
_cell_formula_units_Z 32
_cell_length_a 5.256210
_cell_length_b 12.708645
_cell_length_c 23.670708
_cell_angle_alpha 90.000000
_cell_angle_beta 90.000000
_cell_angle_gamma 90.000000
_cell_volume 1581.186889
_symmetry_space_group_name_H-M "P C C A"
_symmetry_group_IT_number 54
_symmetry_cell_setting 'orthorhombic'
loop_
_space_group_symop_operation_xyz
x,y,z
1/2-x,-y,z
1/2+x,-y,1/2-z
-x,y,1/2-z
-x,-y,-z
1/2+x,y,-z
1/2-x,y,1/2+z
x,-y,1/2+z
loop_
_atom_site_type_symbol
_atom_site_label
_atom_site_fract_x
_atom_site_fract_y
_atom_site_fract_z
Si Si1 0.497701 0.120711 0.524412
Si Si2 0.997616 0.429386 0.316775
Si Si3 0.372520 0.895264 0.809313
Si Si4 0.394855 0.203253 0.647346
O O1 0.264594 0.170667 0.491182
O O2 0.448947 0.139043 0.589919
O O3 0.500000 0.000000 0.500000
O O4 0.750000 0.500000 0.323282
O O5 0.944505 0.327650 0.355568
O O6 0.250000 0.500000 0.327526
O O7 0.000000 0.397242 0.250000
O O8 0.500000 0.927712 0.750000
O O9 0.607017 0.831766 0.837138
O O10 0.117480 0.827171 0.808236
O O11 0.250000 0.000000 0.836831
#
# Coordination Sequence:
#
# PCOD9422450 Si02
#       4
#     8   8   8   8
#     4  10  23  40  61  90 120 163 223 275 316 379
#     4  10  21  39  64  95 127 163 215 268 320 395
#     4  12  25  39  57  93 135 172 211 251 318 415
#     4  12  24  40  68  89 129 178 213 267 336 384
#
# _framework density 20.237960000000001
#
# number of rings (size 3 to 8) (size 9 to 14) (size 15 to 20)
#    0.000    1.000    0.000    7.500   10.500    2.000 
#    0.000    0.000    0.000    4.500    0.000    0.000 
#    0.000    0.000    0.000    0.000    0.000    0.000 
#
# Total GULP energy -178135.597679 kJ/mol
# GULP energy per Si atom -5566.737427 kJ/mol
# Density = 2.019190 g / cm^3
# Si number density = 20.237960 Si / 1000 Ang^3
#
#
#
# Elastic Constant Matrix: (Units=GPa)
#
#
# Indices 1 2 3 4 5 6 
#
# 1 165.2827 40.4317 17.2334 0.0000 0.0000 0.0000
# 2 40.4317 117.8946 32.1130 0.0000 0.0000 0.0000
# 3 17.2334 32.1130 63.9100 0.0000 0.0000 0.0000
# 4 0.0000 0.0000 0.0000 27.9846 0.0000 0.0000
# 5 0.0000 0.0000 0.0000 0.0000 14.1082 0.0000
# 6 0.0000 0.0000 0.0000 0.0000 0.0000 38.4671
#
#
#
# Elastic Compliance Matrix: (Units=1/GPa)
#
#
# Indices 1 2 3 4 5 6 
#
# 1 0.006635 -0.002072 -0.000748 0.000000 0.000000 0.000000
# 2 -0.002072 0.010474 -0.004704 0.000000 0.000000 0.000000
# 3 -0.000748 -0.004704 0.018213 0.000000 0.000000 0.000000
# 4 0.000000 0.000000 0.000000 0.035734 0.000000 0.000000
# 5 0.000000 0.000000 0.000000 0.000000 0.070881 0.000000
# 6 0.000000 0.000000 0.000000 0.000000 0.000000 0.025996
#
#
# Mechanical properties :
#
#
# Convention : Reuss Voigt Hill
#
# Bulk Modulus (GPa) = 49.32594 58.51593 53.92094
# Shear Modulus (GPa) = 26.35209 33.26594 29.80902
#
# Velocity S-wave (km/s) = 3.61239 4.05870 3.84204
# Velocity P-wave (km/s) = 6.46723 7.13728 6.81050
#
# Compressibility (1/GPa) = 0.02027331
#
# Stress axis : x y z
#
# Youngs Moduli (GPa) = 150.71532 95.47438 54.90730
#
# Poissons Ratio (x) = 0.19779 0.04108
# Poissons Ratio (y) = 0.31223 0.25830
# Poissons Ratio (z) = 0.11276 0.44914
#
# Static dielectric constant tensor:
#      x y z
#    x 1.777620 0.000000 0.000000 
#    y 0.000000 1.789010 0.000000 
#    z 0.000000 0.000000 1.743900 
# 
# From -- ./inp_files/19506.got.cif
#   From: 2010.05.17/outbox.cif.g08.bks.cpg/sg54_10_cif.got.tgz:19506.got - 2010.06.03 13:09:01.
