data_PCOD9422177
_publ_section_title
;
Structure prediction by ZEFSAII (Michael W. Deem and Ramdas Pophale) SiO2 
 PCOD9422177
Probable space group: P C C A
;
_chemical_formula_sum "Si O2"
_cell_formula_units_Z 36
_cell_length_a 7.070105
_cell_length_b 9.573693
_cell_length_c 23.391668
_cell_angle_alpha 90.000000
_cell_angle_beta 90.000000
_cell_angle_gamma 90.000000
_cell_volume 1583.312177
_symmetry_space_group_name_H-M "P C C A"
_symmetry_group_IT_number 54
_symmetry_cell_setting 'orthorhombic'
loop_
_space_group_symop_operation_xyz
x,y,z
1/2-x,-y,z
1/2+x,-y,1/2-z
-x,y,1/2-z
-x,-y,-z
1/2+x,y,-z
1/2-x,y,1/2+z
x,-y,1/2+z
loop_
_atom_site_type_symbol
_atom_site_label
_atom_site_fract_x
_atom_site_fract_y
_atom_site_fract_z
Si Si1 0.938515 0.787505 0.345105
Si Si2 0.250000 0.000000 0.245517
Si Si3 0.473760 0.010027 0.932606
Si Si4 0.972150 0.497723 0.684270
Si Si5 0.602238 0.197553 0.663697
O O1 0.908390 0.620022 0.348980
O O2 0.169434 0.781860 0.337743
O O3 0.828348 0.871572 0.294511
O O4 0.919855 0.882892 0.401512
O O5 0.395903 0.930157 0.292001
O O6 0.499923 0.149217 0.894773
O O7 0.250000 0.000000 0.923794
O O8 0.500000 0.000000 0.000000
O O9 0.750000 0.500000 0.667675
O O10 0.493782 0.336690 0.682097
O O11 0.000000 0.452805 0.750000
#
# Coordination Sequence:
#
# PCOD9422177 Si02
#       5
#     8   4   8   8   8
#     4  10  21  37  58  90 122 156 200 251 308 367
#     4  12  20  34  66  98 124 156 206 256 314 376
#     4  10  22  40  59  84 114 161 214 253 296 359
#     4  10  21  36  56  88 129 162 192 246 320 380
#     4  10  21  36  60  86 124 158 197 249 307 369
#
# _framework density 22.737147
#
# number of rings (size 3 to 8) (size 9 to 14) (size 15 to 20)
#    0.000    1.778    3.333    3.333    4.667    0.000 
#    0.000    1.111    0.000    0.000    0.000    0.000 
#    0.000    0.000    0.000    0.000    0.000    0.000 
#
# Total GULP energy -200425.892294 kJ/mol
# GULP energy per Si atom -5567.385897 kJ/mol
# Density = 2.268540 g / cm^3
# Si number density = 22.737147 Si / 1000 Ang^3
#
#
#
# Elastic Constant Matrix: (Units=GPa)
#
#
# Indices 1 2 3 4 5 6 
#
# 1 102.1242 19.9248 -9.9561 0.0000 0.0000 0.0000
# 2 19.9248 190.9438 50.2789 0.0000 0.0000 0.0000
# 3 -9.9561 50.2789 127.7074 0.0000 0.0000 0.0000
# 4 0.0000 0.0000 0.0000 19.4339 0.0000 0.0000
# 5 0.0000 0.0000 0.0000 0.0000 28.3288 0.0000
# 6 0.0000 0.0000 0.0000 0.0000 0.0000 125.8267
#
#
#
# Elastic Compliance Matrix: (Units=1/GPa)
#
#
# Indices 1 2 3 4 5 6 
#
# 1 0.010201 -0.001421 0.001355 0.000000 0.000000 0.000000
# 2 -0.001421 0.006041 -0.002489 0.000000 0.000000 0.000000
# 3 0.001355 -0.002489 0.008916 0.000000 0.000000 0.000000
# 4 0.000000 0.000000 0.000000 0.051456 0.000000 0.000000
# 5 0.000000 0.000000 0.000000 0.000000 0.035300 0.000000
# 6 0.000000 0.000000 0.000000 0.000000 0.000000 0.007947
#
#
# Mechanical properties :
#
#
# Convention : Reuss Voigt Hill
#
# Bulk Modulus (GPa) = 49.88226 60.14118 55.01172
# Shear Modulus (GPa) = 37.97795 58.75308 48.36551
#
# Velocity S-wave (km/s) = 4.09137 5.08883 4.61712
# Velocity P-wave (km/s) = 6.65623 7.81258 7.25747
#
# Compressibility (1/GPa) = 0.02004721
#
# Stress axis : x y z
#
# Youngs Moduli (GPa) = 98.02601 165.53884 112.15790
#
# Poissons Ratio (x) = 0.23527 -0.15196
# Poissons Ratio (y) = 0.13932 0.27917
# Poissons Ratio (z) = -0.13281 0.41205
#
# Static dielectric constant tensor:
#      x y z
#    x 1.319480 0.000000 0.000000 
#    y 0.000000 2.080960 0.000000 
#    z 0.000000 0.000000 1.769120 
# 
# From -- ./inp_files/23367.got.cif
#   From: 2010.05.17/outbox.cif.g08.bks.cpg/sg54_12_cif.got.tgz:23367.got - 2010.06.03 13:09:01.
