data_PCOD9422018
_publ_section_title
;
Structure prediction by ZEFSAII (Michael W. Deem and Ramdas Pophale) SiO2 
 PCOD9422018
Probable space group: P C C A
;
_chemical_formula_sum "Si O2"
_cell_formula_units_Z 32
_cell_length_a 13.848724
_cell_length_b 9.223478
_cell_length_c 9.095569
_cell_angle_alpha 90.000000
_cell_angle_beta 90.000000
_cell_angle_gamma 90.000000
_cell_volume 1161.807964
_symmetry_space_group_name_H-M "P C C A"
_symmetry_group_IT_number 54
_symmetry_cell_setting 'orthorhombic'
loop_
_space_group_symop_operation_xyz
x,y,z
1/2-x,-y,z
1/2+x,-y,1/2-z
-x,y,1/2-z
-x,-y,-z
1/2+x,y,-z
1/2-x,y,1/2+z
x,-y,1/2+z
loop_
_atom_site_type_symbol
_atom_site_label
_atom_site_fract_x
_atom_site_fract_y
_atom_site_fract_z
Si Si1 0.884606 0.990040 0.977711
Si Si2 0.543237 0.723903 0.909527
Si Si3 0.750000 0.500000 0.173626
Si Si4 0.250000 0.000000 0.769304
Si Si5 0.120708 0.602867 0.583289
O O1 0.872029 0.165602 0.952844
O O2 0.827984 0.925272 0.838882
O O3 0.826276 0.931564 0.116485
O O4 0.000000 0.000000 0.000000
O O5 0.680992 0.588008 0.565903
O O6 0.464422 0.713291 0.042318
O O7 0.576524 0.558533 0.893705
O O8 0.809995 0.390941 0.276717
O O9 0.000000 0.766888 0.250000
#
# Coordination Sequence:
#
# PCOD9422018 Si02
#       5
#     8   8   4   4   8
#     4  11  24  48  71 101 137 180 227 294 349 410
#     4  11  22  41  65  93 132 175 219 273 339 409
#     4  10  20  42  60  92 136 166 230 278 324 412
#     4  10  24  48  72 102 134 176 244 280 354 422
#     4  10  22  40  62  93 130 173 219 271 339 398
#
# _framework density 27.543275999999999
#
# number of rings (size 3 to 8) (size 9 to 14) (size 15 to 20)
#    0.000    1.500    2.500    2.250    0.000    2.000 
#   27.000    0.000    0.000    0.000    0.000    0.000 
#    0.000    0.000    0.000    0.000    0.000    0.000 
#
# Total GULP energy -178839.823943 kJ/mol
# GULP energy per Si atom -5588.744498 kJ/mol
# Density = 2.748059 g / cm^3
# Si number density = 27.543276 Si / 1000 Ang^3
#
#
#
# Elastic Constant Matrix: (Units=GPa)
#
#
# Indices 1 2 3 4 5 6 
#
# 1 162.0889 37.4779 61.9656 0.0000 0.0000 0.0000
# 2 37.4779 104.4978 9.5412 0.0000 0.0000 0.0000
# 3 61.9656 9.5412 180.0358 0.0000 0.0000 0.0000
# 4 0.0000 0.0000 0.0000 6.0262 0.0000 0.0000
# 5 0.0000 0.0000 0.0000 0.0000 54.5227 0.0000
# 6 0.0000 0.0000 0.0000 0.0000 0.0000 46.4298
#
#
#
# Elastic Compliance Matrix: (Units=1/GPa)
#
#
# Indices 1 2 3 4 5 6 
#
# 1 0.007721 -0.002539 -0.002523 0.000000 0.000000 0.000000
# 2 -0.002539 0.010451 0.000320 0.000000 0.000000 0.000000
# 3 -0.002523 0.000320 0.006406 0.000000 0.000000 0.000000
# 4 0.000000 0.000000 0.000000 0.165941 0.000000 0.000000
# 5 0.000000 0.000000 0.000000 0.000000 0.018341 0.000000
# 6 0.000000 0.000000 0.000000 0.000000 0.000000 0.021538
#
#
# Mechanical properties :
#
#
# Convention : Reuss Voigt Hill
#
# Bulk Modulus (GPa) = 66.25025 73.84352 70.04688
# Shear Modulus (GPa) = 20.41544 43.90495 32.16020
#
# Velocity S-wave (km/s) = 2.72548 3.99687 3.42076
# Velocity P-wave (km/s) = 5.83178 6.94033 6.41006
#
# Compressibility (1/GPa) = 0.01509428
#
# Stress axis : x y z
#
# Youngs Moduli (GPa) = 129.51788 95.68567 156.10769
#
# Poissons Ratio (x) = 0.24292 0.39384
# Poissons Ratio (y) = 0.32881 -0.04995
# Poissons Ratio (z) = 0.32676 -0.03061
#
# Static dielectric constant tensor:
#      x y z
#    x 2.249800 0.000000 0.000000 
#    y 0.000000 2.361730 0.000000 
#    z 0.000000 0.000000 2.111810 
# 
# From -- ./inp_files/3283.got.cif
#   From: 2010.05.17/outbox.cif.g08.bks.cpg/sg54_2_cif.got.tgz:3283.got - 2010.06.03 13:09:01.
