data_PCOD9422406
_publ_section_title
;
Structure prediction by ZEFSAII (Michael W. Deem and Ramdas Pophale) SiO2 
 PCOD9422406
Probable space group: P C C A
;
_chemical_formula_sum "Si O2"
_cell_formula_units_Z 64
_cell_length_a 17.048462
_cell_length_b 9.810530
_cell_length_c 19.674848
_cell_angle_alpha 90.000000
_cell_angle_beta 90.000000
_cell_angle_gamma 90.000000
_cell_volume 3290.705840
_symmetry_space_group_name_H-M "P C C A"
_symmetry_group_IT_number 54
_symmetry_cell_setting 'orthorhombic'
loop_
_space_group_symop_operation_xyz
x,y,z
1/2-x,-y,z
1/2+x,-y,1/2-z
-x,y,1/2-z
-x,-y,-z
1/2+x,y,-z
1/2-x,y,1/2+z
x,-y,1/2+z
loop_
_atom_site_type_symbol
_atom_site_label
_atom_site_fract_x
_atom_site_fract_y
_atom_site_fract_z
Si Si1 0.803363 0.622598 0.421252
Si Si2 0.702281 0.368364 0.267344
Si Si3 0.192000 0.131060 0.844635
Si Si4 0.028117 0.478536 0.076311
Si Si5 0.059329 0.824073 0.551777
Si Si6 0.537312 0.663888 0.817409
Si Si7 0.014438 0.097060 0.898204
Si Si8 0.731150 0.840934 0.503923
O O1 0.750000 0.500000 0.448514
O O2 0.771610 0.662084 0.345790
O O3 0.888684 0.555775 0.418630
O O4 0.798217 0.750197 0.470635
O O5 0.750000 0.500000 0.242645
O O6 0.701787 0.240547 0.216162
O O7 0.612765 0.407804 0.284342
O O8 0.099529 0.093986 0.859587
O O9 0.217549 0.195487 0.917262
O O10 0.250000 0.000000 0.833612
O O11 0.033832 0.317862 0.084789
O O12 0.985637 0.559173 0.137466
O O13 0.000000 0.500000 0.000000
O O14 0.028677 0.845193 0.474382
O O15 0.152742 0.819688 0.540338
O O16 0.024975 0.950158 0.593727
O O17 0.500000 0.721914 0.750000
O O18 0.545550 0.798475 0.862972
O O19 0.750000 0.000000 0.502704
#
# Coordination Sequence:
#
# PCOD9422406 Si02
#       8
#     8   8   8   8   8   8   8   8
#     4  10  21  39  61  89 124 158 204 267 309 378
#     4  10  23  42  62  85 123 167 211 255 314 378
#     4  10  22  43  61  88 124 166 207 258 314 383
#     4  11  22  37  63  94 123 164 208 261 321 375
#     4  10  21  39  62  95 125 155 211 266 315 374
#     4  11  22  42  65  88 127 169 210 256 319 387
#     4  10  21  40  66  90 125 165 207 261 317 389
#     4  10  22  37  62  93 123 157 209 258 318 374
#
# _framework density 19.448716000000001
#
# number of rings (size 3 to 8) (size 9 to 14) (size 15 to 20)
#    0.000    1.750    3.750    0.000    3.500    3.000 
#    4.500    0.625    0.000    0.000    0.000    0.000 
#    0.000    0.000    0.000    0.000    0.000    0.000 
#
# Total GULP energy -356291.424592 kJ/mol
# GULP energy per Si atom -5567.053509 kJ/mol
# Density = 1.940445 g / cm^3
# Si number density = 19.448716 Si / 1000 Ang^3
#
#
#
# Elastic Constant Matrix: (Units=GPa)
#
#
# Indices 1 2 3 4 5 6 
#
# 1 36.9435 21.8160 15.3653 0.0000 0.0000 0.0000
# 2 21.8160 140.0211 69.2306 0.0000 0.0000 0.0000
# 3 15.3653 69.2306 89.5722 0.0000 0.0000 0.0000
# 4 0.0000 0.0000 0.0000 -39.9341 0.0000 0.0000
# 5 0.0000 0.0000 0.0000 0.0000 55.3185 0.0000
# 6 0.0000 0.0000 0.0000 0.0000 0.0000 28.3892
#
#
#
# Elastic Compliance Matrix: (Units=1/GPa)
#
#
# Indices 1 2 3 4 5 6 
#
# 1 0.030152 -0.003464 -0.002495 0.000000 0.000000 0.000000
# 2 -0.003464 0.011957 -0.008647 0.000000 0.000000 0.000000
# 3 -0.002495 -0.008647 0.018276 0.000000 0.000000 0.000000
# 4 0.000000 0.000000 0.000000 -0.025041 0.000000 0.000000
# 5 0.000000 0.000000 0.000000 0.000000 0.018077 0.000000
# 6 0.000000 0.000000 0.000000 0.000000 0.000000 0.035225
#
#
# Mechanical properties :
#
#
# Convention : Reuss Voigt Hill
#
# Bulk Modulus (GPa) = 32.08034 53.26230 42.67132
# Shear Modulus (GPa) = 38.98684 19.42969 29.20827
#
# Velocity S-wave (km/s) = 4.48213 3.16416 3.87952
# Velocity P-wave (km/s) = 6.58154 6.38707 6.48503
#
# Compressibility (1/GPa) = 0.03117174
#
# Stress axis : x y z
#
# Youngs Moduli (GPa) = 33.16561 83.63253 54.71749
#
# Poissons Ratio (x) = 0.28974 0.13650
# Poissons Ratio (y) = 0.11490 0.47316
# Poissons Ratio (z) = 0.08274 0.72320
#
# Static dielectric constant tensor:
#      x y z
#    x 1.838590 0.000000 0.000000 
#    y 0.000000 1.661650 0.000000 
#    z 0.000000 0.000000 1.785320 
# 
# From -- ./inp_files/18966.got.cif
#   From: 2010.05.17/outbox.cif.g08.bks.cpg/sg54_10_cif.got.tgz:18966.got - 2010.06.03 13:09:01.
