data_PCOD9422479
_publ_section_title
;
Structure prediction by ZEFSAII (Michael W. Deem and Ramdas Pophale) SiO2 
 PCOD9422479
Probable space group: P C C A
;
_chemical_formula_sum "Si O2"
_cell_formula_units_Z 44
_cell_length_a 12.160161
_cell_length_b 5.222541
_cell_length_c 26.995176
_cell_angle_alpha 90.000000
_cell_angle_beta 90.000000
_cell_angle_gamma 90.000000
_cell_volume 1714.381006
_symmetry_space_group_name_H-M "P C C A"
_symmetry_group_IT_number 54
_symmetry_cell_setting 'orthorhombic'
loop_
_space_group_symop_operation_xyz
x,y,z
1/2-x,-y,z
1/2+x,-y,1/2-z
-x,y,1/2-z
-x,-y,-z
1/2+x,y,-z
1/2-x,y,1/2+z
x,-y,1/2+z
loop_
_atom_site_type_symbol
_atom_site_label
_atom_site_fract_x
_atom_site_fract_y
_atom_site_fract_z
Si Si1 0.605227 0.609594 0.613710
Si Si2 0.406128 0.131682 0.825865
Si Si3 0.126243 0.997701 0.712237
Si Si4 0.250000 0.000000 0.565567
Si Si5 0.131911 0.631955 0.137518
Si Si6 0.079384 0.253197 0.994864
O O1 0.648428 0.362447 0.643858
O O2 0.475949 0.527850 0.610772
O O3 0.635924 0.694629 0.558677
O O4 0.612640 0.867826 0.645587
O O5 0.371380 0.082814 0.769039
O O6 0.537624 0.168629 0.816945
O O7 0.250000 0.000000 0.694721
O O8 0.094338 0.281514 0.693267
O O9 0.160624 0.132165 0.600832
O O10 0.180428 0.799831 0.532452
O O11 0.250000 0.500000 0.141062
O O12 0.000000 0.500000 0.000000
O O13 0.000000 0.000000 0.000000
#
# Coordination Sequence:
#
# PCOD9422479 Si02
#       6
#     8   8   8   4   8   8
#     4  11  23  44  67  94 143 183 234 294 363 439
#     4  10  24  42  66  99 132 185 236 285 357 443
#     4  10  21  39  67  98 137 177 233 291 361 427
#     4  12  26  44  70 116 146 192 262 318 392 464
#     4  11  22  38  71 105 145 185 239 312 376 442
#     4  12  26  45  74 105 145 195 244 313 389 454
#
# _framework density 25.665243
#
# number of rings (size 3 to 8) (size 9 to 14) (size 15 to 20)
#    0.000    1.091    2.727    3.273    5.091    7.273 
#    1.636    0.000    0.000    0.000    0.000    0.000 
#    0.000    0.000    0.000    0.000    0.000    0.000 
#
# Total GULP energy -245568.880057 kJ/mol
# GULP energy per Si atom -5581.110910 kJ/mol
# Density = 2.560683 g / cm^3
# Si number density = 25.665243 Si / 1000 Ang^3
#
#
#
# Elastic Constant Matrix: (Units=GPa)
#
#
# Indices 1 2 3 4 5 6 
#
# 1 104.8227 24.0176 9.6621 0.0000 0.0000 0.0000
# 2 24.0176 170.5589 78.9226 0.0000 0.0000 0.0000
# 3 9.6621 78.9226 194.1918 0.0000 0.0000 0.0000
# 4 0.0000 0.0000 0.0000 42.5056 0.0000 0.0000
# 5 0.0000 0.0000 0.0000 0.0000 -54.2013 0.0000
# 6 0.0000 0.0000 0.0000 0.0000 0.0000 33.4532
#
#
#
# Elastic Compliance Matrix: (Units=1/GPa)
#
#
# Indices 1 2 3 4 5 6 
#
# 1 0.009859 -0.001430 0.000091 0.000000 0.000000 0.000000
# 2 -0.001430 0.007429 -0.002948 0.000000 0.000000 0.000000
# 3 0.000091 -0.002948 0.006343 0.000000 0.000000 0.000000
# 4 0.000000 0.000000 0.000000 0.023526 0.000000 0.000000
# 5 0.000000 0.000000 0.000000 0.000000 -0.018450 0.000000
# 6 0.000000 0.000000 0.000000 0.000000 0.000000 0.029892
#
#
# Mechanical properties :
#
#
# Convention : Reuss Voigt Hill
#
# Bulk Modulus (GPa) = 66.41890 77.19753 71.80822
# Shear Modulus (GPa) = 69.25809 28.14958 48.70383
#
# Velocity S-wave (km/s) = 5.20036 3.31539 4.36094
# Velocity P-wave (km/s) = 7.87359 6.69325 7.30729
#
# Compressibility (1/GPa) = 0.01505596
#
# Stress axis : x y z
#
# Youngs Moduli (GPa) = 101.42730 134.61508 157.65121
#
# Poissons Ratio (x) = 0.19255 -0.01431
# Poissons Ratio (y) = 0.14508 0.46474
# Poissons Ratio (z) = -0.00921 0.39684
#
# Static dielectric constant tensor:
#      x y z
#    x 2.067630 0.000000 0.000000 
#    y 0.000000 2.141520 0.000000 
#    z 0.000000 0.000000 2.026620 
# 
# From -- ./inp_files/26395.got.cif
#   From: 2010.05.17/outbox.cif.g08.bks.cpg/sg54_14_cif.got.tgz:26395.got - 2010.06.03 13:09:01.
