data_PCOD9422983
_publ_section_title
;
Structure prediction by ZEFSAII (Michael W. Deem and Ramdas Pophale) SiO2 
 PCOD9422983
Probable space group: P C C A
;
_chemical_formula_sum "Si O2"
_cell_formula_units_Z 40
_cell_length_a 9.203401
_cell_length_b 11.267451
_cell_length_c 17.337439
_cell_angle_alpha 90.000000
_cell_angle_beta 90.000000
_cell_angle_gamma 90.000000
_cell_volume 1797.872830
_symmetry_space_group_name_H-M "P C C A"
_symmetry_group_IT_number 54
_symmetry_cell_setting 'orthorhombic'
loop_
_space_group_symop_operation_xyz
x,y,z
1/2-x,-y,z
1/2+x,-y,1/2-z
-x,y,1/2-z
-x,-y,-z
1/2+x,y,-z
1/2-x,y,1/2+z
x,-y,1/2+z
loop_
_atom_site_type_symbol
_atom_site_label
_atom_site_fract_x
_atom_site_fract_y
_atom_site_fract_z
Si Si1 0.291031 0.168568 0.594801
Si Si2 0.022400 0.044055 0.660064
Si Si3 0.411637 0.454206 0.427595
Si Si4 0.014182 0.669080 0.839310
Si Si5 0.209021 0.203360 0.917116
O O1 0.152060 0.139126 0.646974
O O2 0.368909 0.290257 0.616985
O O3 0.252558 0.167827 0.504651
O O4 0.412358 0.068499 0.614400
O O5 0.000000 0.016879 0.750000
O O6 0.875014 0.097190 0.625007
O O7 0.250000 0.500000 0.441896
O O8 0.500000 0.500000 0.500000
O O9 0.462960 0.529505 0.353986
O O10 0.404610 0.313540 0.420505
O O11 0.150727 0.742533 0.874160
O O12 0.000000 0.697105 0.750000
#
# Coordination Sequence:
#
# PCOD9422983 Si02
#       5
#     8   8   8   8   8
#     4  11  23  42  67  96 132 180 227 274 340 402
#     4  11  25  42  63  99 137 174 222 281 343 400
#     4  10  22  40  65  96 131 175 222 275 332 401
#     4  11  23  41  67  99 136 178 222 281 341 395
#     4  11  23  42  69  98 134 175 234 269 334 413
#
# _framework density 22.248514
#
# number of rings (size 3 to 8) (size 9 to 14) (size 15 to 20)
#    0.000    1.200    2.000    3.600    2.800    4.800 
#    0.000    5.000    0.000    0.000    0.000    0.000 
#    0.000    0.000    0.000    0.000    0.000    0.000 
#
# Total GULP energy -223800.802433 kJ/mol
# GULP energy per Si atom -5595.020061 kJ/mol
# Density = 2.219788 g / cm^3
# Si number density = 22.248514 Si / 1000 Ang^3
#
#
#
# Elastic Constant Matrix: (Units=GPa)
#
#
# Indices 1 2 3 4 5 6 
#
# 1 35.2824 35.9559 24.5358 0.0000 0.0000 0.0000
# 2 35.9559 66.8200 22.6699 0.0000 0.0000 0.0000
# 3 24.5358 22.6699 164.3492 0.0000 0.0000 0.0000
# 4 0.0000 0.0000 0.0000 31.8005 0.0000 0.0000
# 5 0.0000 0.0000 0.0000 0.0000 39.7403 0.0000
# 6 0.0000 0.0000 0.0000 0.0000 0.0000 35.2487
#
#
#
# Elastic Compliance Matrix: (Units=1/GPa)
#
#
# Indices 1 2 3 4 5 6 
#
# 1 0.066832 -0.034177 -0.005263 0.000000 0.000000 0.000000
# 2 -0.034177 0.033178 0.000526 0.000000 0.000000 0.000000
# 3 -0.005263 0.000526 0.006798 0.000000 0.000000 0.000000
# 4 0.000000 0.000000 0.000000 0.031446 0.000000 0.000000
# 5 0.000000 0.000000 0.000000 0.000000 0.025163 0.000000
# 6 0.000000 0.000000 0.000000 0.000000 0.000000 0.028370
#
#
# Mechanical properties :
#
#
# Convention : Reuss Voigt Hill
#
# Bulk Modulus (GPa) = 34.50730 48.08608 41.29669
# Shear Modulus (GPa) = 17.90354 33.57723 25.74039
#
# Velocity S-wave (km/s) = 2.83981 3.88904 3.40508
# Velocity P-wave (km/s) = 5.12799 6.46733 5.83621
#
# Compressibility (1/GPa) = 0.02897937
#
# Stress axis : x y z
#
# Youngs Moduli (GPa) = 14.96293 30.14076 147.10612
#
# Poissons Ratio (x) = 1.03011 0.77424
# Poissons Ratio (y) = 0.51138 -0.07735
# Poissons Ratio (z) = 0.07875 -0.01585
#
# Static dielectric constant tensor:
#      x y z
#    x 1.817150 0.000000 0.000000 
#    y 0.000000 1.903280 0.000000 
#    z 0.000000 0.000000 1.786380 
# 
# From -- ./inp_files/11472.got.cif
#   From: 2010.05.17/outbox.cif.g08.bks.cpg/sg54_6_cif.got.tgz:11472.got - 2010.06.03 13:09:01.
