data_PCOD9422154
_publ_section_title
;
Structure prediction by ZEFSAII (Michael W. Deem and Ramdas Pophale) SiO2 
 PCOD9422154
Probable space group: P C C A
;
_chemical_formula_sum "Si O2"
_cell_formula_units_Z 48
_cell_length_a 5.362302
_cell_length_b 21.811437
_cell_length_c 17.252458
_cell_angle_alpha 90.000000
_cell_angle_beta 90.000000
_cell_angle_gamma 90.000000
_cell_volume 2017.839073
_symmetry_space_group_name_H-M "P C C A"
_symmetry_group_IT_number 54
_symmetry_cell_setting 'orthorhombic'
loop_
_space_group_symop_operation_xyz
x,y,z
1/2-x,-y,z
1/2+x,-y,1/2-z
-x,y,1/2-z
-x,-y,-z
1/2+x,y,-z
1/2-x,y,1/2+z
x,-y,1/2+z
loop_
_atom_site_type_symbol
_atom_site_label
_atom_site_fract_x
_atom_site_fract_y
_atom_site_fract_z
Si Si1 0.250877 0.761410 0.294317
Si Si2 0.920278 0.068280 0.529466
Si Si3 0.250315 0.425905 0.292177
Si Si4 0.167278 0.735606 0.970167
Si Si5 0.748109 0.909436 0.703673
Si Si6 0.661505 0.594039 0.029760
O O1 0.500000 0.741804 0.250000
O O2 0.257143 0.737164 0.381132
O O3 0.255631 0.835462 0.299149
O O4 0.000000 0.743541 0.250000
O O5 0.699785 0.096750 0.475909
O O6 0.801978 0.069571 0.615347
O O7 0.000000 0.000000 0.500000
O O8 0.250000 0.500000 0.288989
O O9 0.500000 0.404127 0.250000
O O10 0.241812 0.408239 0.381553
O O11 0.000000 0.404202 0.250000
O O12 0.132422 0.664933 0.996262
O O13 0.395961 0.764346 0.017244
O O14 0.500000 0.927835 0.750000
O O15 0.000000 0.928836 0.750000
O O16 0.388239 0.565998 0.018878
#
# Coordination Sequence:
#
# PCOD9422154 Si02
#       6
#     8   8   8   8   8   8
#     4  10  21  36  56  83 112 145 187 227 270 328
#     4  10  21  38  58  84 113 143 183 226 266 319
#     4  10  21  36  54  78 106 138 181 230 280 335
#     4  10  21  36  54  80 112 145 183 228 277 329
#     4  10  21  38  59  84 115 150 186 228 276 325
#     4  10  21  36  54  78 108 142 182 226 276 335
#
# _framework density 23.787822999999999
#
# number of rings (size 3 to 8) (size 9 to 14) (size 15 to 20)
#    0.000    2.000    0.000    3.000    0.000    3.333 
#    0.000    6.667    0.000    0.000    0.000    0.000 
#    0.000    0.000    0.000    0.000    0.000    0.000 
#
# Total GULP energy -268256.846906 kJ/mol
# GULP energy per Si atom -5588.684311 kJ/mol
# Density = 2.373368 g / cm^3
# Si number density = 23.787823 Si / 1000 Ang^3
#
#
#
# Elastic Constant Matrix: (Units=GPa)
#
#
# Indices 1 2 3 4 5 6 
#
# 1 222.6072 32.0974 57.9274 0.0000 0.0000 0.0000
# 2 32.0974 85.6492 -2.7998 0.0000 0.0000 0.0000
# 3 57.9274 -2.7998 128.1335 0.0000 0.0000 0.0000
# 4 0.0000 0.0000 0.0000 28.5029 0.0000 0.0000
# 5 0.0000 0.0000 0.0000 0.0000 54.5445 0.0000
# 6 0.0000 0.0000 0.0000 0.0000 0.0000 0.2682
#
#
#
# Elastic Compliance Matrix: (Units=1/GPa)
#
#
# Indices 1 2 3 4 5 6 
#
# 1 0.005452 -0.002125 -0.002511 0.000000 0.000000 0.000000
# 2 -0.002125 0.012512 0.001234 0.000000 0.000000 0.000000
# 3 -0.002511 0.001234 0.008967 0.000000 0.000000 0.000000
# 4 0.000000 0.000000 0.000000 0.035084 0.000000 0.000000
# 5 0.000000 0.000000 0.000000 0.000000 0.018334 0.000000
# 6 0.000000 0.000000 0.000000 0.000000 0.000000 3.728829
#
#
# Mechanical properties :
#
#
# Convention : Reuss Voigt Hill
#
# Bulk Modulus (GPa) = 49.68594 67.87108 58.77851
# Shear Modulus (GPa) = 1.30798 39.94078 20.62438
#
# Velocity S-wave (km/s) = 0.74232 4.10206 2.94770
# Velocity P-wave (km/s) = 4.65480 7.14350 6.02897
#
# Compressibility (1/GPa) = 0.02012642
#
# Stress axis : x y z
#
# Youngs Moduli (GPa) = 183.41368 79.92106 111.52444
#
# Poissons Ratio (x) = 0.16986 0.28007
# Poissons Ratio (y) = 0.38981 -0.13765
# Poissons Ratio (z) = 0.46060 -0.09864
#
# Static dielectric constant tensor:
#      x y z
#    x 1.980280 0.000000 0.000000 
#    y 0.000000 1.952150 0.000000 
#    z 0.000000 0.000000 1.835520 
# 
# From -- ./inp_files/10923.got.cif
#   From: 2010.05.17/outbox.cif.g08.bks.cpg/sg54_6_cif.got.tgz:10923.got - 2010.06.03 13:09:01.
