data_PCOD9422562
_publ_section_title
;
Structure prediction by ZEFSAII (Michael W. Deem and Ramdas Pophale) SiO2 
 PCOD9422562
Probable space group: P C C A
;
_chemical_formula_sum "Si O2"
_cell_formula_units_Z 40
_cell_length_a 8.044621
_cell_length_b 10.531147
_cell_length_c 22.340632
_cell_angle_alpha 90.000000
_cell_angle_beta 90.000000
_cell_angle_gamma 90.000000
_cell_volume 1892.677931
_symmetry_space_group_name_H-M "P C C A"
_symmetry_group_IT_number 54
_symmetry_cell_setting 'orthorhombic'
loop_
_space_group_symop_operation_xyz
x,y,z
1/2-x,-y,z
1/2+x,-y,1/2-z
-x,y,1/2-z
-x,-y,-z
1/2+x,y,-z
1/2-x,y,1/2+z
x,-y,1/2+z
loop_
_atom_site_type_symbol
_atom_site_label
_atom_site_fract_x
_atom_site_fract_y
_atom_site_fract_z
Si Si1 0.949633 0.607936 0.409886
Si Si2 0.954524 0.888562 0.084488
Si Si3 0.000000 0.699071 0.750000
Si Si4 0.250000 0.500000 0.700964
Si Si5 0.059450 0.953484 0.687172
Si Si6 0.250000 0.500000 0.988429
Si Si7 0.250000 0.000000 0.506412
O O1 0.002355 0.749650 0.394611
O O2 0.887783 0.547971 0.347481
O O3 0.808233 0.605820 0.462485
O O4 0.100165 0.538002 0.444402
O O5 0.804642 0.888651 0.038256
O O6 0.941833 0.987114 0.137833
O O7 0.105683 0.946941 0.046780
O O8 0.159567 0.606660 0.741891
O O9 0.972418 0.802065 0.804212
O O10 0.000000 0.010069 0.750000
O O11 0.250000 0.000000 0.676863
#
# Coordination Sequence:
#
# PCOD9422562 Si02
#       7
#     8   8   4   4   8   4   4
#     4  10  21  40  69  95 136 174 221 276 332 412
#     4  11  21  42  64  99 132 172 213 272 339 398
#     4  10  26  48  66  96 130 176 234 284 348 412
#     4  11  24  47  66  94 126 181 230 289 334 400
#     4  10  23  45  69  98 132 176 218 287 345 406
#     4   9  20  41  62 106 134 181 222 265 336 406
#     4  10  24  36  62 102 130 170 210 258 340 402
#
# _framework density 21.134077000000001
#
# number of rings (size 3 to 8) (size 9 to 14) (size 15 to 20)
#    0.600    1.200    1.000    2.400    1.400    0.800 
#   25.200    0.000    0.000    0.000    0.000    0.000 
#    0.000    0.000    0.000    0.000    0.000    0.000 
#
# Total GULP energy -222670.354697 kJ/mol
# GULP energy per Si atom -5566.758867 kJ/mol
# Density = 2.108598 g / cm^3
# Si number density = 21.134077 Si / 1000 Ang^3
#
#
#
# Elastic Constant Matrix: (Units=GPa)
#
#
# Indices 1 2 3 4 5 6 
#
# 1 62.9441 16.3677 43.8723 0.0000 0.0000 0.0000
# 2 16.3677 113.7880 32.2812 0.0000 0.0000 0.0000
# 3 43.8723 32.2812 85.6453 0.0000 0.0000 0.0000
# 4 0.0000 0.0000 0.0000 21.7894 0.0000 0.0000
# 5 0.0000 0.0000 0.0000 0.0000 39.8101 0.0000
# 6 0.0000 0.0000 0.0000 0.0000 0.0000 20.5190
#
#
#
# Elastic Compliance Matrix: (Units=1/GPa)
#
#
# Indices 1 2 3 4 5 6 
#
# 1 0.024710 0.000041 -0.012673 0.000000 0.000000 0.000000
# 2 0.000041 0.009841 -0.003730 0.000000 0.000000 0.000000
# 3 -0.012673 -0.003730 0.019574 0.000000 0.000000 0.000000
# 4 0.000000 0.000000 0.000000 0.045894 0.000000 0.000000
# 5 0.000000 0.000000 0.000000 0.000000 0.025119 0.000000
# 6 0.000000 0.000000 0.000000 0.000000 0.000000 0.048735
#
#
# Mechanical properties :
#
#
# Convention : Reuss Voigt Hill
#
# Bulk Modulus (GPa) = 46.72965 49.71333 48.22149
# Shear Modulus (GPa) = 23.39397 27.74744 25.57071
#
# Velocity S-wave (km/s) = 3.33067 3.62736 3.48218
# Velocity P-wave (km/s) = 6.07867 6.41230 6.24771
#
# Compressibility (1/GPa) = 0.02139969
#
# Stress axis : x y z
#
# Youngs Moduli (GPa) = 40.46994 101.61991 51.08849
#
# Poissons Ratio (x) = -0.00416 0.64745
# Poissons Ratio (y) = -0.00166 0.19056
# Poissons Ratio (z) = 0.51288 0.37905
#
# Static dielectric constant tensor:
#      x y z
#    x 1.844680 0.000000 0.000000 
#    y 0.000000 1.835950 0.000000 
#    z 0.000000 0.000000 1.737310 
# 
# From -- ./inp_files/20359.got.cif
#   From: 2010.05.17/outbox.cif.g08.bks.cpg/sg54_11_cif.got.tgz:20359.got - 2010.06.03 13:09:01.
