data_PCOD9422705
_publ_section_title
;
Structure prediction by ZEFSAII (Michael W. Deem and Ramdas Pophale) SiO2 
 PCOD9422705
Probable space group: P C C A
;
_chemical_formula_sum "Si O2"
_cell_formula_units_Z 48
_cell_length_a 26.913452
_cell_length_b 7.932064
_cell_length_c 10.131684
_cell_angle_alpha 90.000000
_cell_angle_beta 90.000000
_cell_angle_gamma 90.000000
_cell_volume 2162.904035
_symmetry_space_group_name_H-M "P C C A"
_symmetry_group_IT_number 54
_symmetry_cell_setting 'orthorhombic'
loop_
_space_group_symop_operation_xyz
x,y,z
1/2-x,-y,z
1/2+x,-y,1/2-z
-x,y,1/2-z
-x,-y,-z
1/2+x,y,-z
1/2-x,y,1/2+z
x,-y,1/2+z
loop_
_atom_site_type_symbol
_atom_site_label
_atom_site_fract_x
_atom_site_fract_y
_atom_site_fract_z
Si Si1 0.875914 0.363871 0.017574
Si Si2 0.243399 0.305137 0.687557
Si Si3 0.639705 0.655330 0.719405
Si Si4 0.214078 0.840819 0.924113
Si Si5 0.459470 0.840065 0.860664
Si Si6 0.480113 0.237520 0.889673
O O1 0.872187 0.416707 0.865123
O O2 0.843565 0.191164 0.036117
O O3 0.854482 0.508344 0.112391
O O4 0.932435 0.335863 0.058836
O O5 0.250000 0.500000 0.717588
O O6 0.191532 0.249906 0.755916
O O7 0.239620 0.284519 0.531344
O O8 0.283752 0.203253 0.769413
O O9 0.594604 0.775168 0.678151
O O10 0.250000 0.000000 0.944851
O O11 0.500000 0.789339 0.750000
O O12 0.463013 0.042621 0.870706
O O13 0.477252 0.765236 0.999990
O O14 0.500000 0.301761 0.750000
#
# Coordination Sequence:
#
# PCOD9422705 Si02
#       6
#     8   8   8   8   8   8
#     4  11  25  44  64 100 132 174 225 272 341 400
#     4  11  23  45  67  95 137 177 218 278 339 407
#     4  11  25  41  67  96 130 176 220 274 334 405
#     4  11  25  44  67  99 134 174 227 280 337 408
#     4  10  21  44  64  91 133 174 221 276 336 389
#     4  10  23  42  66  94 132 177 222 280 335 402
#
# _framework density 22.192388000000001
#
# number of rings (size 3 to 8) (size 9 to 14) (size 15 to 20)
#    0.000    1.333    3.333    1.000    7.000    1.333 
#    0.000    0.000    0.000    0.000    0.000    0.000 
#    0.000    0.000    0.000    0.000    0.000    0.000 
#
# Total GULP energy -268018.617734 kJ/mol
# GULP energy per Si atom -5583.721203 kJ/mol
# Density = 2.214188 g / cm^3
# Si number density = 22.192388 Si / 1000 Ang^3
#
#
#
# Elastic Constant Matrix: (Units=GPa)
#
#
# Indices 1 2 3 4 5 6 
#
# 1 51.5186 7.5034 10.0106 0.0000 0.0000 0.0000
# 2 7.5034 37.1287 1.6045 0.0000 0.0000 0.0000
# 3 10.0106 1.6045 133.0580 0.0000 0.0000 0.0000
# 4 0.0000 0.0000 0.0000 20.3638 0.0000 0.0000
# 5 0.0000 0.0000 0.0000 0.0000 39.9663 0.0000
# 6 0.0000 0.0000 0.0000 0.0000 0.0000 23.6771
#
#
#
# Elastic Compliance Matrix: (Units=1/GPa)
#
#
# Indices 1 2 3 4 5 6 
#
# 1 0.020285 -0.004036 -0.001477 0.000000 0.000000 0.000000
# 2 -0.004036 0.027750 -0.000031 0.000000 0.000000 0.000000
# 3 -0.001477 -0.000031 0.007627 0.000000 0.000000 0.000000
# 4 0.000000 0.000000 0.000000 0.049107 0.000000 0.000000
# 5 0.000000 0.000000 0.000000 0.000000 0.025021 0.000000
# 6 0.000000 0.000000 0.000000 0.000000 0.000000 0.042235
#
#
# Mechanical properties :
#
#
# Convention : Reuss Voigt Hill
#
# Bulk Modulus (GPa) = 22.43443 28.88248 25.65845
# Shear Modulus (GPa) = 25.25611 30.30722 27.78166
#
# Velocity S-wave (km/s) = 3.37716 3.69949 3.54200
# Velocity P-wave (km/s) = 5.03369 5.59385 5.32114
#
# Compressibility (1/GPa) = 0.04457434
#
# Stress axis : x y z
#
# Youngs Moduli (GPa) = 49.29674 36.03567 131.11228
#
# Poissons Ratio (x) = 0.14543 0.19372
# Poissons Ratio (y) = 0.19894 0.00407
# Poissons Ratio (z) = 0.07284 0.00112
#
# Static dielectric constant tensor:
#      x y z
#    x 1.814280 0.000000 0.000000 
#    y 0.000000 1.829600 0.000000 
#    z 0.000000 0.000000 1.795970 
# 
# From -- ./inp_files/5853.got.cif
#   From: 2010.05.17/outbox.cif.g08.bks.cpg/sg54_3_cif.got.tgz:5853.got - 2010.06.03 13:09:01.
