data_PCOD9422497
_publ_section_title
;
Structure prediction by ZEFSAII (Michael W. Deem and Ramdas Pophale) SiO2 
 PCOD9422497
Probable space group: P C C A
;
_chemical_formula_sum "Si O2"
_cell_formula_units_Z 48
_cell_length_a 9.249526
_cell_length_b 9.105560
_cell_length_c 29.341721
_cell_angle_alpha 90.000000
_cell_angle_beta 90.000000
_cell_angle_gamma 90.000000
_cell_volume 2471.221770
_symmetry_space_group_name_H-M "P C C A"
_symmetry_group_IT_number 54
_symmetry_cell_setting 'orthorhombic'
loop_
_space_group_symop_operation_xyz
x,y,z
1/2-x,-y,z
1/2+x,-y,1/2-z
-x,y,1/2-z
-x,-y,-z
1/2+x,y,-z
1/2-x,y,1/2+z
x,-y,1/2+z
loop_
_atom_site_type_symbol
_atom_site_label
_atom_site_fract_x
_atom_site_fract_y
_atom_site_fract_z
Si Si1 0.922675 0.843897 0.874353
Si Si2 0.409200 0.813642 0.627869
Si Si3 0.585432 0.318523 0.545837
Si Si4 0.576342 0.670348 0.545780
Si Si5 0.143640 0.363953 0.721272
Si Si6 0.857731 0.133980 0.276283
O O1 0.756581 0.821371 0.889588
O O2 0.918490 0.789640 0.822115
O O3 0.023208 0.762569 0.909960
O O4 0.957132 0.016626 0.868778
O O5 0.507579 0.736203 0.590925
O O6 0.404919 0.723269 0.675352
O O7 0.561649 0.493912 0.549353
O O8 0.755489 0.292658 0.541843
O O9 0.505218 0.273909 0.499346
O O10 0.250000 0.500000 0.710911
O O11 0.250583 0.249656 0.747572
O O12 0.000000 0.401437 0.750000
O O13 0.000000 0.083865 0.250000
O O14 0.750000 0.000000 0.288538
#
# Coordination Sequence:
#
# PCOD9422497 Si02
#       6
#     8   8   8   8   8   8
#     4  10  21  40  61  90 122 164 212 254 313 381
#     4  10  22  39  62  88 123 165 207 256 319 379
#     4  10  22  40  63  91 126 159 212 258 313 387
#     4  10  22  40  62  94 121 166 206 258 320 376
#     4  11  24  43  63  95 130 171 220 272 329 393
#     4  11  22  41  66  93 128 174 215 265 321 387
#
# _framework density 19.423591999999999
#
# number of rings (size 3 to 8) (size 9 to 14) (size 15 to 20)
#    0.000    1.667    3.333    2.000    4.667    4.000 
#    3.000    0.000    0.000    0.000    0.000    0.000 
#    0.000    0.000    0.000    0.000    0.000    0.000 
#
# Total GULP energy -267685.114469 kJ/mol
# GULP energy per Si atom -5576.773218 kJ/mol
# Density = 1.937938 g / cm^3
# Si number density = 19.423592 Si / 1000 Ang^3
#
#
#
# Elastic Constant Matrix: (Units=GPa)
#
#
# Indices 1 2 3 4 5 6 
#
# 1 105.1801 63.5001 78.9125 0.0000 0.0000 0.0000
# 2 63.5001 58.0376 40.9742 0.0000 0.0000 0.0000
# 3 78.9125 40.9742 102.7404 0.0000 0.0000 0.0000
# 4 0.0000 0.0000 0.0000 26.3754 0.0000 0.0000
# 5 0.0000 0.0000 0.0000 0.0000 42.6191 0.0000
# 6 0.0000 0.0000 0.0000 0.0000 0.0000 35.6684
#
#
#
# Elastic Compliance Matrix: (Units=1/GPa)
#
#
# Indices 1 2 3 4 5 6 
#
# 1 0.050083 -0.038471 -0.023125 0.000000 0.000000 0.000000
# 2 -0.038471 0.053534 0.008199 0.000000 0.000000 0.000000
# 3 -0.023125 0.008199 0.024225 0.000000 0.000000 0.000000
# 4 0.000000 0.000000 0.000000 0.037914 0.000000 0.000000
# 5 0.000000 0.000000 0.000000 0.000000 0.023464 0.000000
# 6 0.000000 0.000000 0.000000 0.000000 0.000000 0.028036
#
#
# Mechanical properties :
#
#
# Convention : Reuss Voigt Hill
#
# Bulk Modulus (GPa) = 47.51104 70.30352 58.90728
# Shear Modulus (GPa) = 15.10267 26.43734 20.77000
#
# Velocity S-wave (km/s) = 2.79147 3.69330 3.27359
# Velocity P-wave (km/s) = 5.90790 7.37976 6.68446
#
# Compressibility (1/GPa) = 0.02104774
#
# Stress axis : x y z
#
# Youngs Moduli (GPa) = 19.96671 18.67974 41.27901
#
# Poissons Ratio (x) = 0.71863 0.95458
# Poissons Ratio (y) = 0.76814 -0.33843
# Poissons Ratio (z) = 0.46173 -0.15315
#
# Static dielectric constant tensor:
#      x y z
#    x 1.675410 0.000000 0.000000 
#    y 0.000000 1.726590 0.000000 
#    z 0.000000 0.000000 1.667390 
# 
# From -- ./inp_files/27745.got.cif
#   From: 2010.05.17/outbox.cif.g08.bks.cpg/sg54_14_cif.got.tgz:27745.got - 2010.06.03 13:09:01.
