data_PCOD9422697
_publ_section_title
;
Structure prediction by ZEFSAII (Michael W. Deem and Ramdas Pophale) SiO2 
 PCOD9422697
Probable space group: P C C A
;
_chemical_formula_sum "Si O2"
_cell_formula_units_Z 40
_cell_length_a 8.718122
_cell_length_b 7.813289
_cell_length_c 28.647344
_cell_angle_alpha 90.000000
_cell_angle_beta 90.000000
_cell_angle_gamma 90.000000
_cell_volume 1951.377053
_symmetry_space_group_name_H-M "P C C A"
_symmetry_group_IT_number 54
_symmetry_cell_setting 'orthorhombic'
loop_
_space_group_symop_operation_xyz
x,y,z
1/2-x,-y,z
1/2+x,-y,1/2-z
-x,y,1/2-z
-x,-y,-z
1/2+x,y,-z
1/2-x,y,1/2+z
x,-y,1/2+z
loop_
_atom_site_type_symbol
_atom_site_label
_atom_site_fract_x
_atom_site_fract_y
_atom_site_fract_z
Si Si1 0.043417 0.151884 0.139227
Si Si2 0.353668 0.332445 0.040380
Si Si3 0.429360 0.540851 0.301020
Si Si4 0.593208 0.762493 0.857745
Si Si5 0.542824 0.162735 0.969106
O O1 0.221075 0.216523 0.143681
O O2 0.996084 0.155097 0.084831
O O3 0.948871 0.286656 0.168991
O O4 0.033468 0.953057 0.153837
O O5 0.250000 0.500000 0.046883
O O6 0.440341 0.289295 0.088419
O O7 0.223978 0.189697 0.032126
O O8 0.462631 0.319528 0.995931
O O9 0.250000 0.500000 0.297746
O O10 0.500000 0.567137 0.250000
O O11 0.522785 0.385104 0.325595
O O12 0.500000 0.000000 0.000000
#
# Coordination Sequence:
#
# PCOD9422697 Si02
#       5
#     8   8   8   8   8
#     4  10  22  42  70  96 136 181 226 274 342 400
#     4  11  22  37  61  92 133 180 230 273 331 394
#     4  12  27  47  71 101 133 170 223 285 345 407
#     4  10  21  43  69  97 131 178 224 280 336 403
#     4  11  21  38  59  93 134 179 222 270 328 394
#
# _framework density 20.498342999999998
#
# number of rings (size 3 to 8) (size 9 to 14) (size 15 to 20)
#    0.000    1.200    2.000    5.400    0.000    4.000 
#    3.600    0.000    0.000    0.000    0.000    0.000 
#    0.000    0.000    0.000    0.000    0.000    0.000 
#
# Total GULP energy -223523.913053 kJ/mol
# GULP energy per Si atom -5588.097826 kJ/mol
# Density = 2.045169 g / cm^3
# Si number density = 20.498343 Si / 1000 Ang^3
#
#
#
# Elastic Constant Matrix: (Units=GPa)
#
#
# Indices 1 2 3 4 5 6 
#
# 1 50.1707 36.4084 48.9851 0.0000 0.0000 0.0000
# 2 36.4084 158.7955 69.4156 0.0000 0.0000 0.0000
# 3 48.9851 69.4156 144.7158 0.0000 0.0000 0.0000
# 4 0.0000 0.0000 0.0000 24.6334 0.0000 0.0000
# 5 0.0000 0.0000 0.0000 0.0000 35.8373 0.0000
# 6 0.0000 0.0000 0.0000 0.0000 0.0000 23.5481
#
#
#
# Elastic Compliance Matrix: (Units=1/GPa)
#
#
# Indices 1 2 3 4 5 6 
#
# 1 0.030997 -0.003189 -0.008962 0.000000 0.000000 0.000000
# 2 -0.003189 0.008296 -0.002900 0.000000 0.000000 0.000000
# 3 -0.008962 -0.002900 0.011335 0.000000 0.000000 0.000000
# 4 0.000000 0.000000 0.000000 0.040595 0.000000 0.000000
# 5 0.000000 0.000000 0.000000 0.000000 0.027904 0.000000
# 6 0.000000 0.000000 0.000000 0.000000 0.000000 0.042466
#
#
# Mechanical properties :
#
#
# Convention : Reuss Voigt Hill
#
# Bulk Modulus (GPa) = 48.72119 73.70002 61.21060
# Shear Modulus (GPa) = 25.18404 30.06195 27.62300
#
# Velocity S-wave (km/s) = 3.50893 3.83372 3.67491
# Velocity P-wave (km/s) = 6.34324 7.45847 6.92335
#
# Compressibility (1/GPa) = 0.02052495
#
# Stress axis : x y z
#
# Youngs Moduli (GPa) = 32.26122 120.53574 88.22341
#
# Poissons Ratio (x) = 0.38440 0.79070
# Poissons Ratio (y) = 0.10288 0.25585
# Poissons Ratio (z) = 0.28914 0.34955
#
# Static dielectric constant tensor:
#      x y z
#    x 1.716970 0.000000 0.000000 
#    y 0.000000 1.827600 0.000000 
#    z 0.000000 0.000000 1.706450 
# 
# From -- ./inp_files/23287.got.cif
#   From: 2010.05.17/outbox.cif.g08.bks.cpg/sg54_12_cif.got.tgz:23287.got - 2010.06.03 13:09:01.
