data_PCOD9422144
_publ_section_title
;
Structure prediction by ZEFSAII (Michael W. Deem and Ramdas Pophale) SiO2 
 PCOD9422144
Probable space group: P C C A
;
_chemical_formula_sum "Si O2"
_cell_formula_units_Z 48
_cell_length_a 5.204823
_cell_length_b 25.762078
_cell_length_c 17.512917
_cell_angle_alpha 90.000000
_cell_angle_beta 90.000000
_cell_angle_gamma 90.000000
_cell_volume 2348.255484
_symmetry_space_group_name_H-M "P C C A"
_symmetry_group_IT_number 54
_symmetry_cell_setting 'orthorhombic'
loop_
_space_group_symop_operation_xyz
x,y,z
1/2-x,-y,z
1/2+x,-y,1/2-z
-x,y,1/2-z
-x,-y,-z
1/2+x,y,-z
1/2-x,y,1/2+z
x,-y,1/2+z
loop_
_atom_site_type_symbol
_atom_site_label
_atom_site_fract_x
_atom_site_fract_y
_atom_site_fract_z
Si Si1 0.000825 0.966616 0.841272
Si Si2 0.378479 0.245465 0.954809
Si Si3 0.751493 0.298427 0.202606
Si Si4 0.080785 0.557545 0.469368
Si Si5 0.373741 0.878426 0.454114
Si Si6 0.247884 0.423402 0.798372
O O1 0.031687 0.911938 0.882990
O O2 0.000000 0.959504 0.750000
O O3 0.250000 0.000000 0.862320
O O4 0.750000 0.000000 0.862721
O O5 0.278962 0.274137 0.880184
O O6 0.378022 0.183398 0.941152
O O7 0.668649 0.258318 0.979804
O O8 0.500000 0.283151 0.250000
O O9 0.753005 0.360930 0.196002
O O10 0.000000 0.282343 0.250000
O O11 0.297854 0.583034 0.523729
O O12 0.198836 0.557581 0.384786
O O13 0.000000 0.500000 0.500000
O O14 0.583944 0.890768 0.519779
O O15 0.500000 0.439288 0.750000
O O16 0.000000 0.439008 0.750000
#
# Coordination Sequence:
#
# PCOD9422144 Si02
#       6
#     8   8   8   8   8   8
#     4  10  21  36  53  76 105 137 179 228 277 330
#     4  10  21  37  56  82 115 149 187 234 288 343
#     4  10  21  37  58  86 116 150 195 239 285 346
#     4  10  21  38  58  85 117 150 192 238 282 339
#     4  10  21  36  54  78 107 140 181 226 276 337
#     4  10  21  38  60  86 118 155 195 241 290 341
#
# _framework density 20.440707
#
# number of rings (size 3 to 8) (size 9 to 14) (size 15 to 20)
#    0.000    2.000    0.000    3.000    0.000    4.000 
#    0.000    9.167    0.000    0.000    0.000    0.000 
#    0.000    0.000    0.000    0.000    0.000    0.000 
#
# Total GULP energy -267929.592326 kJ/mol
# GULP energy per Si atom -5581.866507 kJ/mol
# Density = 2.039418 g / cm^3
# Si number density = 20.440707 Si / 1000 Ang^3
#
#
#
# Elastic Constant Matrix: (Units=GPa)
#
#
# Indices 1 2 3 4 5 6 
#
# 1 180.0606 33.0230 52.0381 0.0000 0.0000 0.0000
# 2 33.0230 42.2325 36.2859 0.0000 0.0000 0.0000
# 3 52.0381 36.2859 107.0477 0.0000 0.0000 0.0000
# 4 0.0000 0.0000 0.0000 30.9428 0.0000 0.0000
# 5 0.0000 0.0000 0.0000 0.0000 29.1826 0.0000
# 6 0.0000 0.0000 0.0000 0.0000 0.0000 -66.6344
#
#
#
# Elastic Compliance Matrix: (Units=1/GPa)
#
#
# Indices 1 2 3 4 5 6 
#
# 1 0.006809 -0.003500 -0.002124 0.000000 0.000000 0.000000
# 2 -0.003500 0.035207 -0.010233 0.000000 0.000000 0.000000
# 3 -0.002124 -0.010233 0.013843 0.000000 0.000000 0.000000
# 4 0.000000 0.000000 0.000000 0.032318 0.000000 0.000000
# 5 0.000000 0.000000 0.000000 0.000000 0.034267 0.000000
# 6 0.000000 0.000000 0.000000 0.000000 0.000000 -0.015007
#
#
# Mechanical properties :
#
#
# Convention : Reuss Voigt Hill
#
# Bulk Modulus (GPa) = 41.41428 63.55942 52.48685
# Shear Modulus (GPa) = 33.96791 12.56445 23.26618
#
# Velocity S-wave (km/s) = 4.08091 2.48196 3.37742
# Velocity P-wave (km/s) = 6.51995 6.27499 6.39865
#
# Compressibility (1/GPa) = 0.02414626
#
# Stress axis : x y z
#
# Youngs Moduli (GPa) = 146.85748 28.40355 72.24014
#
# Poissons Ratio (x) = 0.09940 0.15343
# Poissons Ratio (y) = 0.51394 0.73922
# Poissons Ratio (z) = 0.31191 0.29065
#
# Static dielectric constant tensor:
#      x y z
#    x 1.802620 0.000000 0.000000 
#    y 0.000000 1.745600 0.000000 
#    z 0.000000 0.000000 1.741800 
# 
# From -- ./inp_files/10914.got.cif
#   From: 2010.05.17/outbox.cif.g08.bks.cpg/sg54_6_cif.got.tgz:10914.got - 2010.06.03 13:09:01.
