data_PCOD9422390
_publ_section_title
;
Structure prediction by ZEFSAII (Michael W. Deem and Ramdas Pophale) SiO2 
 PCOD9422390
Probable space group: P C C A
;
_chemical_formula_sum "Si O2"
_cell_formula_units_Z 64
_cell_length_a 25.217913
_cell_length_b 11.911047
_cell_length_c 12.050037
_cell_angle_alpha 90.000000
_cell_angle_beta 90.000000
_cell_angle_gamma 90.000000
_cell_volume 3619.490665
_symmetry_space_group_name_H-M "P C C A"
_symmetry_group_IT_number 54
_symmetry_cell_setting 'orthorhombic'
loop_
_space_group_symop_operation_xyz
x,y,z
1/2-x,-y,z
1/2+x,-y,1/2-z
-x,y,1/2-z
-x,-y,-z
1/2+x,y,-z
1/2-x,y,1/2+z
x,-y,1/2+z
loop_
_atom_site_type_symbol
_atom_site_label
_atom_site_fract_x
_atom_site_fract_y
_atom_site_fract_z
Si Si1 0.898407 0.241759 0.106683
Si Si2 0.601399 0.375034 0.823928
Si Si3 0.685717 0.392510 0.013143
Si Si4 0.501399 0.629143 0.465709
Si Si5 0.469374 0.981210 0.376470
Si Si6 0.360763 0.376760 0.247880
Si Si7 0.802898 0.659501 0.473955
Si Si8 0.451836 0.775272 0.833587
O O1 0.887668 0.283659 0.230815
O O2 0.929702 0.123669 0.107493
O O3 0.843140 0.260957 0.041824
O O4 0.942239 0.327759 0.056394
O O5 0.540418 0.364993 0.860601
O O6 0.615729 0.499415 0.778283
O O7 0.638802 0.358032 0.930362
O O8 0.670885 0.374364 0.138900
O O9 0.689897 0.527857 0.005066
O O10 0.739943 0.327749 0.985402
O O11 0.500000 0.500000 0.500000
O O12 0.528403 0.704093 0.561074
O O13 0.500000 0.965749 0.250000
O O14 0.500000 0.000000 0.500000
O O15 0.437845 0.097967 0.365335
O O16 0.408129 0.291485 0.266446
O O17 0.322435 0.337125 0.151382
O O18 0.500000 0.786244 0.750000
#
# Coordination Sequence:
#
# PCOD9422390 Si02
#       8
#     8   8   8   8   8   8   8   8
#     4  12  23  40  60  91 124 159 212 250 313 369
#     4  11  22  36  57  93 125 161 197 252 312 378
#     4  10  21  39  58  91 125 161 207 247 317 374
#     4  12  21  34  57  91 130 161 194 248 316 387
#     4  11  25  43  64  90 123 171 216 259 311 373
#     4  11  21  38  58  89 123 161 201 249 313 374
#     4  10  23  36  62  89 123 165 204 256 305 382
#     4  11  22  38  59  87 124 162 204 252 309 373
#
# _framework density 17.682047000000001
#
# number of rings (size 3 to 8) (size 9 to 14) (size 15 to 20)
#    0.000    1.000    3.750    4.875    3.500    1.000 
#    0.000    0.000    0.000    0.750    0.000    0.000 
#    0.000    0.000    0.000    0.000    0.000    0.000 
#
# Total GULP energy -356707.107183 kJ/mol
# GULP energy per Si atom -5573.548550 kJ/mol
# Density = 1.764180 g / cm^3
# Si number density = 17.682047 Si / 1000 Ang^3
#
#
#
# Elastic Constant Matrix: (Units=GPa)
#
#
# Indices 1 2 3 4 5 6 
#
# 1 82.4173 35.8141 21.1063 0.0000 0.0000 0.0000
# 2 35.8141 121.0442 29.0459 0.0000 0.0000 0.0000
# 3 21.1063 29.0459 104.7898 0.0000 0.0000 0.0000
# 4 0.0000 0.0000 0.0000 6.9600 0.0000 0.0000
# 5 0.0000 0.0000 0.0000 0.0000 22.1635 0.0000
# 6 0.0000 0.0000 0.0000 0.0000 0.0000 7.2843
#
#
#
# Elastic Compliance Matrix: (Units=1/GPa)
#
#
# Indices 1 2 3 4 5 6 
#
# 1 0.014241 -0.003776 -0.001822 0.000000 0.000000 0.000000
# 2 -0.003776 0.009852 -0.001970 0.000000 0.000000 0.000000
# 3 -0.001822 -0.001970 0.010456 0.000000 0.000000 0.000000
# 4 0.000000 0.000000 0.000000 0.143678 0.000000 0.000000
# 5 0.000000 0.000000 0.000000 0.000000 0.045119 0.000000
# 6 0.000000 0.000000 0.000000 0.000000 0.000000 0.137281
#
#
# Mechanical properties :
#
#
# Convention : Reuss Voigt Hill
#
# Bulk Modulus (GPa) = 51.51401 53.35377 52.43389
# Shear Modulus (GPa) = 13.08100 22.10057 17.59078
#
# Velocity S-wave (km/s) = 2.72286 3.53921 3.15753
# Velocity P-wave (km/s) = 6.25156 6.85134 6.55831
#
# Compressibility (1/GPa) = 0.01941219
#
# Stress axis : x y z
#
# Youngs Moduli (GPa) = 70.22030 101.50707 95.64011
#
# Poissons Ratio (x) = 0.38333 0.17422
# Poissons Ratio (y) = 0.26518 0.18841
# Poissons Ratio (z) = 0.12791 0.19997
#
# Static dielectric constant tensor:
#      x y z
#    x 1.551930 0.000000 0.000000 
#    y 0.000000 1.645280 0.000000 
#    z 0.000000 0.000000 1.674400 
# 
# From -- ./inp_files/10086.got.cif
#   From: 2010.05.17/outbox.cif.g08.bks.cpg/sg54_6_cif.got.tgz:10086.got - 2010.06.03 13:09:01.
