data_PCOD9422142
_publ_section_title
;
Structure prediction by ZEFSAII (Michael W. Deem and Ramdas Pophale) SiO2 
 PCOD9422142
Probable space group: P C C A
;
_chemical_formula_sum "Si O2"
_cell_formula_units_Z 48
_cell_length_a 5.295529
_cell_length_b 24.142118
_cell_length_c 18.378187
_cell_angle_alpha 90.000000
_cell_angle_beta 90.000000
_cell_angle_gamma 90.000000
_cell_volume 2349.564573
_symmetry_space_group_name_H-M "P C C A"
_symmetry_group_IT_number 54
_symmetry_cell_setting 'orthorhombic'
loop_
_space_group_symop_operation_xyz
x,y,z
1/2-x,-y,z
1/2+x,-y,1/2-z
-x,y,1/2-z
-x,-y,-z
1/2+x,y,-z
1/2-x,y,1/2+z
x,-y,1/2+z
loop_
_atom_site_type_symbol
_atom_site_label
_atom_site_fract_x
_atom_site_fract_y
_atom_site_fract_z
Si Si1 0.126628 0.114247 0.039165
Si Si2 0.841959 0.247601 0.458713
Si Si3 0.499697 0.963798 0.164847
Si Si4 0.248426 0.566261 0.038487
Si Si5 0.751041 0.722716 0.791381
Si Si6 0.749734 0.589317 0.790661
O O1 0.139921 0.180702 0.040246
O O2 0.029578 0.089551 0.114595
O O3 0.409352 0.095826 0.017868
O O4 0.615341 0.266628 0.512020
O O5 0.772489 0.264091 0.376637
O O6 0.500000 0.949078 0.250000
O O7 0.250000 0.000000 0.151160
O O8 0.750000 0.000000 0.149337
O O9 0.250000 0.500000 0.026610
O O10 0.249966 0.575448 0.124428
O O11 0.497679 0.589206 0.999596
O O12 0.500000 0.743436 0.750000
O O13 0.748912 0.656036 0.785235
O O14 0.000000 0.743692 0.750000
O O15 0.500000 0.568517 0.750000
O O16 0.000000 0.568842 0.750000
#
# Coordination Sequence:
#
# PCOD9422142 Si02
#       6
#     8   8   8   8   8   8
#     4  10  21  36  54  78 105 134 172 213 254 306
#     4  10  21  37  56  80 109 140 177 220 265 317
#     4  10  21  36  53  76 105 135 170 211 254 304
#     4  10  21  36  54  79 110 143 182 226 272 326
#     4  10  21  37  56  81 110 141 181 225 270 323
#     4  10  21  36  55  80 109 141 181 226 270 323
#
# _framework density 20.429319
#
# number of rings (size 3 to 8) (size 9 to 14) (size 15 to 20)
#    0.000    2.000    0.000    3.000    0.000    4.667 
#    0.000    2.500    0.000    0.000    0.000    0.000 
#    0.000    0.000    0.000    0.000    0.000    0.000 
#
# Total GULP energy -268069.130883 kJ/mol
# GULP energy per Si atom -5584.773560 kJ/mol
# Density = 2.038282 g / cm^3
# Si number density = 20.429319 Si / 1000 Ang^3
#
#
#
# Elastic Constant Matrix: (Units=GPa)
#
#
# Indices 1 2 3 4 5 6 
#
# 1 210.2676 26.9470 83.5487 0.0000 0.0000 0.0000
# 2 26.9470 17.8330 18.0500 0.0000 0.0000 0.0000
# 3 83.5487 18.0500 107.7684 0.0000 0.0000 0.0000
# 4 0.0000 0.0000 0.0000 33.4905 0.0000 0.0000
# 5 0.0000 0.0000 0.0000 0.0000 37.2906 0.0000
# 6 0.0000 0.0000 0.0000 0.0000 0.0000 13.0694
#
#
#
# Elastic Compliance Matrix: (Units=1/GPa)
#
#
# Indices 1 2 3 4 5 6 
#
# 1 0.007453 -0.006519 -0.004687 0.000000 0.000000 0.000000
# 2 -0.006519 0.073225 -0.007210 0.000000 0.000000 0.000000
# 3 -0.004687 -0.007210 0.014120 0.000000 0.000000 0.000000
# 4 0.000000 0.000000 0.000000 0.029859 0.000000 0.000000
# 5 0.000000 0.000000 0.000000 0.000000 0.026816 0.000000
# 6 0.000000 0.000000 0.000000 0.000000 0.000000 0.076514
#
#
# Mechanical properties :
#
#
# Convention : Reuss Voigt Hill
#
# Bulk Modulus (GPa) = 17.25141 65.88449 41.56795
# Shear Modulus (GPa) = 17.59683 30.59165 24.09424
#
# Velocity S-wave (km/s) = 2.93806 3.87387 3.43796
# Velocity P-wave (km/s) = 4.46905 7.23389 6.01255
#
# Compressibility (1/GPa) = 0.05796628
#
# Stress axis : x y z
#
# Youngs Moduli (GPa) = 134.16562 13.65661 70.82123
#
# Poissons Ratio (x) = 0.08903 0.33190
# Poissons Ratio (y) = 0.87465 0.51064
# Poissons Ratio (z) = 0.62877 0.09847
#
# Static dielectric constant tensor:
#      x y z
#    x 1.747740 0.000000 0.000000 
#    y 0.000000 1.714610 0.000000 
#    z 0.000000 0.000000 1.683250 
# 
# From -- ./inp_files/10920.got.cif
#   From: 2010.05.17/outbox.cif.g08.bks.cpg/sg54_6_cif.got.tgz:10920.got - 2010.06.03 13:09:01.
