data_PCOD9422517
_publ_section_title
;
Structure prediction by ZEFSAII (Michael W. Deem and Ramdas Pophale) SiO2 
 PCOD9422517
Probable space group: P C C A
;
_chemical_formula_sum "Si O2"
_cell_formula_units_Z 44
_cell_length_a 17.783023
_cell_length_b 8.950446
_cell_length_c 14.002328
_cell_angle_alpha 90.000000
_cell_angle_beta 90.000000
_cell_angle_gamma 90.000000
_cell_volume 2228.694358
_symmetry_space_group_name_H-M "P C C A"
_symmetry_group_IT_number 54
_symmetry_cell_setting 'orthorhombic'
loop_
_space_group_symop_operation_xyz
x,y,z
1/2-x,-y,z
1/2+x,-y,1/2-z
-x,y,1/2-z
-x,-y,-z
1/2+x,y,-z
1/2-x,y,1/2+z
x,-y,1/2+z
loop_
_atom_site_type_symbol
_atom_site_label
_atom_site_fract_x
_atom_site_fract_y
_atom_site_fract_z
Si Si1 0.058276 0.852019 0.900513
Si Si2 0.620075 0.366898 0.323094
Si Si3 0.160931 0.369734 0.879409
Si Si4 0.190965 0.315634 0.471751
Si Si5 0.986426 0.178696 0.607258
Si Si6 0.500000 0.388592 0.750000
O O1 0.142948 0.824336 0.936311
O O2 0.035264 0.722335 0.828015
O O3 0.044061 0.017611 0.861813
O O4 0.009657 0.833045 0.996544
O O5 0.675414 0.349764 0.233254
O O6 0.666851 0.363928 0.421466
O O7 0.559536 0.233074 0.335137
O O8 0.565277 0.508296 0.298688
O O9 0.221516 0.293454 0.948998
O O10 0.166311 0.542558 0.907547
O O11 0.078056 0.303308 0.889396
#
# Coordination Sequence:
#
# PCOD9422517 Si02
#       6
#     8   8   8   8   8   4
#     4  10  22  38  60  92 122 159 201 254 305 370
#     4  11  21  39  64  92 118 163 205 260 302 362
#     4  11  21  38  62  88 120 165 196 251 304 362
#     4  10  23  39  58  89 128 155 205 248 308 371
#     4  10  21  40  64  87 123 160 205 255 309 357
#     4  12  20  34  68  94 118 154 214 262 300 360
#
# _framework density 19.742502999999999
#
# number of rings (size 3 to 8) (size 9 to 14) (size 15 to 20)
#    0.000    1.455    3.636    1.091    2.545    6.545 
#    3.273    0.000    0.000    2.182    0.000    0.000 
#    0.000    0.000    0.000    0.000    0.000    0.000 
#
# Total GULP energy -245462.249896 kJ/mol
# GULP energy per Si atom -5578.687498 kJ/mol
# Density = 1.969757 g / cm^3
# Si number density = 19.742503 Si / 1000 Ang^3
#
#
#
# Elastic Constant Matrix: (Units=GPa)
#
#
# Indices 1 2 3 4 5 6 
#
# 1 75.6562 4.2158 36.2178 0.0000 0.0000 0.0000
# 2 4.2158 56.4792 14.0708 0.0000 0.0000 0.0000
# 3 36.2178 14.0708 110.2613 0.0000 0.0000 0.0000
# 4 0.0000 0.0000 0.0000 28.9244 0.0000 0.0000
# 5 0.0000 0.0000 0.0000 0.0000 34.4183 0.0000
# 6 0.0000 0.0000 0.0000 0.0000 0.0000 17.1765
#
#
#
# Elastic Compliance Matrix: (Units=1/GPa)
#
#
# Indices 1 2 3 4 5 6 
#
# 1 0.015685 0.000116 -0.005167 0.000000 0.000000 0.000000
# 2 0.000116 0.018288 -0.002372 0.000000 0.000000 0.000000
# 3 -0.005167 -0.002372 0.011069 0.000000 0.000000 0.000000
# 4 0.000000 0.000000 0.000000 0.034573 0.000000 0.000000
# 5 0.000000 0.000000 0.000000 0.000000 0.029054 0.000000
# 6 0.000000 0.000000 0.000000 0.000000 0.000000 0.058219
#
#
# Mechanical properties :
#
#
# Convention : Reuss Voigt Hill
#
# Bulk Modulus (GPa) = 33.11592 39.04506 36.08049
# Shear Modulus (GPa) = 26.06904 28.63000 27.34952
#
# Velocity S-wave (km/s) = 3.63775 3.81224 3.72602
# Velocity P-wave (km/s) = 5.86980 6.26081 6.06845
#
# Compressibility (1/GPa) = 0.03019695
#
# Stress axis : x y z
#
# Youngs Moduli (GPa) = 63.75662 54.68103 90.34044
#
# Poissons Ratio (x) = -0.00637 0.46677
# Poissons Ratio (y) = -0.00743 0.21429
# Poissons Ratio (z) = 0.32942 0.12971
#
# Static dielectric constant tensor:
#      x y z
#    x 1.715560 0.000000 0.000000 
#    y 0.000000 1.689290 0.000000 
#    z 0.000000 0.000000 1.723070 
# 
# From -- ./inp_files/14020.got.cif
#   From: 2010.05.17/outbox.cif.g08.bks.cpg/sg54_8_cif.got.tgz:14020.got - 2010.06.03 13:09:01.
