data_PCOD9422265
_publ_section_title
;
Structure prediction by ZEFSAII (Michael W. Deem and Ramdas Pophale) SiO2 
 PCOD9422265
Probable space group: P C C A
;
_chemical_formula_sum "Si O2"
_cell_formula_units_Z 56
_cell_length_a 22.545235
_cell_length_b 5.272857
_cell_length_c 19.594043
_cell_angle_alpha 90.000000
_cell_angle_beta 90.000000
_cell_angle_gamma 90.000000
_cell_volume 2329.296729
_symmetry_space_group_name_H-M "P C C A"
_symmetry_group_IT_number 54
_symmetry_cell_setting 'orthorhombic'
loop_
_space_group_symop_operation_xyz
x,y,z
1/2-x,-y,z
1/2+x,-y,1/2-z
-x,y,1/2-z
-x,-y,-z
1/2+x,y,-z
1/2-x,y,1/2+z
x,-y,1/2+z
loop_
_atom_site_type_symbol
_atom_site_label
_atom_site_fract_x
_atom_site_fract_y
_atom_site_fract_z
Si Si1 0.991630 0.350641 0.146146
Si Si2 0.814454 0.509202 0.370711
Si Si3 0.072444 0.737651 0.079658
Si Si4 0.807100 0.173656 0.730683
Si Si5 0.897561 0.110836 0.301466
Si Si6 0.630709 0.524016 0.623782
Si Si7 0.909752 0.968263 0.561826
O O1 0.021980 0.526926 0.088082
O O2 0.045036 0.291280 0.197721
O O3 0.931089 0.491781 0.166481
O O4 0.965729 0.095927 0.110935
O O5 0.750000 0.500000 0.403150
O O6 0.863508 0.603126 0.423049
O O7 0.804990 0.692621 0.304772
O O8 0.843663 0.255613 0.339388
O O9 0.079080 0.885194 0.151017
O O10 0.069370 0.917129 0.014824
O O11 0.818244 0.388338 0.674625
O O12 0.750000 0.000000 0.719491
O O13 0.866991 0.999901 0.734078
O O14 0.635305 0.257965 0.584556
O O15 0.617382 0.757820 0.573508
#
# Coordination Sequence:
#
# PCOD9422265 Si02
#       7
#     8   8   8   8   8   8   8
#     4   9  21  39  63  97 133 171 216 271 335 406
#     4  10  21  39  63  96 123 167 223 284 341 387
#     4  10  21  37  64 100 131 171 216 273 341 401
#     4  11  23  43  68  93 128 182 235 286 333 405
#     4  10  21  37  67  96 128 168 222 281 340 393
#     4  10  25  41  64  95 131 178 223 269 330 401
#     4  10  23  42  66  96 137 177 218 265 334 410
#
# _framework density 24.041589999999999
#
# number of rings (size 3 to 8) (size 9 to 14) (size 15 to 20)
#    0.857    1.143    1.429    1.286    6.000    1.143 
#    0.000   18.571    0.000    0.000    0.000    0.000 
#    0.000    0.000    0.000    0.000    0.000    0.000 
#
# Total GULP energy -312807.612018 kJ/mol
# GULP energy per Si atom -5585.850215 kJ/mol
# Density = 2.398687 g / cm^3
# Si number density = 24.041590 Si / 1000 Ang^3
#
#
#
# Elastic Constant Matrix: (Units=GPa)
#
#
# Indices 1 2 3 4 5 6 
#
# 1 88.9717 6.1326 5.0091 0.0000 0.0000 0.0000
# 2 6.1326 82.8117 5.3726 0.0000 0.0000 0.0000
# 3 5.0091 5.3726 55.4680 0.0000 0.0000 0.0000
# 4 0.0000 0.0000 0.0000 28.9741 0.0000 0.0000
# 5 0.0000 0.0000 0.0000 0.0000 13.7800 0.0000
# 6 0.0000 0.0000 0.0000 0.0000 0.0000 43.7023
#
#
#
# Elastic Compliance Matrix: (Units=1/GPa)
#
#
# Indices 1 2 3 4 5 6 
#
# 1 0.011347 -0.000779 -0.000949 0.000000 0.000000 0.000000
# 2 -0.000779 0.012205 -0.001112 0.000000 0.000000 0.000000
# 3 -0.000949 -0.001112 0.018222 0.000000 0.000000 0.000000
# 4 0.000000 0.000000 0.000000 0.034514 0.000000 0.000000
# 5 0.000000 0.000000 0.000000 0.000000 0.072569 0.000000
# 6 0.000000 0.000000 0.000000 0.000000 0.000000 0.022882
#
#
# Mechanical properties :
#
#
# Convention : Reuss Voigt Hill
#
# Bulk Modulus (GPa) = 27.70524 28.91997 28.31261
# Shear Modulus (GPa) = 26.39229 31.34043 28.86636
#
# Velocity S-wave (km/s) = 3.31687 3.61445 3.46885
# Velocity P-wave (km/s) = 5.12032 5.42902 5.27693
#
# Compressibility (1/GPa) = 0.03609425
#
# Stress axis : x y z
#
# Youngs Moduli (GPa) = 88.13179 81.93098 54.87919
#
# Poissons Ratio (x) = 0.06380 0.05209
# Poissons Ratio (y) = 0.06863 0.06102
# Poissons Ratio (z) = 0.08366 0.09110
#
# Static dielectric constant tensor:
#      x y z
#    x 1.987950 0.000000 0.000000 
#    y 0.000000 2.009910 0.000000 
#    z 0.000000 0.000000 1.899880 
# 
# From -- ./inp_files/24816.got.cif
#   From: 2010.05.17/outbox.cif.g08.bks.cpg/sg54_13_cif.got.tgz:24816.got - 2010.06.03 13:09:01.
