data_PCOD9422775
_publ_section_title
;
Structure prediction by ZEFSAII (Michael W. Deem and Ramdas Pophale) SiO2 
 PCOD9422775
Probable space group: P C C A
;
_chemical_formula_sum "Si O2"
_cell_formula_units_Z 48
_cell_length_a 10.086281
_cell_length_b 10.050744
_cell_length_c 22.226768
_cell_angle_alpha 90.000000
_cell_angle_beta 90.000000
_cell_angle_gamma 90.000000
_cell_volume 2253.230343
_symmetry_space_group_name_H-M "P C C A"
_symmetry_group_IT_number 54
_symmetry_cell_setting 'orthorhombic'
loop_
_space_group_symop_operation_xyz
x,y,z
1/2-x,-y,z
1/2+x,-y,1/2-z
-x,y,1/2-z
-x,-y,-z
1/2+x,y,-z
1/2-x,y,1/2+z
x,-y,1/2+z
loop_
_atom_site_type_symbol
_atom_site_label
_atom_site_fract_x
_atom_site_fract_y
_atom_site_fract_z
Si Si1 0.478149 0.844078 0.070882
Si Si2 0.750000 0.500000 0.277370
Si Si3 0.964192 0.445907 0.379332
Si Si4 0.399610 0.655328 0.805135
Si Si5 0.250000 0.500000 0.020449
Si Si6 0.241919 0.202851 0.486616
Si Si7 0.875453 0.924739 0.131404
O O1 0.503349 0.705052 0.105918
O O2 0.330659 0.839738 0.043685
O O3 0.513932 0.969282 0.112106
O O4 0.588967 0.842999 0.017325
O O5 0.863146 0.453172 0.323392
O O6 0.733901 0.378135 0.230362
O O7 0.880183 0.496531 0.436901
O O8 0.075007 0.550869 0.358901
O O9 0.500000 0.630839 0.750000
O O10 0.420646 0.802338 0.828799
O O11 0.253709 0.362623 0.984894
O O12 0.312697 0.139917 0.428898
O O13 0.750000 0.000000 0.160604
#
# Coordination Sequence:
#
# PCOD9422775 Si02
#       7
#     8   4   8   8   4   8   8
#     4  10  22  41  60  92 126 171 200 253 305 384
#     4   9  20  39  64  90 116 153 204 273 324 364
#     4   9  20  39  62  88 122 154 207 258 318 369
#     4  10  22  40  63  88 116 158 208 265 312 369
#     4   9  20  35  58  96 122 157 204 253 306 374
#     4  10  22  36  62  89 128 163 207 248 306 370
#     4  10  23  40  57  87 124 160 208 248 308 371
#
# _framework density 21.30275
#
# number of rings (size 3 to 8) (size 9 to 14) (size 15 to 20)
#    0.000    2.333    0.000    0.500    9.333    1.333 
#    3.000    0.000    0.000    0.000    0.000    0.000 
#    0.000    0.000    0.000    0.000    0.000    0.000 
#
# Total GULP energy -267790.671624 kJ/mol
# GULP energy per Si atom -5578.972325 kJ/mol
# Density = 2.125426 g / cm^3
# Si number density = 21.302750 Si / 1000 Ang^3
#
#
#
# Elastic Constant Matrix: (Units=GPa)
#
#
# Indices 1 2 3 4 5 6 
#
# 1 48.2914 25.7369 21.9249 0.0000 0.0000 0.0000
# 2 25.7369 134.0943 44.8989 0.0000 0.0000 0.0000
# 3 21.9249 44.8989 50.5664 0.0000 0.0000 0.0000
# 4 0.0000 0.0000 0.0000 40.5802 0.0000 0.0000
# 5 0.0000 0.0000 0.0000 0.0000 -39.0988 0.0000
# 6 0.0000 0.0000 0.0000 0.0000 0.0000 28.7235
#
#
#
# Elastic Compliance Matrix: (Units=1/GPa)
#
#
# Indices 1 2 3 4 5 6 
#
# 1 0.026063 -0.001734 -0.009761 0.000000 0.000000 0.000000
# 2 -0.001734 0.010728 -0.008774 0.000000 0.000000 0.000000
# 3 -0.009761 -0.008774 0.031799 0.000000 0.000000 0.000000
# 4 0.000000 0.000000 0.000000 0.024643 0.000000 0.000000
# 5 0.000000 0.000000 0.000000 0.000000 -0.025576 0.000000
# 6 0.000000 0.000000 0.000000 0.000000 0.000000 0.034815
#
#
# Mechanical properties :
#
#
# Convention : Reuss Voigt Hill
#
# Bulk Modulus (GPa) = 35.64763 46.45262 41.05012
# Shear Modulus (GPa) = 32.81716 15.40041 24.10879
#
# Velocity S-wave (km/s) = 3.92920 2.69165 3.36776
# Velocity P-wave (km/s) = 6.11187 5.61367 5.86806
#
# Compressibility (1/GPa) = 0.02805236
#
# Stress axis : x y z
#
# Youngs Moduli (GPa) = 38.36794 93.21430 31.44798
#
# Poissons Ratio (x) = 0.16164 0.30696
# Poissons Ratio (y) = 0.06653 0.27591
# Poissons Ratio (z) = 0.37451 0.81783
#
# Static dielectric constant tensor:
#      x y z
#    x 1.925250 0.000000 0.000000 
#    y 0.000000 1.775010 0.000000 
#    z 0.000000 0.000000 1.752760 
# 
# From -- ./inp_files/24115.got.cif
#   From: 2010.05.17/outbox.cif.g08.bks.cpg/sg54_13_cif.got.tgz:24115.got - 2010.06.03 13:09:01.
