data_PCOD9422116
_publ_section_title
;
Structure prediction by ZEFSAII (Michael W. Deem and Ramdas Pophale) SiO2 
 PCOD9422116
Probable space group: P C C A
;
_chemical_formula_sum "Si O2"
_cell_formula_units_Z 40
_cell_length_a 27.379257
_cell_length_b 7.515383
_cell_length_c 8.917265
_cell_angle_alpha 90.000000
_cell_angle_beta 90.000000
_cell_angle_gamma 90.000000
_cell_volume 1834.866406
_symmetry_space_group_name_H-M "P C C A"
_symmetry_group_IT_number 54
_symmetry_cell_setting 'orthorhombic'
loop_
_space_group_symop_operation_xyz
x,y,z
1/2-x,-y,z
1/2+x,-y,1/2-z
-x,y,1/2-z
-x,-y,-z
1/2+x,y,-z
1/2-x,y,1/2+z
x,-y,1/2+z
loop_
_atom_site_type_symbol
_atom_site_label
_atom_site_fract_x
_atom_site_fract_y
_atom_site_fract_z
Si Si1 0.965002 0.924150 0.370674
Si Si2 0.678957 0.172066 0.151289
Si Si3 0.099298 0.871255 0.861878
Si Si4 0.255693 0.761503 0.595008
Si Si5 0.317865 0.408505 0.835043
O O1 0.924399 0.830971 0.474927
O O2 0.000000 0.824557 0.250000
O O3 0.939027 0.075677 0.268710
O O4 0.000000 0.000000 0.500000
O O5 0.707441 0.124100 0.303354
O O6 0.669436 0.383474 0.165191
O O7 0.632869 0.048020 0.124191
O O8 0.718006 0.151853 0.019797
O O9 0.134266 0.710822 0.816446
O O10 0.221212 0.655245 0.711326
O O11 0.291248 0.642743 0.490585
#
# Coordination Sequence:
#
# PCOD9422116 Si02
#       5
#     8   8   8   8   8
#     4   9  20  40  62  80 106 136 166 220 292 343
#     4  11  21  35  53  78 114 148 185 220 252 305
#     4  11  22  35  60  85 100 139 184 221 270 317
#     4  10  21  35  50  75 117 160 181 213 262 293
#     4  11  21  35  53  78 114 148 185 220 252 305
#
# _framework density 21.799954
#
# number of rings (size 3 to 8) (size 9 to 14) (size 15 to 20)
#    0.000    1.600    0.000    7.200    0.000    4.800 
#    0.000    0.000    0.000   24.000    0.000    0.000 
#    0.000    0.000    0.000    0.000    0.000    0.000 
#
# Total GULP energy -223523.569213 kJ/mol
# GULP energy per Si atom -5588.089230 kJ/mol
# Density = 2.175034 g / cm^3
# Si number density = 21.799954 Si / 1000 Ang^3
#
#
#
# Elastic Constant Matrix: (Units=GPa)
#
#
# Indices 1 2 3 4 5 6 
#
# 1 104.8190 38.1186 35.0458 0.0000 0.0000 0.0000
# 2 38.1186 89.9971 19.8100 0.0000 0.0000 0.0000
# 3 35.0458 19.8100 138.4423 0.0000 0.0000 0.0000
# 4 0.0000 0.0000 0.0000 28.1738 0.0000 0.0000
# 5 0.0000 0.0000 0.0000 0.0000 28.7439 0.0000
# 6 0.0000 0.0000 0.0000 0.0000 0.0000 12.9212
#
#
#
# Elastic Compliance Matrix: (Units=1/GPa)
#
#
# Indices 1 2 3 4 5 6 
#
# 1 0.011994 -0.004555 -0.002384 0.000000 0.000000 0.000000
# 2 -0.004555 0.013203 -0.000736 0.000000 0.000000 0.000000
# 3 -0.002384 -0.000736 0.007932 0.000000 0.000000 0.000000
# 4 0.000000 0.000000 0.000000 0.035494 0.000000 0.000000
# 5 0.000000 0.000000 0.000000 0.000000 0.034790 0.000000
# 6 0.000000 0.000000 0.000000 0.000000 0.000000 0.077392
#
#
# Mechanical properties :
#
#
# Convention : Reuss Voigt Hill
#
# Bulk Modulus (GPa) = 56.25064 57.68969 56.97016
# Shear Modulus (GPa) = 24.74236 29.98670 27.36453
#
# Velocity S-wave (km/s) = 3.37259 3.71285 3.54680
# Velocity P-wave (km/s) = 6.40507 6.70082 6.55461
#
# Compressibility (1/GPa) = 0.01777758
#
# Stress axis : x y z
#
# Youngs Moduli (GPa) = 83.37469 75.74092 126.06918
#
# Poissons Ratio (x) = 0.34502 0.30060
# Poissons Ratio (y) = 0.37979 0.09280
# Poissons Ratio (z) = 0.19880 0.05575
#
# Static dielectric constant tensor:
#      x y z
#    x 1.843300 0.000000 0.000000 
#    y 0.000000 1.897270 0.000000 
#    z 0.000000 0.000000 1.832950 
# 
# From -- ./inp_files/5446.got.cif
#   From: 2010.05.17/outbox.cif.g08.bks.cpg/sg54_3_cif.got.tgz:5446.got - 2010.06.03 13:09:01.
