data_PCOD9422582
_publ_section_title
;
Structure prediction by ZEFSAII (Michael W. Deem and Ramdas Pophale) SiO2 
 PCOD9422582
Probable space group: P C C A
;
_chemical_formula_sum "Si O2"
_cell_formula_units_Z 40
_cell_length_a 4.971673
_cell_length_b 27.381541
_cell_length_c 13.211092
_cell_angle_alpha 90.000000
_cell_angle_beta 90.000000
_cell_angle_gamma 90.000000
_cell_volume 1798.453276
_symmetry_space_group_name_H-M "P C C A"
_symmetry_group_IT_number 54
_symmetry_cell_setting 'orthorhombic'
loop_
_space_group_symop_operation_xyz
x,y,z
1/2-x,-y,z
1/2+x,-y,1/2-z
-x,y,1/2-z
-x,-y,-z
1/2+x,y,-z
1/2-x,y,1/2+z
x,-y,1/2+z
loop_
_atom_site_type_symbol
_atom_site_label
_atom_site_fract_x
_atom_site_fract_y
_atom_site_fract_z
Si Si1 0.545269 0.214803 0.567378
Si Si2 0.500000 0.033749 0.750000
Si Si3 0.000000 0.532862 0.250000
Si Si4 0.786045 0.595862 0.063541
Si Si5 0.261336 0.309416 0.817948
Si Si6 0.342030 0.894339 0.429703
O O1 0.237539 0.218476 0.531794
O O2 0.627470 0.258767 0.639037
O O3 0.608499 0.160936 0.609378
O O4 0.593194 0.067267 0.656831
O O5 0.750000 0.000000 0.781037
O O6 0.250000 0.500000 0.214231
O O7 0.115835 0.565724 0.340236
O O8 0.806586 0.652858 0.093193
O O9 0.484408 0.585161 0.029369
O O10 0.500000 0.332157 0.750000
O O11 0.000000 0.301897 0.750000
O O12 0.545085 0.899716 0.524691
#
# Coordination Sequence:
#
# PCOD9422582 Si02
#       6
#     8   4   4   8   8   8
#     4  10  21  41  63  94 132 174 221 265 327 405
#     4  12  26  42  66  98 126 170 228 276 334 394
#     4  12  28  48  74 104 140 176 234 296 336 402
#     4  12  26  46  74 102 140 183 226 278 342 405
#     4  12  24  40  67 103 139 180 222 274 333 397
#     4  10  23  43  66  94 132 171 215 273 333 393
#
# _framework density 22.241336
#
# number of rings (size 3 to 8) (size 9 to 14) (size 15 to 20)
#    0.000    0.800    1.000    6.000    2.800    4.800 
#    1.800    0.000    0.000    0.000    0.000    0.000 
#    0.000    0.000    0.000    0.000    0.000    0.000 
#
# Total GULP energy -224105.758179 kJ/mol
# GULP energy per Si atom -5602.643954 kJ/mol
# Density = 2.219071 g / cm^3
# Si number density = 22.241336 Si / 1000 Ang^3
#
#
#
# Elastic Constant Matrix: (Units=GPa)
#
#
# Indices 1 2 3 4 5 6 
#
# 1 88.3897 21.0173 2.0213 0.0000 0.0000 0.0000
# 2 21.0173 107.5586 38.4059 0.0000 0.0000 0.0000
# 3 2.0213 38.4059 53.9144 0.0000 0.0000 0.0000
# 4 0.0000 0.0000 0.0000 16.7651 0.0000 0.0000
# 5 0.0000 0.0000 0.0000 0.0000 33.0633 0.0000
# 6 0.0000 0.0000 0.0000 0.0000 0.0000 35.5704
#
#
#
# Elastic Compliance Matrix: (Units=1/GPa)
#
#
# Indices 1 2 3 4 5 6 
#
# 1 0.011971 -0.002922 0.001633 0.000000 0.000000 0.000000
# 2 -0.002922 0.013182 -0.009281 0.000000 0.000000 0.000000
# 3 0.001633 -0.009281 0.025098 0.000000 0.000000 0.000000
# 4 0.000000 0.000000 0.000000 0.059648 0.000000 0.000000
# 5 0.000000 0.000000 0.000000 0.000000 0.030245 0.000000
# 6 0.000000 0.000000 0.000000 0.000000 0.000000 0.028113
#
#
# Mechanical properties :
#
#
# Convention : Reuss Voigt Hill
#
# Bulk Modulus (GPa) = 34.35158 41.41688 37.88423
# Shear Modulus (GPa) = 25.11290 29.64097 27.37693
#
# Velocity S-wave (km/s) = 3.36387 3.65457 3.51223
# Velocity P-wave (km/s) = 5.52865 6.03903 5.78947
#
# Compressibility (1/GPa) = 0.02911074
#
# Stress axis : x y z
#
# Youngs Moduli (GPa) = 83.53497 75.86025 39.84412
#
# Poissons Ratio (x) = 0.22168 -0.06506
# Poissons Ratio (y) = 0.24411 0.36978
# Poissons Ratio (z) = -0.13640 0.70404
#
# Static dielectric constant tensor:
#      x y z
#    x 1.775960 0.000000 0.000000 
#    y 0.000000 1.806280 0.000000 
#    z 0.000000 0.000000 1.802100 
# 
# From -- ./inp_files/6461.got.cif
#   From: 2010.05.17/outbox.cif.g08.bks.cpg/sg54_4_cif.got.tgz:6461.got - 2010.06.03 13:09:01.
