data_PCOD9422680
_publ_section_title
;
Structure prediction by ZEFSAII (Michael W. Deem and Ramdas Pophale) SiO2 
 PCOD9422680
Probable space group: P C C A
;
_chemical_formula_sum "Si O2"
_cell_formula_units_Z 64
_cell_length_a 14.478786
_cell_length_b 9.273697
_cell_length_c 23.135187
_cell_angle_alpha 90.000000
_cell_angle_beta 90.000000
_cell_angle_gamma 90.000000
_cell_volume 3106.404921
_symmetry_space_group_name_H-M "P C C A"
_symmetry_group_IT_number 54
_symmetry_cell_setting 'orthorhombic'
loop_
_space_group_symop_operation_xyz
x,y,z
1/2-x,-y,z
1/2+x,-y,1/2-z
-x,y,1/2-z
-x,-y,-z
1/2+x,y,-z
1/2-x,y,1/2+z
x,-y,1/2+z
loop_
_atom_site_type_symbol
_atom_site_label
_atom_site_fract_x
_atom_site_fract_y
_atom_site_fract_z
Si Si1 0.739521 0.670471 0.192520
Si Si2 0.813146 0.874083 0.919965
Si Si3 0.029539 0.960204 0.140133
Si Si4 0.027817 0.256321 0.314596
Si Si5 0.907732 0.700213 0.108889
Si Si6 0.188477 0.245089 0.683841
Si Si7 0.843829 0.584340 0.988735
Si Si8 0.073369 0.507999 0.128810
O O1 0.750000 0.500000 0.201947
O O2 0.634292 0.703284 0.175464
O O3 0.811628 0.710972 0.142421
O O4 0.769424 0.746306 0.252443
O O5 0.908428 0.952457 0.905446
O O6 0.762839 0.818759 0.861243
O O7 0.820346 0.737314 0.960248
O O8 0.750000 0.000000 0.945969
O O9 0.982641 0.085692 0.176860
O O10 0.100427 0.861753 0.177397
O O11 0.957725 0.854564 0.108994
O O12 0.000000 0.297097 0.250000
O O13 0.954721 0.346924 0.352924
O O14 0.980365 0.597179 0.141543
O O15 0.895452 0.623379 0.047417
O O16 0.152994 0.403289 0.662466
O O17 0.750000 0.500000 0.002290
O O18 0.898028 0.496901 0.938634
#
# Coordination Sequence:
#
# PCOD9422680 Si02
#       8
#     8   8   8   8   8   8   8   8
#     4  12  25  43  69 101 142 174 224 284 344 407
#     4  10  21  43  66 102 131 171 224 285 334 396
#     4  10  24  45  66  93 141 176 223 271 342 414
#     4  12  25  41  69 101 138 178 227 280 340 415
#     4  11  27  47  63 100 138 184 219 277 348 407
#     4  10  23  42  72  98 132 174 223 279 345 399
#     4  12  24  43  74  97 130 176 235 285 329 406
#     4  11  23  44  71 101 129 178 229 283 337 400
#
# _framework density 20.602594
#
# number of rings (size 3 to 8) (size 9 to 14) (size 15 to 20)
#    0.000    1.000    3.750    2.250    3.500    2.000 
#    2.250    0.000    0.000    0.000    0.000    0.000 
#    0.000    0.000    0.000    0.000    0.000    0.000 
#
# Total GULP energy -357647.198103 kJ/mol
# GULP energy per Si atom -5588.237470 kJ/mol
# Density = 2.055570 g / cm^3
# Si number density = 20.602594 Si / 1000 Ang^3
#
#
#
# Elastic Constant Matrix: (Units=GPa)
#
#
# Indices 1 2 3 4 5 6 
#
# 1 98.7309 40.2198 8.0786 0.0000 0.0000 0.0000
# 2 40.2198 102.7680 -4.9878 0.0000 0.0000 0.0000
# 3 8.0786 -4.9878 36.1177 0.0000 0.0000 0.0000
# 4 0.0000 0.0000 0.0000 3.1654 0.0000 0.0000
# 5 0.0000 0.0000 0.0000 0.0000 25.3128 0.0000
# 6 0.0000 0.0000 0.0000 0.0000 0.0000 35.5833
#
#
#
# Elastic Compliance Matrix: (Units=1/GPa)
#
#
# Indices 1 2 3 4 5 6 
#
# 1 0.012471 -0.005050 -0.003487 0.000000 0.000000 0.000000
# 2 -0.005050 0.011841 0.002765 0.000000 0.000000 0.000000
# 3 -0.003487 0.002765 0.028849 0.000000 0.000000 0.000000
# 4 0.000000 0.000000 0.000000 0.315913 0.000000 0.000000
# 5 0.000000 0.000000 0.000000 0.000000 0.039506 0.000000
# 6 0.000000 0.000000 0.000000 0.000000 0.000000 0.028103
#
#
# Mechanical properties :
#
#
# Convention : Reuss Voigt Hill
#
# Bulk Modulus (GPa) = 24.02851 36.02642 30.02747
# Shear Modulus (GPa) = 10.82018 25.76605 18.29312
#
# Velocity S-wave (km/s) = 2.29418 3.54025 2.98300
# Velocity P-wave (km/s) = 4.32503 5.85111 5.14496
#
# Compressibility (1/GPa) = 0.04161722
#
# Stress axis : x y z
#
# Youngs Moduli (GPa) = 80.18578 84.45073 34.66329
#
# Poissons Ratio (x) = 0.42647 0.12087
# Poissons Ratio (y) = 0.40493 -0.09584
# Poissons Ratio (z) = 0.27960 -0.23349
#
# Static dielectric constant tensor:
#      x y z
#    x 1.769240 0.000000 0.000000 
#    y 0.000000 1.705660 0.000000 
#    z 0.000000 0.000000 1.713830 
# 
# From -- ./inp_files/24534.got.cif
#   From: 2010.05.17/outbox.cif.g08.bks.cpg/sg54_13_cif.got.tgz:24534.got - 2010.06.03 13:09:01.
