data_PCOD9423122
_publ_section_title
;
Structure prediction by ZEFSAII (Michael W. Deem and Ramdas Pophale) SiO2 
 PCOD9423122
Probable space group: P C C A
;
_chemical_formula_sum "Si O2"
_cell_formula_units_Z 16
_cell_length_a 5.091874
_cell_length_b 12.077205
_cell_length_c 9.445511
_cell_angle_alpha 90.000000
_cell_angle_beta 90.000000
_cell_angle_gamma 90.000000
_cell_volume 580.857424
_symmetry_space_group_name_H-M "P C C A"
_symmetry_group_IT_number 54
_symmetry_cell_setting 'orthorhombic'
loop_
_space_group_symop_operation_xyz
x,y,z
1/2-x,-y,z
1/2+x,-y,1/2-z
-x,y,1/2-z
-x,-y,-z
1/2+x,y,-z
1/2-x,y,1/2+z
x,-y,1/2+z
loop_
_atom_site_type_symbol
_atom_site_label
_atom_site_fract_x
_atom_site_fract_y
_atom_site_fract_z
Si Si1 0.750000 0.500000 0.165891
Si Si2 0.195056 0.879638 0.594723
Si Si3 0.000000 0.301879 0.750000
O O1 0.500000 0.549761 0.250000
O O2 0.599410 0.386597 0.123894
O O3 0.403534 0.875268 0.465544
O O4 0.279151 0.777983 0.690855
O O5 0.250000 0.000000 0.661827
#
# Coordination Sequence:
#
# PCOD9423122 Si02
#       3
#     4   8   4
#     4   8  20  36  60  90 116 158 216 238 288 384
#     4  10  24  40  60  93 121 156 209 247 297 373
#     4  10  22  42  66  82 132 164 192 262 312 336
#
# _framework density 27.545484999999999
#
# number of rings (size 3 to 8) (size 9 to 14) (size 15 to 20)
#    1.500    1.000    0.000    0.000    7.000    6.000 
#    0.000    7.500    0.000    0.000    0.000    0.000 
#    0.000    0.000    0.000    0.000    0.000    0.000 
#
# Total GULP energy -89114.836530 kJ/mol
# GULP energy per Si atom -5569.677283 kJ/mol
# Density = 2.748279 g / cm^3
# Si number density = 27.545485 Si / 1000 Ang^3
#
#
#
# Elastic Constant Matrix: (Units=GPa)
#
#
# Indices 1 2 3 4 5 6 
#
# 1 136.0357 14.8760 41.5655 0.0000 0.0000 0.0000
# 2 14.8760 253.8850 48.8216 0.0000 0.0000 0.0000
# 3 41.5655 48.8216 56.7954 0.0000 0.0000 0.0000
# 4 0.0000 0.0000 0.0000 -9.3095 0.0000 0.0000
# 5 0.0000 0.0000 0.0000 0.0000 43.6953 0.0000
# 6 0.0000 0.0000 0.0000 0.0000 0.0000 58.7330
#
#
#
# Elastic Compliance Matrix: (Units=1/GPa)
#
#
# Indices 1 2 3 4 5 6 
#
# 1 0.009656 0.000950 -0.007883 0.000000 0.000000 0.000000
# 2 0.000950 0.004812 -0.004832 0.000000 0.000000 0.000000
# 3 -0.007883 -0.004832 0.027530 0.000000 0.000000 0.000000
# 4 0.000000 0.000000 0.000000 -0.107417 0.000000 0.000000
# 5 0.000000 0.000000 0.000000 0.000000 0.022886 0.000000
# 6 0.000000 0.000000 0.000000 0.000000 0.000000 0.017026
#
#
# Mechanical properties :
#
#
# Convention : Reuss Voigt Hill
#
# Bulk Modulus (GPa) = 54.14835 73.02691 63.58763
# Shear Modulus (GPa) = 1196.33736 41.38731 618.86233
#
# Velocity S-wave (km/s) = 20.86280 3.88042 15.00523
# Velocity P-wave (km/s) = 24.49576 6.82978 17.98177
#
# Compressibility (1/GPa) = 0.01846778
#
# Stress axis : x y z
#
# Youngs Moduli (GPa) = 103.56395 207.80020 36.32377
#
# Poissons Ratio (x) = -0.19745 0.28635
# Poissons Ratio (y) = -0.09841 0.17552
# Poissons Ratio (z) = 0.81644 1.00411
#
# Static dielectric constant tensor:
#      x y z
#    x 1.800870 0.000000 0.000000 
#    y 0.000000 2.102910 0.000000 
#    z 0.000000 0.000000 2.472840 
# 
# From -- ./inp_files/6051.got.cif
#   From: 2010.05.17/outbox.cif.g08.bks.cpg/sg54_4_cif.got.tgz:6051.got - 2010.06.03 13:09:01.
