data_PCOD9423813
_publ_section_title
;
Structure prediction by ZEFSAII (Michael W. Deem and Ramdas Pophale) SiO2 
 PCOD9423813
Probable space group: P C C A
;
_chemical_formula_sum "Si O2"
_cell_formula_units_Z 56
_cell_length_a 10.795053
_cell_length_b 17.091331
_cell_length_c 12.791986
_cell_angle_alpha 90.000000
_cell_angle_beta 90.000000
_cell_angle_gamma 90.000000
_cell_volume 2360.144749
_symmetry_space_group_name_H-M "P C C A"
_symmetry_group_IT_number 54
_symmetry_cell_setting 'orthorhombic'
loop_
_space_group_symop_operation_xyz
x,y,z
1/2-x,-y,z
1/2+x,-y,1/2-z
-x,y,1/2-z
-x,-y,-z
1/2+x,y,-z
1/2-x,y,1/2+z
x,-y,1/2+z
loop_
_atom_site_type_symbol
_atom_site_label
_atom_site_fract_x
_atom_site_fract_y
_atom_site_fract_z
Si Si1 0.969813 0.736054 0.373878
Si Si2 0.934759 0.580007 0.465806
Si Si3 0.259503 0.207260 0.244082
Si Si4 0.371749 0.640999 0.309290
Si Si5 0.750000 0.500000 0.310644
Si Si6 0.584485 0.882210 0.583524
Si Si7 0.500000 0.877781 0.250000
Si Si8 0.117080 0.009972 0.102429
O O1 0.004156 0.648383 0.403848
O O2 0.827517 0.766558 0.363711
O O3 0.000000 0.745586 0.250000
O O4 0.041165 0.795393 0.449974
O O5 0.892324 0.623706 0.569757
O O6 0.828665 0.554396 0.386903
O O7 0.000000 0.500000 0.500000
O O8 0.229840 0.290977 0.297908
O O9 0.334554 0.143496 0.315397
O O10 0.123974 0.170622 0.235834
O O11 0.500000 0.662486 0.250000
O O12 0.329498 0.558898 0.258811
O O13 0.649913 0.939745 0.501781
O O14 0.454427 0.927912 0.600374
O O15 0.490223 0.936373 0.152803
O O16 0.250000 0.000000 0.157898
#
# Coordination Sequence:
#
# PCOD9423813 Si02
#       8
#     8   8   8   8   4   8   4   8
#     4  10  24  46  76 109 148 199 258 316 380 470
#     4  12  27  44  78 106 147 200 252 320 388 455
#     4  11  25  47  72 106 152 198 245 316 378 453
#     4  12  26  47  73 109 156 193 256 321 387 465
#     4  12  26  50  72 108 148 198 258 312 394 458
#     4  10  26  47  75 105 147 194 245 306 383 450
#     4  12  28  40  76 104 148 196 246 306 376 448
#     4  11  27  47  74 110 148 193 250 313 378 463
#
# _framework density 23.727359
#
# number of rings (size 3 to 8) (size 9 to 14) (size 15 to 20)
#    0.000    0.857    3.571    1.286   13.000    3.429 
#    0.000    0.000    0.000    0.000    0.000    0.000 
#    0.000    0.000    0.000    0.000    0.000    0.000 
#
# Total GULP energy -312292.882626 kJ/mol
# GULP energy per Si atom -5576.658618 kJ/mol
# Density = 2.367335 g / cm^3
# Si number density = 23.727359 Si / 1000 Ang^3
#
#
#
# Elastic Constant Matrix: (Units=GPa)
#
#
# Indices 1 2 3 4 5 6 
#
# 1 67.6241 23.4717 -2.3371 0.0000 0.0000 0.0000
# 2 23.4717 149.7001 16.7655 0.0000 0.0000 0.0000
# 3 -2.3371 16.7655 63.4545 0.0000 0.0000 0.0000
# 4 0.0000 0.0000 0.0000 61.2950 0.0000 0.0000
# 5 0.0000 0.0000 0.0000 0.0000 15.1307 0.0000
# 6 0.0000 0.0000 0.0000 0.0000 0.0000 78.3513
#
#
#
# Elastic Compliance Matrix: (Units=1/GPa)
#
#
# Indices 1 2 3 4 5 6 
#
# 1 0.015737 -0.002610 0.001269 0.000000 0.000000 0.000000
# 2 -0.002610 0.007316 -0.002029 0.000000 0.000000 0.000000
# 3 0.001269 -0.002029 0.016342 0.000000 0.000000 0.000000
# 4 0.000000 0.000000 0.000000 0.016315 0.000000 0.000000
# 5 0.000000 0.000000 0.000000 0.000000 0.066091 0.000000
# 6 0.000000 0.000000 0.000000 0.000000 0.000000 0.012763
#
#
# Mechanical properties :
#
#
# Convention : Reuss Voigt Hill
#
# Bulk Modulus (GPa) = 30.62180 39.61990 35.12085
# Shear Modulus (GPa) = 32.85387 47.14731 40.00059
#
# Velocity S-wave (km/s) = 3.72511 4.46246 4.11036
# Velocity P-wave (km/s) = 5.60675 6.57918 6.11234
#
# Compressibility (1/GPa) = 0.03265647
#
# Stress axis : x y z
#
# Youngs Moduli (GPa) = 63.54347 136.67835 61.19128
#
# Poissons Ratio (x) = 0.35668 -0.07766
# Poissons Ratio (y) = 0.16582 0.12417
# Poissons Ratio (z) = -0.08064 0.27735
#
# Static dielectric constant tensor:
#      x y z
#    x 2.049010 0.000000 0.000000 
#    y 0.000000 1.599840 0.000000 
#    z 0.000000 0.000000 2.530540 
# 
# From -- ./inp_files/12770.got.cif
#   From: 2010.05.17/outbox.cif.g08.bks.cpg/sg54_7_cif.got.tgz:12770.got - 2010.06.03 13:09:01.
