data_PCOD9423809
_publ_section_title
;
Structure prediction by ZEFSAII (Michael W. Deem and Ramdas Pophale) SiO2 
 PCOD9423809
Probable space group: P C C A
;
_chemical_formula_sum "Si O2"
_cell_formula_units_Z 28
_cell_length_a 21.890905
_cell_length_b 5.543362
_cell_length_c 8.752447
_cell_angle_alpha 90.000000
_cell_angle_beta 90.000000
_cell_angle_gamma 90.000000
_cell_volume 1062.102537
_symmetry_space_group_name_H-M "P C C A"
_symmetry_group_IT_number 54
_symmetry_cell_setting 'orthorhombic'
loop_
_space_group_symop_operation_xyz
x,y,z
1/2-x,-y,z
1/2+x,-y,1/2-z
-x,y,1/2-z
-x,-y,-z
1/2+x,y,-z
1/2-x,y,1/2+z
x,-y,1/2+z
loop_
_atom_site_type_symbol
_atom_site_label
_atom_site_fract_x
_atom_site_fract_y
_atom_site_fract_z
Si Si1 0.750000 0.000000 0.914909
Si Si2 0.566515 0.505164 0.801785
Si Si3 0.831691 0.202419 0.650361
Si Si4 0.440862 0.134325 0.930106
O O1 0.697895 0.914005 0.800234
O O2 0.777252 0.792268 0.026278
O O3 0.500000 0.609107 0.750000
O O4 0.629049 0.581333 0.719477
O O5 0.560018 0.229582 0.745950
O O6 0.431168 0.621649 0.530499
O O7 0.883296 0.040849 0.568659
O O8 0.500000 0.000000 0.000000
#
# Coordination Sequence:
#
# PCOD9423809 Si02
#       4
#     4   8   8   8
#     4  10  24  46  76 102 152 218 258 318 372 442
#     4  12  27  45  76 115 151 201 253 312 403 466
#     4  11  24  48  74 106 154 204 259 320 375 457
#     4  12  28  48  76 116 160 195 252 328 394 472
#
# _framework density 26.362803
#
# number of rings (size 3 to 8) (size 9 to 14) (size 15 to 20)
#    0.000    0.571    5.714    0.857    8.000    0.000 
#    0.000    8.571    0.000    0.000    0.000    0.000 
#    0.000    0.000    0.000    0.000    0.000    0.000 
#
# Total GULP energy -156203.012641 kJ/mol
# GULP energy per Si atom -5578.679023 kJ/mol
# Density = 2.630280 g / cm^3
# Si number density = 26.362803 Si / 1000 Ang^3
#
#
#
# Elastic Constant Matrix: (Units=GPa)
#
#
# Indices 1 2 3 4 5 6 
#
# 1 139.5623 28.4797 44.1351 0.0000 0.0000 0.0000
# 2 28.4797 57.1842 38.7039 0.0000 0.0000 0.0000
# 3 44.1351 38.7039 146.8135 0.0000 0.0000 0.0000
# 4 0.0000 0.0000 0.0000 38.5923 0.0000 0.0000
# 5 0.0000 0.0000 0.0000 0.0000 54.2803 0.0000
# 6 0.0000 0.0000 0.0000 0.0000 0.0000 20.4186
#
#
#
# Elastic Compliance Matrix: (Units=1/GPa)
#
#
# Indices 1 2 3 4 5 6 
#
# 1 0.008316 -0.002982 -0.001714 0.000000 0.000000 0.000000
# 2 -0.002982 0.022354 -0.004997 0.000000 0.000000 0.000000
# 3 -0.001714 -0.004997 0.008644 0.000000 0.000000 0.000000
# 4 0.000000 0.000000 0.000000 0.025912 0.000000 0.000000
# 5 0.000000 0.000000 0.000000 0.000000 0.018423 0.000000
# 6 0.000000 0.000000 0.000000 0.000000 0.000000 0.048975
#
#
# Mechanical properties :
#
#
# Convention : Reuss Voigt Hill
#
# Bulk Modulus (GPa) = 50.17722 62.91084 56.54403
# Shear Modulus (GPa) = 31.51569 38.14100 34.82835
#
# Velocity S-wave (km/s) = 3.46129 3.80777 3.63866
# Velocity P-wave (km/s) = 5.92020 6.57628 6.25685
#
# Compressibility (1/GPa) = 0.01992936
#
# Stress axis : x y z
#
# Youngs Moduli (GPa) = 120.25498 44.73418 115.68869
#
# Poissons Ratio (x) = 0.13338 0.19827
# Poissons Ratio (y) = 0.35854 0.57808
# Poissons Ratio (z) = 0.20610 0.22353
#
# Static dielectric constant tensor:
#      x y z
#    x 2.144180 0.000000 0.000000 
#    y 0.000000 2.130080 0.000000 
#    z 0.000000 0.000000 2.090030 
# 
# From -- ./inp_files/9171.got.cif
#   From: 2010.05.17/outbox.cif.g08.bks.cpg/sg54_5_cif.got.tgz:9171.got - 2010.06.03 13:09:01.
