data_PCOD9423999
_publ_section_title
;
Structure prediction by ZEFSAII (Michael W. Deem and Ramdas Pophale) SiO2 
 PCOD9423999
Probable space group: P C C A
;
_chemical_formula_sum "Si O2"
_cell_formula_units_Z 36
_cell_length_a 12.092174
_cell_length_b 5.025560
_cell_length_c 24.033067
_cell_angle_alpha 90.000000
_cell_angle_beta 90.000000
_cell_angle_gamma 90.000000
_cell_volume 1460.488183
_symmetry_space_group_name_H-M "P C C A"
_symmetry_group_IT_number 54
_symmetry_cell_setting 'orthorhombic'
loop_
_space_group_symop_operation_xyz
x,y,z
1/2-x,-y,z
1/2+x,-y,1/2-z
-x,y,1/2-z
-x,-y,-z
1/2+x,y,-z
1/2-x,y,1/2+z
x,-y,1/2+z
loop_
_atom_site_type_symbol
_atom_site_label
_atom_site_fract_x
_atom_site_fract_y
_atom_site_fract_z
Si Si1 0.531458 0.775964 0.373566
Si Si2 0.750000 0.500000 0.179226
Si Si3 0.583841 0.711279 0.587203
Si Si4 0.250000 0.000000 0.079011
Si Si5 0.750000 0.000000 0.747391
Si Si6 0.500000 0.938871 0.250000
Si Si7 0.250000 0.500000 0.004686
O O1 0.452099 0.983763 0.406799
O O2 0.502069 0.781111 0.308780
O O3 0.516478 0.489367 0.401093
O O4 0.653971 0.883378 0.382799
O O5 0.835553 0.643143 0.138262
O O6 0.710801 0.733958 0.218030
O O7 0.651171 0.621013 0.533038
O O8 0.287267 0.245715 0.040483
O O9 0.618758 0.904283 0.760677
#
# Coordination Sequence:
#
# PCOD9423999 Si02
#       7
#     8   4   8   4   4   4   4
#     4  12  26  44  72 102 149 187 245 295 368 436
#     4  11  20  44  65 100 130 177 240 304 323 422
#     4  11  23  44  74 102 131 189 247 302 341 441
#     4  12  27  47  64 110 146 184 229 311 382 438
#     4  12  25  41  74  98 148 188 249 285 366 414
#     4  12  26  48  72 112 146 208 230 314 352 450
#     4  11  26  46  75 102 144 181 246 304 381 430
#
# _framework density 24.649293
#
# number of rings (size 3 to 8) (size 9 to 14) (size 15 to 20)
#    0.000    0.444    4.444    3.333    0.000   12.444 
#    0.000    2.222    0.000    0.000    0.000    0.000 
#    0.000    0.000    0.000    0.000    0.000    0.000 
#
# Total GULP energy -200736.143160 kJ/mol
# GULP energy per Si atom -5576.003977 kJ/mol
# Density = 2.459319 g / cm^3
# Si number density = 24.649293 Si / 1000 Ang^3
#
#
#
# Elastic Constant Matrix: (Units=GPa)
#
#
# Indices 1 2 3 4 5 6 
#
# 1 116.9705 -23.5345 22.4973 0.0000 0.0000 0.0000
# 2 -23.5345 90.5063 27.7343 0.0000 0.0000 0.0000
# 3 22.4973 27.7343 105.3237 0.0000 0.0000 0.0000
# 4 0.0000 0.0000 0.0000 48.8663 0.0000 0.0000
# 5 0.0000 0.0000 0.0000 0.0000 -17.5403 0.0000
# 6 0.0000 0.0000 0.0000 0.0000 0.0000 37.6497
#
#
#
# Elastic Compliance Matrix: (Units=1/GPa)
#
#
# Indices 1 2 3 4 5 6 
#
# 1 0.009829 0.003480 -0.003016 0.000000 0.000000 0.000000
# 2 0.003480 0.013251 -0.004233 0.000000 0.000000 0.000000
# 3 -0.003016 -0.004233 0.011253 0.000000 0.000000 0.000000
# 4 0.000000 0.000000 0.000000 0.020464 0.000000 0.000000
# 5 0.000000 0.000000 0.000000 0.000000 -0.057011 0.000000
# 6 0.000000 0.000000 0.000000 0.000000 0.000000 0.026561
#
#
# Mechanical properties :
#
#
# Convention : Reuss Voigt Hill
#
# Bulk Modulus (GPa) = 37.31797 40.68829 39.00313
# Shear Modulus (GPa) = 122.50079 32.86871 77.68475
#
# Velocity S-wave (km/s) = 7.05729 3.65561 5.62000
# Velocity P-wave (km/s) = 9.03214 5.86180 7.61381
#
# Compressibility (1/GPa) = 0.02679674
#
# Stress axis : x y z
#
# Youngs Moduli (GPa) = 101.73507 75.46636 88.86271
#
# Poissons Ratio (x) = -0.26264 0.26801
# Poissons Ratio (y) = -0.35406 0.37613
# Poissons Ratio (z) = 0.30683 0.31942
#
# Static dielectric constant tensor:
#      x y z
#    x 2.233700 0.000000 0.000000 
#    y 0.000000 1.895990 0.000000 
#    z 0.000000 0.000000 1.973690 
# 
# From -- ./inp_files/23933.got.cif
#   From: 2010.05.17/outbox.cif.g08.bks.cpg/sg54_12_cif.got.tgz:23933.got - 2010.06.03 13:09:01.
