data_PCOD9423035
_publ_section_title
;
Structure prediction by ZEFSAII (Michael W. Deem and Ramdas Pophale) SiO2 
 PCOD9423035
Probable space group: P C C A
;
_chemical_formula_sum "Si O2"
_cell_formula_units_Z 40
_cell_length_a 5.226634
_cell_length_b 18.659585
_cell_length_c 18.849029
_cell_angle_alpha 90.000000
_cell_angle_beta 90.000000
_cell_angle_gamma 90.000000
_cell_volume 1838.285885
_symmetry_space_group_name_H-M "P C C A"
_symmetry_group_IT_number 54
_symmetry_cell_setting 'orthorhombic'
loop_
_space_group_symop_operation_xyz
x,y,z
1/2-x,-y,z
1/2+x,-y,1/2-z
-x,y,1/2-z
-x,-y,-z
1/2+x,y,-z
1/2-x,y,1/2+z
x,-y,1/2+z
loop_
_atom_site_type_symbol
_atom_site_label
_atom_site_fract_x
_atom_site_fract_y
_atom_site_fract_z
Si Si1 0.250000 0.000000 0.048436
Si Si2 0.500000 0.047412 0.250000
Si Si3 0.250000 0.500000 0.799107
Si Si4 0.663145 0.862427 0.862978
Si Si5 0.906961 0.273277 0.954185
Si Si6 0.347611 0.654710 0.823464
Si Si7 0.000000 0.227660 0.250000
O O1 0.215200 0.071021 0.096012
O O2 0.500000 0.000000 0.000000
O O3 0.554651 0.098571 0.183075
O O4 0.250000 0.000000 0.238079
O O5 0.500000 0.499125 0.750000
O O6 0.237986 0.575855 0.839644
O O7 0.573304 0.806053 0.921066
O O8 0.830432 0.820788 0.803406
O O9 0.969719 0.323315 0.887499
O O10 0.127968 0.283541 0.012520
O O11 0.500000 0.647984 0.750000
O O12 0.153246 0.718909 0.803479
#
# Coordination Sequence:
#
# PCOD9423035 Si02
#       7
#     4   4   4   8   8   8   4
#     4  12  30  48  68  92 136 192 240 296 368 446
#     4  12  27  46  72 101 130 174 232 312 371 424
#     4  10  22  40  76 110 150 190 244 304 362 430
#     4  12  26  47  72 101 139 185 245 303 374 437
#     4  12  27  46  71 105 149 194 241 297 369 440
#     4  11  23  46  74 113 146 196 248 306 360 446
#     4  12  23  46  76 113 140 190 244 320 379 434
#
# _framework density 21.759401
#
# number of rings (size 3 to 8) (size 9 to 14) (size 15 to 20)
#    0.000    0.400    4.000    4.200    1.400    3.200 
#    0.000    1.000    0.000    0.000    0.000    0.000 
#    0.000    0.000    0.000    0.000    0.000    0.000 
#
# Total GULP energy -223603.253778 kJ/mol
# GULP energy per Si atom -5590.081344 kJ/mol
# Density = 2.170988 g / cm^3
# Si number density = 21.759401 Si / 1000 Ang^3
#
#
#
# Elastic Constant Matrix: (Units=GPa)
#
#
# Indices 1 2 3 4 5 6 
#
# 1 83.9285 29.1870 16.8256 0.0000 0.0000 0.0000
# 2 29.1870 163.9639 45.9219 0.0000 0.0000 0.0000
# 3 16.8256 45.9219 93.7652 0.0000 0.0000 0.0000
# 4 0.0000 0.0000 0.0000 7.7527 0.0000 0.0000
# 5 0.0000 0.0000 0.0000 0.0000 41.6788 0.0000
# 6 0.0000 0.0000 0.0000 0.0000 0.0000 25.7381
#
#
#
# Elastic Compliance Matrix: (Units=1/GPa)
#
#
# Indices 1 2 3 4 5 6 
#
# 1 0.012852 -0.001903 -0.001374 0.000000 0.000000 0.000000
# 2 -0.001903 0.007350 -0.003258 0.000000 0.000000 0.000000
# 3 -0.001374 -0.003258 0.012507 0.000000 0.000000 0.000000
# 4 0.000000 0.000000 0.000000 0.128987 0.000000 0.000000
# 5 0.000000 0.000000 0.000000 0.000000 0.023993 0.000000
# 6 0.000000 0.000000 0.000000 0.000000 0.000000 0.038853
#
#
# Mechanical properties :
#
#
# Convention : Reuss Voigt Hill
#
# Bulk Modulus (GPa) = 50.91995 58.39183 54.65589
# Shear Modulus (GPa) = 20.47842 31.68214 26.08028
#
# Velocity S-wave (km/s) = 3.07111 3.81992 3.46580
# Velocity P-wave (km/s) = 6.00232 6.80803 6.41783
#
# Compressibility (1/GPa) = 0.01963867
#
# Stress axis : x y z
#
# Youngs Moduli (GPa) = 77.80791 136.05064 79.95309
#
# Poissons Ratio (x) = 0.25889 0.10988
# Poissons Ratio (y) = 0.14806 0.26051
# Poissons Ratio (z) = 0.10693 0.44330
#
# Static dielectric constant tensor:
#      x y z
#    x 1.802280 0.000000 0.000000 
#    y 0.000000 1.854220 0.000000 
#    z 0.000000 0.000000 1.799910 
# 
# From -- ./inp_files/15822.got.cif
#   From: 2010.05.17/outbox.cif.g08.bks.cpg/sg54_8_cif.got.tgz:15822.got - 2010.06.03 13:09:01.
