data_PCOD9423795
_publ_section_title
;
Structure prediction by ZEFSAII (Michael W. Deem and Ramdas Pophale) SiO2 
 PCOD9423795
Probable space group: P C C A
;
_chemical_formula_sum "Si O2"
_cell_formula_units_Z 56
_cell_length_a 19.493062
_cell_length_b 9.741344
_cell_length_c 13.818885
_cell_angle_alpha 90.000000
_cell_angle_beta 90.000000
_cell_angle_gamma 90.000000
_cell_volume 2624.049038
_symmetry_space_group_name_H-M "P C C A"
_symmetry_group_IT_number 54
_symmetry_cell_setting 'orthorhombic'
loop_
_space_group_symop_operation_xyz
x,y,z
1/2-x,-y,z
1/2+x,-y,1/2-z
-x,y,1/2-z
-x,-y,-z
1/2+x,y,-z
1/2-x,y,1/2+z
x,-y,1/2+z
loop_
_atom_site_type_symbol
_atom_site_label
_atom_site_fract_x
_atom_site_fract_y
_atom_site_fract_z
Si Si1 0.250000 0.500000 0.143030
Si Si2 0.750000 0.000000 0.076233
Si Si3 0.501253 0.579784 0.400006
Si Si4 0.844676 0.184639 0.717854
Si Si5 0.189056 0.228316 0.567248
Si Si6 0.047975 0.821944 0.997720
Si Si7 0.115291 0.500050 0.257507
Si Si8 0.031988 0.988268 0.340538
O O1 0.271296 0.371351 0.077157
O O2 0.186953 0.449161 0.211243
O O3 0.701917 0.098279 0.143370
O O4 0.784091 0.113314 0.005349
O O5 0.500000 0.500000 0.500000
O O6 0.509335 0.734868 0.440326
O O7 0.427757 0.568923 0.344701
O O8 0.559322 0.518485 0.329406
O O9 0.813339 0.168381 0.824327
O O10 0.861235 0.347396 0.708156
O O11 0.919823 0.120375 0.710607
O O12 0.110880 0.263520 0.538282
O O13 0.018892 0.910717 0.086058
O O14 0.075180 0.918853 0.912645
O O15 0.000000 0.068836 0.250000
#
# Coordination Sequence:
#
# PCOD9423795 Si02
#       8
#     4   4   8   8   8   8   8   8
#     4  10  24  46  70  98 142 196 234 296 356 440
#     4  12  26  44  68 104 138 190 236 292 354 424
#     4  11  23  43  70 103 139 179 234 304 350 437
#     4  11  23  44  69  95 138 180 230 285 356 424
#     4  11  24  46  67 102 142 185 244 292 353 441
#     4  11  24  41  68 109 135 180 245 287 365 429
#     4  10  25  44  68 102 136 190 234 288 367 424
#     4  11  23  41  71  99 139 186 224 302 361 422
#
# _framework density 21.341065
#
# number of rings (size 3 to 8) (size 9 to 14) (size 15 to 20)
#    0.000    1.143    2.857    3.000    4.000    5.714 
#    2.571    1.429    0.000    0.000    0.000    0.000 
#    0.000    0.000    0.000    0.000    0.000    0.000 
#
# Total GULP energy -311927.385302 kJ/mol
# GULP energy per Si atom -5570.131880 kJ/mol
# Density = 2.129249 g / cm^3
# Si number density = 21.341065 Si / 1000 Ang^3
#
#
#
# Elastic Constant Matrix: (Units=GPa)
#
#
# Indices 1 2 3 4 5 6 
#
# 1 72.3272 14.5882 29.4940 0.0000 0.0000 0.0000
# 2 14.5882 60.9985 46.4183 0.0000 0.0000 0.0000
# 3 29.4940 46.4183 146.9167 0.0000 0.0000 0.0000
# 4 0.0000 0.0000 0.0000 35.9431 0.0000 0.0000
# 5 0.0000 0.0000 0.0000 0.0000 -5.1264 0.0000
# 6 0.0000 0.0000 0.0000 0.0000 0.0000 39.2706
#
#
#
# Elastic Compliance Matrix: (Units=1/GPa)
#
#
# Indices 1 2 3 4 5 6 
#
# 1 0.015196 -0.001728 -0.002505 0.000000 0.000000 0.000000
# 2 -0.001728 0.021780 -0.006534 0.000000 0.000000 0.000000
# 3 -0.002505 -0.006534 0.009374 0.000000 0.000000 0.000000
# 4 0.000000 0.000000 0.000000 0.027822 0.000000 0.000000
# 5 0.000000 0.000000 0.000000 0.000000 -0.195067 0.000000
# 6 0.000000 0.000000 0.000000 0.000000 0.000000 0.025464
#
#
# Mechanical properties :
#
#
# Convention : Reuss Voigt Hill
#
# Bulk Modulus (GPa) = 40.29796 51.24924 45.77360
# Shear Modulus (GPa) = -76.19027 26.66691 -24.76168
#
# Velocity S-wave (km/s) = -5.98153 3.53874 -3.40999
# Velocity P-wave (km/s) = 5.36481 6.38463 2.44768
#
# Compressibility (1/GPa) = 0.02481515
#
# Stress axis : x y z
#
# Youngs Moduli (GPa) = 65.80683 45.91443 106.67914
#
# Poissons Ratio (x) = 0.07935 0.26719
# Poissons Ratio (y) = 0.11373 0.69708
# Poissons Ratio (z) = 0.16482 0.30002
#
# Static dielectric constant tensor:
#      x y z
#    x 2.016600 0.000000 0.000000 
#    y 0.000000 1.886670 0.000000 
#    z 0.000000 0.000000 1.767720 
# 
# From -- ./inp_files/14718.got.cif
#   From: 2010.05.17/outbox.cif.g08.bks.cpg/sg54_8_cif.got.tgz:14718.got - 2010.06.03 13:09:01.
