data_PCOD9423471
_publ_section_title
;
Structure prediction by ZEFSAII (Michael W. Deem and Ramdas Pophale) SiO2 
 PCOD9423471
Probable space group: P C C A
;
_chemical_formula_sum "Si O2"
_cell_formula_units_Z 44
_cell_length_a 13.368452
_cell_length_b 11.763414
_cell_length_c 13.710852
_cell_angle_alpha 90.000000
_cell_angle_beta 90.000000
_cell_angle_gamma 90.000000
_cell_volume 2156.149876
_symmetry_space_group_name_H-M "P C C A"
_symmetry_group_IT_number 54
_symmetry_cell_setting 'orthorhombic'
loop_
_space_group_symop_operation_xyz
x,y,z
1/2-x,-y,z
1/2+x,-y,1/2-z
-x,y,1/2-z
-x,-y,-z
1/2+x,y,-z
1/2-x,y,1/2+z
x,-y,1/2+z
loop_
_atom_site_type_symbol
_atom_site_label
_atom_site_fract_x
_atom_site_fract_y
_atom_site_fract_z
Si Si1 0.250000 0.000000 0.638511
Si Si2 0.391705 0.045048 0.800673
Si Si3 0.459798 0.550208 0.857251
Si Si4 0.561388 0.197657 0.148136
Si Si5 0.621259 0.834660 0.994640
Si Si6 0.655977 0.420738 0.492156
O O1 0.182881 0.926955 0.712908
O O2 0.319177 0.924211 0.570614
O O3 0.500000 0.045084 0.750000
O O4 0.371828 0.914825 0.838854
O O5 0.387964 0.123806 0.894820
O O6 0.500000 0.526866 0.750000
O O7 0.402816 0.672645 0.862906
O O8 0.561225 0.558974 0.921035
O O9 0.386770 0.457301 0.902484
O O10 0.500000 0.202975 0.250000
O O11 0.486766 0.175835 0.057756
O O12 0.675548 0.713139 0.989096
O O13 0.750000 0.500000 0.467299
#
# Coordination Sequence:
#
# PCOD9423471 Si02
#       6
#     4   8   8   8   8   8
#     4  12  24  40  62  96 128 168 216 248 316 394
#     4  11  23  41  64  97 130 167 213 255 318 383
#     4   9  20  40  68  91 122 165 212 257 310 381
#     4   9  17  38  68  89 123 168 203 247 319 371
#     4  11  23  42  62  91 130 165 209 267 311 369
#     4  10  23  43  60  93 125 163 211 260 321 370
#
# _framework density 20.406745000000001
#
# number of rings (size 3 to 8) (size 9 to 14) (size 15 to 20)
#    0.000    1.818    3.636    1.091    0.000    4.364 
#    9.818    0.000    0.000    0.000    0.000    0.000 
#    0.000    0.000    0.000    0.000    0.000    0.000 
#
# Total GULP energy -245555.289964 kJ/mol
# GULP energy per Si atom -5580.802045 kJ/mol
# Density = 2.036030 g / cm^3
# Si number density = 20.406745 Si / 1000 Ang^3
#
#
#
# Elastic Constant Matrix: (Units=GPa)
#
#
# Indices 1 2 3 4 5 6 
#
# 1 31.1661 -3.3734 14.5877 0.0000 0.0000 0.0000
# 2 -3.3734 63.8167 30.3008 0.0000 0.0000 0.0000
# 3 14.5877 30.3008 125.0740 0.0000 0.0000 0.0000
# 4 0.0000 0.0000 0.0000 29.6254 0.0000 0.0000
# 5 0.0000 0.0000 0.0000 0.0000 3.7018 0.0000
# 6 0.0000 0.0000 0.0000 0.0000 0.0000 44.2874
#
#
#
# Elastic Compliance Matrix: (Units=1/GPa)
#
#
# Indices 1 2 3 4 5 6 
#
# 1 0.034941 0.004274 -0.005111 0.000000 0.000000 0.000000
# 2 0.004274 0.018229 -0.004915 0.000000 0.000000 0.000000
# 3 -0.005111 -0.004915 0.009782 0.000000 0.000000 0.000000
# 4 0.000000 0.000000 0.000000 0.033755 0.000000 0.000000
# 5 0.000000 0.000000 0.000000 0.000000 0.270138 0.000000
# 6 0.000000 0.000000 0.000000 0.000000 0.000000 0.022580
#
#
# Mechanical properties :
#
#
# Convention : Reuss Voigt Hill
#
# Bulk Modulus (GPa) = 19.43689 33.67636 26.55663
# Shear Modulus (GPa) = 11.95949 27.42571 19.69260
#
# Velocity S-wave (km/s) = 2.42349 3.66997 3.10982
# Velocity P-wave (km/s) = 4.16851 5.87339 5.09280
#
# Compressibility (1/GPa) = 0.05144855
#
# Stress axis : x y z
#
# Youngs Moduli (GPa) = 28.61988 54.85656 102.22875
#
# Poissons Ratio (x) = -0.23443 0.52245
# Poissons Ratio (y) = -0.12231 0.50243
# Poissons Ratio (z) = 0.14626 0.26961
#
# Static dielectric constant tensor:
#      x y z
#    x 1.755570 0.000000 0.000000 
#    y 0.000000 1.753910 0.000000 
#    z 0.000000 0.000000 1.700140 
# 
# From -- ./inp_files/13365.got.cif
#   From: 2010.05.17/outbox.cif.g08.bks.cpg/sg54_7_cif.got.tgz:13365.got - 2010.06.03 13:09:01.
