data_PCOD9423299
_publ_section_title
;
Structure prediction by ZEFSAII (Michael W. Deem and Ramdas Pophale) SiO2 
 PCOD9423299
Probable space group: P C C A
;
_chemical_formula_sum "Si O2"
_cell_formula_units_Z 20
_cell_length_a 5.075323
_cell_length_b 7.887461
_cell_length_c 19.760398
_cell_angle_alpha 90.000000
_cell_angle_beta 90.000000
_cell_angle_gamma 90.000000
_cell_volume 791.036638
_symmetry_space_group_name_H-M "P C C A"
_symmetry_group_IT_number 54
_symmetry_cell_setting 'orthorhombic'
loop_
_space_group_symop_operation_xyz
x,y,z
1/2-x,-y,z
1/2+x,-y,1/2-z
-x,y,1/2-z
-x,-y,-z
1/2+x,y,-z
1/2-x,y,1/2+z
x,-y,1/2+z
loop_
_atom_site_type_symbol
_atom_site_label
_atom_site_fract_x
_atom_site_fract_y
_atom_site_fract_z
Si Si1 0.750000 0.000000 0.885222
Si Si2 0.585108 0.257683 0.045271
Si Si3 0.639616 0.318284 0.316671
O O1 0.511366 0.930394 0.930320
O O2 0.828359 0.834398 0.842179
O O3 0.538555 0.350110 0.116708
O O4 0.362206 0.295467 0.988822
O O5 0.750000 0.500000 0.297765
O O6 0.500000 0.249238 0.250000
#
# Coordination Sequence:
#
# PCOD9423299 Si02
#       3
#     4   8   8
#     4   8  22  44  68 102 136 188 220 296 340 420
#     4  10  22  45  72 105 138 179 233 289 348 415
#     4  10  24  44  65 102 139 185 230 286 343 415
#
# _framework density 25.283276999999998
#
# number of rings (size 3 to 8) (size 9 to 14) (size 15 to 20)
#    2.400    0.000    0.000    1.200    0.000    6.400 
#    7.200    0.000    0.000    0.000    0.000    0.000 
#    0.000    0.000    0.000    0.000    0.000    0.000 
#
# Total GULP energy -111511.088411 kJ/mol
# GULP energy per Si atom -5575.554421 kJ/mol
# Density = 2.522573 g / cm^3
# Si number density = 25.283277 Si / 1000 Ang^3
#
#
#
# Elastic Constant Matrix: (Units=GPa)
#
#
# Indices 1 2 3 4 5 6 
#
# 1 51.4592 4.0333 8.0456 0.0000 0.0000 0.0000
# 2 4.0333 78.7929 -13.7455 0.0000 0.0000 0.0000
# 3 8.0456 -13.7455 121.9777 0.0000 0.0000 0.0000
# 4 0.0000 0.0000 0.0000 -45.6677 0.0000 0.0000
# 5 0.0000 0.0000 0.0000 0.0000 -7.4101 0.0000
# 6 0.0000 0.0000 0.0000 0.0000 0.0000 19.3033
#
#
#
# Elastic Compliance Matrix: (Units=1/GPa)
#
#
# Indices 1 2 3 4 5 6 
#
# 1 0.019758 -0.001264 -0.001446 0.000000 0.000000 0.000000
# 2 -0.001264 0.013027 0.001551 0.000000 0.000000 0.000000
# 3 -0.001446 0.001551 0.008468 0.000000 0.000000 0.000000
# 4 0.000000 0.000000 0.000000 -0.021897 0.000000 0.000000
# 5 0.000000 0.000000 0.000000 0.000000 -0.134951 0.000000
# 6 0.000000 0.000000 0.000000 0.000000 0.000000 0.051805
#
#
# Mechanical properties :
#
#
# Convention : Reuss Voigt Hill
#
# Bulk Modulus (GPa) = 25.68227 27.65518 26.66873
# Shear Modulus (GPa) = -103.10298 10.17152 -46.46573
#
# Velocity S-wave (km/s) = -6.39278 2.00792 -4.29161
# Velocity P-wave (km/s) = 6.65660 4.04197 3.73984
#
# Compressibility (1/GPa) = 0.03893737
#
# Stress axis : x y z
#
# Youngs Moduli (GPa) = 50.61262 76.76477 118.08617
#
# Poissons Ratio (x) = 0.09700 0.17071
# Poissons Ratio (y) = 0.06395 -0.18319
# Poissons Ratio (z) = 0.07317 -0.11909
#
# Static dielectric constant tensor:
#      x y z
#    x 2.051890 0.000000 0.000000 
#    y 0.000000 2.097530 0.000000 
#    z 0.000000 0.000000 1.934700 
# 
# From -- ./inp_files/22516.got.cif
#   From: 2010.05.17/outbox.cif.g08.bks.cpg/sg54_12_cif.got.tgz:22516.got - 2010.06.03 13:09:01.
