data_PCOD9423690
_publ_section_title
;
Structure prediction by ZEFSAII (Michael W. Deem and Ramdas Pophale) SiO2 
 PCOD9423690
Probable space group: P C C A
;
_chemical_formula_sum "Si O2"
_cell_formula_units_Z 44
_cell_length_a 13.910691
_cell_length_b 4.794364
_cell_length_c 28.740198
_cell_angle_alpha 90.000000
_cell_angle_beta 90.000000
_cell_angle_gamma 90.000000
_cell_volume 1916.767615
_symmetry_space_group_name_H-M "P C C A"
_symmetry_group_IT_number 54
_symmetry_cell_setting 'orthorhombic'
loop_
_space_group_symop_operation_xyz
x,y,z
1/2-x,-y,z
1/2+x,-y,1/2-z
-x,y,1/2-z
-x,-y,-z
1/2+x,y,-z
1/2-x,y,1/2+z
x,-y,1/2+z
loop_
_atom_site_type_symbol
_atom_site_label
_atom_site_fract_x
_atom_site_fract_y
_atom_site_fract_z
Si Si1 0.455654 0.541802 0.800596
Si Si2 0.250000 0.500000 0.336002
Si Si3 0.908893 0.822749 0.483608
Si Si4 0.650847 0.668475 0.425253
Si Si5 0.842003 0.828507 0.578791
Si Si6 0.013033 0.032701 0.140911
O O1 0.500000 0.583165 0.750000
O O2 0.340898 0.610093 0.806041
O O3 0.472509 0.226738 0.817678
O O4 0.515086 0.729664 0.837027
O O5 0.196380 0.308908 0.373909
O O6 0.918059 0.574002 0.446418
O O7 0.869713 0.677149 0.530998
O O8 0.846580 0.073560 0.461195
O O9 0.000000 0.000000 0.500000
O O10 0.750000 0.500000 0.418664
O O11 0.606922 0.819407 0.379919
O O12 0.936835 0.978971 0.598323
O O13 0.750000 0.000000 0.563475
#
# Coordination Sequence:
#
# PCOD9423690 Si02
#       6
#     8   4   8   8   8   8
#     4  11  24  46  74 105 138 175 234 303 373 442
#     4  10  24  42  72 106 138 178 230 300 366 438
#     4  12  26  41  66  99 142 195 238 295 344 419
#     4  12  26  46  65  98 146 191 245 284 349 423
#     4  11  22  38  67  99 138 174 234 288 353 405
#     4  11  24  43  71  97 137 187 228 292 360 427
#
# _framework density 22.955313
#
# number of rings (size 3 to 8) (size 9 to 14) (size 15 to 20)
#    0.000    0.727    3.636    3.818    3.818    0.000 
#    1.636    0.000    0.000    0.000    0.000    0.000 
#    0.000    0.000    0.000    0.000    0.000    0.000 
#
# Total GULP energy -245392.807901 kJ/mol
# GULP energy per Si atom -5577.109270 kJ/mol
# Density = 2.290307 g / cm^3
# Si number density = 22.955313 Si / 1000 Ang^3
#
#
#
# Elastic Constant Matrix: (Units=GPa)
#
#
# Indices 1 2 3 4 5 6 
#
# 1 120.2461 20.6390 43.6027 0.0000 0.0000 0.0000
# 2 20.6390 81.0100 11.3015 0.0000 0.0000 0.0000
# 3 43.6027 11.3015 133.6432 0.0000 0.0000 0.0000
# 4 0.0000 0.0000 0.0000 14.6726 0.0000 0.0000
# 5 0.0000 0.0000 0.0000 0.0000 32.7301 0.0000
# 6 0.0000 0.0000 0.0000 0.0000 0.0000 37.0054
#
#
#
# Elastic Compliance Matrix: (Units=1/GPa)
#
#
# Indices 1 2 3 4 5 6 
#
# 1 0.009763 -0.002067 -0.003010 0.000000 0.000000 0.000000
# 2 -0.002067 0.012929 -0.000419 0.000000 0.000000 0.000000
# 3 -0.003010 -0.000419 0.008500 0.000000 0.000000 0.000000
# 4 0.000000 0.000000 0.000000 0.068154 0.000000 0.000000
# 5 0.000000 0.000000 0.000000 0.000000 0.030553 0.000000
# 6 0.000000 0.000000 0.000000 0.000000 0.000000 0.027023
#
#
# Mechanical properties :
#
#
# Convention : Reuss Voigt Hill
#
# Bulk Modulus (GPa) = 49.50717 53.99840 51.75279
# Shear Modulus (GPa) = 28.62896 34.17203 31.40050
#
# Velocity S-wave (km/s) = 3.53535 3.86247 3.70252
# Velocity P-wave (km/s) = 6.18696 6.59286 6.39313
#
# Compressibility (1/GPa) = 0.02019909
#
# Stress axis : x y z
#
# Youngs Moduli (GPa) = 102.43057 77.34387 117.64425
#
# Poissons Ratio (x) = 0.15989 0.35415
# Poissons Ratio (y) = 0.21175 0.04928
# Poissons Ratio (z) = 0.30836 0.03240
#
# Static dielectric constant tensor:
#      x y z
#    x 2.004190 0.000000 0.000000 
#    y 0.000000 1.878160 0.000000 
#    z 0.000000 0.000000 1.879860 
# 
# From -- ./inp_files/26389.got.cif
#   From: 2010.05.17/outbox.cif.g08.bks.cpg/sg54_14_cif.got.tgz:26389.got - 2010.06.03 13:09:01.
