data_PCOD9423676
_publ_section_title
;
Structure prediction by ZEFSAII (Michael W. Deem and Ramdas Pophale) SiO2 
 PCOD9423676
Probable space group: P C C A
;
_chemical_formula_sum "Si O2"
_cell_formula_units_Z 36
_cell_length_a 12.210485
_cell_length_b 5.117189
_cell_length_c 22.791618
_cell_angle_alpha 90.000000
_cell_angle_beta 90.000000
_cell_angle_gamma 90.000000
_cell_volume 1424.096862
_symmetry_space_group_name_H-M "P C C A"
_symmetry_group_IT_number 54
_symmetry_cell_setting 'orthorhombic'
loop_
_space_group_symop_operation_xyz
x,y,z
1/2-x,-y,z
1/2+x,-y,1/2-z
-x,y,1/2-z
-x,-y,-z
1/2+x,y,-z
1/2-x,y,1/2+z
x,-y,1/2+z
loop_
_atom_site_type_symbol
_atom_site_label
_atom_site_fract_x
_atom_site_fract_y
_atom_site_fract_z
Si Si1 0.000000 0.933664 0.250000
Si Si2 0.139626 0.111724 0.648118
Si Si3 0.320403 0.255652 0.819676
Si Si4 0.970715 0.249717 0.076265
Si Si5 0.351016 0.651483 0.529188
O O1 0.090451 0.128790 0.276614
O O2 0.064033 0.770484 0.199882
O O3 0.191983 0.250119 0.591649
O O4 0.250000 0.000000 0.677721
O O5 0.049030 0.939312 0.613365
O O6 0.250000 0.500000 0.796283
O O7 0.384420 0.358079 0.876930
O O8 0.250000 0.000000 0.837265
O O9 0.051220 0.467510 0.051146
O O10 0.900919 0.153665 0.019570
O O11 0.250000 0.500000 0.500628
#
# Coordination Sequence:
#
# PCOD9423676 Si02
#       5
#     4   8   8   8   8
#     4  10  26  48  68 102 138 192 240 302 352 420
#     4  11  22  44  66  97 136 187 238 294 359 424
#     4  11  26  49  72 107 142 189 241 297 357 425
#     4  10  24  42  68 104 140 186 231 292 363 432
#     4  11  22  42  70 103 143 180 233 295 363 436
#
# _framework density 25.27918
#
# number of rings (size 3 to 8) (size 9 to 14) (size 15 to 20)
#    0.000    1.333    2.222    2.000    6.222    1.778 
#   12.000    0.000    0.000    0.000    0.000    0.000 
#    0.000    0.000    0.000    0.000    0.000    0.000 
#
# Total GULP energy -200799.258219 kJ/mol
# GULP energy per Si atom -5577.757173 kJ/mol
# Density = 2.522164 g / cm^3
# Si number density = 25.279180 Si / 1000 Ang^3
#
#
#
# Elastic Constant Matrix: (Units=GPa)
#
#
# Indices 1 2 3 4 5 6 
#
# 1 139.9947 24.2239 50.5603 0.0000 0.0000 0.0000
# 2 24.2239 45.0872 -4.9868 0.0000 0.0000 0.0000
# 3 50.5603 -4.9868 104.4861 0.0000 0.0000 0.0000
# 4 0.0000 0.0000 0.0000 -5.7029 0.0000 0.0000
# 5 0.0000 0.0000 0.0000 0.0000 11.8448 0.0000
# 6 0.0000 0.0000 0.0000 0.0000 0.0000 43.6108
#
#
#
# Elastic Compliance Matrix: (Units=1/GPa)
#
#
# Indices 1 2 3 4 5 6 
#
# 1 0.010029 -0.005957 -0.005137 0.000000 0.000000 0.000000
# 2 -0.005957 0.025835 0.004115 0.000000 0.000000 0.000000
# 3 -0.005137 0.004115 0.012253 0.000000 0.000000 0.000000
# 4 0.000000 0.000000 0.000000 -0.175349 0.000000 0.000000
# 5 0.000000 0.000000 0.000000 0.000000 0.084425 0.000000
# 6 0.000000 0.000000 0.000000 0.000000 0.000000 0.022930
#
#
# Mechanical properties :
#
#
# Convention : Reuss Voigt Hill
#
# Bulk Modulus (GPa) = 29.27425 47.68476 38.47950
# Shear Modulus (GPa) = 914.62458 24.60192 469.61325
#
# Velocity S-wave (km/s) = 19.04192 3.12301 13.64456
# Velocity P-wave (km/s) = 22.25006 5.64876 16.23228
#
# Compressibility (1/GPa) = 0.03415972
#
# Stress axis : x y z
#
# Youngs Moduli (GPa) = 99.70860 38.70769 81.61255
#
# Poissons Ratio (x) = 0.23057 0.41927
# Poissons Ratio (y) = 0.59392 -0.33587
# Poissons Ratio (z) = 0.51224 -0.15930
#
# Static dielectric constant tensor:
#      x y z
#    x 1.944170 0.000000 0.000000 
#    y 0.000000 2.165610 0.000000 
#    z 0.000000 0.000000 2.051640 
# 
# From -- ./inp_files/23844.got.cif
#   From: 2010.05.17/outbox.cif.g08.bks.cpg/sg54_12_cif.got.tgz:23844.got - 2010.06.03 13:09:01.
