data_PCOD9423628
_publ_section_title
;
Structure prediction by ZEFSAII (Michael W. Deem and Ramdas Pophale) SiO2 
 PCOD9423628
Probable space group: P C C A
;
_chemical_formula_sum "Si O2"
_cell_formula_units_Z 40
_cell_length_a 11.667492
_cell_length_b 18.712882
_cell_length_c 8.507949
_cell_angle_alpha 90.000000
_cell_angle_beta 90.000000
_cell_angle_gamma 90.000000
_cell_volume 1857.560933
_symmetry_space_group_name_H-M "P C C A"
_symmetry_group_IT_number 54
_symmetry_cell_setting 'orthorhombic'
loop_
_space_group_symop_operation_xyz
x,y,z
1/2-x,-y,z
1/2+x,-y,1/2-z
-x,y,1/2-z
-x,-y,-z
1/2+x,y,-z
1/2-x,y,1/2+z
x,-y,1/2+z
loop_
_atom_site_type_symbol
_atom_site_label
_atom_site_fract_x
_atom_site_fract_y
_atom_site_fract_z
Si Si1 0.000000 0.147516 0.250000
Si Si2 0.625692 0.039068 0.523329
Si Si3 0.250000 0.500000 0.027748
Si Si4 0.376750 0.172458 0.174031
Si Si5 0.867007 0.404150 0.216923
Si Si6 0.175898 0.758146 0.839687
O O1 0.084593 0.093960 0.341604
O O2 0.095450 0.206729 0.202114
O O3 0.649229 0.090609 0.374293
O O4 0.750000 0.000000 0.551979
O O5 0.500000 0.000000 0.500000
O O6 0.156512 0.538930 0.920188
O O7 0.305387 0.561252 0.133678
O O8 0.500000 0.172867 0.250000
O O9 0.295168 0.204908 0.304645
O O10 0.368379 0.218505 0.012508
O O11 0.818716 0.326385 0.175375
O O12 0.000000 0.395473 0.250000
#
# Coordination Sequence:
#
# PCOD9423628 Si02
#       6
#     4   8   4   8   8   8
#     4  10  24  40  70  98 134 176 238 286 346 416
#     4  11  26  45  71 101 142 188 240 297 370 430
#     4  10  24  40  66 108 140 180 236 280 342 428
#     4  11  28  45  70 102 143 180 242 295 354 432
#     4  11  22  43  69 100 142 187 229 288 348 409
#     4  11  24  45  72 101 143 189 236 292 359 415
#
# _framework density 21.533612999999999
#
# number of rings (size 3 to 8) (size 9 to 14) (size 15 to 20)
#    0.000    1.200    1.000    3.000   12.600    2.400 
#    0.000    5.000    0.000    0.000    0.000    0.000 
#    0.000    0.000    0.000    0.000    0.000    0.000 
#
# Total GULP energy -222834.782225 kJ/mol
# GULP energy per Si atom -5570.869556 kJ/mol
# Density = 2.148460 g / cm^3
# Si number density = 21.533613 Si / 1000 Ang^3
#
#
#
# Elastic Constant Matrix: (Units=GPa)
#
#
# Indices 1 2 3 4 5 6 
#
# 1 71.1272 22.3889 20.5602 0.0000 0.0000 0.0000
# 2 22.3889 134.2944 36.6131 0.0000 0.0000 0.0000
# 3 20.5602 36.6131 92.0182 0.0000 0.0000 0.0000
# 4 0.0000 0.0000 0.0000 7.6453 0.0000 0.0000
# 5 0.0000 0.0000 0.0000 0.0000 28.1468 0.0000
# 6 0.0000 0.0000 0.0000 0.0000 0.0000 29.2937
#
#
#
# Elastic Compliance Matrix: (Units=1/GPa)
#
#
# Indices 1 2 3 4 5 6 
#
# 1 0.015421 -0.001830 -0.002717 0.000000 0.000000 0.000000
# 2 -0.001830 0.008570 -0.003001 0.000000 0.000000 0.000000
# 3 -0.002717 -0.003001 0.012669 0.000000 0.000000 0.000000
# 4 0.000000 0.000000 0.000000 0.130799 0.000000 0.000000
# 5 0.000000 0.000000 0.000000 0.000000 0.035528 0.000000
# 6 0.000000 0.000000 0.000000 0.000000 0.000000 0.034137
#
#
# Mechanical properties :
#
#
# Convention : Reuss Voigt Hill
#
# Bulk Modulus (GPa) = 46.37702 50.72936 48.55319
# Shear Modulus (GPa) = 19.27470 27.54234 23.40852
#
# Velocity S-wave (km/s) = 2.99507 3.58025 3.30065
# Velocity P-wave (km/s) = 5.79175 6.37967 6.09281
#
# Compressibility (1/GPa) = 0.02156240
#
# Stress axis : x y z
#
# Youngs Moduli (GPa) = 64.84719 116.69230 78.93533
#
# Poissons Ratio (x) = 0.21355 0.21450
# Poissons Ratio (y) = 0.11867 0.23687
# Poissons Ratio (z) = 0.17622 0.35018
#
# Static dielectric constant tensor:
#      x y z
#    x 1.263780 0.000000 0.000000 
#    y 0.000000 1.782580 0.000000 
#    z 0.000000 0.000000 1.874240 
# 
# From -- ./inp_files/2967.got.cif
#   From: 2010.05.17/outbox.cif.g08.bks.cpg/sg54_2_cif.got.tgz:2967.got - 2010.06.03 13:09:01.
