data_PCOD9423217
_publ_section_title
;
Structure prediction by ZEFSAII (Michael W. Deem and Ramdas Pophale) SiO2 
 PCOD9423217
Probable space group: P C C A
;
_chemical_formula_sum "Si O2"
_cell_formula_units_Z 60
_cell_length_a 11.377998
_cell_length_b 8.775080
_cell_length_c 28.156655
_cell_angle_alpha 90.000000
_cell_angle_beta 90.000000
_cell_angle_gamma 90.000000
_cell_volume 2811.240476
_symmetry_space_group_name_H-M "P C C A"
_symmetry_group_IT_number 54
_symmetry_cell_setting 'orthorhombic'
loop_
_space_group_symop_operation_xyz
x,y,z
1/2-x,-y,z
1/2+x,-y,1/2-z
-x,y,1/2-z
-x,-y,-z
1/2+x,y,-z
1/2-x,y,1/2+z
x,-y,1/2+z
loop_
_atom_site_type_symbol
_atom_site_label
_atom_site_fract_x
_atom_site_fract_y
_atom_site_fract_z
Si Si1 0.754258 0.662444 0.107208
Si Si2 0.000000 0.674719 0.250000
Si Si3 0.326334 0.853275 0.061145
Si Si4 0.934369 0.350539 0.521465
Si Si5 0.979079 0.817296 0.633933
Si Si6 0.923055 0.131120 0.669170
Si Si7 0.888427 0.468226 0.331652
Si Si8 0.099638 0.278286 0.601256
O O1 0.750000 0.500000 0.133946
O O2 0.828360 0.626407 0.059451
O O3 0.622955 0.727667 0.105351
O O4 0.828151 0.788054 0.135628
O O5 0.916733 0.789412 0.220281
O O6 0.944034 0.563238 0.288719
O O7 0.434297 0.892723 0.095389
O O8 0.234688 0.754195 0.091886
O O9 0.250000 0.000000 0.045809
O O10 0.378280 0.752192 0.019325
O O11 0.000000 0.500000 0.500000
O O12 0.031027 0.258769 0.552089
O O13 0.056333 0.699098 0.664745
O O14 0.921136 0.949642 0.665747
O O15 0.046515 0.180955 0.644388
O O16 0.750000 0.500000 0.327275
O O17 0.922598 0.549402 0.381495
#
# Coordination Sequence:
#
# PCOD9423217 Si02
#       8
#     8   4   8   8   8   8   8   8
#     4  11  24  45  69  96 140 185 231 290 358 417
#     4  10  24  44  70 104 134 172 230 288 348 430
#     4  12  25  41  68  98 141 187 241 291 350 419
#     4  11  26  40  65 101 138 185 247 300 340 407
#     4  12  24  43  71 100 136 189 230 281 364 422
#     4  10  23  46  70  98 139 179 224 287 355 425
#     4  11  23  43  72 102 138 183 231 288 352 436
#     4  10  22  44  63  93 141 184 231 285 349 408
#
# _framework density 21.342893
#
# number of rings (size 3 to 8) (size 9 to 14) (size 15 to 20)
#    0.000    1.067    2.667    4.400    3.733    4.800 
#    0.000    1.333    0.000    0.000    0.000    0.000 
#    0.000    0.000    0.000    0.000    0.000    0.000 
#
# Total GULP energy -334926.406854 kJ/mol
# GULP energy per Si atom -5582.106781 kJ/mol
# Density = 2.129432 g / cm^3
# Si number density = 21.342893 Si / 1000 Ang^3
#
#
#
# Elastic Constant Matrix: (Units=GPa)
#
#
# Indices 1 2 3 4 5 6 
#
# 1 107.3986 42.0290 37.6276 0.0000 0.0000 0.0000
# 2 42.0290 148.0768 37.1466 0.0000 0.0000 0.0000
# 3 37.6276 37.1466 76.3170 0.0000 0.0000 0.0000
# 4 0.0000 0.0000 0.0000 23.4817 0.0000 0.0000
# 5 0.0000 0.0000 0.0000 0.0000 5.5203 0.0000
# 6 0.0000 0.0000 0.0000 0.0000 0.0000 42.8261
#
#
#
# Elastic Compliance Matrix: (Units=1/GPa)
#
#
# Indices 1 2 3 4 5 6 
#
# 1 0.011831 -0.002158 -0.004783 0.000000 0.000000 0.000000
# 2 -0.002158 0.008086 -0.002872 0.000000 0.000000 0.000000
# 3 -0.004783 -0.002872 0.016859 0.000000 0.000000 0.000000
# 4 0.000000 0.000000 0.000000 0.042586 0.000000 0.000000
# 5 0.000000 0.000000 0.000000 0.000000 0.181151 0.000000
# 6 0.000000 0.000000 0.000000 0.000000 0.000000 0.023350
#
#
# Mechanical properties :
#
#
# Convention : Reuss Voigt Hill
#
# Bulk Modulus (GPa) = 58.30567 62.82210 60.56388
# Shear Modulus (GPa) = 16.17038 28.69823 22.43431
#
# Velocity S-wave (km/s) = 2.75553 3.67089 3.24564
# Velocity P-wave (km/s) = 6.12387 6.88955 6.51796
#
# Compressibility (1/GPa) = 0.01715099
#
# Stress axis : x y z
#
# Youngs Moduli (GPa) = 84.52060 123.66649 59.31476
#
# Poissons Ratio (x) = 0.26691 0.28370
# Poissons Ratio (y) = 0.18242 0.17034
# Poissons Ratio (z) = 0.40425 0.35514
#
# Static dielectric constant tensor:
#      x y z
#    x 1.799920 0.000000 0.000000 
#    y 0.000000 1.843870 0.000000 
#    z 0.000000 0.000000 1.756220 
# 
# From -- ./inp_files/26316.got.cif
#   From: 2010.05.17/outbox.cif.g08.bks.cpg/sg54_14_cif.got.tgz:26316.got - 2010.06.03 13:09:01.
