data_PCOD9423868
_publ_section_title
;
Structure prediction by ZEFSAII (Michael W. Deem and Ramdas Pophale) SiO2 
 PCOD9423868
Probable space group: P C C A
;
_chemical_formula_sum "Si O2"
_cell_formula_units_Z 24
_cell_length_a 4.823840
_cell_length_b 11.974620
_cell_length_c 17.940784
_cell_angle_alpha 90.000000
_cell_angle_beta 90.000000
_cell_angle_gamma 90.000000
_cell_volume 1036.325185
_symmetry_space_group_name_H-M "P C C A"
_symmetry_group_IT_number 54
_symmetry_cell_setting 'orthorhombic'
loop_
_space_group_symop_operation_xyz
x,y,z
1/2-x,-y,z
1/2+x,-y,1/2-z
-x,y,1/2-z
-x,-y,-z
1/2+x,y,-z
1/2-x,y,1/2+z
x,-y,1/2+z
loop_
_atom_site_type_symbol
_atom_site_label
_atom_site_fract_x
_atom_site_fract_y
_atom_site_fract_z
Si Si1 0.000000 0.427381 0.750000
Si Si2 0.339091 0.256832 0.671215
Si Si3 0.500000 0.923764 0.750000
Si Si4 0.736653 0.364470 0.549519
O O1 0.750000 0.500000 0.721367
O O2 0.875768 0.357625 0.817323
O O3 0.500000 0.253585 0.750000
O O4 0.140889 0.148365 0.682778
O O5 0.572947 0.291853 0.611796
O O6 0.250000 0.000000 0.779849
O O7 0.750000 0.500000 0.560258
O O8 0.547342 0.337192 0.476239
#
# Coordination Sequence:
#
# PCOD9423868 Si02
#       4
#     4   8   4   8
#     4  11  24  35  56 100 136 165 216 289 322 400
#     4  11  25  41  70 103 129 185 234 288 345 414
#     4  11  24  45  70 104 132 165 232 317 368 396
#     4  10  25  44  64  96 147 193 227 273 341 422
#
# _framework density 23.158753999999998
#
# number of rings (size 3 to 8) (size 9 to 14) (size 15 to 20)
#    0.000    1.333    3.333    0.000   14.000    1.333 
#    0.000    0.000    0.000    6.000    0.000    0.000 
#    0.000    0.000    0.000    0.000    0.000    0.000 
#
# Total GULP energy -133831.539986 kJ/mol
# GULP energy per Si atom -5576.314166 kJ/mol
# Density = 2.310604 g / cm^3
# Si number density = 23.158754 Si / 1000 Ang^3
#
#
#
# Elastic Constant Matrix: (Units=GPa)
#
#
# Indices 1 2 3 4 5 6 
#
# 1 173.6965 57.4840 31.8266 0.0000 0.0000 0.0000
# 2 57.4840 105.1228 24.8082 0.0000 0.0000 0.0000
# 3 31.8266 24.8082 133.5838 0.0000 0.0000 0.0000
# 4 0.0000 0.0000 0.0000 2.8492 0.0000 0.0000
# 5 0.0000 0.0000 0.0000 0.0000 25.7094 0.0000
# 6 0.0000 0.0000 0.0000 0.0000 0.0000 70.9410
#
#
#
# Elastic Compliance Matrix: (Units=1/GPa)
#
#
# Indices 1 2 3 4 5 6 
#
# 1 0.007161 -0.003674 -0.001024 0.000000 0.000000 0.000000
# 2 -0.003674 0.011834 -0.001322 0.000000 0.000000 0.000000
# 3 -0.001024 -0.001322 0.007975 0.000000 0.000000 0.000000
# 4 0.000000 0.000000 0.000000 0.350979 0.000000 0.000000
# 5 0.000000 0.000000 0.000000 0.000000 0.038896 0.000000
# 6 0.000000 0.000000 0.000000 0.000000 0.000000 0.014096
#
#
# Mechanical properties :
#
#
# Convention : Reuss Voigt Hill
#
# Bulk Modulus (GPa) = 66.98073 71.18228 69.08150
# Shear Modulus (GPa) = 11.16175 39.78554 25.47365
#
# Velocity S-wave (km/s) = 2.19776 4.14931 3.32016
# Velocity P-wave (km/s) = 5.95192 7.33206 6.67774
#
# Compressibility (1/GPa) = 0.01492967
#
# Stress axis : x y z
#
# Youngs Moduli (GPa) = 139.65202 84.50365 125.38532
#
# Poissons Ratio (x) = 0.31047 0.12836
# Poissons Ratio (y) = 0.51309 0.16580
# Poissons Ratio (z) = 0.14296 0.11174
#
# Static dielectric constant tensor:
#      x y z
#    x 1.469360 0.000000 0.000000 
#    y 0.000000 1.962880 0.000000 
#    z 0.000000 0.000000 1.983800 
# 
# From -- ./inp_files/15599.got.cif
#   From: 2010.05.17/outbox.cif.g08.bks.cpg/sg54_8_cif.got.tgz:15599.got - 2010.06.03 13:09:01.
