data_PCOD9423304
_publ_section_title
;
Structure prediction by ZEFSAII (Michael W. Deem and Ramdas Pophale) SiO2 
 PCOD9423304
Probable space group: P C C A
;
_chemical_formula_sum "Si O2"
_cell_formula_units_Z 32
_cell_length_a 11.725331
_cell_length_b 7.051279
_cell_length_c 14.887793
_cell_angle_alpha 90.000000
_cell_angle_beta 90.000000
_cell_angle_gamma 90.000000
_cell_volume 1230.901588
_symmetry_space_group_name_H-M "P C C A"
_symmetry_group_IT_number 54
_symmetry_cell_setting 'orthorhombic'
loop_
_space_group_symop_operation_xyz
x,y,z
1/2-x,-y,z
1/2+x,-y,1/2-z
-x,y,1/2-z
-x,-y,-z
1/2+x,y,-z
1/2-x,y,1/2+z
x,-y,1/2+z
loop_
_atom_site_type_symbol
_atom_site_label
_atom_site_fract_x
_atom_site_fract_y
_atom_site_fract_z
Si Si1 0.504296 0.144060 0.352428
Si Si2 0.902579 0.254691 0.188204
Si Si3 0.752669 0.283100 0.350448
Si Si4 0.782289 0.774471 0.049139
O O1 0.500000 0.202622 0.250000
O O2 0.631860 0.193419 0.378733
O O3 0.402338 0.247511 0.401482
O O4 0.472421 0.921925 0.353490
O O5 0.813616 0.185408 0.265701
O O6 0.821485 0.321177 0.106147
O O7 0.000000 0.359142 0.250000
O O8 0.750000 0.500000 0.318243
O O9 0.809355 0.287041 0.447865
O O10 0.750000 0.000000 0.049441
#
# Coordination Sequence:
#
# PCOD9423304 Si02
#       4
#     8   8   8   8
#     4  10  22  45  74  99 142 192 249 305 348 433
#     4  10  24  44  72 104 139 196 251 301 355 432
#     4  12  28  45  70 109 154 192 235 308 384 435
#     4  10  24  42  72 107 137 194 255 303 356 434
#
# _framework density 25.997205999999998
#
# number of rings (size 3 to 8) (size 9 to 14) (size 15 to 20)
#    0.000    1.500    2.500    0.000   14.000    5.000 
#    0.000    0.000    0.000    0.000    0.000    0.000 
#    0.000    0.000    0.000    0.000    0.000    0.000 
#
# Total GULP energy -178771.160615 kJ/mol
# GULP energy per Si atom -5586.598769 kJ/mol
# Density = 2.593804 g / cm^3
# Si number density = 25.997206 Si / 1000 Ang^3
#
#
#
# Elastic Constant Matrix: (Units=GPa)
#
#
# Indices 1 2 3 4 5 6 
#
# 1 125.7601 19.5861 10.6289 0.0000 0.0000 0.0000
# 2 19.5861 72.7060 -21.2334 0.0000 0.0000 0.0000
# 3 10.6289 -21.2334 97.6080 0.0000 0.0000 0.0000
# 4 0.0000 0.0000 0.0000 -9.8596 0.0000 0.0000
# 5 0.0000 0.0000 0.0000 0.0000 57.4541 0.0000
# 6 0.0000 0.0000 0.0000 0.0000 0.0000 26.8912
#
#
#
# Elastic Compliance Matrix: (Units=1/GPa)
#
#
# Indices 1 2 3 4 5 6 
#
# 1 0.008506 -0.002736 -0.001521 0.000000 0.000000 0.000000
# 2 -0.002736 0.015567 0.003684 0.000000 0.000000 0.000000
# 3 -0.001521 0.003684 0.011212 0.000000 0.000000 0.000000
# 4 0.000000 0.000000 0.000000 -0.101424 0.000000 0.000000
# 5 0.000000 0.000000 0.000000 0.000000 0.017405 0.000000
# 6 0.000000 0.000000 0.000000 0.000000 0.000000 0.037187
#
#
# Mechanical properties :
#
#
# Convention : Reuss Voigt Hill
#
# Bulk Modulus (GPa) = 29.29144 34.89303 32.09224
# Shear Modulus (GPa) = 5104.27212 34.03664 2569.15438
#
# Velocity S-wave (km/s) = 44.35826 3.62227 31.47043
# Velocity P-wave (km/s) = 51.33061 5.56286 36.50875
#
# Compressibility (1/GPa) = 0.03413966
#
# Stress axis : x y z
#
# Youngs Moduli (GPa) = 117.55979 64.23845 89.18854
#
# Poissons Ratio (x) = 0.17574 0.13569
# Poissons Ratio (y) = 0.32162 -0.32860
# Poissons Ratio (z) = 0.17886 -0.23667
#
# Static dielectric constant tensor:
#      x y z
#    x 1.288510 0.000000 0.000000 
#    y 0.000000 2.109700 0.000000 
#    z 0.000000 0.000000 2.002890 
# 
# From -- ./inp_files/12206.got.cif
#   From: 2010.05.17/outbox.cif.g08.bks.cpg/sg54_7_cif.got.tgz:12206.got - 2010.06.03 13:09:01.
