data_PCOD9423851
_publ_section_title
;
Structure prediction by ZEFSAII (Michael W. Deem and Ramdas Pophale) SiO2 
 PCOD9423851
Probable space group: P C C A
;
_chemical_formula_sum "Si O2"
_cell_formula_units_Z 28
_cell_length_a 10.785654
_cell_length_b 5.258918
_cell_length_c 21.108141
_cell_angle_alpha 90.000000
_cell_angle_beta 90.000000
_cell_angle_gamma 90.000000
_cell_volume 1197.272121
_symmetry_space_group_name_H-M "P C C A"
_symmetry_group_IT_number 54
_symmetry_cell_setting 'orthorhombic'
loop_
_space_group_symop_operation_xyz
x,y,z
1/2-x,-y,z
1/2+x,-y,1/2-z
-x,y,1/2-z
-x,-y,-z
1/2+x,y,-z
1/2-x,y,1/2+z
x,-y,1/2+z
loop_
_atom_site_type_symbol
_atom_site_label
_atom_site_fract_x
_atom_site_fract_y
_atom_site_fract_z
Si Si1 0.639578 0.808202 0.081916
Si Si2 0.250000 0.500000 0.314478
Si Si3 0.750000 0.000000 0.766780
Si Si4 0.877957 0.125097 0.389374
Si Si5 0.250000 0.500000 0.533229
O O1 0.642396 0.597480 0.137819
O O2 0.509947 0.954527 0.084542
O O3 0.676392 0.679224 0.016213
O O4 0.750000 0.000000 0.096937
O O5 0.282067 0.253002 0.272477
O O6 0.861388 0.917338 0.814588
O O7 0.855737 0.401947 0.418654
O O8 0.750000 0.000000 0.414085
#
# Coordination Sequence:
#
# PCOD9423851 Si02
#       5
#     8   4   4   8   4
#     4  11  25  46  72 109 146 193 243 308 368 440
#     4  11  23  50  72 106 145 197 242 302 362 441
#     4  10  24  50  70 106 146 196 242 302 362 438
#     4  10  25  45  70 108 142 193 242 305 367 436
#     4  11  23  44  72 104 151 189 250 302 372 435
#
# _framework density 23.386496999999999
#
# number of rings (size 3 to 8) (size 9 to 14) (size 15 to 20)
#    0.857    0.571    1.429    2.571    0.000   10.286 
#    5.143    0.000    0.000    0.000    0.000    0.000 
#    0.000    0.000    0.000    0.000    0.000    0.000 
#
# Total GULP energy -156031.666602 kJ/mol
# GULP energy per Si atom -5572.559521 kJ/mol
# Density = 2.333327 g / cm^3
# Si number density = 23.386497 Si / 1000 Ang^3
#
#
#
# Elastic Constant Matrix: (Units=GPa)
#
#
# Indices 1 2 3 4 5 6 
#
# 1 153.8302 32.8346 20.3408 0.0000 0.0000 0.0000
# 2 32.8346 110.9331 77.6128 0.0000 0.0000 0.0000
# 3 20.3408 77.6128 153.3779 0.0000 0.0000 0.0000
# 4 0.0000 0.0000 0.0000 42.7849 0.0000 0.0000
# 5 0.0000 0.0000 0.0000 0.0000-3479.9517 0.0000
# 6 0.0000 0.0000 0.0000 0.0000 0.0000 31.4597
#
#
#
# Elastic Compliance Matrix: (Units=1/GPa)
#
#
# Indices 1 2 3 4 5 6 
#
# 1 0.006942 -0.002184 0.000184 0.000000 0.000000 0.000000
# 2 -0.002184 0.014642 -0.007120 0.000000 0.000000 0.000000
# 3 0.000184 -0.007120 0.010098 0.000000 0.000000 0.000000
# 4 0.000000 0.000000 0.000000 0.023373 0.000000 0.000000
# 5 0.000000 0.000000 0.000000 0.000000 -0.000287 0.000000
# 6 0.000000 0.000000 0.000000 0.000000 0.000000 0.031787
#
#
# Mechanical properties :
#
#
# Convention : Reuss Voigt Hill
#
# Bulk Modulus (GPa) = 74.38054 75.52417 74.95236
# Shear Modulus (GPa) = 45.75657 -661.98455 -308.11399
#
# Velocity S-wave (km/s) = 4.42808 -16.84272 -11.49063
# Velocity P-wave (km/s) = 7.61694 18.59764 11.99697
#
# Compressibility (1/GPa) = 0.01344438
#
# Stress axis : x y z
#
# Youngs Moduli (GPa) = 144.04171 68.29707 99.02911
#
# Poissons Ratio (x) = 0.14915 -0.01826
# Poissons Ratio (y) = 0.31457 0.70504
# Poissons Ratio (z) = -0.02656 0.48624
#
# Static dielectric constant tensor:
#      x y z
#    x 2.019070 0.000000 0.000000 
#    y 0.000000 4.214970 0.000000 
#    z 0.000000 0.000000 1.870070 
# 
# From -- ./inp_files/20801.got.cif
#   From: 2010.05.17/outbox.cif.g08.bks.cpg/sg54_11_cif.got.tgz:20801.got - 2010.06.03 13:09:01.
