data_PCOD9423426
_publ_section_title
;
Structure prediction by ZEFSAII (Michael W. Deem and Ramdas Pophale) SiO2 
 PCOD9423426
Probable space group: P C C A
;
_chemical_formula_sum "Si O2"
_cell_formula_units_Z 40
_cell_length_a 20.931094
_cell_length_b 5.721912
_cell_length_c 15.106607
_cell_angle_alpha 90.000000
_cell_angle_beta 90.000000
_cell_angle_gamma 90.000000
_cell_volume 1809.256050
_symmetry_space_group_name_H-M "P C C A"
_symmetry_group_IT_number 54
_symmetry_cell_setting 'orthorhombic'
loop_
_space_group_symop_operation_xyz
x,y,z
1/2-x,-y,z
1/2+x,-y,1/2-z
-x,y,1/2-z
-x,-y,-z
1/2+x,y,-z
1/2-x,y,1/2+z
x,-y,1/2+z
loop_
_atom_site_type_symbol
_atom_site_label
_atom_site_fract_x
_atom_site_fract_y
_atom_site_fract_z
Si Si1 0.725635 0.750885 0.422231
Si Si2 0.250000 0.000000 0.748397
Si Si3 0.500000 0.724351 0.750000
Si Si4 0.112331 0.994221 0.830466
Si Si5 0.030702 0.624870 0.895869
Si Si6 0.585424 0.753999 0.483895
O O1 0.750000 0.500000 0.458004
O O2 0.649264 0.751859 0.427316
O O3 0.750000 0.000000 0.464468
O O4 0.747729 0.783834 0.320772
O O5 0.314594 0.989629 0.803672
O O6 0.435796 0.871407 0.765243
O O7 0.505527 0.565115 0.836920
O O8 0.100409 0.093868 0.929340
O O9 0.085276 0.733367 0.834848
O O10 0.066315 0.500383 0.977113
O O11 0.977985 0.811737 0.927918
#
# Coordination Sequence:
#
# PCOD9423426 Si02
#       6
#     8   4   4   8   8   8
#     4  10  26  44  69 100 139 192 233 291 347 432
#     4  10  28  40  66 102 140 188 236 288 362 414
#     4  10  24  38  68 102 136 178 230 290 352 418
#     4  11  24  44  67 101 137 181 233 296 348 435
#     4  10  23  41  69 101 134 184 230 301 351 425
#     4  10  24  42  69 100 137 180 240 286 360 419
#
# _framework density 22.108535
#
# number of rings (size 3 to 8) (size 9 to 14) (size 15 to 20)
#    0.600    1.200    0.000    1.200   12.600    1.600 
#    0.000    0.000    0.000    0.000    0.000    0.000 
#    0.000    0.000    0.000    0.000    0.000    0.000 
#
# Total GULP energy -223179.076390 kJ/mol
# GULP energy per Si atom -5579.476910 kJ/mol
# Density = 2.205822 g / cm^3
# Si number density = 22.108535 Si / 1000 Ang^3
#
#
#
# Elastic Constant Matrix: (Units=GPa)
#
#
# Indices 1 2 3 4 5 6 
#
# 1 176.6259 37.2376 32.1740 0.0000 0.0000 0.0000
# 2 37.2376 78.2107 11.0270 0.0000 0.0000 0.0000
# 3 32.1740 11.0270 53.0390 0.0000 0.0000 0.0000
# 4 0.0000 0.0000 0.0000 19.4715 0.0000 0.0000
# 5 0.0000 0.0000 0.0000 0.0000 41.1730 0.0000
# 6 0.0000 0.0000 0.0000 0.0000 0.0000 21.9437
#
#
#
# Elastic Compliance Matrix: (Units=1/GPa)
#
#
# Indices 1 2 3 4 5 6 
#
# 1 0.006905 -0.002779 -0.003611 0.000000 0.000000 0.000000
# 2 -0.002779 0.014290 -0.001285 0.000000 0.000000 0.000000
# 3 -0.003611 -0.001285 0.021312 0.000000 0.000000 0.000000
# 4 0.000000 0.000000 0.000000 0.051357 0.000000 0.000000
# 5 0.000000 0.000000 0.000000 0.000000 0.024288 0.000000
# 6 0.000000 0.000000 0.000000 0.000000 0.000000 0.045571
#
#
# Mechanical properties :
#
#
# Convention : Reuss Voigt Hill
#
# Bulk Modulus (GPa) = 36.82301 52.08364 44.45333
# Shear Modulus (GPa) = 26.57793 31.68011 29.12902
#
# Velocity S-wave (km/s) = 3.47097 3.78952 3.63374
# Velocity P-wave (km/s) = 5.72322 6.53885 6.14459
#
# Compressibility (1/GPa) = 0.02715693
#
# Stress axis : x y z
#
# Youngs Moduli (GPa) = 144.81646 69.97829 46.92226
#
# Poissons Ratio (x) = 0.19444 0.16944
# Poissons Ratio (y) = 0.40239 0.06032
# Poissons Ratio (z) = 0.52295 0.08995
#
# Static dielectric constant tensor:
#      x y z
#    x 1.771330 0.000000 0.000000 
#    y 0.000000 1.872110 0.000000 
#    z 0.000000 0.000000 1.847990 
# 
# From -- ./inp_files/18405.got.cif
#   From: 2010.05.17/outbox.cif.g08.bks.cpg/sg54_10_cif.got.tgz:18405.got - 2010.06.03 13:09:01.
