data_PCOD9423251
_publ_section_title
;
Structure prediction by ZEFSAII (Michael W. Deem and Ramdas Pophale) SiO2 
 PCOD9423251
Probable space group: P C C A
;
_chemical_formula_sum "Si O2"
_cell_formula_units_Z 60
_cell_length_a 17.351106
_cell_length_b 17.796667
_cell_length_c 9.224538
_cell_angle_alpha 90.000000
_cell_angle_beta 90.000000
_cell_angle_gamma 90.000000
_cell_volume 2848.462206
_symmetry_space_group_name_H-M "P C C A"
_symmetry_group_IT_number 54
_symmetry_cell_setting 'orthorhombic'
loop_
_space_group_symop_operation_xyz
x,y,z
1/2-x,-y,z
1/2+x,-y,1/2-z
-x,y,1/2-z
-x,-y,-z
1/2+x,y,-z
1/2-x,y,1/2+z
x,-y,1/2+z
loop_
_atom_site_type_symbol
_atom_site_label
_atom_site_fract_x
_atom_site_fract_y
_atom_site_fract_z
Si Si1 0.250000 0.000000 0.266523
Si Si2 0.653201 0.313674 0.793793
Si Si3 0.783617 0.252883 0.986724
Si Si4 0.931137 0.447479 0.943631
Si Si5 0.461342 0.185892 0.610976
Si Si6 0.339584 0.518757 0.288859
Si Si7 0.945714 0.723245 0.389943
Si Si8 0.187469 0.898170 0.512836
O O1 0.303383 0.048453 0.374212
O O2 0.205113 0.055570 0.158932
O O3 0.714625 0.301554 0.921318
O O4 0.688719 0.283670 0.642025
O O5 0.581416 0.260742 0.829457
O O6 0.637543 0.401314 0.780589
O O7 0.854867 0.260519 0.874675
O O8 0.750398 0.168802 0.999275
O O9 0.899522 0.460253 0.781471
O O10 0.952031 0.360184 0.957794
O O11 0.858328 0.469972 0.042772
O O12 0.000000 0.500000 0.000000
O O13 0.500000 0.147325 0.750000
O O14 0.524755 0.213781 0.499602
O O15 0.396075 0.138113 0.531725
O O16 0.250000 0.500000 0.266412
O O17 0.000000 0.725290 0.250000
#
# Coordination Sequence:
#
# PCOD9423251 Si02
#       8
#     4   8   8   8   8   8   8   8
#     4  10  22  44  70 100 134 168 212 244 312 406
#     4  11  24  40  65  93 129 172 223 277 330 387
#     4  11  23  42  68  98 128 168 223 268 323 383
#     4  12  25  44  62  88 130 178 222 271 350 409
#     4  11  22  43  67  97 134 170 213 271 325 378
#     4  12  25  41  63  89 126 173 225 286 334 391
#     4  12  26  41  64  98 130 170 227 283 325 389
#     4  10  23  41  73  97 132 173 209 253 319 387
#
# _framework density 21.063997000000001
#
# number of rings (size 3 to 8) (size 9 to 14) (size 15 to 20)
#    0.000    0.800    2.667    4.800    7.467    0.000 
#    0.000    0.667    0.000    0.000    0.000    0.000 
#    0.000    0.000    0.000    0.000    0.000    0.000 
#
# Total GULP energy -335590.414476 kJ/mol
# GULP energy per Si atom -5593.173575 kJ/mol
# Density = 2.101605 g / cm^3
# Si number density = 21.063997 Si / 1000 Ang^3
#
#
#
# Elastic Constant Matrix: (Units=GPa)
#
#
# Indices 1 2 3 4 5 6 
#
# 1 55.1673 -4.7130 -13.8224 0.0000 0.0000 0.0000
# 2 -4.7130 72.0258 -3.4108 0.0000 0.0000 0.0000
# 3 -13.8224 -3.4108 57.5310 0.0000 0.0000 0.0000
# 4 0.0000 0.0000 0.0000 18.7276 0.0000 0.0000
# 5 0.0000 0.0000 0.0000 0.0000 26.7323 0.0000
# 6 0.0000 0.0000 0.0000 0.0000 0.0000 12.9758
#
#
#
# Elastic Compliance Matrix: (Units=1/GPa)
#
#
# Indices 1 2 3 4 5 6 
#
# 1 0.019448 0.001498 0.004761 0.000000 0.000000 0.000000
# 2 0.001498 0.014038 0.001192 0.000000 0.000000 0.000000
# 3 0.004761 0.001192 0.018597 0.000000 0.000000 0.000000
# 4 0.000000 0.000000 0.000000 0.053397 0.000000 0.000000
# 5 0.000000 0.000000 0.000000 0.000000 0.037408 0.000000
# 6 0.000000 0.000000 0.000000 0.000000 0.000000 0.077066
#
#
# Mechanical properties :
#
#
# Convention : Reuss Voigt Hill
#
# Bulk Modulus (GPa) = 14.92857 15.64796 15.28827
# Shear Modulus (GPa) = 21.98966 25.46516 23.72741
#
# Velocity S-wave (km/s) = 3.23452 3.48076 3.35989
# Velocity P-wave (km/s) = 4.58826 4.85789 4.72500
#
# Compressibility (1/GPa) = 0.06698563
#
# Stress axis : x y z
#
# Youngs Moduli (GPa) = 51.42015 71.23320 53.77341
#
# Poissons Ratio (x) = -0.10671 -0.25603
# Poissons Ratio (y) = -0.07703 -0.06411
# Poissons Ratio (z) = -0.24483 -0.08492
#
# Static dielectric constant tensor:
#      x y z
#    x 1.741940 0.000000 0.000000 
#    y 0.000000 1.749800 0.000000 
#    z 0.000000 0.000000 1.787870 
# 
# From -- ./inp_files/4351.got.cif
#   From: 2010.05.17/outbox.cif.g08.bks.cpg/sg54_3_cif.got.tgz:4351.got - 2010.06.03 13:09:01.
