data_PCOD9423397
_publ_section_title
;
Structure prediction by ZEFSAII (Michael W. Deem and Ramdas Pophale) SiO2 
 PCOD9423397
Probable space group: P C C A
;
_chemical_formula_sum "Si O2"
_cell_formula_units_Z 60
_cell_length_a 24.967575
_cell_length_b 9.115914
_cell_length_c 12.327625
_cell_angle_alpha 90.000000
_cell_angle_beta 90.000000
_cell_angle_gamma 90.000000
_cell_volume 2805.795390
_symmetry_space_group_name_H-M "P C C A"
_symmetry_group_IT_number 54
_symmetry_cell_setting 'orthorhombic'
loop_
_space_group_symop_operation_xyz
x,y,z
1/2-x,-y,z
1/2+x,-y,1/2-z
-x,y,1/2-z
-x,-y,-z
1/2+x,y,-z
1/2-x,y,1/2+z
x,-y,1/2+z
loop_
_atom_site_type_symbol
_atom_site_label
_atom_site_fract_x
_atom_site_fract_y
_atom_site_fract_z
Si Si1 0.455844 0.970952 0.909462
Si Si2 0.802185 0.565322 0.434462
Si Si3 0.500000 0.723120 0.750000
Si Si4 0.394534 0.460159 0.227241
Si Si5 0.648690 0.101522 0.951698
Si Si6 0.210991 0.159189 0.445445
Si Si7 0.611613 0.196479 0.717402
Si Si8 0.312860 0.334848 0.398793
O O1 0.475724 0.831998 0.840384
O O2 0.438945 0.106113 0.830975
O O3 0.402737 0.939533 0.978023
O O4 0.500000 0.000000 0.000000
O O5 0.750000 0.500000 0.373750
O O6 0.858494 0.541316 0.379717
O O7 0.790950 0.734809 0.451088
O O8 0.801745 0.496245 0.554883
O O9 0.548826 0.619504 0.787419
O O10 0.400304 0.630717 0.262867
O O11 0.357405 0.360781 0.308004
O O12 0.632735 0.113523 0.826189
O O13 0.664110 0.261654 0.992379
O O14 0.696110 0.997104 0.997800
O O15 0.160218 0.186074 0.367727
O O16 0.262333 0.225624 0.376798
#
# Coordination Sequence:
#
# PCOD9423397 Si02
#       8
#     8   8   4   8   8   8   8   8
#     4  11  26  47  71  93 139 184 237 297 357 421
#     4  10  23  40  69 105 144 191 226 287 356 428
#     4  12  28  46  72 106 130 194 244 304 360 422
#     4  12  26  43  72 105 146 186 243 291 363 433
#     4  11  23  44  67 103 138 184 237 288 353 420
#     4  10  24  40  72 101 145 187 230 288 356 429
#     4  11  25  45  72 104 140 189 236 295 359 435
#     4  11  22  44  65 104 146 182 232 290 353 426
#
# _framework density 21.384312000000001
#
# number of rings (size 3 to 8) (size 9 to 14) (size 15 to 20)
#    0.000    1.067    4.000    1.200    7.467    1.600 
#    0.000    4.667    0.000    0.000    0.000    0.000 
#    0.000    0.000    0.000    0.000    0.000    0.000 
#
# Total GULP energy -334220.778310 kJ/mol
# GULP energy per Si atom -5570.346305 kJ/mol
# Density = 2.133564 g / cm^3
# Si number density = 21.384312 Si / 1000 Ang^3
#
#
#
# Elastic Constant Matrix: (Units=GPa)
#
#
# Indices 1 2 3 4 5 6 
#
# 1 163.5872 45.4691 43.9708 0.0000 0.0000 0.0000
# 2 45.4691 124.5313 33.3990 0.0000 0.0000 0.0000
# 3 43.9708 33.3990 71.5327 0.0000 0.0000 0.0000
# 4 0.0000 0.0000 0.0000 59.6534 0.0000 0.0000
# 5 0.0000 0.0000 0.0000 0.0000 24.5693 0.0000
# 6 0.0000 0.0000 0.0000 0.0000 0.0000 33.6414
#
#
#
# Elastic Compliance Matrix: (Units=1/GPa)
#
#
# Indices 1 2 3 4 5 6 
#
# 1 0.007642 -0.001750 -0.003881 0.000000 0.000000 0.000000
# 2 -0.001750 0.009580 -0.003398 0.000000 0.000000 0.000000
# 3 -0.003881 -0.003398 0.017951 0.000000 0.000000 0.000000
# 4 0.000000 0.000000 0.000000 0.016764 0.000000 0.000000
# 5 0.000000 0.000000 0.000000 0.000000 0.040701 0.000000
# 6 0.000000 0.000000 0.000000 0.000000 0.000000 0.029725
#
#
# Mechanical properties :
#
#
# Convention : Reuss Voigt Hill
#
# Bulk Modulus (GPa) = 58.41787 67.25878 62.83833
# Shear Modulus (GPa) = 34.21708 39.36033 36.78871
#
# Velocity S-wave (km/s) = 4.00447 4.29490 4.15222
# Velocity P-wave (km/s) = 6.98272 7.49103 7.24134
#
# Compressibility (1/GPa) = 0.01711805
#
# Stress axis : x y z
#
# Youngs Moduli (GPa) = 130.84933 104.38270 55.70567
#
# Poissons Ratio (x) = 0.18262 0.21619
# Poissons Ratio (y) = 0.22893 0.18926
# Poissons Ratio (z) = 0.50781 0.35465
#
# Static dielectric constant tensor:
#      x y z
#    x 1.663740 0.000000 0.000000 
#    y 0.000000 1.809420 0.000000 
#    z 0.000000 0.000000 1.750760 
# 
# From -- ./inp_files/10358.got.cif
#   From: 2010.05.17/outbox.cif.g08.bks.cpg/sg54_6_cif.got.tgz:10358.got - 2010.06.03 13:09:01.
