data_PCOD9423744
_publ_section_title
;
Structure prediction by ZEFSAII (Michael W. Deem and Ramdas Pophale) SiO2 
 PCOD9423744
Probable space group: P C C A
;
_chemical_formula_sum "Si O2"
_cell_formula_units_Z 32
_cell_length_a 10.150601
_cell_length_b 7.150612
_cell_length_c 15.586709
_cell_angle_alpha 90.000000
_cell_angle_beta 90.000000
_cell_angle_gamma 90.000000
_cell_volume 1131.330245
_symmetry_space_group_name_H-M "P C C A"
_symmetry_group_IT_number 54
_symmetry_cell_setting 'orthorhombic'
loop_
_space_group_symop_operation_xyz
x,y,z
1/2-x,-y,z
1/2+x,-y,1/2-z
-x,y,1/2-z
-x,-y,-z
1/2+x,y,-z
1/2-x,y,1/2+z
x,-y,1/2+z
loop_
_atom_site_type_symbol
_atom_site_label
_atom_site_fract_x
_atom_site_fract_y
_atom_site_fract_z
Si Si1 0.194488 0.799819 0.836791
Si Si2 0.980462 0.356682 0.657266
Si Si3 0.024995 0.784762 0.526509
Si Si4 0.744492 0.727143 0.345064
O O1 0.325213 0.676487 0.842091
O O2 0.165062 0.805065 0.735824
O O3 0.075458 0.735791 0.896173
O O4 0.250000 0.000000 0.866147
O O5 0.999696 0.351242 0.553874
O O6 0.000000 0.461698 0.750000
O O7 0.104152 0.210466 0.670164
O O8 0.171118 0.775339 0.567190
O O9 0.000000 0.000000 0.500000
O O10 0.750000 0.500000 0.344232
#
# Coordination Sequence:
#
# PCOD9423744 Si02
#       4
#     8   8   8   8
#     4  11  24  44  74 112 143 197 252 321 386 464
#     4  10  24  44  71 103 148 195 252 316 386 452
#     4  12  25  43  76 113 148 195 260 325 385 461
#     4  11  28  48  72 108 154 204 251 317 396 473
#
# _framework density 28.285285999999999
#
# number of rings (size 3 to 8) (size 9 to 14) (size 15 to 20)
#    0.000    1.000    2.500    2.250    7.000    7.000 
#    0.000    6.250    0.000    0.000    0.000    0.000 
#    0.000    0.000    0.000    0.000    0.000    0.000 
#
# Total GULP energy -178548.189632 kJ/mol
# GULP energy per Si atom -5579.630926 kJ/mol
# Density = 2.822091 g / cm^3
# Si number density = 28.285286 Si / 1000 Ang^3
#
#
#
# Elastic Constant Matrix: (Units=GPa)
#
#
# Indices 1 2 3 4 5 6 
#
# 1 145.5617 24.7149 34.9311 0.0000 0.0000 0.0000
# 2 24.7149 119.6153 39.8400 0.0000 0.0000 0.0000
# 3 34.9311 39.8400 229.5544 0.0000 0.0000 0.0000
# 4 0.0000 0.0000 0.0000 42.8612 0.0000 0.0000
# 5 0.0000 0.0000 0.0000 0.0000 -27.6683 0.0000
# 6 0.0000 0.0000 0.0000 0.0000 0.0000 26.6892
#
#
#
# Elastic Compliance Matrix: (Units=1/GPa)
#
#
# Indices 1 2 3 4 5 6 
#
# 1 0.007291 -0.001207 -0.000900 0.000000 0.000000 0.000000
# 2 -0.001207 0.009073 -0.001391 0.000000 0.000000 0.000000
# 3 -0.000900 -0.001391 0.004735 0.000000 0.000000 0.000000
# 4 0.000000 0.000000 0.000000 0.023331 0.000000 0.000000
# 5 0.000000 0.000000 0.000000 0.000000 -0.036142 0.000000
# 6 0.000000 0.000000 0.000000 0.000000 0.000000 0.037468
#
#
# Mechanical properties :
#
#
# Convention : Reuss Voigt Hill
#
# Bulk Modulus (GPa) = 70.90765 77.07816 73.99291
# Shear Modulus (GPa) = 87.03001 34.72612 60.87807
#
# Velocity S-wave (km/s) = 5.55297 3.50767 4.64431
# Velocity P-wave (km/s) = 8.13862 6.61169 7.41456
#
# Compressibility (1/GPa) = 0.01410285
#
# Stress axis : x y z
#
# Youngs Moduli (GPa) = 137.15919 110.22021 211.20970
#
# Poissons Ratio (x) = 0.13300 0.19009
# Poissons Ratio (y) = 0.16550 0.29379
# Poissons Ratio (z) = 0.12345 0.15332
#
# Static dielectric constant tensor:
#      x y z
#    x 2.159490 0.000000 0.000000 
#    y 0.000000 1.749550 0.000000 
#    z 0.000000 0.000000 2.228030 
# 
# From -- ./inp_files/12317.got.cif
#   From: 2010.05.17/outbox.cif.g08.bks.cpg/sg54_7_cif.got.tgz:12317.got - 2010.06.03 13:09:01.
