data_PCOD9423153
_publ_section_title
;
Structure prediction by ZEFSAII (Michael W. Deem and Ramdas Pophale) SiO2 
 PCOD9423153
Probable space group: P C C A
;
_chemical_formula_sum "Si O2"
_cell_formula_units_Z 56
_cell_length_a 10.964273
_cell_length_b 15.443605
_cell_length_c 14.357577
_cell_angle_alpha 90.000000
_cell_angle_beta 90.000000
_cell_angle_gamma 90.000000
_cell_volume 2431.138382
_symmetry_space_group_name_H-M "P C C A"
_symmetry_group_IT_number 54
_symmetry_cell_setting 'orthorhombic'
loop_
_space_group_symop_operation_xyz
x,y,z
1/2-x,-y,z
1/2+x,-y,1/2-z
-x,y,1/2-z
-x,-y,-z
1/2+x,y,-z
1/2-x,y,1/2+z
x,-y,1/2+z
loop_
_atom_site_type_symbol
_atom_site_label
_atom_site_fract_x
_atom_site_fract_y
_atom_site_fract_z
Si Si1 0.624989 0.775048 0.197480
Si Si2 0.129547 0.450461 0.647134
Si Si3 0.799112 0.259379 0.860420
Si Si4 0.619349 0.953588 0.107907
Si Si5 0.010950 0.879428 0.086632
Si Si6 0.191694 0.736614 0.446989
Si Si7 0.129608 0.549905 0.372706
O O1 0.500000 0.750335 0.250000
O O2 0.731397 0.739699 0.263026
O O3 0.628414 0.878677 0.184586
O O4 0.670929 0.741468 0.096629
O O5 0.250000 0.500000 0.615569
O O6 0.133761 0.349621 0.621785
O O7 0.132580 0.449675 0.759809
O O8 0.003925 0.490037 0.609286
O O9 0.886718 0.177372 0.864149
O O10 0.701311 0.253752 0.942668
O O11 0.750000 0.000000 0.088970
O O12 0.528345 0.031109 0.133378
O O13 0.564055 0.907812 0.014846
O O14 0.892738 0.816933 0.083119
O O15 0.137624 0.645851 0.414207
O O16 0.250000 0.500000 0.404083
#
# Coordination Sequence:
#
# PCOD9423153 Si02
#       7
#     8   8   8   8   8   8   8
#     4  12  27  44  67 106 146 189 244 298 362 438
#     4  10  22  42  69 107 140 179 245 299 360 440
#     4  12  25  43  75 104 141 194 237 299 367 437
#     4  11  23  45  71 107 147 189 243 295 364 431
#     4  11  23  44  76 101 144 189 238 306 351 430
#     4  12  24  47  72 103 143 190 241 296 368 435
#     4  10  22  44  72 100 142 189 233 302 370 435
#
# _framework density 23.034478
#
# number of rings (size 3 to 8) (size 9 to 14) (size 15 to 20)
#    0.000    0.857    5.714    0.857    0.000    4.571 
#    0.000    1.429    0.000    0.000    0.000    0.000 
#    0.000    0.000    0.000    0.000    0.000    0.000 
#
# Total GULP energy -313004.120013 kJ/mol
# GULP energy per Si atom -5589.359286 kJ/mol
# Density = 2.298205 g / cm^3
# Si number density = 23.034478 Si / 1000 Ang^3
#
#
#
# Elastic Constant Matrix: (Units=GPa)
#
#
# Indices 1 2 3 4 5 6 
#
# 1 131.2032 50.3518 -3.9537 0.0000 0.0000 0.0000
# 2 50.3518 78.7243 -2.0206 0.0000 0.0000 0.0000
# 3 -3.9537 -2.0206 53.9819 0.0000 0.0000 0.0000
# 4 0.0000 0.0000 0.0000 34.6108 0.0000 0.0000
# 5 0.0000 0.0000 0.0000 0.0000 -16.2229 0.0000
# 6 0.0000 0.0000 0.0000 0.0000 0.0000 37.5972
#
#
#
# Elastic Compliance Matrix: (Units=1/GPa)
#
#
# Indices 1 2 3 4 5 6 
#
# 1 0.010115 -0.006456 0.000499 0.000000 0.000000 0.000000
# 2 -0.006456 0.016836 0.000157 0.000000 0.000000 0.000000
# 3 0.000499 0.000157 0.018567 0.000000 0.000000 0.000000
# 4 0.000000 0.000000 0.000000 0.028893 0.000000 0.000000
# 5 0.000000 0.000000 0.000000 0.000000 -0.061641 0.000000
# 6 0.000000 0.000000 0.000000 0.000000 0.000000 0.026598
#
#
# Mechanical properties :
#
#
# Convention : Reuss Voigt Hill
#
# Bulk Modulus (GPa) = 29.48296 39.18494 34.33395
# Shear Modulus (GPa) = 80.29147 25.83247 53.06197
#
# Velocity S-wave (km/s) = 5.91039 3.35247 4.80478
# Velocity P-wave (km/s) = 7.70742 5.65984 6.76158
#
# Compressibility (1/GPa) = 0.03391789
#
# Stress axis : x y z
#
# Youngs Moduli (GPa) = 98.86705 59.39610 53.85848
#
# Poissons Ratio (x) = 0.38349 -0.02688
# Poissons Ratio (y) = 0.63833 -0.00847
# Poissons Ratio (z) = -0.04935 -0.00934
#
# Static dielectric constant tensor:
#      x y z
#    x 1.902950 0.000000 0.000000 
#    y 0.000000 2.322990 0.000000 
#    z 0.000000 0.000000 1.839830 
# 
# From -- ./inp_files/12739.got.cif
#   From: 2010.05.17/outbox.cif.g08.bks.cpg/sg54_7_cif.got.tgz:12739.got - 2010.06.03 13:09:01.
