data_PCOD9423034
_publ_section_title
;
Structure prediction by ZEFSAII (Michael W. Deem and Ramdas Pophale) SiO2 
 PCOD9423034
Probable space group: P C C A
;
_chemical_formula_sum "Si O2"
_cell_formula_units_Z 44
_cell_length_a 27.834686
_cell_length_b 8.400029
_cell_length_c 8.673632
_cell_angle_alpha 90.000000
_cell_angle_beta 90.000000
_cell_angle_gamma 90.000000
_cell_volume 2028.000716
_symmetry_space_group_name_H-M "P C C A"
_symmetry_group_IT_number 54
_symmetry_cell_setting 'orthorhombic'
loop_
_space_group_symop_operation_xyz
x,y,z
1/2-x,-y,z
1/2+x,-y,1/2-z
-x,y,1/2-z
-x,-y,-z
1/2+x,y,-z
1/2-x,y,1/2+z
x,-y,1/2+z
loop_
_atom_site_type_symbol
_atom_site_label
_atom_site_fract_x
_atom_site_fract_y
_atom_site_fract_z
Si Si1 0.860764 0.646566 0.154099
Si Si2 0.063359 0.158229 0.978900
Si Si3 0.646861 0.926322 0.896055
Si Si4 0.797050 0.588582 0.862157
Si Si5 0.000000 0.948149 0.750000
Si Si6 0.288941 0.874954 0.330563
O O1 0.913005 0.672589 0.070505
O O2 0.865145 0.794647 0.270341
O O3 0.837441 0.507110 0.261044
O O4 0.824326 0.659834 0.010133
O O5 0.036238 0.065212 0.841417
O O6 0.026964 0.159364 0.123304
O O7 0.105104 0.037092 0.037251
O O8 0.683908 0.037859 0.807664
O O9 0.673273 0.840660 0.036489
O O10 0.750000 0.500000 0.923319
O O11 0.772129 0.714005 0.746173
O O12 0.250000 0.000000 0.388880
#
# Coordination Sequence:
#
# PCOD9423034 Si02
#       6
#     8   8   8   8   4   8
#     4  12  25  45  68 100 143 186 236 283 350 413
#     4  11  21  42  70 111 130 171 221 301 363 418
#     4  12  22  41  68 100 136 177 235 291 339 406
#     4  12  27  45  65  97 146 200 237 275 332 414
#     4  10  22  40  76 108 136 158 228 310 362 430
#     4  12  24  40  65 100 141 188 240 288 329 394
#
# _framework density 21.696245000000001
#
# number of rings (size 3 to 8) (size 9 to 14) (size 15 to 20)
#    0.000    0.364    5.455    3.273    0.000    4.364 
#    0.000    1.818    0.000    3.273    0.000    0.000 
#    0.000    0.000    0.000    0.000    0.000    0.000 
#
# Total GULP energy -245540.999446 kJ/mol
# GULP energy per Si atom -5580.477260 kJ/mol
# Density = 2.164686 g / cm^3
# Si number density = 21.696245 Si / 1000 Ang^3
#
#
#
# Elastic Constant Matrix: (Units=GPa)
#
#
# Indices 1 2 3 4 5 6 
#
# 1 87.7633 9.3456 26.2574 0.0000 0.0000 0.0000
# 2 9.3456 23.4639 10.6595 0.0000 0.0000 0.0000
# 3 26.2574 10.6595 106.0786 0.0000 0.0000 0.0000
# 4 0.0000 0.0000 0.0000 20.9057 0.0000 0.0000
# 5 0.0000 0.0000 0.0000 0.0000 39.9678 0.0000
# 6 0.0000 0.0000 0.0000 0.0000 0.0000 33.6851
#
#
#
# Elastic Compliance Matrix: (Units=1/GPa)
#
#
# Indices 1 2 3 4 5 6 
#
# 1 0.012618 -0.003779 -0.002743 0.000000 0.000000 0.000000
# 2 -0.003779 0.045789 -0.003666 0.000000 0.000000 0.000000
# 3 -0.002743 -0.003666 0.010474 0.000000 0.000000 0.000000
# 4 0.000000 0.000000 0.000000 0.047834 0.000000 0.000000
# 5 0.000000 0.000000 0.000000 0.000000 0.025020 0.000000
# 6 0.000000 0.000000 0.000000 0.000000 0.000000 0.029687
#
#
# Mechanical properties :
#
#
# Convention : Reuss Voigt Hill
#
# Bulk Modulus (GPa) = 20.61667 34.42565 27.52116
# Shear Modulus (GPa) = 24.04229 30.31460 27.17844
#
# Velocity S-wave (km/s) = 3.33247 3.74201 3.54316
# Velocity P-wave (km/s) = 4.93257 5.87977 5.42687
#
# Compressibility (1/GPa) = 0.04850443
#
# Stress axis : x y z
#
# Youngs Moduli (GPa) = 79.25496 21.83916 95.47079
#
# Poissons Ratio (x) = 0.08253 0.26192
# Poissons Ratio (y) = 0.29952 0.34997
# Poissons Ratio (z) = 0.21743 0.08006
#
# Static dielectric constant tensor:
#      x y z
#    x 1.855430 0.000000 0.000000 
#    y 0.000000 1.848400 0.000000 
#    z 0.000000 0.000000 1.811650 
# 
# From -- ./inp_files/5774.got.cif
#   From: 2010.05.17/outbox.cif.g08.bks.cpg/sg54_3_cif.got.tgz:5774.got - 2010.06.03 13:09:01.
