data_PCOD9423998
_publ_section_title
;
Structure prediction by ZEFSAII (Michael W. Deem and Ramdas Pophale) SiO2 
 PCOD9423998
Probable space group: P C C A
;
_chemical_formula_sum "Si O2"
_cell_formula_units_Z 48
_cell_length_a 14.454365
_cell_length_b 9.586207
_cell_length_c 15.806641
_cell_angle_alpha 90.000000
_cell_angle_beta 90.000000
_cell_angle_gamma 90.000000
_cell_volume 2190.208246
_symmetry_space_group_name_H-M "P C C A"
_symmetry_group_IT_number 54
_symmetry_cell_setting 'orthorhombic'
loop_
_space_group_symop_operation_xyz
x,y,z
1/2-x,-y,z
1/2+x,-y,1/2-z
-x,y,1/2-z
-x,-y,-z
1/2+x,y,-z
1/2-x,y,1/2+z
x,-y,1/2+z
loop_
_atom_site_type_symbol
_atom_site_label
_atom_site_fract_x
_atom_site_fract_y
_atom_site_fract_z
Si Si1 0.606288 0.752881 0.724861
Si Si2 0.609252 0.269107 0.493729
Si Si3 0.202951 0.155924 0.946405
Si Si4 0.853196 0.041249 0.861214
Si Si5 0.933491 0.777659 0.895707
Si Si6 0.140973 0.486447 0.652542
O O1 0.500000 0.783869 0.750000
O O2 0.641137 0.789677 0.631969
O O3 0.664439 0.854431 0.784651
O O4 0.622641 0.597548 0.760849
O O5 0.710356 0.257762 0.535285
O O6 0.600815 0.132011 0.434992
O O7 0.531910 0.257533 0.564591
O O8 0.601861 0.396987 0.427449
O O9 0.250000 0.000000 0.932768
O O10 0.134089 0.176916 0.026271
O O11 0.750000 0.000000 0.887656
O O12 0.919589 0.913653 0.838211
O O13 0.899275 0.640223 0.849350
O O14 0.250000 0.500000 0.639754
#
# Coordination Sequence:
#
# PCOD9423998 Si02
#       6
#     8   8   8   8   8   8
#     4  11  27  46  66  95 140 183 221 280 345 401
#     4  11  22  38  71 104 130 171 227 282 331 397
#     4  12  23  42  71 109 132 169 236 292 328 401
#     4  11  20  43  69  97 134 175 218 273 349 405
#     4  12  22  41  74 100 132 173 229 278 336 407
#     4  11  23  47  66  91 137 185 216 268 349 409
#
# _framework density 21.915724000000001
#
# number of rings (size 3 to 8) (size 9 to 14) (size 15 to 20)
#    0.000    0.667    5.000    4.500    2.333    0.000 
#    6.000    0.833    0.000    0.000    0.000    0.000 
#    0.000    0.000    0.000    0.000    0.000    0.000 
#
# Total GULP energy -268112.180131 kJ/mol
# GULP energy per Si atom -5585.670419 kJ/mol
# Density = 2.186584 g / cm^3
# Si number density = 21.915724 Si / 1000 Ang^3
#
#
#
# Elastic Constant Matrix: (Units=GPa)
#
#
# Indices 1 2 3 4 5 6 
#
# 1 60.7597 -12.2891 -3.4237 0.0000 0.0000 0.0000
# 2 -12.2891 113.9002 22.2118 0.0000 0.0000 0.0000
# 3 -3.4237 22.2118 63.0530 0.0000 0.0000 0.0000
# 4 0.0000 0.0000 0.0000 3.2624 0.0000 0.0000
# 5 0.0000 0.0000 0.0000 0.0000 24.6683 0.0000
# 6 0.0000 0.0000 0.0000 0.0000 0.0000 21.2188
#
#
#
# Elastic Compliance Matrix: (Units=1/GPa)
#
#
# Indices 1 2 3 4 5 6 
#
# 1 0.016831 0.001758 0.000294 0.000000 0.000000 0.000000
# 2 0.001758 0.009611 -0.003290 0.000000 0.000000 0.000000
# 3 0.000294 -0.003290 0.017035 0.000000 0.000000 0.000000
# 4 0.000000 0.000000 0.000000 0.306520 0.000000 0.000000
# 5 0.000000 0.000000 0.000000 0.000000 0.040538 0.000000
# 6 0.000000 0.000000 0.000000 0.000000 0.000000 0.047128
#
#
# Mechanical properties :
#
#
# Convention : Reuss Voigt Hill
#
# Bulk Modulus (GPa) = 24.38927 27.85677 26.12302
# Shear Modulus (GPa) = 11.01796 25.24415 18.13106
#
# Velocity S-wave (km/s) = 2.24462 3.39761 2.87942
# Velocity P-wave (km/s) = 4.22736 5.30378 4.79587
#
# Compressibility (1/GPa) = 0.04100163
#
# Stress axis : x y z
#
# Youngs Moduli (GPa) = 59.41578 104.04776 58.70371
#
# Poissons Ratio (x) = -0.18297 -0.01728
# Poissons Ratio (y) = -0.10448 0.19315
# Poissons Ratio (z) = -0.01749 0.34234
#
# Static dielectric constant tensor:
#      x y z
#    x 1.867400 0.000000 0.000000 
#    y 0.000000 1.876290 0.000000 
#    z 0.000000 0.000000 1.876430 
# 
# From -- ./inp_files/18033.got.cif
#   From: 2010.05.17/outbox.cif.g08.bks.cpg/sg54_10_cif.got.tgz:18033.got - 2010.06.03 13:09:01.
