data_PCOD9423766
_publ_section_title
;
Structure prediction by ZEFSAII (Michael W. Deem and Ramdas Pophale) SiO2 
 PCOD9423766
Probable space group: P C C A
;
_chemical_formula_sum "Si O2"
_cell_formula_units_Z 40
_cell_length_a 8.851726
_cell_length_b 9.956282
_cell_length_c 21.972951
_cell_angle_alpha 90.000000
_cell_angle_beta 90.000000
_cell_angle_gamma 90.000000
_cell_volume 1936.482329
_symmetry_space_group_name_H-M "P C C A"
_symmetry_group_IT_number 54
_symmetry_cell_setting 'orthorhombic'
loop_
_space_group_symop_operation_xyz
x,y,z
1/2-x,-y,z
1/2+x,-y,1/2-z
-x,y,1/2-z
-x,-y,-z
1/2+x,y,-z
1/2-x,y,1/2+z
x,-y,1/2+z
loop_
_atom_site_type_symbol
_atom_site_label
_atom_site_fract_x
_atom_site_fract_y
_atom_site_fract_z
Si Si1 0.954917 0.227168 0.140936
Si Si2 0.617505 0.893847 0.474956
Si Si3 0.394044 0.768771 0.895672
Si Si4 0.927930 0.035689 0.809758
Si Si5 0.429565 0.519295 0.814504
O O1 0.776016 0.216002 0.129383
O O2 0.992433 0.374071 0.165838
O O3 0.052585 0.189289 0.081383
O O4 0.992503 0.107704 0.185811
O O5 0.632687 0.792792 0.532447
O O6 0.750000 0.000000 0.459163
O O7 0.500000 0.000000 0.500000
O O8 0.450049 0.626115 0.869175
O O9 0.509973 0.877042 0.866695
O O10 0.000000 0.104397 0.750000
O O11 0.750000 0.000000 0.807922
O O12 0.250000 0.500000 0.805804
O O13 0.500000 0.561734 0.750000
#
# Coordination Sequence:
#
# PCOD9423766 Si02
#       5
#     8   8   8   8   8
#     4  11  23  41  65  93 129 168 214 267 323 382
#     4  12  22  40  67  98 132 167 215 270 322 381
#     4  11  23  42  65  91 129 172 211 267 326 380
#     4  12  24  38  62  92 123 164 218 268 325 387
#     4  10  24  45  65  92 130 171 214 267 323 385
#
# _framework density 20.656009999999998
#
# number of rings (size 3 to 8) (size 9 to 14) (size 15 to 20)
#    0.000    0.800    4.000    3.600    0.000    5.600 
#    0.000    0.000    0.000    0.000    0.000    0.000 
#    0.000    0.000    0.000    0.000    0.000    0.000 
#
# Total GULP energy -223133.400766 kJ/mol
# GULP energy per Si atom -5578.335019 kJ/mol
# Density = 2.060900 g / cm^3
# Si number density = 20.656010 Si / 1000 Ang^3
#
#
#
# Elastic Constant Matrix: (Units=GPa)
#
#
# Indices 1 2 3 4 5 6 
#
# 1 57.2490 5.5600 -2.8706 0.0000 0.0000 0.0000
# 2 5.5600 117.4114 20.4161 0.0000 0.0000 0.0000
# 3 -2.8706 20.4161 102.8671 0.0000 0.0000 0.0000
# 4 0.0000 0.0000 0.0000 10.7046 0.0000 0.0000
# 5 0.0000 0.0000 0.0000 0.0000 22.6082 0.0000
# 6 0.0000 0.0000 0.0000 0.0000 0.0000 -2.8145
#
#
#
# Elastic Compliance Matrix: (Units=1/GPa)
#
#
# Indices 1 2 3 4 5 6 
#
# 1 0.017594 -0.000951 0.000680 0.000000 0.000000 0.000000
# 2 -0.000951 0.008873 -0.001788 0.000000 0.000000 0.000000
# 3 0.000680 -0.001788 0.010095 0.000000 0.000000 0.000000
# 4 0.000000 0.000000 0.000000 0.093418 0.000000 0.000000
# 5 0.000000 0.000000 0.000000 0.000000 0.044232 0.000000
# 6 0.000000 0.000000 0.000000 0.000000 0.000000 -0.355298
#
#
# Mechanical properties :
#
#
# Convention : Reuss Voigt Hill
#
# Bulk Modulus (GPa) = 30.82258 35.97093 33.39675
# Shear Modulus (GPa) = -30.09274 23.06112 -3.51581
#
# Velocity S-wave (km/s) = -3.82101 3.34494 -1.30605
# Velocity P-wave (km/s) = 2.12429 5.68948 3.73213
#
# Compressibility (1/GPa) = 0.03244375
#
# Stress axis : x y z
#
# Youngs Moduli (GPa) = 56.83740 112.70214 99.05862
#
# Poissons Ratio (x) = 0.10722 -0.06734
# Poissons Ratio (y) = 0.05407 0.17707
# Poissons Ratio (z) = -0.03864 0.20146
#
# Static dielectric constant tensor:
#      x y z
#    x 1.712630 0.000000 0.000000 
#    y 0.000000 1.837590 0.000000 
#    z 0.000000 0.000000 1.835280 
# 
# From -- ./inp_files/23215.got.cif
#   From: 2010.05.17/outbox.cif.g08.bks.cpg/sg54_12_cif.got.tgz:23215.got - 2010.06.03 13:09:01.
