data_PCOD9423716
_publ_section_title
;
Structure prediction by ZEFSAII (Michael W. Deem and Ramdas Pophale) SiO2 
 PCOD9423716
Probable space group: P C C A
;
_chemical_formula_sum "Si O2"
_cell_formula_units_Z 64
_cell_length_a 28.895545
_cell_length_b 9.630528
_cell_length_c 10.299146
_cell_angle_alpha 90.000000
_cell_angle_beta 90.000000
_cell_angle_gamma 90.000000
_cell_volume 2866.039708
_symmetry_space_group_name_H-M "P C C A"
_symmetry_group_IT_number 54
_symmetry_cell_setting 'orthorhombic'
loop_
_space_group_symop_operation_xyz
x,y,z
1/2-x,-y,z
1/2+x,-y,1/2-z
-x,y,1/2-z
-x,-y,-z
1/2+x,y,-z
1/2-x,y,1/2+z
x,-y,1/2+z
loop_
_atom_site_type_symbol
_atom_site_label
_atom_site_fract_x
_atom_site_fract_y
_atom_site_fract_z
Si Si1 0.610889 0.554477 0.927645
Si Si2 0.835626 0.015005 0.209035
Si Si3 0.952483 0.235494 0.079752
Si Si4 0.204314 0.418213 0.973350
Si Si5 0.820020 0.717273 0.270447
Si Si6 0.103214 0.999497 0.531764
Si Si7 0.264058 0.850325 0.105877
Si Si8 0.440568 0.730991 0.118539
O O1 0.579170 0.640953 0.025158
O O2 0.658010 0.498828 0.991079
O O3 0.631091 0.659549 0.818985
O O4 0.583169 0.419514 0.880088
O O5 0.822747 0.856009 0.185322
O O6 0.861421 0.056227 0.078007
O O7 0.870510 0.998817 0.331192
O O8 0.792475 0.104103 0.263437
O O9 0.941319 0.213299 0.232578
O O10 0.006309 0.275117 0.073457
O O11 0.940194 0.101006 0.992378
O O12 0.250000 0.500000 0.012185
O O13 0.203773 0.396886 0.818864
O O14 0.204947 0.268324 0.042216
O O15 0.784747 0.772136 0.378152
O O16 0.086047 0.840309 0.526040
O O17 0.250000 0.000000 0.544180
#
# Coordination Sequence:
#
# PCOD9423716 Si02
#       8
#     8   8   8   8   8   8   8   8
#     4  12  24  46  69 100 143 188 241 296 364 438
#     4  11  23  42  73 103 141 187 243 294 362 424
#     4  11  25  46  73 106 145 191 241 308 367 449
#     4  12  26  42  67 100 139 184 238 294 356 427
#     4  11  24  41  64  97 136 184 238 288 352 418
#     4  12  23  45  73 106 141 190 237 303 364 438
#     4  10  24  44  65  97 136 186 237 293 345 422
#     4  11  25  46  74 107 144 189 245 303 377 440
#
# _framework density 22.330465
#
# number of rings (size 3 to 8) (size 9 to 14) (size 15 to 20)
#    0.000    0.750    3.750    3.750    1.750    4.500 
#    0.000    0.000    0.000    0.000    0.000    0.000 
#    0.000    0.000    0.000    0.000    0.000    0.000 
#
# Total GULP energy -357362.496008 kJ/mol
# GULP energy per Si atom -5583.789000 kJ/mol
# Density = 2.227964 g / cm^3
# Si number density = 22.330465 Si / 1000 Ang^3
#
#
#
# Elastic Constant Matrix: (Units=GPa)
#
#
# Indices 1 2 3 4 5 6 
#
# 1 108.7503 38.1674 25.0662 0.0000 0.0000 0.0000
# 2 38.1674 78.2983 12.1269 0.0000 0.0000 0.0000
# 3 25.0662 12.1269 56.2077 0.0000 0.0000 0.0000
# 4 0.0000 0.0000 0.0000 22.7745 0.0000 0.0000
# 5 0.0000 0.0000 0.0000 0.0000 14.6536 0.0000
# 6 0.0000 0.0000 0.0000 0.0000 0.0000 45.5526
#
#
#
# Elastic Compliance Matrix: (Units=1/GPa)
#
#
# Indices 1 2 3 4 5 6 
#
# 1 0.011992 -0.005191 -0.004228 0.000000 0.000000 0.000000
# 2 -0.005191 0.015460 -0.001021 0.000000 0.000000 0.000000
# 3 -0.004228 -0.001021 0.019897 0.000000 0.000000 0.000000
# 4 0.000000 0.000000 0.000000 0.043909 0.000000 0.000000
# 5 0.000000 0.000000 0.000000 0.000000 0.068242 0.000000
# 6 0.000000 0.000000 0.000000 0.000000 0.000000 0.021953
#
#
# Mechanical properties :
#
#
# Convention : Reuss Voigt Hill
#
# Bulk Modulus (GPa) = 37.77860 43.77525 40.77693
# Shear Modulus (GPa) = 23.67941 27.78921 25.73431
#
# Velocity S-wave (km/s) = 3.25992 3.53151 3.39843
# Velocity P-wave (km/s) = 5.57890 6.02284 5.80512
#
# Compressibility (1/GPa) = 0.02647001
#
# Stress axis : x y z
#
# Youngs Moduli (GPa) = 83.39177 64.68311 50.25935
#
# Poissons Ratio (x) = 0.33575 0.21249
# Poissons Ratio (y) = 0.43286 0.05130
# Poissons Ratio (z) = 0.35257 0.06602
#
# Static dielectric constant tensor:
#      x y z
#    x 1.856000 0.000000 0.000000 
#    y 0.000000 1.857300 0.000000 
#    z 0.000000 0.000000 1.877550 
# 
# From -- ./inp_files/10555.got.cif
#   From: 2010.05.17/outbox.cif.g08.bks.cpg/sg54_6_cif.got.tgz:10555.got - 2010.06.03 13:09:01.
