data_PCOD9423577
_publ_section_title
;
Structure prediction by ZEFSAII (Michael W. Deem and Ramdas Pophale) SiO2 
 PCOD9423577
Probable space group: P C C A
;
_chemical_formula_sum "Si O2"
_cell_formula_units_Z 40
_cell_length_a 15.425039
_cell_length_b 4.671867
_cell_length_c 20.461991
_cell_angle_alpha 90.000000
_cell_angle_beta 90.000000
_cell_angle_gamma 90.000000
_cell_volume 1474.567409
_symmetry_space_group_name_H-M "P C C A"
_symmetry_group_IT_number 54
_symmetry_cell_setting 'orthorhombic'
loop_
_space_group_symop_operation_xyz
x,y,z
1/2-x,-y,z
1/2+x,-y,1/2-z
-x,y,1/2-z
-x,-y,-z
1/2+x,y,-z
1/2-x,y,1/2+z
x,-y,1/2+z
loop_
_atom_site_type_symbol
_atom_site_label
_atom_site_fract_x
_atom_site_fract_y
_atom_site_fract_z
Si Si1 0.386157 0.262718 0.909591
Si Si2 0.649198 0.078848 0.863965
Si Si3 0.343320 0.878570 0.276627
Si Si4 0.004193 0.331739 0.820290
Si Si5 0.912858 0.302207 0.502923
O O1 0.324472 0.257879 0.847058
O O2 0.462669 0.440630 0.872699
O O3 0.415318 0.970448 0.946806
O O4 0.349241 0.467702 0.965049
O O5 0.640184 0.256247 0.795568
O O6 0.617674 0.205737 0.932342
O O7 0.750000 0.000000 0.873689
O O8 0.581304 0.823788 0.846838
O O9 0.250000 0.000000 0.260583
O O10 0.420521 0.095545 0.300287
O O11 0.000000 0.481649 0.750000
O O12 0.000000 0.500000 0.500000
#
# Coordination Sequence:
#
# PCOD9423577 Si02
#       5
#     8   8   8   8   8
#     4  12  26  49  80 122 157 217 275 341 412 493
#     4  10  25  54  85 121 171 222 280 344 425 506
#     4  10  23  51  84 120 163 216 283 350 416 504
#     4  10  23  46  81 124 162 217 282 346 421 493
#     4  12  28  50  83 118 166 219 276 341 421 506
#
# _framework density 27.126598000000001
#
# number of rings (size 3 to 8) (size 9 to 14) (size 15 to 20)
#    0.000    1.200    2.000    1.800    2.800    5.600 
#    7.200    0.000    0.000    0.000    0.000    0.000 
#    0.000    0.000    0.000    0.000    0.000    0.000 
#
# Total GULP energy -223052.400003 kJ/mol
# GULP energy per Si atom -5576.310000 kJ/mol
# Density = 2.706486 g / cm^3
# Si number density = 27.126598 Si / 1000 Ang^3
#
#
#
# Elastic Constant Matrix: (Units=GPa)
#
#
# Indices 1 2 3 4 5 6 
#
# 1 162.0805 47.4317 58.7884 0.0000 0.0000 0.0000
# 2 47.4317 136.2237 94.0076 0.0000 0.0000 0.0000
# 3 58.7884 94.0076 328.0913 0.0000 0.0000 0.0000
# 4 0.0000 0.0000 0.0000 53.8444 0.0000 0.0000
# 5 0.0000 0.0000 0.0000 0.0000 35.9355 0.0000
# 6 0.0000 0.0000 0.0000 0.0000 0.0000 14.6415
#
#
#
# Elastic Compliance Matrix: (Units=1/GPa)
#
#
# Indices 1 2 3 4 5 6 
#
# 1 0.006994 -0.001957 -0.000692 0.000000 0.000000 0.000000
# 2 -0.001957 0.009698 -0.002428 0.000000 0.000000 0.000000
# 3 -0.000692 -0.002428 0.003868 0.000000 0.000000 0.000000
# 4 0.000000 0.000000 0.000000 0.018572 0.000000 0.000000
# 5 0.000000 0.000000 0.000000 0.000000 0.027828 0.000000
# 6 0.000000 0.000000 0.000000 0.000000 0.000000 0.068299
#
#
# Mechanical properties :
#
#
# Convention : Reuss Voigt Hill
#
# Bulk Modulus (GPa) = 96.11737 114.09453 105.10595
# Shear Modulus (GPa) = 33.58378 49.29547 41.43963
#
# Velocity S-wave (km/s) = 3.52239 4.26753 3.91274
# Velocity P-wave (km/s) = 7.21476 8.15069 7.69697
#
# Compressibility (1/GPa) = 0.01040395
#
# Stress axis : x y z
#
# Youngs Moduli (GPa) = 142.98594 103.11430 258.55296
#
# Poissons Ratio (x) = 0.20183 0.17900
# Poissons Ratio (y) = 0.27988 0.62777
# Poissons Ratio (z) = 0.09899 0.25036
#
# Static dielectric constant tensor:
#      x y z
#    x 1.881800 0.000000 0.000000 
#    y 0.000000 2.315970 0.000000 
#    z 0.000000 0.000000 2.444950 
# 
# From -- ./inp_files/24328.got.cif
#   From: 2010.05.17/outbox.cif.g08.bks.cpg/sg54_13_cif.got.tgz:24328.got - 2010.06.03 13:09:01.
