data_PCOD9423462
_publ_section_title
;
Structure prediction by ZEFSAII (Michael W. Deem and Ramdas Pophale) SiO2 
 PCOD9423462
Probable space group: P C C A
;
_chemical_formula_sum "Si O2"
_cell_formula_units_Z 32
_cell_length_a 8.735556
_cell_length_b 14.483228
_cell_length_c 10.512671
_cell_angle_alpha 90.000000
_cell_angle_beta 90.000000
_cell_angle_gamma 90.000000
_cell_volume 1330.053140
_symmetry_space_group_name_H-M "P C C A"
_symmetry_group_IT_number 54
_symmetry_cell_setting 'orthorhombic'
loop_
_space_group_symop_operation_xyz
x,y,z
1/2-x,-y,z
1/2+x,-y,1/2-z
-x,y,1/2-z
-x,-y,-z
1/2+x,y,-z
1/2-x,y,1/2+z
x,-y,1/2+z
loop_
_atom_site_type_symbol
_atom_site_label
_atom_site_fract_x
_atom_site_fract_y
_atom_site_fract_z
Si Si1 0.500000 0.379842 0.250000
Si Si2 0.234056 0.591898 0.921300
Si Si3 0.500000 0.691128 0.250000
Si Si4 0.090511 0.948823 0.114854
Si Si5 0.223246 0.248984 0.596720
O O1 0.631341 0.433839 0.177069
O O2 0.595884 0.315331 0.343556
O O3 0.250000 0.500000 0.009144
O O4 0.077712 0.624798 0.854967
O O5 0.284981 0.689198 0.981898
O O6 0.634596 0.754690 0.306484
O O7 0.142826 0.847084 0.068966
O O8 0.000000 0.942840 0.250000
O O9 0.250000 0.000000 0.140041
O O10 0.000000 0.000000 0.000000
#
# Coordination Sequence:
#
# PCOD9423462 Si02
#       5
#     4   8   4   8   8
#     4  10  23  42  69  94 146 184 243 302 377 458
#     4  11  24  42  69 106 145 198 253 312 383 467
#     4  10  25  42  71 100 152 200 245 318 391 466
#     4  12  30  52  85 120 158 208 270 334 412 488
#     4  11  25  46  72 102 148 190 249 311 394 463
#
# _framework density 24.059190999999998
#
# number of rings (size 3 to 8) (size 9 to 14) (size 15 to 20)
#    0.000    1.000    1.250    3.000    8.750   10.000 
#    0.000    0.000    0.000    0.000    0.000    0.000 
#    0.000    0.000    0.000    0.000    0.000    0.000 
#
# Total GULP energy -178736.450246 kJ/mol
# GULP energy per Si atom -5585.514070 kJ/mol
# Density = 2.400443 g / cm^3
# Si number density = 24.059191 Si / 1000 Ang^3
#
#
#
# Elastic Constant Matrix: (Units=GPa)
#
#
# Indices 1 2 3 4 5 6 
#
# 1 157.4807 30.7482 42.7259 0.0000 0.0000 0.0000
# 2 30.7482 153.2173 36.9648 0.0000 0.0000 0.0000
# 3 42.7259 36.9648 80.6558 0.0000 0.0000 0.0000
# 4 0.0000 0.0000 0.0000 18.3322 0.0000 0.0000
# 5 0.0000 0.0000 0.0000 0.0000 35.5270 0.0000
# 6 0.0000 0.0000 0.0000 0.0000 0.0000 28.6051
#
#
#
# Elastic Compliance Matrix: (Units=1/GPa)
#
#
# Indices 1 2 3 4 5 6 
#
# 1 0.007466 -0.000612 -0.003675 0.000000 0.000000 0.000000
# 2 -0.000612 0.007388 -0.003062 0.000000 0.000000 0.000000
# 3 -0.003675 -0.003062 0.015748 0.000000 0.000000 0.000000
# 4 0.000000 0.000000 0.000000 0.054549 0.000000 0.000000
# 5 0.000000 0.000000 0.000000 0.000000 0.028148 0.000000
# 6 0.000000 0.000000 0.000000 0.000000 0.000000 0.034959
#
#
# Mechanical properties :
#
#
# Convention : Reuss Voigt Hill
#
# Bulk Modulus (GPa) = 62.87004 68.02574 65.44789
# Shear Modulus (GPa) = 29.71640 35.22051 32.46845
#
# Velocity S-wave (km/s) = 3.51826 3.83026 3.67757
# Velocity P-wave (km/s) = 6.53394 6.92076 6.73013
#
# Compressibility (1/GPa) = 0.01590583
#
# Stress axis : x y z
#
# Youngs Moduli (GPa) = 133.93248 135.35143 63.49885
#
# Poissons Ratio (x) = 0.08281 0.23335
# Poissons Ratio (y) = 0.08194 0.19443
# Poissons Ratio (z) = 0.49218 0.41444
#
# Static dielectric constant tensor:
#      x y z
#    x 1.857740 0.000000 0.000000 
#    y 0.000000 2.049680 0.000000 
#    z 0.000000 0.000000 2.605330 
# 
# From -- ./inp_files/6758.got.cif
#   From: 2010.05.17/outbox.cif.g08.bks.cpg/sg54_4_cif.got.tgz:6758.got - 2010.06.03 13:09:01.
