data_PCOD9423843
_publ_section_title
;
Structure prediction by ZEFSAII (Michael W. Deem and Ramdas Pophale) SiO2 
 PCOD9423843
Probable space group: P C C A
;
_chemical_formula_sum "Si O2"
_cell_formula_units_Z 56
_cell_length_a 28.750167
_cell_length_b 4.981539
_cell_length_c 15.117665
_cell_angle_alpha 90.000000
_cell_angle_beta 90.000000
_cell_angle_gamma 90.000000
_cell_volume 2165.153163
_symmetry_space_group_name_H-M "P C C A"
_symmetry_group_IT_number 54
_symmetry_cell_setting 'orthorhombic'
loop_
_space_group_symop_operation_xyz
x,y,z
1/2-x,-y,z
1/2+x,-y,1/2-z
-x,y,1/2-z
-x,-y,-z
1/2+x,y,-z
1/2-x,y,1/2+z
x,-y,1/2+z
loop_
_atom_site_type_symbol
_atom_site_label
_atom_site_fract_x
_atom_site_fract_y
_atom_site_fract_z
Si Si1 0.155538 0.849667 0.269643
Si Si2 0.250000 0.500000 0.524979
Si Si3 0.069128 0.932636 0.856025
Si Si4 0.300938 0.089054 0.940728
Si Si5 0.666521 0.649539 0.354696
Si Si6 0.612217 0.256244 0.478020
Si Si7 0.012564 0.719497 0.075277
Si Si8 0.500000 0.616313 0.250000
O O1 0.189386 0.965835 0.345944
O O2 0.154366 0.070737 0.191618
O O3 0.105689 0.854960 0.318382
O O4 0.168442 0.568849 0.225908
O O5 0.209765 0.403463 0.455142
O O6 0.283784 0.349887 0.595868
O O7 0.028087 0.063218 0.914098
O O8 0.044049 0.794515 0.774732
O O9 0.096207 0.720675 0.918844
O O10 0.250000 0.000000 0.972460
O O11 0.344501 0.053414 0.006401
O O12 0.629779 0.510882 0.422616
O O13 0.564552 0.165016 0.432920
O O14 0.011198 0.561410 0.166547
O O15 0.000000 0.500000 0.000000
#
# Coordination Sequence:
#
# PCOD9423843 Si02
#       8
#     8   4   8   8   8   8   8   4
#     4  11  28  47  76 111 155 201 258 330 392 475
#     4  10  26  46  74 110 148 200 254 322 392 488
#     4  11  26  46  71 111 154 206 269 320 394 475
#     4  10  25  48  75 106 149 199 254 319 397 475
#     4  11  27  47  77 111 154 197 263 320 403 468
#     4  10  24  49  70 109 145 204 252 321 394 475
#     4  12  26  46  77 107 155 208 264 329 402 477
#     4  12  26  44  72 110 158 206 270 332 396 478
#
# _framework density 25.864222999999999
#
# number of rings (size 3 to 8) (size 9 to 14) (size 15 to 20)
#    0.000    1.143    1.429    1.714   14.000    1.143 
#    5.143    0.000    0.000    0.000    0.000    0.000 
#    0.000    0.000    0.000    0.000    0.000    0.000 
#
# Total GULP energy -313024.623153 kJ/mol
# GULP energy per Si atom -5589.725413 kJ/mol
# Density = 2.580535 g / cm^3
# Si number density = 25.864223 Si / 1000 Ang^3
#
#
#
# Elastic Constant Matrix: (Units=GPa)
#
#
# Indices 1 2 3 4 5 6 
#
# 1 172.1126 17.5740 47.1244 0.0000 0.0000 0.0000
# 2 17.5740 48.1901 27.6264 0.0000 0.0000 0.0000
# 3 47.1244 27.6264 137.3837 0.0000 0.0000 0.0000
# 4 0.0000 0.0000 0.0000 43.7938 0.0000 0.0000
# 5 0.0000 0.0000 0.0000 0.0000 55.2139 0.0000
# 6 0.0000 0.0000 0.0000 0.0000 0.0000 8.0668
#
#
#
# Elastic Compliance Matrix: (Units=1/GPa)
#
#
# Indices 1 2 3 4 5 6 
#
# 1 0.006476 -0.001230 -0.001974 0.000000 0.000000 0.000000
# 2 -0.001230 0.023689 -0.004342 0.000000 0.000000 0.000000
# 3 -0.001974 -0.004342 0.008829 0.000000 0.000000 0.000000
# 4 0.000000 0.000000 0.000000 0.022834 0.000000 0.000000
# 5 0.000000 0.000000 0.000000 0.000000 0.018111 0.000000
# 6 0.000000 0.000000 0.000000 0.000000 0.000000 0.123965
#
#
# Mechanical properties :
#
#
# Convention : Reuss Voigt Hill
#
# Bulk Modulus (GPa) = 41.83669 60.25958 51.04813
# Shear Modulus (GPa) = 22.02993 39.10566 30.56780
#
# Velocity S-wave (km/s) = 2.92165 3.89261 3.44154
# Velocity P-wave (km/s) = 5.25281 6.59941 5.96424
#
# Compressibility (1/GPa) = 0.02390247
#
# Stress axis : x y z
#
# Youngs Moduli (GPa) = 154.41027 42.21428 113.26216
#
# Poissons Ratio (x) = 0.05193 0.22359
# Poissons Ratio (y) = 0.18993 0.49174
# Poissons Ratio (z) = 0.30482 0.18328
#
# Static dielectric constant tensor:
#      x y z
#    x 2.022050 0.000000 0.000000 
#    y 0.000000 0.774640 0.000000 
#    z 0.000000 0.000000 2.026650 
# 
# From -- ./inp_files/15393.got.cif
#   From: 2010.05.17/outbox.cif.g08.bks.cpg/sg54_8_cif.got.tgz:15393.got - 2010.06.03 13:09:01.
