data_PCOD9423738
_publ_section_title
;
Structure prediction by ZEFSAII (Michael W. Deem and Ramdas Pophale) SiO2 
 PCOD9423738
Probable space group: P C C A
;
_chemical_formula_sum "Si O2"
_cell_formula_units_Z 32
_cell_length_a 8.865439
_cell_length_b 5.059157
_cell_length_c 30.671245
_cell_angle_alpha 90.000000
_cell_angle_beta 90.000000
_cell_angle_gamma 90.000000
_cell_volume 1375.655878
_symmetry_space_group_name_H-M "P C C A"
_symmetry_group_IT_number 54
_symmetry_cell_setting 'orthorhombic'
loop_
_space_group_symop_operation_xyz
x,y,z
1/2-x,-y,z
1/2+x,-y,1/2-z
-x,y,1/2-z
-x,-y,-z
1/2+x,y,-z
1/2-x,y,1/2+z
x,-y,1/2+z
loop_
_atom_site_type_symbol
_atom_site_label
_atom_site_fract_x
_atom_site_fract_y
_atom_site_fract_z
Si Si1 0.022673 0.603066 0.314925
Si Si2 0.508011 0.827958 0.957500
Si Si3 0.750000 0.500000 0.499933
Si Si4 0.750000 0.500000 0.754985
Si Si5 0.574704 0.914328 0.131981
O O1 0.158359 0.672488 0.280966
O O2 0.984692 0.883033 0.336325
O O3 0.889034 0.459340 0.288007
O O4 0.063905 0.387463 0.351893
O O5 0.666492 0.689062 0.965507
O O6 0.484606 0.009037 0.915670
O O7 0.372353 0.622895 0.966776
O O8 0.500000 0.000000 0.000000
O O9 0.750000 0.000000 0.133419
#
# Coordination Sequence:
#
# PCOD9423738 Si02
#       5
#     8   8   4   4   8
#     4  11  26  45  74 103 139 183 230 298 347 438
#     4  11  25  45  71  99 145 191 238 292 361 427
#     4  10  24  44  70 102 130 206 236 294 356 430
#     4  10  24  50  72 102 140 182 234 284 378 420
#     4  12  25  44  71 106 140 182 241 285 355 414
#
# _framework density 23.261631000000001
#
# number of rings (size 3 to 8) (size 9 to 14) (size 15 to 20)
#    0.000    1.000    2.500    2.250   10.500    8.000 
#    4.500    0.000    0.000    0.000    0.000    0.000 
#    0.000    0.000    0.000    0.000    0.000    0.000 
#
# Total GULP energy -178299.742544 kJ/mol
# GULP energy per Si atom -5571.866954 kJ/mol
# Density = 2.320869 g / cm^3
# Si number density = 23.261631 Si / 1000 Ang^3
#
#
#
# Elastic Constant Matrix: (Units=GPa)
#
#
# Indices 1 2 3 4 5 6 
#
# 1 57.8793 3.2698 19.2417 0.0000 0.0000 0.0000
# 2 3.2698 90.8025 22.8932 0.0000 0.0000 0.0000
# 3 19.2417 22.8932 134.2211 0.0000 0.0000 0.0000
# 4 0.0000 0.0000 0.0000 -5.1642 0.0000 0.0000
# 5 0.0000 0.0000 0.0000 0.0000 25.6188 0.0000
# 6 0.0000 0.0000 0.0000 0.0000 0.0000 18.7069
#
#
#
# Elastic Compliance Matrix: (Units=1/GPa)
#
#
# Indices 1 2 3 4 5 6 
#
# 1 0.018142 0.000003 -0.002601 0.000000 0.000000 0.000000
# 2 0.000003 0.011508 -0.001963 0.000000 0.000000 0.000000
# 3 -0.002601 -0.001963 0.008158 0.000000 0.000000 0.000000
# 4 0.000000 0.000000 0.000000 -0.193642 0.000000 0.000000
# 5 0.000000 0.000000 0.000000 0.000000 0.039034 0.000000
# 6 0.000000 0.000000 0.000000 0.000000 0.000000 0.053456
#
#
# Mechanical properties :
#
#
# Convention : Reuss Voigt Hill
#
# Bulk Modulus (GPa) = 34.86249 41.52361 38.19305
# Shear Modulus (GPa) = -111.95847 23.66552 -44.14647
#
# Velocity S-wave (km/s) = -6.94511 3.19307 -4.36113
# Velocity P-wave (km/s) = 7.02091 5.61104 2.98407
#
# Compressibility (1/GPa) = 0.02868413
#
# Stress axis : x y z
#
# Youngs Moduli (GPa) = 55.12086 86.89778 122.57681
#
# Poissons Ratio (x) = -0.00022 0.31885
# Poissons Ratio (y) = -0.00014 0.24064
# Poissons Ratio (z) = 0.14338 0.17060
#
# Static dielectric constant tensor:
#      x y z
#    x 1.877150 0.000000 0.000000 
#    y 0.000000 1.437140 0.000000 
#    z 0.000000 0.000000 1.848970 
# 
# From -- ./inp_files/27406.got.cif
#   From: 2010.05.17/outbox.cif.g08.bks.cpg/sg54_14_cif.got.tgz:27406.got - 2010.06.03 13:09:01.
