data_PCOD9423493
_publ_section_title
;
Structure prediction by ZEFSAII (Michael W. Deem and Ramdas Pophale) SiO2 
 PCOD9423493
Probable space group: P C C A
;
_chemical_formula_sum "Si O2"
_cell_formula_units_Z 32
_cell_length_a 14.011723
_cell_length_b 5.423697
_cell_length_c 18.686529
_cell_angle_alpha 90.000000
_cell_angle_beta 90.000000
_cell_angle_gamma 90.000000
_cell_volume 1420.089125
_symmetry_space_group_name_H-M "P C C A"
_symmetry_group_IT_number 54
_symmetry_cell_setting 'orthorhombic'
loop_
_space_group_symop_operation_xyz
x,y,z
1/2-x,-y,z
1/2+x,-y,1/2-z
-x,y,1/2-z
-x,-y,-z
1/2+x,y,-z
1/2-x,y,1/2+z
x,-y,1/2+z
loop_
_atom_site_type_symbol
_atom_site_label
_atom_site_fract_x
_atom_site_fract_y
_atom_site_fract_z
Si Si1 0.033661 0.807492 0.557804
Si Si2 0.365515 0.028425 0.701273
Si Si3 0.863945 0.538590 0.223828
Si Si4 0.363066 0.468782 0.432911
O O1 0.098417 0.628493 0.508668
O O2 0.932810 0.697237 0.582397
O O3 0.094104 0.906674 0.623451
O O4 0.000000 0.000000 0.500000
O O5 0.398377 0.753621 0.723347
O O6 0.250000 0.000000 0.700282
O O7 0.394723 0.261431 0.752087
O O8 0.750000 0.500000 0.228603
O O9 0.878526 0.657732 0.144526
O O10 0.250000 0.500000 0.439693
#
# Coordination Sequence:
#
# PCOD9423493 Si02
#       4
#     8   8   8   8
#     4  11  27  43  66 109 134 188 240 286 362 426
#     4  10  23  43  72 100 142 181 234 291 351 420
#     4   9  21  44  71 103 133 187 232 284 354 417
#     4  10  25  47  71  98 146 187 238 296 357 429
#
# _framework density 22.533797
#
# number of rings (size 3 to 8) (size 9 to 14) (size 15 to 20)
#    0.000    2.000    0.000    0.000   14.000    2.000 
#    0.000    0.000    0.000    0.000    0.000    0.000 
#    0.000    0.000    0.000    0.000    0.000    0.000 
#
# Total GULP energy -178164.590338 kJ/mol
# GULP energy per Si atom -5567.643448 kJ/mol
# Density = 2.248251 g / cm^3
# Si number density = 22.533797 Si / 1000 Ang^3
#
#
#
# Elastic Constant Matrix: (Units=GPa)
#
#
# Indices 1 2 3 4 5 6 
#
# 1 145.9370 18.5212 31.4583 0.0000 0.0000 0.0000
# 2 18.5212 90.3360 27.5378 0.0000 0.0000 0.0000
# 3 31.4583 27.5378 123.2304 0.0000 0.0000 0.0000
# 4 0.0000 0.0000 0.0000 -12.4319 0.0000 0.0000
# 5 0.0000 0.0000 0.0000 0.0000 -235.3769 0.0000
# 6 0.0000 0.0000 0.0000 0.0000 0.0000 -16.0076
#
#
#
# Elastic Compliance Matrix: (Units=1/GPa)
#
#
# Indices 1 2 3 4 5 6 
#
# 1 0.007335 -0.001001 -0.001649 0.000000 0.000000 0.000000
# 2 -0.001001 0.012016 -0.002429 0.000000 0.000000 0.000000
# 3 -0.001649 -0.002429 0.009079 0.000000 0.000000 0.000000
# 4 0.000000 0.000000 0.000000 -0.080438 0.000000 0.000000
# 5 0.000000 0.000000 0.000000 0.000000 -0.004249 0.000000
# 6 0.000000 0.000000 0.000000 0.000000 0.000000 -0.062470
#
#
# Mechanical properties :
#
#
# Convention : Reuss Voigt Hill
#
# Bulk Modulus (GPa) = 54.73376 57.17088 55.95232
# Shear Modulus (GPa) = -48.79054 -33.96421 -41.37737
#
# Velocity S-wave (km/s) = -4.65824 -3.88655 -4.28978
# Velocity P-wave (km/s) = 2.14240 2.29910 0.58992
#
# Compressibility (1/GPa) = 0.01827026
#
# Stress axis : x y z
#
# Youngs Moduli (GPa) = 136.33770 83.22474 110.14837
#
# Poissons Ratio (x) = 0.08333 0.18160
# Poissons Ratio (y) = 0.13651 0.26760
# Poissons Ratio (z) = 0.22478 0.20219
#
# Static dielectric constant tensor:
#      x y z
#    x 1.884930 0.000000 0.000000 
#    y 0.000000 1.870670 0.000000 
#    z 0.000000 0.000000 1.250850 
# 
# From -- ./inp_files/17577.got.cif
#   From: 2010.05.17/outbox.cif.g08.bks.cpg/sg54_9_cif.got.tgz:17577.got - 2010.06.03 13:09:01.
