data_PCOD9423755
_publ_section_title
;
Structure prediction by ZEFSAII (Michael W. Deem and Ramdas Pophale) SiO2 
 PCOD9423755
Probable space group: P C C A
;
_chemical_formula_sum "Si O2"
_cell_formula_units_Z 40
_cell_length_a 10.589510
_cell_length_b 15.050518
_cell_length_c 10.057238
_cell_angle_alpha 90.000000
_cell_angle_beta 90.000000
_cell_angle_gamma 90.000000
_cell_volume 1602.898564
_symmetry_space_group_name_H-M "P C C A"
_symmetry_group_IT_number 54
_symmetry_cell_setting 'orthorhombic'
loop_
_space_group_symop_operation_xyz
x,y,z
1/2-x,-y,z
1/2+x,-y,1/2-z
-x,y,1/2-z
-x,-y,-z
1/2+x,y,-z
1/2-x,y,1/2+z
x,-y,1/2+z
loop_
_atom_site_type_symbol
_atom_site_label
_atom_site_fract_x
_atom_site_fract_y
_atom_site_fract_z
Si Si1 0.000000 0.875016 0.250000
Si Si2 0.750000 0.000000 0.506580
Si Si3 0.870047 0.664532 0.494119
Si Si4 0.246986 0.825564 0.653050
Si Si5 0.500000 0.729242 0.250000
Si Si6 0.000000 0.000000 0.000000
Si Si7 0.750000 0.500000 0.119671
Si Si8 0.000000 0.570795 0.250000
O O1 0.138026 0.829925 0.260626
O O2 0.028865 0.927289 0.114650
O O3 0.798751 0.081416 0.416122
O O4 0.628489 0.030182 0.584374
O O5 0.800949 0.755923 0.455171
O O6 0.961342 0.675750 0.619460
O O7 0.771465 0.587426 0.531260
O O8 0.951983 0.631680 0.370157
O O9 0.122362 0.786054 0.715819
O O10 0.622756 0.484705 0.204380
#
# Coordination Sequence:
#
# PCOD9423755 Si02
#       8
#     4   4   8   8   4   4   4   4
#     4  10  25  49  74 108 156 204 265 331 402 462
#     4  10  26  46  74 106 152 204 262 324 386 458
#     4  12  27  51  81 121 160 210 265 335 403 488
#     4  11  27  48  76 114 160 206 268 330 395 468
#     4  12  29  49  83 117 160 216 273 327 407 491
#     4  10  24  44  74 104 150 198 268 316 400 454
#     4  12  26  50  84 124 154 210 264 328 410 488
#     4  12  26  50  85 113 170 202 260 332 401 487
#
# _framework density 24.954791
#
# number of rings (size 3 to 8) (size 9 to 14) (size 15 to 20)
#    0.000    0.800    0.000    4.800    8.400    6.400 
#    0.000    0.000    0.000    0.000    0.000    0.000 
#    0.000    0.000    0.000    0.000    0.000    0.000 
#
# Total GULP energy -222987.955515 kJ/mol
# GULP energy per Si atom -5574.698888 kJ/mol
# Density = 2.489799 g / cm^3
# Si number density = 24.954791 Si / 1000 Ang^3
#
#
#
# Elastic Constant Matrix: (Units=GPa)
#
#
# Indices 1 2 3 4 5 6 
#
# 1 151.9550 23.5380 32.8609 0.0000 0.0000 0.0000
# 2 23.5380 125.4013 55.7160 0.0000 0.0000 0.0000
# 3 32.8609 55.7160 116.2153 0.0000 0.0000 0.0000
# 4 0.0000 0.0000 0.0000 5.2988 0.0000 0.0000
# 5 0.0000 0.0000 0.0000 0.0000 39.6059 0.0000
# 6 0.0000 0.0000 0.0000 0.0000 0.0000 261.8960
#
#
#
# Elastic Compliance Matrix: (Units=1/GPa)
#
#
# Indices 1 2 3 4 5 6 
#
# 1 0.007040 -0.000555 -0.001724 0.000000 0.000000 0.000000
# 2 -0.000555 0.010177 -0.004722 0.000000 0.000000 0.000000
# 3 -0.001724 -0.004722 0.011356 0.000000 0.000000 0.000000
# 4 0.000000 0.000000 0.000000 0.188722 0.000000 0.000000
# 5 0.000000 0.000000 0.000000 0.000000 0.025249 0.000000
# 6 0.000000 0.000000 0.000000 0.000000 0.000000 0.003818
#
#
# Mechanical properties :
#
#
# Convention : Reuss Voigt Hill
#
# Bulk Modulus (GPa) = 68.63662 68.64461 68.64061
# Shear Modulus (GPa) = 18.85221 80.12392 49.48806
#
# Velocity S-wave (km/s) = 2.75153 5.67251 4.45804
# Velocity P-wave (km/s) = 6.13667 8.39467 7.35286
#
# Compressibility (1/GPa) = 0.01456948
#
# Stress axis : x y z
#
# Youngs Moduli (GPa) = 142.04943 98.26521 88.05879
#
# Poissons Ratio (x) = 0.05456 0.15185
# Poissons Ratio (y) = 0.07887 0.41580
# Poissons Ratio (z) = 0.24495 0.46399
#
# Static dielectric constant tensor:
#      x y z
#    x 3.109480 0.000000 0.000000 
#    y 0.000000 1.732380 0.000000 
#    z 0.000000 0.000000 1.852940 
# 
# From -- ./inp_files/3014.got.cif
#   From: 2010.05.17/outbox.cif.g08.bks.cpg/sg54_2_cif.got.tgz:3014.got - 2010.06.03 13:09:01.
