data_PCOD9423281
_publ_section_title
;
Structure prediction by ZEFSAII (Michael W. Deem and Ramdas Pophale) SiO2 
 PCOD9423281
Probable space group: P C C A
;
_chemical_formula_sum "Si O2"
_cell_formula_units_Z 60
_cell_length_a 32.048687
_cell_length_b 7.227772
_cell_length_c 11.340902
_cell_angle_alpha 90.000000
_cell_angle_beta 90.000000
_cell_angle_gamma 90.000000
_cell_volume 2627.013373
_symmetry_space_group_name_H-M "P C C A"
_symmetry_group_IT_number 54
_symmetry_cell_setting 'orthorhombic'
loop_
_space_group_symop_operation_xyz
x,y,z
1/2-x,-y,z
1/2+x,-y,1/2-z
-x,y,1/2-z
-x,-y,-z
1/2+x,y,-z
1/2-x,y,1/2+z
x,-y,1/2+z
loop_
_atom_site_type_symbol
_atom_site_label
_atom_site_fract_x
_atom_site_fract_y
_atom_site_fract_z
Si Si1 0.665950 0.129304 0.585614
Si Si2 0.546091 0.861431 0.886348
Si Si3 0.124443 0.616916 0.079801
Si Si4 0.750000 0.000000 0.984833
Si Si5 0.368061 0.738653 0.963634
Si Si6 0.783670 0.229902 0.282704
Si Si7 0.049272 0.122739 0.880638
Si Si8 0.193946 0.344963 0.763029
O O1 0.639774 0.305647 0.546630
O O2 0.713986 0.123954 0.543015
O O3 0.676919 0.127169 0.723445
O O4 0.642007 0.955703 0.531766
O O5 0.579153 0.695791 0.893768
O O6 0.497755 0.799697 0.887100
O O7 0.553277 0.953218 0.755148
O O8 0.551742 0.986661 0.004570
O O9 0.158883 0.703169 0.166980
O O10 0.127557 0.395460 0.074895
O O11 0.723060 0.146568 0.910432
O O12 0.412911 0.733756 0.898375
O O13 0.329445 0.667189 0.886037
O O14 0.793066 0.446199 0.268187
O O15 0.735141 0.217770 0.236881
#
# Coordination Sequence:
#
# PCOD9423281 Si02
#       8
#     8   8   8   4   8   8   8   8
#     4  12  25  42  64  95 127 180 227 289 347 420
#     4  10  22  45  75 109 148 185 238 298 364 426
#     4  12  24  44  68  99 138 181 232 294 351 428
#     4  12  22  40  62  88 124 178 228 272 358 402
#     4  12  24  43  68  99 137 181 234 284 353 430
#     4  11  24  41  64  89 131 176 227 292 343 418
#     4  10  22  44  76 109 145 191 234 297 361 440
#     4  11  23  43  63  94 130 176 235 287 349 413
#
# _framework density 22.839624000000001
#
# number of rings (size 3 to 8) (size 9 to 14) (size 15 to 20)
#    0.000    0.800    5.333    2.800    0.000    0.533 
#    4.800    0.000    0.000    0.000    0.000    0.000 
#    0.000    0.000    0.000    0.000    0.000    0.000 
#
# Total GULP energy -334524.430735 kJ/mol
# GULP energy per Si atom -5575.407179 kJ/mol
# Density = 2.278764 g / cm^3
# Si number density = 22.839624 Si / 1000 Ang^3
#
#
#
# Elastic Constant Matrix: (Units=GPa)
#
#
# Indices 1 2 3 4 5 6 
#
# 1 149.5352 18.7617 36.8682 0.0000 0.0000 0.0000
# 2 18.7617 63.6967 8.8542 0.0000 0.0000 0.0000
# 3 36.8682 8.8542 83.2840 0.0000 0.0000 0.0000
# 4 0.0000 0.0000 0.0000 75.0325 0.0000 0.0000
# 5 0.0000 0.0000 0.0000 0.0000 26.3963 0.0000
# 6 0.0000 0.0000 0.0000 0.0000 0.0000 30.1063
#
#
#
# Elastic Compliance Matrix: (Units=1/GPa)
#
#
# Indices 1 2 3 4 5 6 
#
# 1 0.007710 -0.001823 -0.003219 0.000000 0.000000 0.000000
# 2 -0.001823 0.016366 -0.000933 0.000000 0.000000 0.000000
# 3 -0.003219 -0.000933 0.013531 0.000000 0.000000 0.000000
# 4 0.000000 0.000000 0.000000 0.013328 0.000000 0.000000
# 5 0.000000 0.000000 0.000000 0.000000 0.037884 0.000000
# 6 0.000000 0.000000 0.000000 0.000000 0.000000 0.033216
#
#
# Mechanical properties :
#
#
# Convention : Reuss Voigt Hill
#
# Bulk Modulus (GPa) = 38.97620 47.27600 43.12610
# Shear Modulus (GPa) = 35.07851 41.77582 38.42717
#
# Velocity S-wave (km/s) = 3.92326 4.28143 4.10625
# Velocity P-wave (km/s) = 6.13391 6.72197 6.43466
#
# Compressibility (1/GPa) = 0.02565668
#
# Stress axis : x y z
#
# Youngs Moduli (GPa) = 129.70415 61.10174 73.90261
#
# Poissons Ratio (x) = 0.11142 0.23790
# Poissons Ratio (y) = 0.23651 0.06893
# Poissons Ratio (z) = 0.41754 0.05699
#
# Static dielectric constant tensor:
#      x y z
#    x 1.845980 0.000000 0.000000 
#    y 0.000000 1.874530 0.000000 
#    z 0.000000 0.000000 1.987900 
# 
# From -- ./inp_files/10525.got.cif
#   From: 2010.05.17/outbox.cif.g08.bks.cpg/sg54_6_cif.got.tgz:10525.got - 2010.06.03 13:09:01.
