data_PCOD9423017
_publ_section_title
;
Structure prediction by ZEFSAII (Michael W. Deem and Ramdas Pophale) SiO2 
 PCOD9423017
Probable space group: P C C A
;
_chemical_formula_sum "Si O2"
_cell_formula_units_Z 48
_cell_length_a 17.257181
_cell_length_b 9.128108
_cell_length_c 13.105616
_cell_angle_alpha 90.000000
_cell_angle_beta 90.000000
_cell_angle_gamma 90.000000
_cell_volume 2064.467559
_symmetry_space_group_name_H-M "P C C A"
_symmetry_group_IT_number 54
_symmetry_cell_setting 'orthorhombic'
loop_
_space_group_symop_operation_xyz
x,y,z
1/2-x,-y,z
1/2+x,-y,1/2-z
-x,y,1/2-z
-x,-y,-z
1/2+x,y,-z
1/2-x,y,1/2+z
x,-y,1/2+z
loop_
_atom_site_type_symbol
_atom_site_label
_atom_site_fract_x
_atom_site_fract_y
_atom_site_fract_z
Si Si1 0.687640 0.691061 0.660386
Si Si2 0.471853 0.333011 0.003424
Si Si3 0.362898 0.637482 0.317464
Si Si4 0.743073 0.842601 0.465364
Si Si5 0.083897 0.835908 0.642403
Si Si6 0.601864 0.161232 0.329373
O O1 0.644379 0.537957 0.680427
O O2 0.774622 0.685148 0.704775
O O3 0.710666 0.721782 0.543458
O O4 0.634497 0.808840 0.716818
O O5 0.397611 0.319948 0.927612
O O6 0.535663 0.229340 0.951172
O O7 0.500000 0.500000 0.000000
O O8 0.453520 0.280773 0.117691
O O9 0.415333 0.718705 0.234005
O O10 0.673295 0.856646 0.386912
O O11 0.821764 0.823699 0.402395
O O12 0.750000 0.000000 0.522516
O O13 0.061574 0.003119 0.665278
#
# Coordination Sequence:
#
# PCOD9423017 Si02
#       6
#     8   8   8   8   8   8
#     4  11  23  41  68 100 133 175 239 282 346 403
#     4  12  25  46  68 101 145 184 230 283 357 422
#     4  11  24  42  66 100 136 183 227 291 341 413
#     4  10  22  40  68  98 133 173 231 287 338 406
#     4  11  24  43  69 100 138 180 227 286 355 417
#     4  11  24  43  70  99 135 182 233 289 346 417
#
# _framework density 23.250547000000001
#
# number of rings (size 3 to 8) (size 9 to 14) (size 15 to 20)
#    0.000    1.000    3.333    3.000    2.333    0.000 
#    0.000    7.500    0.000    0.000    0.000    0.000 
#    0.000    0.000    0.000    0.000    0.000    0.000 
#
# Total GULP energy -268018.236123 kJ/mol
# GULP energy per Si atom -5583.713253 kJ/mol
# Density = 2.319763 g / cm^3
# Si number density = 23.250547 Si / 1000 Ang^3
#
#
#
# Elastic Constant Matrix: (Units=GPa)
#
#
# Indices 1 2 3 4 5 6 
#
# 1 87.1686 34.7720 16.1337 0.0000 0.0000 0.0000
# 2 34.7720 95.0655 9.6532 0.0000 0.0000 0.0000
# 3 16.1337 9.6532 59.7251 0.0000 0.0000 0.0000
# 4 0.0000 0.0000 0.0000 27.5347 0.0000 0.0000
# 5 0.0000 0.0000 0.0000 0.0000 52.2225 0.0000
# 6 0.0000 0.0000 0.0000 0.0000 0.0000 21.8149
#
#
#
# Elastic Compliance Matrix: (Units=1/GPa)
#
#
# Indices 1 2 3 4 5 6 
#
# 1 0.013938 -0.004794 -0.002990 0.000000 0.000000 0.000000
# 2 -0.004794 0.012344 -0.000700 0.000000 0.000000 0.000000
# 3 -0.002990 -0.000700 0.017664 0.000000 0.000000 0.000000
# 4 0.000000 0.000000 0.000000 0.036318 0.000000 0.000000
# 5 0.000000 0.000000 0.000000 0.000000 0.019149 0.000000
# 6 0.000000 0.000000 0.000000 0.000000 0.000000 0.045840
#
#
# Mechanical properties :
#
#
# Convention : Reuss Voigt Hill
#
# Bulk Modulus (GPa) = 37.06884 40.34191 38.70537
# Shear Modulus (GPa) = 29.20315 32.40777 30.80546
#
# Velocity S-wave (km/s) = 3.54788 3.73748 3.64391
# Velocity P-wave (km/s) = 5.72373 6.00114 5.86407
#
# Compressibility (1/GPa) = 0.02697684
#
# Stress axis : x y z
#
# Youngs Moduli (GPa) = 71.74629 81.01232 56.61150
#
# Poissons Ratio (x) = 0.38841 0.16928
# Poissons Ratio (y) = 0.34398 0.03963
# Poissons Ratio (z) = 0.21454 0.05670
#
# Static dielectric constant tensor:
#      x y z
#    x 1.892090 0.000000 0.000000 
#    y 0.000000 1.884470 0.000000 
#    z 0.000000 0.000000 1.880520 
# 
# From -- ./inp_files/14110.got.cif
#   From: 2010.05.17/outbox.cif.g08.bks.cpg/sg54_8_cif.got.tgz:14110.got - 2010.06.03 13:09:01.
