data_PCOD9423171
_publ_section_title
;
Structure prediction by ZEFSAII (Michael W. Deem and Ramdas Pophale) SiO2 
 PCOD9423171
Probable space group: P C C A
;
_chemical_formula_sum "Si O2"
_cell_formula_units_Z 40
_cell_length_a 16.259008
_cell_length_b 7.064741
_cell_length_c 17.613733
_cell_angle_alpha 90.000000
_cell_angle_beta 90.000000
_cell_angle_gamma 90.000000
_cell_volume 2023.213426
_symmetry_space_group_name_H-M "P C C A"
_symmetry_group_IT_number 54
_symmetry_cell_setting 'orthorhombic'
loop_
_space_group_symop_operation_xyz
x,y,z
1/2-x,-y,z
1/2+x,-y,1/2-z
-x,y,1/2-z
-x,-y,-z
1/2+x,y,-z
1/2-x,y,1/2+z
x,-y,1/2+z
loop_
_atom_site_type_symbol
_atom_site_label
_atom_site_fract_x
_atom_site_fract_y
_atom_site_fract_z
Si Si1 0.890732 0.859355 0.010448
Si Si2 0.000000 0.036440 0.250000
Si Si3 0.750000 0.000000 0.901391
Si Si4 0.179890 0.849995 0.244843
Si Si5 0.662034 0.438538 0.130145
Si Si6 0.464689 0.227709 0.907724
O O1 0.866671 0.740066 0.082814
O O2 0.919833 0.059725 0.045481
O O3 0.958724 0.739400 0.963842
O O4 0.816625 0.900160 0.953605
O O5 0.913362 0.925249 0.248489
O O6 0.000190 0.152710 0.171974
O O7 0.794474 0.146114 0.843543
O O8 0.178693 0.647884 0.286104
O O9 0.250000 0.000000 0.277765
O O10 0.750000 0.500000 0.099351
O O11 0.596710 0.604594 0.115934
#
# Coordination Sequence:
#
# PCOD9423171 Si02
#       6
#     8   4   4   8   8   8
#     4  11  23  44  68  97 143 175 226 292 348 426
#     4  12  20  46  70  96 136 182 230 284 346 408
#     4  10  22  42  72  92 136 188 224 278 360 406
#     4  10  23  43  66  99 135 181 235 277 352 410
#     4  12  25  41  68 100 136 181 233 286 344 418
#     4  11  24  42  69 101 133 182 231 283 350 413
#
# _framework density 19.770530000000001
#
# number of rings (size 3 to 8) (size 9 to 14) (size 15 to 20)
#    0.600    0.400    4.000    3.000    1.400    0.800 
#    0.000    7.000    0.000    0.000    0.000    0.000 
#    0.000    0.000    0.000    0.000    0.000    0.000 
#
# Total GULP energy -222924.531230 kJ/mol
# GULP energy per Si atom -5573.113281 kJ/mol
# Density = 1.972553 g / cm^3
# Si number density = 19.770530 Si / 1000 Ang^3
#
#
#
# Elastic Constant Matrix: (Units=GPa)
#
#
# Indices 1 2 3 4 5 6 
#
# 1 129.4960 45.7498 18.7534 0.0000 0.0000 0.0000
# 2 45.7498 67.5522 17.3803 0.0000 0.0000 0.0000
# 3 18.7534 17.3803 88.7892 0.0000 0.0000 0.0000
# 4 0.0000 0.0000 0.0000 -71.7613 0.0000 0.0000
# 5 0.0000 0.0000 0.0000 0.0000 -86.5467 0.0000
# 6 0.0000 0.0000 0.0000 0.0000 0.0000 -986.4173
#
#
#
# Elastic Compliance Matrix: (Units=1/GPa)
#
#
# Indices 1 2 3 4 5 6 
#
# 1 0.010211 -0.006698 -0.000846 0.000000 0.000000 0.000000
# 2 -0.006698 0.019982 -0.002497 0.000000 0.000000 0.000000
# 3 -0.000846 -0.002497 0.011930 0.000000 0.000000 0.000000
# 4 0.000000 0.000000 0.000000 -0.013935 0.000000 0.000000
# 5 0.000000 0.000000 0.000000 0.000000 -0.011554 0.000000
# 6 0.000000 0.000000 0.000000 0.000000 0.000000 -0.001014
#
#
# Mechanical properties :
#
#
# Convention : Reuss Voigt Hill
#
# Bulk Modulus (GPa) = 45.36700 49.95604 47.66152
# Shear Modulus (GPa) = 116.15120 -215.34811 -49.59846
#
# Velocity S-wave (km/s) = 7.67315 -10.44798 -5.01413
# Velocity P-wave (km/s) = 10.07470 10.96468 3.05980
#
# Compressibility (1/GPa) = 0.02204245
#
# Stress axis : x y z
#
# Youngs Moduli (GPa) = 97.93364 50.04540 83.82258
#
# Poissons Ratio (x) = 0.33520 0.07088
# Poissons Ratio (y) = 0.65594 0.20928
# Poissons Ratio (z) = 0.08281 0.12495
#
# Static dielectric constant tensor:
#      x y z
#    x 1.707850 0.000000 0.000000 
#    y 0.000000 1.694910 0.000000 
#    z 0.000000 0.000000 1.679390 
# 
# From -- ./inp_files/18410.got.cif
#   From: 2010.05.17/outbox.cif.g08.bks.cpg/sg54_10_cif.got.tgz:18410.got - 2010.06.03 13:09:01.
