data_PCOD9423363
_publ_section_title
;
Structure prediction by ZEFSAII (Michael W. Deem and Ramdas Pophale) SiO2 
 PCOD9423363
Probable space group: P C C A
;
_chemical_formula_sum "Si O2"
_cell_formula_units_Z 64
_cell_length_a 12.159488
_cell_length_b 9.293709
_cell_length_c 29.515040
_cell_angle_alpha 90.000000
_cell_angle_beta 90.000000
_cell_angle_gamma 90.000000
_cell_volume 3335.398542
_symmetry_space_group_name_H-M "P C C A"
_symmetry_group_IT_number 54
_symmetry_cell_setting 'orthorhombic'
loop_
_space_group_symop_operation_xyz
x,y,z
1/2-x,-y,z
1/2+x,-y,1/2-z
-x,y,1/2-z
-x,-y,-z
1/2+x,y,-z
1/2-x,y,1/2+z
x,-y,1/2+z
loop_
_atom_site_type_symbol
_atom_site_label
_atom_site_fract_x
_atom_site_fract_y
_atom_site_fract_z
Si Si1 0.745888 0.831711 0.841602
Si Si2 0.275166 0.664354 0.525279
Si Si3 0.133592 0.648744 0.923731
Si Si4 0.140451 0.333353 0.883644
Si Si5 0.057973 0.538450 0.292689
Si Si6 0.158253 0.604466 0.712299
Si Si7 0.092293 0.176495 0.075432
Si Si8 0.937322 0.164763 0.910179
O O1 0.789802 0.756931 0.796865
O O2 0.832670 0.788559 0.880762
O O3 0.626491 0.801073 0.862807
O O4 0.750000 0.000000 0.835881
O O5 0.250000 0.500000 0.540007
O O6 0.313288 0.659116 0.473470
O O7 0.166794 0.761762 0.534378
O O8 0.373836 0.736948 0.553520
O O9 0.113964 0.481679 0.910913
O O10 0.230858 0.697481 0.889909
O O11 0.023539 0.742486 0.922217
O O12 0.110083 0.369762 0.831860
O O13 0.062442 0.210401 0.903478
O O14 0.139492 0.434761 0.264795
O O15 0.000000 0.622049 0.250000
O O16 0.958613 0.436039 0.309801
O O17 0.250000 0.500000 0.692008
O O18 0.078424 0.002894 0.076306
#
# Coordination Sequence:
#
# PCOD9423363 Si02
#       8
#     8   8   8   8   8   8   8   8
#     4   9  18  36  59  86 116 152 201 253 304 355
#     4  11  22  41  60  90 122 157 216 262 304 360
#     4  11  25  37  63  85 124 171 200 262 308 367
#     4  11  21  41  59  93 118 161 205 255 319 361
#     4   8  21  33  57  93 121 149 197 251 300 376
#     4   9  17  31  58  89 112 150 195 245 299 361
#     4  10  23  42  58  90 124 164 213 251 310 371
#     4  10  23  39  64  86 123 163 206 265 302 368
#
# _framework density 19.188112
#
# number of rings (size 3 to 8) (size 9 to 14) (size 15 to 20)
#    0.750    1.250    1.250    3.375    3.500    5.000 
#    2.250    0.000    0.000   10.500    0.000    0.000 
#    0.000    0.000    0.000    0.000    0.000    0.000 
#
# Total GULP energy -356541.007434 kJ/mol
# GULP energy per Si atom -5570.953241 kJ/mol
# Density = 1.914444 g / cm^3
# Si number density = 19.188112 Si / 1000 Ang^3
#
#
#
# Elastic Constant Matrix: (Units=GPa)
#
#
# Indices 1 2 3 4 5 6 
#
# 1 100.9581 33.0242 11.5653 0.0000 0.0000 0.0000
# 2 33.0242 49.0629 14.3176 0.0000 0.0000 0.0000
# 3 11.5653 14.3176 63.6946 0.0000 0.0000 0.0000
# 4 0.0000 0.0000 0.0000 0.0807 0.0000 0.0000
# 5 0.0000 0.0000 0.0000 0.0000 -55.7601 0.0000
# 6 0.0000 0.0000 0.0000 0.0000 0.0000 32.2177
#
#
#
# Elastic Compliance Matrix: (Units=1/GPa)
#
#
# Indices 1 2 3 4 5 6 
#
# 1 0.012712 -0.008436 -0.000412 0.000000 0.000000 0.000000
# 2 -0.008436 0.027411 -0.004630 0.000000 0.000000 0.000000
# 3 -0.000412 -0.004630 0.016815 0.000000 0.000000 0.000000
# 4 0.000000 0.000000 0.000000 12.394965 0.000000 0.000000
# 5 0.000000 0.000000 0.000000 0.000000 -0.017934 0.000000
# 6 0.000000 0.000000 0.000000 0.000000 0.000000 0.031039
#
#
# Mechanical properties :
#
#
# Convention : Reuss Voigt Hill
#
# Bulk Modulus (GPa) = 33.35225 36.83664 35.09444
# Shear Modulus (GPa) = 0.39994 5.62822 3.01408
#
# Velocity S-wave (km/s) = 0.45704 1.71451 1.25468
# Velocity P-wave (km/s) = 4.20690 4.81235 4.51977
#
# Compressibility (1/GPa) = 0.02998299
#
# Stress axis : x y z
#
# Youngs Moduli (GPa) = 78.66712 36.48107 59.46919
#
# Poissons Ratio (x) = 0.30776 0.02449
# Poissons Ratio (y) = 0.66365 0.27534
# Poissons Ratio (z) = 0.03240 0.16890
#
# Static dielectric constant tensor:
#      x y z
#    x 1.709720 0.000000 0.000000 
#    y 0.000000 1.542340 0.000000 
#    z 0.000000 0.000000 1.699320 
# 
# From -- ./inp_files/28154.got.cif
#   From: 2010.05.17/outbox.cif.g08.bks.cpg/sg54_15_cif.got.tgz:28154.got - 2010.06.03 13:09:01.
