data_PCOD9423317
_publ_section_title
;
Structure prediction by ZEFSAII (Michael W. Deem and Ramdas Pophale) SiO2 
 PCOD9423317
Probable space group: P C C A
;
_chemical_formula_sum "Si O2"
_cell_formula_units_Z 32
_cell_length_a 11.170345
_cell_length_b 5.439155
_cell_length_c 21.859356
_cell_angle_alpha 90.000000
_cell_angle_beta 90.000000
_cell_angle_gamma 90.000000
_cell_volume 1328.114092
_symmetry_space_group_name_H-M "P C C A"
_symmetry_group_IT_number 54
_symmetry_cell_setting 'orthorhombic'
loop_
_space_group_symop_operation_xyz
x,y,z
1/2-x,-y,z
1/2+x,-y,1/2-z
-x,y,1/2-z
-x,-y,-z
1/2+x,y,-z
1/2-x,y,1/2+z
x,-y,1/2+z
loop_
_atom_site_type_symbol
_atom_site_label
_atom_site_fract_x
_atom_site_fract_y
_atom_site_fract_z
Si Si1 0.057111 0.684063 0.080931
Si Si2 0.250000 0.000000 0.634884
Si Si3 0.250000 0.500000 0.499907
Si Si4 0.868728 0.074378 0.087614
Si Si5 0.451899 0.325561 0.681908
O O1 0.158065 0.883812 0.087866
O O2 0.043034 0.592172 0.150580
O O3 0.130343 0.471391 0.043956
O O4 0.938728 0.834028 0.060453
O O5 0.177718 0.801575 0.674977
O O6 0.311566 0.718896 0.458246
O O7 0.959915 0.186155 0.135370
O O8 0.750000 0.000000 0.123424
O O9 0.500000 0.322260 0.750000
#
# Coordination Sequence:
#
# PCOD9423317 Si02
#       5
#     8   4   4   8   8
#     4  11  24  47  73 104 141 195 243 302 371 438
#     4  10  22  46  70 108 132 188 240 292 370 434
#     4  12  24  46  72 106 150 192 248 304 366 450
#     4  11  27  44  69 110 146 191 242 302 373 443
#     4  11  25  47  74 102 143 184 242 302 366 443
#
# _framework density 24.094314000000001
#
# number of rings (size 3 to 8) (size 9 to 14) (size 15 to 20)
#    0.000    1.000    2.500    2.250    3.500    8.000 
#    9.000    0.000    0.000    0.000    0.000    0.000 
#    0.000    0.000    0.000    0.000    0.000    0.000 
#
# Total GULP energy -178190.102805 kJ/mol
# GULP energy per Si atom -5568.440713 kJ/mol
# Density = 2.403947 g / cm^3
# Si number density = 24.094314 Si / 1000 Ang^3
#
#
#
# Elastic Constant Matrix: (Units=GPa)
#
#
# Indices 1 2 3 4 5 6 
#
# 1 186.4736 64.3879 54.0901 0.0000 0.0000 0.0000
# 2 64.3879 102.4311 43.0323 0.0000 0.0000 0.0000
# 3 54.0901 43.0323 137.6177 0.0000 0.0000 0.0000
# 4 0.0000 0.0000 0.0000 8.5768 0.0000 0.0000
# 5 0.0000 0.0000 0.0000 0.0000 28.2347 0.0000
# 6 0.0000 0.0000 0.0000 0.0000 0.0000 46.9730
#
#
#
# Elastic Compliance Matrix: (Units=1/GPa)
#
#
# Indices 1 2 3 4 5 6 
#
# 1 0.007149 -0.003814 -0.001617 0.000000 0.000000 0.000000
# 2 -0.003814 0.013274 -0.002652 0.000000 0.000000 0.000000
# 3 -0.001617 -0.002652 0.008731 0.000000 0.000000 0.000000
# 4 0.000000 0.000000 0.000000 0.116593 0.000000 0.000000
# 5 0.000000 0.000000 0.000000 0.000000 0.035417 0.000000
# 6 0.000000 0.000000 0.000000 0.000000 0.000000 0.021289
#
#
# Mechanical properties :
#
#
# Convention : Reuss Voigt Hill
#
# Bulk Modulus (GPa) = 76.99239 83.28255 80.13747
# Shear Modulus (GPa) = 22.42660 34.42437 28.42548
#
# Velocity S-wave (km/s) = 3.05418 3.78396 3.43849
# Velocity P-wave (km/s) = 6.66793 7.33017 7.00688
#
# Compressibility (1/GPa) = 0.01298830
#
# Stress axis : x y z
#
# Youngs Moduli (GPa) = 139.88299 75.33335 114.53144
#
# Poissons Ratio (x) = 0.28735 0.18521
# Poissons Ratio (y) = 0.53357 0.30369
# Poissons Ratio (z) = 0.22620 0.19975
#
# Static dielectric constant tensor:
#      x y z
#    x 1.959120 0.000000 0.000000 
#    y 0.000000 2.200580 0.000000 
#    z 0.000000 0.000000 1.890720 
# 
# From -- ./inp_files/20842.got.cif
#   From: 2010.05.17/outbox.cif.g08.bks.cpg/sg54_11_cif.got.tgz:20842.got - 2010.06.03 13:09:01.
