data_PCOD9423436
_publ_section_title
;
Structure prediction by ZEFSAII (Michael W. Deem and Ramdas Pophale) SiO2 
 PCOD9423436
Probable space group: P C C A
;
_chemical_formula_sum "Si O2"
_cell_formula_units_Z 60
_cell_length_a 21.657675
_cell_length_b 5.420102
_cell_length_c 23.743999
_cell_angle_alpha 90.000000
_cell_angle_beta 90.000000
_cell_angle_gamma 90.000000
_cell_volume 2787.232242
_symmetry_space_group_name_H-M "P C C A"
_symmetry_group_IT_number 54
_symmetry_cell_setting 'orthorhombic'
loop_
_space_group_symop_operation_xyz
x,y,z
1/2-x,-y,z
1/2+x,-y,1/2-z
-x,y,1/2-z
-x,-y,-z
1/2+x,y,-z
1/2-x,y,1/2+z
x,-y,1/2+z
loop_
_atom_site_type_symbol
_atom_site_label
_atom_site_fract_x
_atom_site_fract_y
_atom_site_fract_z
Si Si1 0.369844 0.178742 0.553288
Si Si2 0.919287 0.424991 0.556392
Si Si3 0.695980 0.684665 0.792759
Si Si4 0.562151 0.473691 0.181892
Si Si5 0.455122 0.796169 0.525638
Si Si6 0.250000 0.000000 0.606989
Si Si7 0.579515 0.375935 0.836467
Si Si8 0.103373 0.018599 0.256768
O O1 0.383199 0.256593 0.488931
O O2 0.299753 0.138454 0.569048
O O3 0.401240 0.360237 0.598259
O O4 0.406621 0.926193 0.565224
O O5 0.904862 0.424795 0.621690
O O6 0.916353 0.686855 0.525869
O O7 0.993168 0.374191 0.553103
O O8 0.750000 0.500000 0.771867
O O9 0.719313 0.804982 0.850642
O O10 0.634613 0.528382 0.807106
O O11 0.672575 0.908308 0.752668
O O12 0.489161 0.525846 0.174095
O O13 0.590638 0.729596 0.207508
O O14 0.569255 0.217890 0.216250
O O15 0.500000 0.000000 0.500000
O O16 0.582051 0.108192 0.805406
#
# Coordination Sequence:
#
# PCOD9423436 Si02
#       8
#     8   8   8   8   8   4   8   8
#     4  11  24  41  71 107 144 188 245 313 376 442
#     4  10  23  42  64 104 142 198 234 291 374 459
#     4  12  25  49  71 107 146 196 256 311 385 439
#     4  12  29  44  74 109 162 197 243 307 384 465
#     4   9  19  38  64  98 140 181 233 286 358 444
#     4  12  26  42  74 108 142 186 246 336 362 432
#     4  12  26  44  72 113 152 192 246 313 384 449
#     4  12  28  46  70 110 151 201 251 312 374 455
#
# _framework density 21.526733
#
# number of rings (size 3 to 8) (size 9 to 14) (size 15 to 20)
#    0.000    0.800    4.000    2.800   13.067    0.000 
#    0.000    0.000    0.000    4.000    0.000    0.000 
#    0.000    0.000    0.000    0.000    0.000    0.000 
#
# Total GULP energy -334665.199907 kJ/mol
# GULP energy per Si atom -5577.753332 kJ/mol
# Density = 2.147774 g / cm^3
# Si number density = 21.526733 Si / 1000 Ang^3
#
#
#
# Elastic Constant Matrix: (Units=GPa)
#
#
# Indices 1 2 3 4 5 6 
#
# 1 129.1839 54.2186 59.8320 0.0000 0.0000 0.0000
# 2 54.2186 126.1699 51.7050 0.0000 0.0000 0.0000
# 3 59.8320 51.7050 105.7229 0.0000 0.0000 0.0000
# 4 0.0000 0.0000 0.0000 32.4783 0.0000 0.0000
# 5 0.0000 0.0000 0.0000 0.0000 36.3849 0.0000
# 6 0.0000 0.0000 0.0000 0.0000 0.0000 40.1698
#
#
#
# Elastic Compliance Matrix: (Units=1/GPa)
#
#
# Indices 1 2 3 4 5 6 
#
# 1 0.011217 -0.002775 -0.004991 0.000000 0.000000 0.000000
# 2 -0.002775 0.010599 -0.003613 0.000000 0.000000 0.000000
# 3 -0.004991 -0.003613 0.014050 0.000000 0.000000 0.000000
# 4 0.000000 0.000000 0.000000 0.030790 0.000000 0.000000
# 5 0.000000 0.000000 0.000000 0.000000 0.027484 0.000000
# 6 0.000000 0.000000 0.000000 0.000000 0.000000 0.024894
#
#
# Mechanical properties :
#
#
# Convention : Reuss Voigt Hill
#
# Bulk Modulus (GPa) = 76.28793 76.95423 76.62108
# Shear Modulus (GPa) = 34.20860 34.82801 34.51830
#
# Velocity S-wave (km/s) = 3.99070 4.02667 4.00873
# Velocity P-wave (km/s) = 7.53325 7.57922 7.55627
#
# Compressibility (1/GPa) = 0.01310823
#
# Stress axis : x y z
#
# Youngs Moduli (GPa) = 89.14892 94.34885 71.17288
#
# Poissons Ratio (x) = 0.26182 0.35523
# Poissons Ratio (y) = 0.24739 0.25715
# Poissons Ratio (z) = 0.44495 0.34089
#
# Static dielectric constant tensor:
#      x y z
#    x 1.747350 0.000000 0.000000 
#    y 0.000000 1.899480 0.000000 
#    z 0.000000 0.000000 1.596720 
# 
# From -- ./inp_files/24790.got.cif
#   From: 2010.05.17/outbox.cif.g08.bks.cpg/sg54_13_cif.got.tgz:24790.got - 2010.06.03 13:09:01.
