data_PCOD9423995
_publ_section_title
;
Structure prediction by ZEFSAII (Michael W. Deem and Ramdas Pophale) SiO2 
 PCOD9423995
Probable space group: P C C A
;
_chemical_formula_sum "Si O2"
_cell_formula_units_Z 32
_cell_length_a 8.981534
_cell_length_b 12.559846
_cell_length_c 12.389233
_cell_angle_alpha 90.000000
_cell_angle_beta 90.000000
_cell_angle_gamma 90.000000
_cell_volume 1397.588291
_symmetry_space_group_name_H-M "P C C A"
_symmetry_group_IT_number 54
_symmetry_cell_setting 'orthorhombic'
loop_
_space_group_symop_operation_xyz
x,y,z
1/2-x,-y,z
1/2+x,-y,1/2-z
-x,y,1/2-z
-x,-y,-z
1/2+x,y,-z
1/2-x,y,1/2+z
x,-y,1/2+z
loop_
_atom_site_type_symbol
_atom_site_label
_atom_site_fract_x
_atom_site_fract_y
_atom_site_fract_z
Si Si1 0.285377 0.880979 0.718517
Si Si2 0.050300 0.106460 0.936204
Si Si3 0.865627 0.712120 0.897013
Si Si4 0.631413 0.422803 0.541600
O O1 0.329663 0.903130 0.841233
O O2 0.415147 0.849085 0.635550
O O3 0.177876 0.780781 0.707754
O O4 0.250000 0.000000 0.677258
O O5 0.109703 0.193282 0.017376
O O6 0.000000 0.000000 0.000000
O O7 0.026761 0.656210 0.891349
O O8 0.734106 0.636157 0.949076
O O9 0.750000 0.500000 0.600991
O O10 0.500000 0.500000 0.500000
#
# Coordination Sequence:
#
# PCOD9423995 Si02
#       4
#     8   8   8   8
#     4  11  24  38  62  99 138 185 230 274 341 426
#     4  11  24  41  62  97 143 181 226 277 341 424
#     4  11  20  40  68  96 136 185 232 285 349 415
#     4   9  20  38  67  99 129 179 237 295 367 407
#
# _framework density 22.896585999999999
#
# number of rings (size 3 to 8) (size 9 to 14) (size 15 to 20)
#    0.000    1.500    5.000    0.000    3.500    0.000 
#    0.000    0.000    0.000   22.500    0.000    0.000 
#    0.000    0.000    0.000    0.000    0.000    0.000 
#
# Total GULP energy -178137.138625 kJ/mol
# GULP energy per Si atom -5566.785582 kJ/mol
# Density = 2.284447 g / cm^3
# Si number density = 22.896586 Si / 1000 Ang^3
#
#
#
# Elastic Constant Matrix: (Units=GPa)
#
#
# Indices 1 2 3 4 5 6 
#
# 1 147.5991 94.9832 49.7098 0.0000 0.0000 0.0000
# 2 94.9832 131.7557 43.1718 0.0000 0.0000 0.0000
# 3 49.7098 43.1718 90.4225 0.0000 0.0000 0.0000
# 4 0.0000 0.0000 0.0000 -10.4625 0.0000 0.0000
# 5 0.0000 0.0000 0.0000 0.0000 37.6477 0.0000
# 6 0.0000 0.0000 0.0000 0.0000 0.0000 63.8151
#
#
#
# Elastic Compliance Matrix: (Units=1/GPa)
#
#
# Indices 1 2 3 4 5 6 
#
# 1 0.013406 -0.008594 -0.003267 0.000000 0.000000 0.000000
# 2 -0.008594 0.014506 -0.002202 0.000000 0.000000 0.000000
# 3 -0.003267 -0.002202 0.013906 0.000000 0.000000 0.000000
# 4 0.000000 0.000000 0.000000 -0.095580 0.000000 0.000000
# 5 0.000000 0.000000 0.000000 0.000000 0.026562 0.000000
# 6 0.000000 0.000000 0.000000 0.000000 0.000000 0.015670
#
#
# Mechanical properties :
#
#
# Convention : Reuss Voigt Hill
#
# Bulk Modulus (GPa) = 73.02391 82.83410 77.92901
# Shear Modulus (GPa) = 236.29969 30.32757 133.31363
#
# Velocity S-wave (km/s) = 10.16991 3.64338 7.63876
# Velocity P-wave (km/s) = 13.03322 7.34540 10.57875
#
# Compressibility (1/GPa) = 0.01369414
#
# Stress axis : x y z
#
# Youngs Moduli (GPa) = 74.59599 68.93473 71.91035
#
# Poissons Ratio (x) = 0.59241 0.23491
# Poissons Ratio (y) = 0.64106 0.15832
# Poissons Ratio (z) = 0.24368 0.15177
#
# Static dielectric constant tensor:
#      x y z
#    x 1.992940 0.000000 0.000000 
#    y 0.000000 1.976060 0.000000 
#    z 0.000000 0.000000 2.228690 
# 
# From -- ./inp_files/11238.got.cif
#   From: 2010.05.17/outbox.cif.g08.bks.cpg/sg54_6_cif.got.tgz:11238.got - 2010.06.03 13:09:01.
