data_PCOD9423759
_publ_section_title
;
Structure prediction by ZEFSAII (Michael W. Deem and Ramdas Pophale) SiO2 
 PCOD9423759
Probable space group: P C C A
;
_chemical_formula_sum "Si O2"
_cell_formula_units_Z 56
_cell_length_a 29.467208
_cell_length_b 5.659794
_cell_length_c 15.104251
_cell_angle_alpha 90.000000
_cell_angle_beta 90.000000
_cell_angle_gamma 90.000000
_cell_volume 2519.061713
_symmetry_space_group_name_H-M "P C C A"
_symmetry_group_IT_number 54
_symmetry_cell_setting 'orthorhombic'
loop_
_space_group_symop_operation_xyz
x,y,z
1/2-x,-y,z
1/2+x,-y,1/2-z
-x,y,1/2-z
-x,-y,-z
1/2+x,y,-z
1/2-x,y,1/2+z
x,-y,1/2+z
loop_
_atom_site_type_symbol
_atom_site_label
_atom_site_fract_x
_atom_site_fract_y
_atom_site_fract_z
Si Si1 0.365273 0.832475 0.241844
Si Si2 0.990620 0.807252 0.927893
Si Si3 0.000000 0.091054 0.750000
Si Si4 0.750000 0.500000 0.033806
Si Si5 0.202326 0.880865 0.585148
Si Si6 0.414159 0.327184 0.206778
Si Si7 0.336131 0.235882 0.938195
Si Si8 0.573642 0.548299 0.991485
O O1 0.324862 0.804302 0.171292
O O2 0.393828 0.585742 0.230353
O O3 0.353365 0.861340 0.345083
O O4 0.384474 0.091825 0.218320
O O5 0.941937 0.706816 0.957703
O O6 0.990882 0.919034 0.831848
O O7 0.033391 0.629886 0.942359
O O8 0.000000 0.000000 0.000000
O O9 0.042118 0.264299 0.765224
O O10 0.713058 0.653139 0.084714
O O11 0.718065 0.340136 0.972824
O O12 0.250000 0.000000 0.611383
O O13 0.174382 0.054802 0.518870
O O14 0.428356 0.321327 0.103426
O O15 0.376446 0.411607 0.969994
#
# Coordination Sequence:
#
# PCOD9423759 Si02
#       8
#     8   8   4   4   8   8   8   8
#     4  12  28  47  76 115 146 201 252 313 377 452
#     4  11  25  45  72 110 147 204 251 309 380 444
#     4  12  26  48  74 106 154 192 260 312 370 456
#     4  10  24  44  74 112 144 206 242 318 380 458
#     4  10  24  47  75 108 151 194 252 314 385 453
#     4  12  27  47  74 109 151 197 253 311 376 443
#     4  11  25  46  76 106 154 195 257 307 384 456
#     4  11  24  45  75 104 152 200 248 314 375 452
#
# _framework density 22.230499999999999
#
# number of rings (size 3 to 8) (size 9 to 14) (size 15 to 20)
#    0.000    0.857    2.857    2.571    6.000    5.714 
#    0.000    0.000    0.000    0.000    0.000    0.000 
#    0.000    0.000    0.000    0.000    0.000    0.000 
#
# Total GULP energy -312659.978907 kJ/mol
# GULP energy per Si atom -5583.213909 kJ/mol
# Density = 2.217990 g / cm^3
# Si number density = 22.230500 Si / 1000 Ang^3
#
#
#
# Elastic Constant Matrix: (Units=GPa)
#
#
# Indices 1 2 3 4 5 6 
#
# 1 78.2795 33.9406 17.3642 0.0000 0.0000 0.0000
# 2 33.9406 98.3874 35.0066 0.0000 0.0000 0.0000
# 3 17.3642 35.0066 86.4029 0.0000 0.0000 0.0000
# 4 0.0000 0.0000 0.0000 5.1955 0.0000 0.0000
# 5 0.0000 0.0000 0.0000 0.0000 31.6254 0.0000
# 6 0.0000 0.0000 0.0000 0.0000 0.0000 36.1214
#
#
#
# Elastic Compliance Matrix: (Units=1/GPa)
#
#
# Indices 1 2 3 4 5 6 
#
# 1 0.015107 -0.004827 -0.001080 0.000000 0.000000 0.000000
# 2 -0.004827 0.013418 -0.004466 0.000000 0.000000 0.000000
# 3 -0.001080 -0.004466 0.013600 0.000000 0.000000 0.000000
# 4 0.000000 0.000000 0.000000 0.192474 0.000000 0.000000
# 5 0.000000 0.000000 0.000000 0.000000 0.031620 0.000000
# 6 0.000000 0.000000 0.000000 0.000000 0.000000 0.027684
#
#
# Mechanical properties :
#
#
# Convention : Reuss Voigt Hill
#
# Bulk Modulus (GPa) = 46.77657 48.41028 47.59342
# Shear Modulus (GPa) = 15.53864 26.37235 20.95550
#
# Velocity S-wave (km/s) = 2.64669 3.44803 3.07359
# Velocity P-wave (km/s) = 5.51609 6.13805 5.83536
#
# Compressibility (1/GPa) = 0.02137823
#
# Stress axis : x y z
#
# Youngs Moduli (GPa) = 66.19288 74.52519 73.52742
#
# Poissons Ratio (x) = 0.35975 0.07943
# Poissons Ratio (y) = 0.31952 0.32840
# Poissons Ratio (z) = 0.07151 0.33286
#
# Static dielectric constant tensor:
#      x y z
#    x 0.774500 0.000000 0.000000 
#    y 0.000000 1.991170 0.000000 
#    z 0.000000 0.000000 1.766470 
# 
# From -- ./inp_files/15408.got.cif
#   From: 2010.05.17/outbox.cif.g08.bks.cpg/sg54_8_cif.got.tgz:15408.got - 2010.06.03 13:09:01.
