data_PCOD9423194
_publ_section_title
;
Structure prediction by ZEFSAII (Michael W. Deem and Ramdas Pophale) SiO2 
 PCOD9423194
Probable space group: P C C A
;
_chemical_formula_sum "Si O2"
_cell_formula_units_Z 36
_cell_length_a 13.939634
_cell_length_b 6.647352
_cell_length_c 18.883484
_cell_angle_alpha 90.000000
_cell_angle_beta 90.000000
_cell_angle_gamma 90.000000
_cell_volume 1749.774860
_symmetry_space_group_name_H-M "P C C A"
_symmetry_group_IT_number 54
_symmetry_cell_setting 'orthorhombic'
loop_
_space_group_symop_operation_xyz
x,y,z
1/2-x,-y,z
1/2+x,-y,1/2-z
-x,y,1/2-z
-x,-y,-z
1/2+x,y,-z
1/2-x,y,1/2+z
x,-y,1/2+z
loop_
_atom_site_type_symbol
_atom_site_label
_atom_site_fract_x
_atom_site_fract_y
_atom_site_fract_z
Si Si1 0.136064 0.499187 0.082166
Si Si2 0.107669 0.335132 0.235572
Si Si3 0.750000 0.000000 0.724304
Si Si4 0.514889 0.228685 0.018673
Si Si5 0.335102 0.631595 0.863529
O O1 0.250000 0.500000 0.070789
O O2 0.119306 0.472798 0.166122
O O3 0.088563 0.687517 0.042202
O O4 0.070048 0.324420 0.048153
O O5 0.176809 0.140443 0.231783
O O6 0.132257 0.477307 0.302317
O O7 0.000000 0.264073 0.250000
O O8 0.699415 0.835311 0.674386
O O9 0.583322 0.299239 0.082868
O O10 0.500000 0.000000 0.000000
O O11 0.250000 0.500000 0.899711
#
# Coordination Sequence:
#
# PCOD9423194 Si02
#       5
#     8   8   4   8   8
#     4  11  25  46  67  96 139 178 224 286 350 409
#     4  11  23  44  71  99 140 180 228 289 345 409
#     4  10  24  38  70 104 130 180 240 276 336 412
#     4  11  26  42  68 100 133 181 228 278 344 416
#     4  10  22  43  66  97 139 182 226 282 345 403
#
# _framework density 20.574076000000002
#
# number of rings (size 3 to 8) (size 9 to 14) (size 15 to 20)
#    0.000    1.333    2.222    2.667    3.111    8.889 
#    0.000    0.000    0.000    0.000    0.000    0.000 
#    0.000    0.000    0.000    0.000    0.000    0.000 
#
# Total GULP energy -200871.819806 kJ/mol
# GULP energy per Si atom -5579.772772 kJ/mol
# Density = 2.052725 g / cm^3
# Si number density = 20.574076 Si / 1000 Ang^3
#
#
#
# Elastic Constant Matrix: (Units=GPa)
#
#
# Indices 1 2 3 4 5 6 
#
# 1 155.9400 49.9160 41.3795 0.0000 0.0000 0.0000
# 2 49.9160 149.1035 23.7948 0.0000 0.0000 0.0000
# 3 41.3795 23.7948 90.7695 0.0000 0.0000 0.0000
# 4 0.0000 0.0000 0.0000 494.5679 0.0000 0.0000
# 5 0.0000 0.0000 0.0000 0.0000 26.9756 0.0000
# 6 0.0000 0.0000 0.0000 0.0000 0.0000 11.6035
#
#
#
# Elastic Compliance Matrix: (Units=1/GPa)
#
#
# Indices 1 2 3 4 5 6 
#
# 1 0.007912 -0.002164 -0.003040 0.000000 0.000000 0.000000
# 2 -0.002164 0.007591 -0.001004 0.000000 0.000000 0.000000
# 3 -0.003040 -0.001004 0.012666 0.000000 0.000000 0.000000
# 4 0.000000 0.000000 0.000000 0.002022 0.000000 0.000000
# 5 0.000000 0.000000 0.000000 0.000000 0.037071 0.000000
# 6 0.000000 0.000000 0.000000 0.000000 0.000000 0.086181
#
#
# Mechanical properties :
#
#
# Convention : Reuss Voigt Hill
#
# Bulk Modulus (GPa) = 63.47196 69.55486 66.51341
# Shear Modulus (GPa) = 29.22131 125.34423 77.28277
#
# Velocity S-wave (km/s) = 3.77277 7.81381 6.13553
# Velocity P-wave (km/s) = 7.06370 10.73722 9.08801
#
# Compressibility (1/GPa) = 0.01575499
#
# Stress axis : x y z
#
# Youngs Moduli (GPa) = 126.39227 131.73073 78.95320
#
# Poissons Ratio (x) = 0.28501 0.23999
# Poissons Ratio (y) = 0.27346 0.07924
# Poissons Ratio (z) = 0.38419 0.13221
#
# Static dielectric constant tensor:
#      x y z
#    x 1.792910 0.000000 0.000000 
#    y 0.000000 1.690190 0.000000 
#    z 0.000000 0.000000 1.745860 
# 
# From -- ./inp_files/21332.got.cif
#   From: 2010.05.17/outbox.cif.g08.bks.cpg/sg54_11_cif.got.tgz:21332.got - 2010.06.03 13:09:01.
