data_PCOD9423733
_publ_section_title
;
Structure prediction by ZEFSAII (Michael W. Deem and Ramdas Pophale) SiO2 
 PCOD9423733
Probable space group: P C C A
;
_chemical_formula_sum "Si O2"
_cell_formula_units_Z 40
_cell_length_a 18.503172
_cell_length_b 9.485596
_cell_length_c 9.056864
_cell_angle_alpha 90.000000
_cell_angle_beta 90.000000
_cell_angle_gamma 90.000000
_cell_volume 1589.602935
_symmetry_space_group_name_H-M "P C C A"
_symmetry_group_IT_number 54
_symmetry_cell_setting 'orthorhombic'
loop_
_space_group_symop_operation_xyz
x,y,z
1/2-x,-y,z
1/2+x,-y,1/2-z
-x,y,1/2-z
-x,-y,-z
1/2+x,y,-z
1/2-x,y,1/2+z
x,-y,1/2+z
loop_
_atom_site_type_symbol
_atom_site_label
_atom_site_fract_x
_atom_site_fract_y
_atom_site_fract_z
Si Si1 0.305425 0.197075 0.872834
Si Si2 0.909807 0.372428 0.974656
Si Si3 0.750000 0.000000 0.871697
Si Si4 0.500000 0.957788 0.250000
Si Si5 0.448767 0.194639 0.475480
Si Si6 0.335674 0.631223 0.848402
O O1 0.383746 0.252382 0.912840
O O2 0.285937 0.113083 0.021571
O O3 0.250271 0.329827 0.345035
O O4 0.299347 0.089472 0.739366
O O5 0.870058 0.370801 0.815530
O O6 0.993860 0.326115 0.951900
O O7 0.873487 0.506669 0.056980
O O8 0.544622 0.859358 0.359639
O O9 0.464372 0.067646 0.363850
O O10 0.368202 0.236507 0.434976
#
# Coordination Sequence:
#
# PCOD9423733 Si02
#       6
#     8   8   4   4   8   8
#     4  11  25  44  70 100 135 175 226 274 344 395
#     4  12  27  46  70  99 138 181 229 281 334 403
#     4  10  24  44  70 100 136 176 216 286 332 412
#     4  10  24  44  74 102 136 180 218 286 336 410
#     4  11  25  46  71 104 136 176 228 277 345 399
#     4  12  27  46  70  99 138 181 229 281 334 403
#
# _framework density 25.163515
#
# number of rings (size 3 to 8) (size 9 to 14) (size 15 to 20)
#    0.000    0.800    4.000    1.200    5.600   11.200 
#    0.000    0.000    0.000    0.000    0.000    0.000 
#    0.000    0.000    0.000    0.000    0.000    0.000 
#
# Total GULP energy -223460.361159 kJ/mol
# GULP energy per Si atom -5586.509029 kJ/mol
# Density = 2.510624 g / cm^3
# Si number density = 25.163515 Si / 1000 Ang^3
#
#
#
# Elastic Constant Matrix: (Units=GPa)
#
#
# Indices 1 2 3 4 5 6 
#
# 1 110.1979 5.0562 17.4396 0.0000 0.0000 0.0000
# 2 5.0562 59.2654 51.6195 0.0000 0.0000 0.0000
# 3 17.4396 51.6195 189.5661 0.0000 0.0000 0.0000
# 4 0.0000 0.0000 0.0000 77.3810 0.0000 0.0000
# 5 0.0000 0.0000 0.0000 0.0000 25.1492 0.0000
# 6 0.0000 0.0000 0.0000 0.0000 0.0000 -89.8722
#
#
#
# Elastic Compliance Matrix: (Units=1/GPa)
#
#
# Indices 1 2 3 4 5 6 
#
# 1 0.009209 -0.000063 -0.000830 0.000000 0.000000 0.000000
# 2 -0.000063 0.022120 -0.006018 0.000000 0.000000 0.000000
# 3 -0.000830 -0.006018 0.006990 0.000000 0.000000 0.000000
# 4 0.000000 0.000000 0.000000 0.012923 0.000000 0.000000
# 5 0.000000 0.000000 0.000000 0.000000 0.039763 0.000000
# 6 0.000000 0.000000 0.000000 0.000000 0.000000 -0.011127
#
#
# Mechanical properties :
#
#
# Convention : Reuss Voigt Hill
#
# Bulk Modulus (GPa) = 40.81927 56.36223 48.59075
# Shear Modulus (GPa) = 49.08493 21.52588 35.30541
#
# Velocity S-wave (km/s) = 4.42140 2.92796 3.74978
# Velocity P-wave (km/s) = 6.50552 5.82045 6.17250
#
# Compressibility (1/GPa) = 0.02449823
#
# Stress axis : x y z
#
# Youngs Moduli (GPa) = 108.59143 45.20836 143.05791
#
# Poissons Ratio (x) = 0.00283 0.11876
# Poissons Ratio (y) = 0.00680 0.86086
# Poissons Ratio (z) = 0.09015 0.27204
#
# Static dielectric constant tensor:
#      x y z
#    x 2.017190 0.000000 0.000000 
#    y 0.000000 2.074840 0.000000 
#    z 0.000000 0.000000 1.892790 
# 
# From -- ./inp_files/5472.got.cif
#   From: 2010.05.17/outbox.cif.g08.bks.cpg/sg54_3_cif.got.tgz:5472.got - 2010.06.03 13:09:01.
