data_PCOD9423821
_publ_section_title
;
Structure prediction by ZEFSAII (Michael W. Deem and Ramdas Pophale) SiO2 
 PCOD9423821
Probable space group: P C C A
;
_chemical_formula_sum "Si O2"
_cell_formula_units_Z 40
_cell_length_a 8.843956
_cell_length_b 10.894815
_cell_length_c 17.228726
_cell_angle_alpha 90.000000
_cell_angle_beta 90.000000
_cell_angle_gamma 90.000000
_cell_volume 1660.043993
_symmetry_space_group_name_H-M "P C C A"
_symmetry_group_IT_number 54
_symmetry_cell_setting 'orthorhombic'
loop_
_space_group_symop_operation_xyz
x,y,z
1/2-x,-y,z
1/2+x,-y,1/2-z
-x,y,1/2-z
-x,-y,-z
1/2+x,y,-z
1/2-x,y,1/2+z
x,-y,1/2+z
loop_
_atom_site_type_symbol
_atom_site_label
_atom_site_fract_x
_atom_site_fract_y
_atom_site_fract_z
Si Si1 0.410408 0.069565 0.830649
Si Si2 0.417726 0.345452 0.893681
Si Si3 0.518204 0.838452 0.903912
Si Si4 0.797758 0.288342 0.473844
Si Si5 0.000000 0.685447 0.250000
Si Si6 0.750000 0.500000 0.732199
O O1 0.500000 0.077112 0.750000
O O2 0.397257 0.204534 0.866324
O O3 0.998587 0.018196 0.889025
O O4 0.250000 0.000000 0.819781
O O5 0.589952 0.364623 0.919533
O O6 0.366925 0.430310 0.824078
O O7 0.309018 0.363095 0.967600
O O8 0.686587 0.797341 0.924907
O O9 0.469052 0.769373 0.824662
O O10 0.408988 0.791489 0.971827
O O11 0.145729 0.602598 0.228725
#
# Coordination Sequence:
#
# PCOD9423821 Si02
#       6
#     8   8   8   8   4   4
#     4  12  26  43  72 107 149 188 242 308 369 444
#     4  11  26  46  69 106 140 191 248 295 372 438
#     4  11  24  48  74 107 148 184 246 303 375 438
#     4  10  24  47  73 106 143 194 238 305 376 443
#     4  12  26  48  72 104 144 194 244 312 364 430
#     4  12  28  48  70 104 146 194 254 306 354 454
#
# _framework density 24.095745999999998
#
# number of rings (size 3 to 8) (size 9 to 14) (size 15 to 20)
#    0.000    0.800    5.000    0.000    7.000    5.600 
#    0.000    0.000    0.000    0.000    0.000    0.000 
#    0.000    0.000    0.000    0.000    0.000    0.000 
#
# Total GULP energy -224279.807798 kJ/mol
# GULP energy per Si atom -5606.995195 kJ/mol
# Density = 2.404090 g / cm^3
# Si number density = 24.095746 Si / 1000 Ang^3
#
#
#
# Elastic Constant Matrix: (Units=GPa)
#
#
# Indices 1 2 3 4 5 6 
#
# 1 139.9517 17.8506 28.7978 0.0000 0.0000 0.0000
# 2 17.8506 94.8058 21.7340 0.0000 0.0000 0.0000
# 3 28.7978 21.7340 49.6045 0.0000 0.0000 0.0000
# 4 0.0000 0.0000 0.0000 7.1919 0.0000 0.0000
# 5 0.0000 0.0000 0.0000 0.0000 45.9164 0.0000
# 6 0.0000 0.0000 0.0000 0.0000 0.0000 20.9121
#
#
#
# Elastic Compliance Matrix: (Units=1/GPa)
#
#
# Indices 1 2 3 4 5 6 
#
# 1 0.008136 -0.000499 -0.004505 0.000000 0.000000 0.000000
# 2 -0.000499 0.011756 -0.004861 0.000000 0.000000 0.000000
# 3 -0.004505 -0.004861 0.024904 0.000000 0.000000 0.000000
# 4 0.000000 0.000000 0.000000 0.139046 0.000000 0.000000
# 5 0.000000 0.000000 0.000000 0.000000 0.021779 0.000000
# 6 0.000000 0.000000 0.000000 0.000000 0.000000 0.047819
#
#
# Mechanical properties :
#
#
# Convention : Reuss Voigt Hill
#
# Bulk Modulus (GPa) = 39.89339 46.79187 43.34263
# Shear Modulus (GPa) = 17.76034 29.20271 23.48153
#
# Velocity S-wave (km/s) = 2.71786 3.48508 3.12510
# Velocity P-wave (km/s) = 5.14209 5.97123 5.57211
#
# Compressibility (1/GPa) = 0.02506681
#
# Stress axis : x y z
#
# Youngs Moduli (GPa) = 122.91213 85.06094 40.15346
#
# Poissons Ratio (x) = 0.04246 0.18087
# Poissons Ratio (y) = 0.06136 0.19519
# Poissons Ratio (z) = 0.55366 0.41349
#
# Static dielectric constant tensor:
#      x y z
#    x 1.930890 0.000000 0.000000 
#    y 0.000000 1.864510 0.000000 
#    z 0.000000 0.000000 1.890300 
# 
# From -- ./inp_files/16365.got.cif
#   From: 2010.05.17/outbox.cif.g08.bks.cpg/sg54_9_cif.got.tgz:16365.got - 2010.06.03 13:09:01.
