data_PCOD9423524
_publ_section_title
;
Structure prediction by ZEFSAII (Michael W. Deem and Ramdas Pophale) SiO2 
 PCOD9423524
Probable space group: P C C A
;
_chemical_formula_sum "Si O2"
_cell_formula_units_Z 56
_cell_length_a 14.982363
_cell_length_b 11.595175
_cell_length_c 13.821861
_cell_angle_alpha 90.000000
_cell_angle_beta 90.000000
_cell_angle_gamma 90.000000
_cell_volume 2401.176830
_symmetry_space_group_name_H-M "P C C A"
_symmetry_group_IT_number 54
_symmetry_cell_setting 'orthorhombic'
loop_
_space_group_symop_operation_xyz
x,y,z
1/2-x,-y,z
1/2+x,-y,1/2-z
-x,y,1/2-z
-x,-y,-z
1/2+x,y,-z
1/2-x,y,1/2+z
x,-y,1/2+z
loop_
_atom_site_type_symbol
_atom_site_label
_atom_site_fract_x
_atom_site_fract_y
_atom_site_fract_z
Si Si1 0.245790 0.727989 0.525009
Si Si2 0.419300 0.128023 0.697266
Si Si3 0.500000 0.240148 0.250000
Si Si4 0.750000 0.500000 0.056173
Si Si5 0.052371 0.347783 0.088362
Si Si6 0.249669 0.128842 0.834842
Si Si7 0.631480 0.896069 0.854558
Si Si8 0.060810 0.569168 0.373834
O O1 0.289037 0.604032 0.507890
O O2 0.158118 0.686648 0.583409
O O3 0.228053 0.781096 0.418817
O O4 0.307460 0.820852 0.576121
O O5 0.500000 0.062234 0.750000
O O6 0.473116 0.231681 0.645028
O O7 0.341299 0.156790 0.775115
O O8 0.376934 0.032303 0.625100
O O9 0.462357 0.166271 0.161716
O O10 0.432489 0.333769 0.292679
O O11 0.662578 0.470221 0.115570
O O12 0.007943 0.460949 0.137724
O O13 0.031959 0.370180 0.975387
O O14 0.176273 0.115902 0.751162
O O15 0.250000 0.000000 0.879414
#
# Coordination Sequence:
#
# PCOD9423524 Si02
#       8
#     8   8   4   4   8   8   8   8
#     4  11  24  43  73 100 137 186 229 288 363 409
#     4  11  24  44  67 102 143 180 237 291 343 426
#     4  12  26  46  66 100 138 182 228 286 360 414
#     4  10  24  46  66 104 136 176 240 284 338 432
#     4  10  23  44  71  98 136 178 234 285 346 419
#     4  10  24  43  67 100 137 182 231 285 347 424
#     4  11  24  46  67 100 144 181 234 289 346 431
#     4  10  25  46  71  99 139 183 228 295 346 422
#
# _framework density 23.321898999999998
#
# number of rings (size 3 to 8) (size 9 to 14) (size 15 to 20)
#    0.000    1.429    2.143    1.714   11.000    0.000 
#    2.571    2.143    0.000    0.000    0.000    0.000 
#    0.000    0.000    0.000    0.000    0.000    0.000 
#
# Total GULP energy -311941.156862 kJ/mol
# GULP energy per Si atom -5570.377801 kJ/mol
# Density = 2.326882 g / cm^3
# Si number density = 23.321899 Si / 1000 Ang^3
#
#
#
# Elastic Constant Matrix: (Units=GPa)
#
#
# Indices 1 2 3 4 5 6 
#
# 1 74.4901 34.4869 -0.0794 0.0000 0.0000 0.0000
# 2 34.4869 147.1122 27.4780 0.0000 0.0000 0.0000
# 3 -0.0794 27.4780 34.2839 0.0000 0.0000 0.0000
# 4 0.0000 0.0000 0.0000 32.0361 0.0000 0.0000
# 5 0.0000 0.0000 0.0000 0.0000 17.9042 0.0000
# 6 0.0000 0.0000 0.0000 0.0000 0.0000 41.9016
#
#
#
# Elastic Compliance Matrix: (Units=1/GPa)
#
#
# Indices 1 2 3 4 5 6 
#
# 1 0.015397 -0.004253 0.003444 0.000000 0.000000 0.000000
# 2 -0.004253 0.009169 -0.007359 0.000000 0.000000 0.000000
# 3 0.003444 -0.007359 0.035074 0.000000 0.000000 0.000000
# 4 0.000000 0.000000 0.000000 0.031215 0.000000 0.000000
# 5 0.000000 0.000000 0.000000 0.000000 0.055853 0.000000
# 6 0.000000 0.000000 0.000000 0.000000 0.000000 0.023865
#
#
# Mechanical properties :
#
#
# Convention : Reuss Voigt Hill
#
# Bulk Modulus (GPa) = 23.09164 42.18414 32.63789
# Shear Modulus (GPa) = 24.83327 31.30177 28.06752
#
# Velocity S-wave (km/s) = 3.26667 3.66753 3.47289
# Velocity P-wave (km/s) = 4.91437 6.00511 5.48691
#
# Compressibility (1/GPa) = 0.04330571
#
# Stress axis : x y z
#
# Youngs Moduli (GPa) = 64.94683 109.06354 28.51116
#
# Poissons Ratio (x) = 0.46383 -0.09820
# Poissons Ratio (y) = 0.27621 0.20980
# Poissons Ratio (z) = -0.22369 0.80256
#
# Static dielectric constant tensor:
#      x y z
#    x 2.055070 0.000000 0.000000 
#    y 0.000000 2.003150 0.000000 
#    z 0.000000 0.000000 2.140280 
# 
# From -- ./inp_files/13527.got.cif
#   From: 2010.05.17/outbox.cif.g08.bks.cpg/sg54_7_cif.got.tgz:13527.got - 2010.06.03 13:09:01.
