data_PCOD9423985
_publ_section_title
;
Structure prediction by ZEFSAII (Michael W. Deem and Ramdas Pophale) SiO2 
 PCOD9423985
Probable space group: P C C A
;
_chemical_formula_sum "Si O2"
_cell_formula_units_Z 40
_cell_length_a 8.465648
_cell_length_b 18.280199
_cell_length_c 10.717732
_cell_angle_alpha 90.000000
_cell_angle_beta 90.000000
_cell_angle_gamma 90.000000
_cell_volume 1658.609005
_symmetry_space_group_name_H-M "P C C A"
_symmetry_group_IT_number 54
_symmetry_cell_setting 'orthorhombic'
loop_
_space_group_symop_operation_xyz
x,y,z
1/2-x,-y,z
1/2+x,-y,1/2-z
-x,y,1/2-z
-x,-y,-z
1/2+x,y,-z
1/2-x,y,1/2+z
x,-y,1/2+z
loop_
_atom_site_type_symbol
_atom_site_label
_atom_site_fract_x
_atom_site_fract_y
_atom_site_fract_z
Si Si1 0.000000 0.297426 0.750000
Si Si2 0.250000 0.000000 0.074577
Si Si3 0.703891 0.347343 0.461881
Si Si4 0.279638 0.201825 0.401359
Si Si5 0.998880 0.442366 0.387906
Si Si6 0.502911 0.896791 0.070378
O O1 0.055795 0.343656 0.632008
O O2 0.142425 0.244265 0.787682
O O3 0.370217 0.047841 0.991562
O O4 0.131582 0.056439 0.142683
O O5 0.747772 0.264860 0.496823
O O6 0.844694 0.391818 0.400121
O O7 0.647907 0.389836 0.585620
O O8 0.115368 0.163299 0.368246
O O9 0.404465 0.144923 0.461228
O O10 0.000000 0.475271 0.250000
O O11 0.000000 0.500000 0.500000
#
# Coordination Sequence:
#
# PCOD9423985 Si02
#       6
#     4   4   8   8   8   8
#     4  12  24  40  74 102 144 184 238 314 368 436
#     4   8  16  30  60  94 130 188 236 292 356 438
#     4  12  25  47  72 105 145 186 243 305 371 435
#     4  11  20  38  65  99 135 182 240 302 365 432
#     4  12  29  48  76 107 148 196 246 296 369 444
#     4   9  17  33  60  98 130 183 241 288 369 421
#
# _framework density 24.116593000000002
#
# number of rings (size 3 to 8) (size 9 to 14) (size 15 to 20)
#    0.000    1.200    4.000    1.800    1.400    1.600 
#    0.000    0.000    0.000    7.200    0.000    0.000 
#    0.000    0.000    0.000    0.000    0.000    0.000 
#
# Total GULP energy -223755.731772 kJ/mol
# GULP energy per Si atom -5593.893294 kJ/mol
# Density = 2.406170 g / cm^3
# Si number density = 24.116593 Si / 1000 Ang^3
#
#
#
# Elastic Constant Matrix: (Units=GPa)
#
#
# Indices 1 2 3 4 5 6 
#
# 1 124.2104 51.0989 24.1706 0.0000 0.0000 0.0000
# 2 51.0989 119.9794 38.3227 0.0000 0.0000 0.0000
# 3 24.1706 38.3227 112.7473 0.0000 0.0000 0.0000
# 4 0.0000 0.0000 0.0000 25.2525 0.0000 0.0000
# 5 0.0000 0.0000 0.0000 0.0000 34.8751 0.0000
# 6 0.0000 0.0000 0.0000 0.0000 0.0000 25.8559
#
#
#
# Elastic Compliance Matrix: (Units=1/GPa)
#
#
# Indices 1 2 3 4 5 6 
#
# 1 0.009820 -0.003937 -0.000767 0.000000 0.000000 0.000000
# 2 -0.003937 0.010929 -0.002871 0.000000 0.000000 0.000000
# 3 -0.000767 -0.002871 0.010009 0.000000 0.000000 0.000000
# 4 0.000000 0.000000 0.000000 0.039600 0.000000 0.000000
# 5 0.000000 0.000000 0.000000 0.000000 0.028674 0.000000
# 6 0.000000 0.000000 0.000000 0.000000 0.000000 0.038676
#
#
# Mechanical properties :
#
#
# Convention : Reuss Voigt Hill
#
# Bulk Modulus (GPa) = 64.06785 64.90238 64.48511
# Shear Modulus (GPa) = 31.63359 33.41968 32.52664
#
# Velocity S-wave (km/s) = 3.62566 3.72661 3.67648
# Velocity P-wave (km/s) = 6.64460 6.74442 6.69470
#
# Compressibility (1/GPa) = 0.01560845
#
# Stress axis : x y z
#
# Youngs Moduli (GPa) = 101.83453 91.50367 99.90527
#
# Poissons Ratio (x) = 0.36028 0.07662
# Poissons Ratio (y) = 0.40095 0.28678
# Poissons Ratio (z) = 0.07810 0.26266
#
# Static dielectric constant tensor:
#      x y z
#    x 1.932850 0.000000 0.000000 
#    y 0.000000 1.951970 0.000000 
#    z 0.000000 0.000000 1.220780 
# 
# From -- ./inp_files/6922.got.cif
#   From: 2010.05.17/outbox.cif.g08.bks.cpg/sg54_4_cif.got.tgz:6922.got - 2010.06.03 13:09:01.
