data_PCOD9423165
_publ_section_title
;
Structure prediction by ZEFSAII (Michael W. Deem and Ramdas Pophale) SiO2 
 PCOD9423165
Probable space group: P C C A
;
_chemical_formula_sum "Si O2"
_cell_formula_units_Z 32
_cell_length_a 5.479114
_cell_length_b 11.337330
_cell_length_c 21.920203
_cell_angle_alpha 90.000000
_cell_angle_beta 90.000000
_cell_angle_gamma 90.000000
_cell_volume 1361.650646
_symmetry_space_group_name_H-M "P C C A"
_symmetry_group_IT_number 54
_symmetry_cell_setting 'orthorhombic'
loop_
_space_group_symop_operation_xyz
x,y,z
1/2-x,-y,z
1/2+x,-y,1/2-z
-x,y,1/2-z
-x,-y,-z
1/2+x,y,-z
1/2-x,y,1/2+z
x,-y,1/2+z
loop_
_atom_site_type_symbol
_atom_site_label
_atom_site_fract_x
_atom_site_fract_y
_atom_site_fract_z
Si Si1 0.250000 0.500000 0.403819
Si Si2 0.000000 0.724047 0.750000
Si Si3 0.784153 0.861072 0.152191
Si Si4 0.921279 0.731527 0.535931
Si Si5 0.406273 0.341698 0.180591
O O1 0.105874 0.404492 0.443896
O O2 0.444430 0.425662 0.363833
O O3 0.180499 0.810502 0.784674
O O4 0.120624 0.648353 0.695790
O O5 0.635672 0.810115 0.095047
O O6 0.043033 0.790637 0.154049
O O7 0.750000 0.000000 0.151569
O O8 0.689431 0.753833 0.491185
O O9 0.500000 0.361726 0.250000
#
# Coordination Sequence:
#
# PCOD9423165 Si02
#       5
#     4   4   8   8   8
#     4  10  22  46  72 100 140 188 244 296 364 434
#     4  10  22  42  72 102 152 180 236 296 368 442
#     4  10  24  42  71 103 140 190 234 296 368 438
#     4  11  26  49  71 103 142 189 250 306 363 427
#     4   9  21  44  61 104 140 183 228 291 355 437
#
# _framework density 23.500889999999998
#
# number of rings (size 3 to 8) (size 9 to 14) (size 15 to 20)
#    0.000    2.000    0.000    0.750   12.250    1.000 
#   29.250    0.000    0.000    0.000    0.000    0.000 
#    0.000    0.000    0.000    0.000    0.000    0.000 
#
# Total GULP energy -178656.632618 kJ/mol
# GULP energy per Si atom -5583.019769 kJ/mol
# Density = 2.344740 g / cm^3
# Si number density = 23.500890 Si / 1000 Ang^3
#
#
#
# Elastic Constant Matrix: (Units=GPa)
#
#
# Indices 1 2 3 4 5 6 
#
# 1 94.2700 36.9989 32.0214 0.0000 0.0000 0.0000
# 2 36.9989 84.1332 10.3477 0.0000 0.0000 0.0000
# 3 32.0214 10.3477 82.5281 0.0000 0.0000 0.0000
# 4 0.0000 0.0000 0.0000 33.2767 0.0000 0.0000
# 5 0.0000 0.0000 0.0000 0.0000 53.2362 0.0000
# 6 0.0000 0.0000 0.0000 0.0000 0.0000 15.7824
#
#
#
# Elastic Compliance Matrix: (Units=1/GPa)
#
#
# Indices 1 2 3 4 5 6 
#
# 1 0.014554 -0.005795 -0.004920 0.000000 0.000000 0.000000
# 2 -0.005795 0.014380 0.000446 0.000000 0.000000 0.000000
# 3 -0.004920 0.000446 0.013970 0.000000 0.000000 0.000000
# 4 0.000000 0.000000 0.000000 0.030051 0.000000 0.000000
# 5 0.000000 0.000000 0.000000 0.000000 0.018784 0.000000
# 6 0.000000 0.000000 0.000000 0.000000 0.000000 0.063362
#
#
# Mechanical properties :
#
#
# Convention : Reuss Voigt Hill
#
# Bulk Modulus (GPa) = 44.71481 46.62969 45.67225
# Shear Modulus (GPa) = 27.30827 32.56326 29.93577
#
# Velocity S-wave (km/s) = 3.41253 3.72643 3.57293
# Velocity P-wave (km/s) = 5.88177 6.19675 6.04132
#
# Compressibility (1/GPa) = 0.02236396
#
# Stress axis : x y z
#
# Youngs Moduli (GPa) = 68.71177 69.54315 71.58034
#
# Poissons Ratio (x) = 0.40300 0.35219
# Poissons Ratio (y) = 0.39818 -0.03189
# Poissons Ratio (z) = 0.33808 -0.03098
#
# Static dielectric constant tensor:
#      x y z
#    x 2.294200 0.000000 0.000000 
#    y 0.000000 1.902450 0.000000 
#    z 0.000000 0.000000 1.870970 
# 
# From -- ./inp_files/19523.got.cif
#   From: 2010.05.17/outbox.cif.g08.bks.cpg/sg54_10_cif.got.tgz:19523.got - 2010.06.03 13:09:01.
