data_PCOD9423366
_publ_section_title
;
Structure prediction by ZEFSAII (Michael W. Deem and Ramdas Pophale) SiO2 
 PCOD9423366
Probable space group: P C C A
;
_chemical_formula_sum "Si O2"
_cell_formula_units_Z 28
_cell_length_a 5.301154
_cell_length_b 12.853871
_cell_length_c 18.162861
_cell_angle_alpha 90.000000
_cell_angle_beta 90.000000
_cell_angle_gamma 90.000000
_cell_volume 1237.623699
_symmetry_space_group_name_H-M "P C C A"
_symmetry_group_IT_number 54
_symmetry_cell_setting 'orthorhombic'
loop_
_space_group_symop_operation_xyz
x,y,z
1/2-x,-y,z
1/2+x,-y,1/2-z
-x,y,1/2-z
-x,-y,-z
1/2+x,y,-z
1/2-x,y,1/2+z
x,-y,1/2+z
loop_
_atom_site_type_symbol
_atom_site_label
_atom_site_fract_x
_atom_site_fract_y
_atom_site_fract_z
Si Si1 0.506839 0.701458 0.837966
Si Si2 0.004142 0.061145 0.660040
Si Si3 0.750000 0.500000 0.800746
Si Si4 0.213359 0.624504 0.957895
O O1 0.500000 0.707022 0.750000
O O2 0.542541 0.819244 0.863700
O O3 0.691533 0.602081 0.849864
O O4 0.247524 0.666489 0.875696
O O5 0.000000 0.061365 0.750000
O O6 0.750000 0.000000 0.637050
O O7 0.250000 0.000000 0.635505
O O8 0.500000 0.484762 0.750000
O O9 0.250000 0.500000 0.955504
O O10 0.461258 0.660153 0.002561
#
# Coordination Sequence:
#
# PCOD9423366 Si02
#       4
#     8   8   4   8
#     4  10  23  39  66  94 125 163 208 263 306 364
#     4   9  19  36  57  86 120 158 204 253 306 358
#     4  10  24  36  54  96 136 154 194 260 322 362
#     4  10  24  42  60  86 128 169 202 242 310 384
#
# _framework density 22.624001
#
# number of rings (size 3 to 8) (size 9 to 14) (size 15 to 20)
#    0.000    2.286    0.000    0.000   14.000   10.286 
#    0.000    0.000    0.000    5.143    0.000    0.000 
#    0.000    0.000    0.000    0.000    0.000    0.000 
#
# Total GULP energy -156281.004977 kJ/mol
# GULP energy per Si atom -5581.464463 kJ/mol
# Density = 2.257251 g / cm^3
# Si number density = 22.624001 Si / 1000 Ang^3
#
#
#
# Elastic Constant Matrix: (Units=GPa)
#
#
# Indices 1 2 3 4 5 6 
#
# 1 167.5145 76.9862 33.2369 0.0000 0.0000 0.0000
# 2 76.9862 197.9021 2.4267 0.0000 0.0000 0.0000
# 3 33.2369 2.4267 66.7991 0.0000 0.0000 0.0000
# 4 0.0000 0.0000 0.0000 -20.1734 0.0000 0.0000
# 5 0.0000 0.0000 0.0000 0.0000 21.3124 0.0000
# 6 0.0000 0.0000 0.0000 0.0000 0.0000 19.0883
#
#
#
# Elastic Compliance Matrix: (Units=1/GPa)
#
#
# Indices 1 2 3 4 5 6 
#
# 1 0.008200 -0.003141 -0.003966 0.000000 0.000000 0.000000
# 2 -0.003141 0.006259 0.001336 0.000000 0.000000 0.000000
# 3 -0.003966 0.001336 0.016895 0.000000 0.000000 0.000000
# 4 0.000000 0.000000 0.000000 -0.049570 0.000000 0.000000
# 5 0.000000 0.000000 0.000000 0.000000 0.046921 0.000000
# 6 0.000000 0.000000 0.000000 0.000000 0.000000 0.052388
#
#
# Mechanical properties :
#
#
# Convention : Reuss Voigt Hill
#
# Bulk Modulus (GPa) = 50.47821 73.05725 61.76773
# Shear Modulus (GPa) = 50.38297 25.34986 37.86641
#
# Velocity S-wave (km/s) = 4.72420 3.35100 4.09556
# Velocity P-wave (km/s) = 7.21925 6.87999 7.05166
#
# Compressibility (1/GPa) = 0.01981053
#
# Stress axis : x y z
#
# Youngs Moduli (GPa) = 121.94765 159.77886 59.18882
#
# Poissons Ratio (x) = 0.50192 0.23474
# Poissons Ratio (y) = 0.38308 -0.07906
# Poissons Ratio (z) = 0.48365 -0.21341
#
# Static dielectric constant tensor:
#      x y z
#    x 1.737050 0.000000 0.000000 
#    y 0.000000 1.876180 0.000000 
#    z 0.000000 0.000000 1.900060 
# 
# From -- ./inp_files/19447.got.cif
#   From: 2010.05.17/outbox.cif.g08.bks.cpg/sg54_10_cif.got.tgz:19447.got - 2010.06.03 13:09:01.
