data_PCOD9423884
_publ_section_title
;
Structure prediction by ZEFSAII (Michael W. Deem and Ramdas Pophale) SiO2 
 PCOD9423884
Probable space group: P C C A
;
_chemical_formula_sum "Si O2"
_cell_formula_units_Z 48
_cell_length_a 15.827153
_cell_length_b 11.782005
_cell_length_c 11.462793
_cell_angle_alpha 90.000000
_cell_angle_beta 90.000000
_cell_angle_gamma 90.000000
_cell_volume 2137.531154
_symmetry_space_group_name_H-M "P C C A"
_symmetry_group_IT_number 54
_symmetry_cell_setting 'orthorhombic'
loop_
_space_group_symop_operation_xyz
x,y,z
1/2-x,-y,z
1/2+x,-y,1/2-z
-x,y,1/2-z
-x,-y,-z
1/2+x,y,-z
1/2-x,y,1/2+z
x,-y,1/2+z
loop_
_atom_site_type_symbol
_atom_site_label
_atom_site_fract_x
_atom_site_fract_y
_atom_site_fract_z
Si Si1 0.674631 0.348077 0.717666
Si Si2 0.161711 0.061756 0.877811
Si Si3 0.930827 0.162517 0.086026
Si Si4 0.369129 0.595910 0.824472
Si Si5 0.390228 0.260867 0.547219
Si Si6 0.413209 0.801122 0.686203
O O1 0.636012 0.242864 0.649308
O O2 0.769041 0.375288 0.675769
O O3 0.621391 0.462300 0.691840
O O4 0.667989 0.317125 0.854385
O O5 0.157752 0.130055 0.756439
O O6 0.250000 0.000000 0.892375
O O7 0.088363 0.966602 0.879330
O O8 0.148767 0.153260 0.979951
O O9 0.024287 0.212784 0.105869
O O10 0.916312 0.171256 0.947797
O O11 0.402529 0.668265 0.715014
O O12 0.407187 0.648539 0.943243
O O13 0.500000 0.833969 0.750000
#
# Coordination Sequence:
#
# PCOD9423884 Si02
#       6
#     8   8   8   8   8   8
#     4  11  27  43  75 102 138 184 235 286 341 417
#     4  11  26  46  69 102 139 187 230 286 346 414
#     4  12  25  44  71 104 138 183 230 286 349 413
#     4  10  25  47  67 103 139 186 226 285 346 405
#     4  11  25  48  67 106 142 176 236 286 348 414
#     4  11  24  44  69  99 140 181 224 284 350 411
#
# _framework density 22.455815000000001
#
# number of rings (size 3 to 8) (size 9 to 14) (size 15 to 20)
#    0.000    1.000    3.333    3.000    9.333    4.000 
#    0.000    0.000    0.000    0.000    0.000    0.000 
#    0.000    0.000    0.000    0.000    0.000    0.000 
#
# Total GULP energy -268714.515366 kJ/mol
# GULP energy per Si atom -5598.219070 kJ/mol
# Density = 2.240470 g / cm^3
# Si number density = 22.455815 Si / 1000 Ang^3
#
#
#
# Elastic Constant Matrix: (Units=GPa)
#
#
# Indices 1 2 3 4 5 6 
#
# 1 45.2799 -0.0606 -4.5222 0.0000 0.0000 0.0000
# 2 -0.0606 142.2209 28.8272 0.0000 0.0000 0.0000
# 3 -4.5222 28.8272 73.1714 0.0000 0.0000 0.0000
# 4 0.0000 0.0000 0.0000 13.8259 0.0000 0.0000
# 5 0.0000 0.0000 0.0000 0.0000 21.9525 0.0000
# 6 0.0000 0.0000 0.0000 0.0000 0.0000 34.0449
#
#
#
# Elastic Compliance Matrix: (Units=1/GPa)
#
#
# Indices 1 2 3 4 5 6 
#
# 1 0.022233 -0.000292 0.001489 0.000000 0.000000 0.000000
# 2 -0.000292 0.007645 -0.003030 0.000000 0.000000 0.000000
# 3 0.001489 -0.003030 0.014952 0.000000 0.000000 0.000000
# 4 0.000000 0.000000 0.000000 0.072328 0.000000 0.000000
# 5 0.000000 0.000000 0.000000 0.000000 0.045553 0.000000
# 6 0.000000 0.000000 0.000000 0.000000 0.000000 0.029373
#
#
# Mechanical properties :
#
#
# Convention : Reuss Voigt Hill
#
# Bulk Modulus (GPa) = 24.29280 34.35124 29.32202
# Shear Modulus (GPa) = 23.86941 29.72648 26.79795
#
# Velocity S-wave (km/s) = 3.26383 3.64232 3.45826
# Velocity P-wave (km/s) = 5.00449 5.74623 5.38814
#
# Compressibility (1/GPa) = 0.04116446
#
# Stress axis : x y z
#
# Youngs Moduli (GPa) = 44.97775 130.79808 66.87917
#
# Poissons Ratio (x) = 0.03825 -0.09960
# Poissons Ratio (y) = 0.01315 0.20265
# Poissons Ratio (z) = -0.06698 0.39633
#
# Static dielectric constant tensor:
#      x y z
#    x 1.904820 0.000000 0.000000 
#    y 0.000000 1.804030 0.000000 
#    z 0.000000 0.000000 1.788460 
# 
# From -- ./inp_files/8962.got.cif
#   From: 2010.05.17/outbox.cif.g08.bks.cpg/sg54_5_cif.got.tgz:8962.got - 2010.06.03 13:09:01.
