data_PCOD9423823
_publ_section_title
;
Structure prediction by ZEFSAII (Michael W. Deem and Ramdas Pophale) SiO2 
 PCOD9423823
Probable space group: P C C A
;
_chemical_formula_sum "Si O2"
_cell_formula_units_Z 48
_cell_length_a 22.704106
_cell_length_b 5.793157
_cell_length_c 15.033926
_cell_angle_alpha 90.000000
_cell_angle_beta 90.000000
_cell_angle_gamma 90.000000
_cell_volume 1977.388993
_symmetry_space_group_name_H-M "P C C A"
_symmetry_group_IT_number 54
_symmetry_cell_setting 'orthorhombic'
loop_
_space_group_symop_operation_xyz
x,y,z
1/2-x,-y,z
1/2+x,-y,1/2-z
-x,y,1/2-z
-x,-y,-z
1/2+x,y,-z
1/2-x,y,1/2+z
x,-y,1/2+z
loop_
_atom_site_type_symbol
_atom_site_label
_atom_site_fract_x
_atom_site_fract_y
_atom_site_fract_z
Si Si1 0.523829 0.925741 0.134095
Si Si2 0.587556 0.608134 0.321777
Si Si3 0.684165 0.067346 0.862054
Si Si4 0.119909 0.213731 0.779492
Si Si5 0.714262 0.240965 0.061350
Si Si6 0.453549 0.317501 0.034186
O O1 0.562107 0.830397 0.051344
O O2 0.427282 0.015245 0.299490
O O3 0.472187 0.751541 0.162103
O O4 0.486815 0.144726 0.099903
O O5 0.650203 0.730426 0.311759
O O6 0.581983 0.442305 0.238102
O O7 0.593096 0.465832 0.413955
O O8 0.686655 0.157023 0.965206
O O9 0.750000 0.000000 0.840647
O O10 0.649965 0.854266 0.814583
O O11 0.165232 0.256000 0.860357
O O12 0.750000 0.500000 0.055146
O O13 0.750000 0.000000 0.084763
O O14 0.500000 0.500000 0.000000
#
# Coordination Sequence:
#
# PCOD9423823 Si02
#       6
#     8   8   8   8   8   8
#     4  10  24  47  73 120 164 214 272 336 418 510
#     4  11  26  46  79 113 165 214 272 341 427 506
#     4  11  29  52  81 117 159 216 282 359 430 510
#     4  12  29  46  86 120 169 218 291 352 432 513
#     4  11  30  58  88 123 169 226 295 359 441 517
#     4   9  21  42  73 107 160 211 263 321 407 499
#
# _framework density 24.274436999999999
#
# number of rings (size 3 to 8) (size 9 to 14) (size 15 to 20)
#    0.000    1.333    0.000    1.500   18.667    6.667 
#    0.000    0.000    0.000    0.000    0.000    0.000 
#    0.000    0.000    0.000    0.000    0.000    0.000 
#
# Total GULP energy -267392.613063 kJ/mol
# GULP energy per Si atom -5570.679439 kJ/mol
# Density = 2.421919 g / cm^3
# Si number density = 24.274437 Si / 1000 Ang^3
#
#
#
# Elastic Constant Matrix: (Units=GPa)
#
#
# Indices 1 2 3 4 5 6 
#
# 1 123.7076 83.1113 75.6856 0.0000 0.0000 0.0000
# 2 83.1113 115.9481 57.3500 0.0000 0.0000 0.0000
# 3 75.6856 57.3500 98.6185 0.0000 0.0000 0.0000
# 4 0.0000 0.0000 0.0000 1.1266 0.0000 0.0000
# 5 0.0000 0.0000 0.0000 0.0000 35.4577 0.0000
# 6 0.0000 0.0000 0.0000 0.0000 0.0000 14.7606
#
#
#
# Elastic Compliance Matrix: (Units=1/GPa)
#
#
# Indices 1 2 3 4 5 6 
#
# 1 0.021225 -0.010047 -0.010447 0.000000 0.000000 0.000000
# 2 -0.010047 0.016863 -0.002096 0.000000 0.000000 0.000000
# 3 -0.010447 -0.002096 0.019376 0.000000 0.000000 0.000000
# 4 0.000000 0.000000 0.000000 0.887602 0.000000 0.000000
# 5 0.000000 0.000000 0.000000 0.000000 0.028203 0.000000
# 6 0.000000 0.000000 0.000000 0.000000 0.000000 0.067748
#
#
# Mechanical properties :
#
#
# Convention : Reuss Voigt Hill
#
# Bulk Modulus (GPa) = 81.39754 85.61869 83.50811
# Shear Modulus (GPa) = 4.58594 18.41081 11.49837
#
# Velocity S-wave (km/s) = 1.37597 2.75697 2.17879
# Velocity P-wave (km/s) = 6.01077 6.74405 6.38794
#
# Compressibility (1/GPa) = 0.01228538
#
# Stress axis : x y z
#
# Youngs Moduli (GPa) = 47.11513 59.30286 51.60997
#
# Poissons Ratio (x) = 0.59580 0.53914
# Poissons Ratio (y) = 0.47335 0.10816
# Poissons Ratio (z) = 0.49219 0.12428
#
# Static dielectric constant tensor:
#      x y z
#    x 1.881820 0.000000 0.000000 
#    y 0.000000 2.100610 0.000000 
#    z 0.000000 0.000000 2.039970 
# 
# From -- ./inp_files/19166.got.cif
#   From: 2010.05.17/outbox.cif.g08.bks.cpg/sg54_10_cif.got.tgz:19166.got - 2010.06.03 13:09:01.
