data_PCOD9423465
_publ_section_title
;
Structure prediction by ZEFSAII (Michael W. Deem and Ramdas Pophale) SiO2 
 PCOD9423465
Probable space group: P C C A
;
_chemical_formula_sum "Si O2"
_cell_formula_units_Z 48
_cell_length_a 9.446018
_cell_length_b 16.794574
_cell_length_c 15.614045
_cell_angle_alpha 90.000000
_cell_angle_beta 90.000000
_cell_angle_gamma 90.000000
_cell_volume 2477.040958
_symmetry_space_group_name_H-M "P C C A"
_symmetry_group_IT_number 54
_symmetry_cell_setting 'orthorhombic'
loop_
_space_group_symop_operation_xyz
x,y,z
1/2-x,-y,z
1/2+x,-y,1/2-z
-x,y,1/2-z
-x,-y,-z
1/2+x,y,-z
1/2-x,y,1/2+z
x,-y,1/2+z
loop_
_atom_site_type_symbol
_atom_site_label
_atom_site_fract_x
_atom_site_fract_y
_atom_site_fract_z
Si Si1 0.000000 0.207461 0.250000
Si Si2 0.337507 0.582721 0.915690
Si Si3 0.593607 0.897862 0.412508
Si Si4 0.678208 0.413968 0.415410
Si Si5 0.500000 0.173484 0.250000
Si Si6 0.227020 0.308863 0.753131
Si Si7 0.574382 0.910506 0.918073
O O1 0.961460 0.150760 0.330483
O O2 0.876232 0.269064 0.228758
O O3 0.250000 0.500000 0.901745
O O4 0.508120 0.575109 0.928869
O O5 0.319126 0.636514 0.832206
O O6 0.258630 0.617728 0.999637
O O7 0.506468 0.878756 0.498363
O O8 0.761707 0.884270 0.421395
O O9 0.573852 0.993688 0.407869
O O10 0.750000 0.500000 0.399805
O O11 0.711154 0.359098 0.334000
O O12 0.630187 0.232137 0.255914
O O13 0.503131 0.121728 0.165339
#
# Coordination Sequence:
#
# PCOD9423465 Si02
#       7
#     4   8   8   8   4   8   8
#     4  12  27  42  63  96 132 168 214 254 325 380
#     4  11  24  44  68  94 125 169 213 260 314 371
#     4  10  23  44  64  98 120 172 214 263 309 380
#     4  11  24  44  68  95 125 166 216 260 311 375
#     4  12  23  46  59  96 128 174 198 268 315 380
#     4  12  27  42  64  93 133 165 210 258 320 378
#     4  10  23  42  70  89 130 164 218 260 315 370
#
# _framework density 19.377960000000002
#
# number of rings (size 3 to 8) (size 9 to 14) (size 15 to 20)
#    0.000    1.000    3.333    3.000    7.000    2.667 
#    0.000    0.000    0.000    0.000    0.000    0.000 
#    0.000    0.000    0.000    0.000    0.000    0.000 
#
# Total GULP energy -267969.447846 kJ/mol
# GULP energy per Si atom -5582.696830 kJ/mol
# Density = 1.933385 g / cm^3
# Si number density = 19.377960 Si / 1000 Ang^3
#
#
#
# Elastic Constant Matrix: (Units=GPa)
#
#
# Indices 1 2 3 4 5 6 
#
# 1 61.6483 23.4570 22.4900 0.0000 0.0000 0.0000
# 2 23.4570 32.4276 50.3577 0.0000 0.0000 0.0000
# 3 22.4900 50.3577 168.0693 0.0000 0.0000 0.0000
# 4 0.0000 0.0000 0.0000 508.6145 0.0000 0.0000
# 5 0.0000 0.0000 0.0000 0.0000 23.8529 0.0000
# 6 0.0000 0.0000 0.0000 0.0000 0.0000 35.9471
#
#
#
# Elastic Compliance Matrix: (Units=1/GPa)
#
#
# Indices 1 2 3 4 5 6 
#
# 1 0.023519 -0.022677 0.003647 0.000000 0.000000 0.000000
# 2 -0.022677 0.079538 -0.020797 0.000000 0.000000 0.000000
# 3 0.003647 -0.020797 0.011693 0.000000 0.000000 0.000000
# 4 0.000000 0.000000 0.000000 0.001966 0.000000 0.000000
# 5 0.000000 0.000000 0.000000 0.000000 0.041924 0.000000
# 6 0.000000 0.000000 0.000000 0.000000 0.000000 0.027819
#
#
# Mechanical properties :
#
#
# Convention : Reuss Voigt Hill
#
# Bulk Modulus (GPa) = 28.49252 50.52829 39.51040
# Shear Modulus (GPa) = 17.99786 124.73893 71.36839
#
# Velocity S-wave (km/s) = 3.05090 8.03189 6.07533
# Velocity P-wave (km/s) = 5.21019 10.58994 8.34544
#
# Compressibility (1/GPa) = 0.03509693
#
# Stress axis : x y z
#
# Youngs Moduli (GPa) = 42.51896 12.57260 85.52010
#
# Poissons Ratio (x) = 0.28511 -0.31193
# Poissons Ratio (y) = 0.96420 1.77857
# Poissons Ratio (z) = -0.15508 0.26147
#
# Static dielectric constant tensor:
#      x y z
#    x 1.631330 0.000000 0.000000 
#    y 0.000000 1.654500 0.000000 
#    z 0.000000 0.000000 1.660810 
# 
# From -- ./inp_files/11770.got.cif
#   From: 2010.05.17/outbox.cif.g08.bks.cpg/sg54_6_cif.got.tgz:11770.got - 2010.06.03 13:09:01.
