data_PCOD9423138
_publ_section_title
;
Structure prediction by ZEFSAII (Michael W. Deem and Ramdas Pophale) SiO2 
 PCOD9423138
Probable space group: P C C A
;
_chemical_formula_sum "Si O2"
_cell_formula_units_Z 40
_cell_length_a 20.168190
_cell_length_b 8.794084
_cell_length_c 8.330903
_cell_angle_alpha 90.000000
_cell_angle_beta 90.000000
_cell_angle_gamma 90.000000
_cell_volume 1477.575262
_symmetry_space_group_name_H-M "P C C A"
_symmetry_group_IT_number 54
_symmetry_cell_setting 'orthorhombic'
loop_
_space_group_symop_operation_xyz
x,y,z
1/2-x,-y,z
1/2+x,-y,1/2-z
-x,y,1/2-z
-x,-y,-z
1/2+x,y,-z
1/2-x,y,1/2+z
x,-y,1/2+z
loop_
_atom_site_type_symbol
_atom_site_label
_atom_site_fract_x
_atom_site_fract_y
_atom_site_fract_z
Si Si1 0.566948 0.678979 0.028438
Si Si2 0.314787 0.266925 0.550547
Si Si3 0.389244 0.952432 0.257745
Si Si4 0.750000 0.000000 0.579414
Si Si5 0.356778 0.471927 0.255328
Si Si6 0.000000 0.205192 0.750000
O O1 0.621778 0.624002 0.899192
O O2 0.503087 0.698558 0.914787
O O3 0.579141 0.839826 0.112155
O O4 0.578917 0.559555 0.171604
O O5 0.374127 0.151628 0.601789
O O6 0.328633 0.363408 0.391840
O O7 0.310605 0.389278 0.693994
O O8 0.253371 0.155318 0.521958
O O9 0.316552 0.998717 0.317757
O O10 0.436901 0.094507 0.238439
#
# Coordination Sequence:
#
# PCOD9423138 Si02
#       6
#     8   8   8   4   8   4
#     4  10  22  42  68 101 139 187 238 296 365 441
#     4  10  22  44  73 104 144 190 243 307 376 451
#     4  11  25  44  71 105 144 192 246 312 378 450
#     4  12  24  44  74 108 142 188 252 318 380 456
#     4   9  21  45  71 104 145 190 243 302 376 456
#     4  12  24  42  72 108 150 196 252 314 378 450
#
# _framework density 27.071377999999999
#
# number of rings (size 3 to 8) (size 9 to 14) (size 15 to 20)
#    0.000    1.600    0.000    3.600    0.000    4.000 
#    0.000   24.000    0.000    3.600    0.000    0.000 
#    0.000    0.000    0.000    0.000    0.000    0.000 
#
# Total GULP energy -224192.306013 kJ/mol
# GULP energy per Si atom -5604.807650 kJ/mol
# Density = 2.700976 g / cm^3
# Si number density = 27.071378 Si / 1000 Ang^3
#
#
#
# Elastic Constant Matrix: (Units=GPa)
#
#
# Indices 1 2 3 4 5 6 
#
# 1 89.7076 39.4720 5.9733 0.0000 0.0000 0.0000
# 2 39.4720 139.3706 27.2862 0.0000 0.0000 0.0000
# 3 5.9733 27.2862 98.5261 0.0000 0.0000 0.0000
# 4 0.0000 0.0000 0.0000 48.2761 0.0000 0.0000
# 5 0.0000 0.0000 0.0000 0.0000 38.5324 0.0000
# 6 0.0000 0.0000 0.0000 0.0000 0.0000 61.3195
#
#
#
# Elastic Compliance Matrix: (Units=1/GPa)
#
#
# Indices 1 2 3 4 5 6 
#
# 1 0.012740 -0.003655 0.000240 0.000000 0.000000 0.000000
# 2 -0.003655 0.008635 -0.002170 0.000000 0.000000 0.000000
# 3 0.000240 -0.002170 0.010736 0.000000 0.000000 0.000000
# 4 0.000000 0.000000 0.000000 0.020714 0.000000 0.000000
# 5 0.000000 0.000000 0.000000 0.000000 0.025952 0.000000
# 6 0.000000 0.000000 0.000000 0.000000 0.000000 0.016308
#
#
# Mechanical properties :
#
#
# Convention : Reuss Voigt Hill
#
# Bulk Modulus (GPa) = 47.75392 52.56302 50.15847
# Shear Modulus (GPa) = 44.15584 46.61710 45.38647
#
# Velocity S-wave (km/s) = 4.04306 4.15421 4.09901
# Velocity P-wave (km/s) = 6.28278 6.51679 6.40086
#
# Compressibility (1/GPa) = 0.02094069
#
# Stress axis : x y z
#
# Youngs Moduli (GPa) = 78.49542 115.80651 93.14481
#
# Poissons Ratio (x) = 0.42328 -0.02234
# Poissons Ratio (y) = 0.28690 0.20211
# Poissons Ratio (z) = -0.01883 0.25128
#
# Static dielectric constant tensor:
#      x y z
#    x 2.122560 0.000000 0.000000 
#    y 0.000000 2.099160 0.000000 
#    z 0.000000 0.000000 2.144480 
# 
# From -- ./inp_files/5053.got.cif
#   From: 2010.05.17/outbox.cif.g08.bks.cpg/sg54_3_cif.got.tgz:5053.got - 2010.06.03 13:09:01.
