data_PCOD9423946
_publ_section_title
;
Structure prediction by ZEFSAII (Michael W. Deem and Ramdas Pophale) SiO2 
 PCOD9423946
Probable space group: P C C A
;
_chemical_formula_sum "Si O2"
_cell_formula_units_Z 40
_cell_length_a 11.552406
_cell_length_b 9.564699
_cell_length_c 15.731107
_cell_angle_alpha 90.000000
_cell_angle_beta 90.000000
_cell_angle_gamma 90.000000
_cell_volume 1738.213169
_symmetry_space_group_name_H-M "P C C A"
_symmetry_group_IT_number 54
_symmetry_cell_setting 'orthorhombic'
loop_
_space_group_symop_operation_xyz
x,y,z
1/2-x,-y,z
1/2+x,-y,1/2-z
-x,y,1/2-z
-x,-y,-z
1/2+x,y,-z
1/2-x,y,1/2+z
x,-y,1/2+z
loop_
_atom_site_type_symbol
_atom_site_label
_atom_site_fract_x
_atom_site_fract_y
_atom_site_fract_z
Si Si1 0.625408 0.286262 0.948783
Si Si2 0.581454 0.049313 0.077375
Si Si3 0.500000 0.190015 0.250000
Si Si4 0.250000 0.500000 0.961044
Si Si5 0.625185 0.751467 0.133353
Si Si6 0.759185 0.331176 0.792165
O O1 0.507068 0.271543 0.896393
O O2 0.732701 0.267420 0.884767
O O3 0.632039 0.184248 0.029305
O O4 0.644734 0.442077 0.982943
O O5 0.519024 0.099445 0.164235
O O6 0.650559 0.909882 0.103982
O O7 0.500000 0.000000 0.000000
O O8 0.384960 0.283160 0.239055
O O9 0.300870 0.372993 0.907891
O O10 0.660542 0.733491 0.231127
O O11 0.750000 0.500000 0.793390
#
# Coordination Sequence:
#
# PCOD9423946 Si02
#       6
#     8   8   4   4   8   8
#     4  11  26  46  78 113 154 202 264 324 394 472
#     4  10  27  52  80 109 156 209 263 333 385 479
#     4  12  30  54  74 120 162 206 268 326 406 476
#     4  12  24  42  76 114 154 206 248 334 382 474
#     4  11  26  50  74 113 152 206 263 318 402 463
#     4  12  28  47  80 115 157 207 256 333 393 479
#
# _framework density 23.012136999999999
#
# number of rings (size 3 to 8) (size 9 to 14) (size 15 to 20)
#    0.000    0.800    2.000    2.400   14.000    3.200 
#    3.600    0.000    0.000    0.000    0.000    0.000 
#    0.000    0.000    0.000    0.000    0.000    0.000 
#
# Total GULP energy -223441.875219 kJ/mol
# GULP energy per Si atom -5586.046880 kJ/mol
# Density = 2.295976 g / cm^3
# Si number density = 23.012137 Si / 1000 Ang^3
#
#
#
# Elastic Constant Matrix: (Units=GPa)
#
#
# Indices 1 2 3 4 5 6 
#
# 1 94.5135 57.8419 39.4335 0.0000 0.0000 0.0000
# 2 57.8419 145.7857 73.5206 0.0000 0.0000 0.0000
# 3 39.4335 73.5206 173.5834 0.0000 0.0000 0.0000
# 4 0.0000 0.0000 0.0000 7.5003 0.0000 0.0000
# 5 0.0000 0.0000 0.0000 0.0000 27.2627 0.0000
# 6 0.0000 0.0000 0.0000 0.0000 0.0000 46.9414
#
#
#
# Elastic Compliance Matrix: (Units=1/GPa)
#
#
# Indices 1 2 3 4 5 6 
#
# 1 0.014126 -0.005069 -0.001062 0.000000 0.000000 0.000000
# 2 -0.005069 0.010541 -0.003313 0.000000 0.000000 0.000000
# 3 -0.001062 -0.003313 0.007406 0.000000 0.000000 0.000000
# 4 0.000000 0.000000 0.000000 0.133328 0.000000 0.000000
# 5 0.000000 0.000000 0.000000 0.000000 0.036680 0.000000
# 6 0.000000 0.000000 0.000000 0.000000 0.000000 0.021303
#
#
# Mechanical properties :
#
#
# Convention : Reuss Voigt Hill
#
# Bulk Modulus (GPa) = 75.84835 83.94162 79.89498
# Shear Modulus (GPa) = 20.27024 32.54664 26.40844
#
# Velocity S-wave (km/s) = 2.97113 3.76483 3.39128
# Velocity P-wave (km/s) = 6.69342 7.44680 7.08014
#
# Compressibility (1/GPa) = 0.01318420
#
# Stress axis : x y z
#
# Youngs Moduli (GPa) = 70.79243 94.86377 135.03453
#
# Poissons Ratio (x) = 0.48086 0.14342
# Poissons Ratio (y) = 0.35884 0.44740
# Poissons Ratio (z) = 0.07519 0.31431
#
# Static dielectric constant tensor:
#      x y z
#    x 1.915820 0.000000 0.000000 
#    y 0.000000 1.862450 0.000000 
#    z 0.000000 0.000000 1.951130 
# 
# From -- ./inp_files/17155.got.cif
#   From: 2010.05.17/outbox.cif.g08.bks.cpg/sg54_9_cif.got.tgz:17155.got - 2010.06.03 13:09:01.
