data_PCOD9423827
_publ_section_title
;
Structure prediction by ZEFSAII (Michael W. Deem and Ramdas Pophale) SiO2 
 PCOD9423827
Probable space group: P C C A
;
_chemical_formula_sum "Si O2"
_cell_formula_units_Z 36
_cell_length_a 11.056920
_cell_length_b 5.009941
_cell_length_c 24.958487
_cell_angle_alpha 90.000000
_cell_angle_beta 90.000000
_cell_angle_gamma 90.000000
_cell_volume 1382.563328
_symmetry_space_group_name_H-M "P C C A"
_symmetry_group_IT_number 54
_symmetry_cell_setting 'orthorhombic'
loop_
_space_group_symop_operation_xyz
x,y,z
1/2-x,-y,z
1/2+x,-y,1/2-z
-x,y,1/2-z
-x,-y,-z
1/2+x,y,-z
1/2-x,y,1/2+z
x,-y,1/2+z
loop_
_atom_site_type_symbol
_atom_site_label
_atom_site_fract_x
_atom_site_fract_y
_atom_site_fract_z
Si Si1 0.750000 0.000000 0.692350
Si Si2 0.372082 0.341375 0.006206
Si Si3 0.550099 0.860857 0.884164
Si Si4 0.374881 0.342822 0.228724
Si Si5 0.603555 0.656932 0.113487
O O1 0.857492 0.098092 0.730318
O O2 0.698998 0.236736 0.655830
O O3 0.250000 0.500000 0.018976
O O4 0.391027 0.151558 0.056995
O O5 0.500000 0.500000 0.000000
O O6 0.354258 0.245836 0.945400
O O7 0.619488 0.753896 0.832465
O O8 0.436712 0.651171 0.887197
O O9 0.514110 0.164930 0.874505
O O10 0.250000 0.500000 0.234795
O O11 0.500000 0.474486 0.250000
#
# Coordination Sequence:
#
# PCOD9423827 Si02
#       5
#     4   8   8   8   8
#     4  12  28  44  78 110 150 212 260 314 382 468
#     4  10  24  47  78 112 151 195 248 314 383 458
#     4  11  25  51  74 114 150 201 250 326 384 454
#     4  12  27  48  76 109 156 203 262 320 387 462
#     4  11  26  47  78 108 156 197 260 306 391 465
#
# _framework density 26.038591
#
# number of rings (size 3 to 8) (size 9 to 14) (size 15 to 20)
#    0.000    0.889    2.222    2.667    9.333    0.889 
#    0.000    0.000    0.000    0.000    0.000    0.000 
#    0.000    0.000    0.000    0.000    0.000    0.000 
#
# Total GULP energy -201546.918557 kJ/mol
# GULP energy per Si atom -5598.525515 kJ/mol
# Density = 2.597933 g / cm^3
# Si number density = 26.038591 Si / 1000 Ang^3
#
#
#
# Elastic Constant Matrix: (Units=GPa)
#
#
# Indices 1 2 3 4 5 6 
#
# 1 131.1392 24.3715 14.8895 0.0000 0.0000 0.0000
# 2 24.3715 66.6620 -2.1315 0.0000 0.0000 0.0000
# 3 14.8895 -2.1315 176.6515 0.0000 0.0000 0.0000
# 4 0.0000 0.0000 0.0000 23.5908 0.0000 0.0000
# 5 0.0000 0.0000 0.0000 0.0000 45.1747 0.0000
# 6 0.0000 0.0000 0.0000 0.0000 0.0000 37.0049
#
#
#
# Elastic Compliance Matrix: (Units=1/GPa)
#
#
# Indices 1 2 3 4 5 6 
#
# 1 0.008275 -0.003049 -0.000734 0.000000 0.000000 0.000000
# 2 -0.003049 0.016130 0.000452 0.000000 0.000000 0.000000
# 3 -0.000734 0.000452 0.005728 0.000000 0.000000 0.000000
# 4 0.000000 0.000000 0.000000 0.042389 0.000000 0.000000
# 5 0.000000 0.000000 0.000000 0.000000 0.022136 0.000000
# 6 0.000000 0.000000 0.000000 0.000000 0.000000 0.027023
#
#
# Mechanical properties :
#
#
# Convention : Reuss Voigt Hill
#
# Bulk Modulus (GPa) = 42.60660 49.85686 46.23173
# Shear Modulus (GPa) = 36.71885 43.64230 40.18057
#
# Velocity S-wave (km/s) = 3.75930 4.09842 3.93251
# Velocity P-wave (km/s) = 5.93645 6.44863 6.19784
#
# Compressibility (1/GPa) = 0.02347054
#
# Stress axis : x y z
#
# Youngs Moduli (GPa) = 120.83871 61.99558 174.57478
#
# Poissons Ratio (x) = 0.18902 0.12819
# Poissons Ratio (y) = 0.36843 -0.07884
# Poissons Ratio (z) = 0.08873 -0.02800
#
# Static dielectric constant tensor:
#      x y z
#    x 2.209630 0.000000 0.000000 
#    y 0.000000 2.074150 0.000000 
#    z 0.000000 0.000000 2.031960 
# 
# From -- ./inp_files/23819.got.cif
#   From: 2010.05.17/outbox.cif.g08.bks.cpg/sg54_12_cif.got.tgz:23819.got - 2010.06.03 13:09:01.
