data_PCOD9423765
_publ_section_title
;
Structure prediction by ZEFSAII (Michael W. Deem and Ramdas Pophale) SiO2 
 PCOD9423765
Probable space group: P C C A
;
_chemical_formula_sum "Si O2"
_cell_formula_units_Z 60
_cell_length_a 26.234051
_cell_length_b 11.121824
_cell_length_c 8.834546
_cell_angle_alpha 90.000000
_cell_angle_beta 90.000000
_cell_angle_gamma 90.000000
_cell_volume 2577.659886
_symmetry_space_group_name_H-M "P C C A"
_symmetry_group_IT_number 54
_symmetry_cell_setting 'orthorhombic'
loop_
_space_group_symop_operation_xyz
x,y,z
1/2-x,-y,z
1/2+x,-y,1/2-z
-x,y,1/2-z
-x,-y,-z
1/2+x,y,-z
1/2-x,y,1/2+z
x,-y,1/2+z
loop_
_atom_site_type_symbol
_atom_site_label
_atom_site_fract_x
_atom_site_fract_y
_atom_site_fract_z
Si Si1 0.694850 0.049268 0.589570
Si Si2 0.046530 0.583044 0.150698
Si Si3 0.883466 0.527280 0.096514
Si Si4 0.448758 0.156217 0.032247
Si Si5 0.188016 0.663811 0.906993
Si Si6 0.706774 0.647035 0.739259
Si Si7 0.844681 0.892334 0.301768
Si Si8 0.000000 0.957801 0.750000
O O1 0.691043 0.192516 0.603648
O O2 0.688680 0.025606 0.412352
O O3 0.750000 0.000000 0.634802
O O4 0.646622 0.981856 0.664232
O O5 0.088533 0.606329 0.278559
O O6 0.031476 0.708667 0.072136
O O7 0.000000 0.530922 0.250000
O O8 0.076332 0.493278 0.037842
O O9 0.866178 0.391654 0.142321
O O10 0.827436 0.586607 0.106745
O O11 0.390938 0.156005 0.097066
O O12 0.471958 0.049838 0.136020
O O13 0.463775 0.122604 0.859834
O O14 0.234622 0.625607 0.800331
O O15 0.195417 0.620575 0.082629
O O16 0.689217 0.785344 0.736111
#
# Coordination Sequence:
#
# PCOD9423765 Si02
#       8
#     8   8   8   8   8   8   8   4
#     4  11  22  39  63 103 145 190 239 299 364 447
#     4  12  26  50  77 106 148 195 258 328 392 459
#     4  12  25  49  71 102 145 197 250 317 376 448
#     4  11  22  48  73 111 150 190 245 320 384 471
#     4  11  25  42  70 105 148 194 253 304 373 450
#     4  11  24  43  69 103 146 197 245 311 365 449
#     4  11  22  40  67 100 148 189 243 305 372 446
#     4  10  24  44  82 110 144 194 244 306 404 464
#
# _framework density 23.276927000000001
#
# number of rings (size 3 to 8) (size 9 to 14) (size 15 to 20)
#    0.000    0.800    4.667    2.800    3.733    1.067 
#    3.600    0.000    0.000    0.000    0.000    0.000 
#    0.000    0.000    0.000    0.000    0.000    0.000 
#
# Total GULP energy -334202.176826 kJ/mol
# GULP energy per Si atom -5570.036280 kJ/mol
# Density = 2.322395 g / cm^3
# Si number density = 23.276927 Si / 1000 Ang^3
#
#
#
# Elastic Constant Matrix: (Units=GPa)
#
#
# Indices 1 2 3 4 5 6 
#
# 1 91.7746 20.7815 33.8739 0.0000 0.0000 0.0000
# 2 20.7815 60.9213 65.3523 0.0000 0.0000 0.0000
# 3 33.8739 65.3523 98.1617 0.0000 0.0000 0.0000
# 4 0.0000 0.0000 0.0000 32.4965 0.0000 0.0000
# 5 0.0000 0.0000 0.0000 0.0000 42.1256 0.0000
# 6 0.0000 0.0000 0.0000 0.0000 0.0000 29.7311
#
#
#
# Elastic Compliance Matrix: (Units=1/GPa)
#
#
# Indices 1 2 3 4 5 6 
#
# 1 0.012515 0.001272 -0.005166 0.000000 0.000000 0.000000
# 2 0.001272 0.057560 -0.038761 0.000000 0.000000 0.000000
# 3 -0.005166 -0.038761 0.037775 0.000000 0.000000 0.000000
# 4 0.000000 0.000000 0.000000 0.030773 0.000000 0.000000
# 5 0.000000 0.000000 0.000000 0.000000 0.023739 0.000000
# 6 0.000000 0.000000 0.000000 0.000000 0.000000 0.033635
#
#
# Mechanical properties :
#
#
# Convention : Reuss Voigt Hill
#
# Bulk Modulus (GPa) = 44.36061 54.54145 49.45103
# Shear Modulus (GPa) = 17.31193 29.59395 23.45294
#
# Velocity S-wave (km/s) = 2.73011 3.56952 3.17766
# Velocity P-wave (km/s) = 5.38861 6.36168 5.89526
#
# Compressibility (1/GPa) = 0.02254252
#
# Stress axis : x y z
#
# Youngs Moduli (GPa) = 79.90531 17.37310 26.47240
#
# Poissons Ratio (x) = -0.02211 0.13675
# Poissons Ratio (y) = -0.10168 1.02608
# Poissons Ratio (z) = 0.41278 0.67339
#
# Static dielectric constant tensor:
#      x y z
#    x 1.953360 0.000000 0.000000 
#    y 0.000000 1.973840 0.000000 
#    z 0.000000 0.000000 1.921180 
# 
# From -- ./inp_files/5591.got.cif
#   From: 2010.05.17/outbox.cif.g08.bks.cpg/sg54_3_cif.got.tgz:5591.got - 2010.06.03 13:09:01.
