data_PCOD9423978
_publ_section_title
;
Structure prediction by ZEFSAII (Michael W. Deem and Ramdas Pophale) SiO2 
 PCOD9423978
Probable space group: P C C A
;
_chemical_formula_sum "Si O2"
_cell_formula_units_Z 64
_cell_length_a 17.078676
_cell_length_b 8.796200
_cell_length_c 21.315089
_cell_angle_alpha 90.000000
_cell_angle_beta 90.000000
_cell_angle_gamma 90.000000
_cell_volume 3202.111463
_symmetry_space_group_name_H-M "P C C A"
_symmetry_group_IT_number 54
_symmetry_cell_setting 'orthorhombic'
loop_
_space_group_symop_operation_xyz
x,y,z
1/2-x,-y,z
1/2+x,-y,1/2-z
-x,y,1/2-z
-x,-y,-z
1/2+x,y,-z
1/2-x,y,1/2+z
x,-y,1/2+z
loop_
_atom_site_type_symbol
_atom_site_label
_atom_site_fract_x
_atom_site_fract_y
_atom_site_fract_z
Si Si1 0.833187 0.579867 0.333944
Si Si2 0.300296 0.344566 0.470808
Si Si3 0.336150 0.921878 0.879149
Si Si4 0.542190 0.127591 0.542278
Si Si5 0.335762 0.961975 0.144898
Si Si6 0.903290 0.328307 0.406684
Si Si7 0.165814 0.791978 0.046069
Si Si8 0.591646 0.836371 0.754148
O O1 0.750000 0.500000 0.320213
O O2 0.901961 0.468598 0.358926
O O3 0.821234 0.682181 0.395719
O O4 0.862085 0.688686 0.278931
O O5 0.250000 0.500000 0.457646
O O6 0.333546 0.244185 0.413569
O O7 0.364146 0.372463 0.526147
O O8 0.238845 0.227687 0.501460
O O9 0.371373 0.895119 0.810231
O O10 0.250000 0.000000 0.876636
O O11 0.394680 0.035781 0.916148
O O12 0.481387 0.231669 0.580263
O O13 0.589006 0.235991 0.494469
O O14 0.500000 0.000000 0.500000
O O15 0.347204 0.788220 0.130321
O O16 0.250000 0.000000 0.170629
O O17 0.342114 0.044096 0.077630
O O18 0.396947 0.035045 0.192285
O O19 0.500000 0.802488 0.750000
#
# Coordination Sequence:
#
# PCOD9423978 Si02
#       8
#     8   8   8   8   8   8   8   8
#     4  11  23  44  71  94 130 178 237 271 323 410
#     4  12  22  40  65 100 139 177 209 271 343 416
#     4  12  26  46  68  97 142 183 227 279 352 421
#     4  12  24  36  66 107 142 173 213 280 345 408
#     4  11  20  36  71  94 120 169 230 272 312 383
#     4  12  21  38  66 102 133 165 223 280 331 388
#     4  11  20  38  62 100 134 171 215 263 333 399
#     4  11  27  48  66  92 131 177 228 283 337 388
#
# _framework density 19.986810999999999
#
# number of rings (size 3 to 8) (size 9 to 14) (size 15 to 20)
#    0.000    0.500    7.500    1.875    1.750    1.000 
#    2.250    3.125    0.000    0.000    0.000    0.000 
#    0.000    0.000    0.000    0.000    0.000    0.000 
#
# Total GULP energy -357327.626516 kJ/mol
# GULP energy per Si atom -5583.244164 kJ/mol
# Density = 1.994132 g / cm^3
# Si number density = 19.986811 Si / 1000 Ang^3
#
#
#
# Elastic Constant Matrix: (Units=GPa)
#
#
# Indices 1 2 3 4 5 6 
#
# 1 126.5376 32.9509 52.2449 0.0000 0.0000 0.0000
# 2 32.9509 79.9195 32.2600 0.0000 0.0000 0.0000
# 3 52.2449 32.2600 78.7229 0.0000 0.0000 0.0000
# 4 0.0000 0.0000 0.0000 21.7237 0.0000 0.0000
# 5 0.0000 0.0000 0.0000 0.0000 23.5314 0.0000
# 6 0.0000 0.0000 0.0000 0.0000 0.0000 38.0966
#
#
#
# Elastic Compliance Matrix: (Units=1/GPa)
#
#
# Indices 1 2 3 4 5 6 
#
# 1 0.011127 -0.001925 -0.006596 0.000000 0.000000 0.000000
# 2 -0.001925 0.015326 -0.005003 0.000000 0.000000 0.000000
# 3 -0.006596 -0.005003 0.019130 0.000000 0.000000 0.000000
# 4 0.000000 0.000000 0.000000 0.046033 0.000000 0.000000
# 5 0.000000 0.000000 0.000000 0.000000 0.042496 0.000000
# 6 0.000000 0.000000 0.000000 0.000000 0.000000 0.026249
#
#
# Mechanical properties :
#
#
# Convention : Reuss Voigt Hill
#
# Bulk Modulus (GPa) = 53.94963 57.78798 55.86881
# Shear Modulus (GPa) = 25.82809 27.85193 26.84001
#
# Velocity S-wave (km/s) = 3.59870 3.73703 3.66852
# Velocity P-wave (km/s) = 6.65723 6.89901 6.77920
#
# Compressibility (1/GPa) = 0.01853581
#
# Stress axis : x y z
#
# Youngs Moduli (GPa) = 89.86788 65.24958 52.27362
#
# Poissons Ratio (x) = 0.12563 0.34478
# Poissons Ratio (y) = 0.17303 0.26150
# Poissons Ratio (z) = 0.59275 0.32641
#
# Static dielectric constant tensor:
#      x y z
#    x 1.770300 0.000000 0.000000 
#    y 0.000000 1.751340 0.000000 
#    z 0.000000 0.000000 1.690600 
# 
# From -- ./inp_files/21954.got.cif
#   From: 2010.05.17/outbox.cif.g08.bks.cpg/sg54_11_cif.got.tgz:21954.got - 2010.06.03 13:09:01.
