data_PCOD9423545
_publ_section_title
;
Structure prediction by ZEFSAII (Michael W. Deem and Ramdas Pophale) SiO2 
 PCOD9423545
Probable space group: P C C A
;
_chemical_formula_sum "Si O2"
_cell_formula_units_Z 60
_cell_length_a 14.952262
_cell_length_b 9.559362
_cell_length_c 18.550344
_cell_angle_alpha 90.000000
_cell_angle_beta 90.000000
_cell_angle_gamma 90.000000
_cell_volume 2651.476449
_symmetry_space_group_name_H-M "P C C A"
_symmetry_group_IT_number 54
_symmetry_cell_setting 'orthorhombic'
loop_
_space_group_symop_operation_xyz
x,y,z
1/2-x,-y,z
1/2+x,-y,1/2-z
-x,y,1/2-z
-x,-y,-z
1/2+x,y,-z
1/2-x,y,1/2+z
x,-y,1/2+z
loop_
_atom_site_type_symbol
_atom_site_label
_atom_site_fract_x
_atom_site_fract_y
_atom_site_fract_z
Si Si1 0.250000 0.000000 0.421050
Si Si2 0.447152 0.846961 0.173590
Si Si3 0.097425 0.365291 0.717110
Si Si4 0.356401 0.249687 0.354750
Si Si5 0.545169 0.138606 0.377957
Si Si6 0.341707 0.594129 0.129290
Si Si7 0.082864 0.183142 0.461009
Si Si8 0.643048 0.492385 0.029951
O O1 0.215914 0.862777 0.378752
O O2 0.334219 0.927426 0.460708
O O3 0.500000 0.825420 0.250000
O O4 0.360600 0.753207 0.151671
O O5 0.520524 0.832181 0.108984
O O6 0.416144 0.006070 0.163007
O O7 0.165801 0.321845 0.778888
O O8 0.104627 0.269660 0.646809
O O9 0.100879 0.521054 0.690943
O O10 0.000000 0.344476 0.750000
O O11 0.445334 0.157511 0.348595
O O12 0.380391 0.376273 0.409868
O O13 0.536552 0.144109 0.463612
O O14 0.250000 0.500000 0.131975
O O15 0.379755 0.568196 0.049056
O O16 0.109698 0.348259 0.462261
O O17 0.750000 0.500000 0.033849
#
# Coordination Sequence:
#
# PCOD9423545 Si02
#       8
#     4   8   8   8   8   8   8   8
#     4  12  26  44  70 108 138 180 242 296 354 424
#     4  12  27  44  72 105 139 180 240 294 354 435
#     4  10  23  45  68  96 137 179 229 283 348 426
#     4  11  24  43  71  97 143 179 233 295 356 423
#     4  11  24  47  69  98 132 190 231 286 356 421
#     4  11  26  45  65  99 142 179 233 292 348 426
#     4  12  26  44  73 101 140 184 239 288 356 427
#     4  11  24  43  66 101 139 186 231 289 354 427
#
# _framework density 22.628900000000002
#
# number of rings (size 3 to 8) (size 9 to 14) (size 15 to 20)
#    0.000    0.800    4.000    2.800    7.467    2.667 
#    0.000    0.000    0.000    0.000    0.000    0.000 
#    0.000    0.000    0.000    0.000    0.000    0.000 
#
# Total GULP energy -334551.609654 kJ/mol
# GULP energy per Si atom -5575.860161 kJ/mol
# Density = 2.257740 g / cm^3
# Si number density = 22.628900 Si / 1000 Ang^3
#
#
#
# Elastic Constant Matrix: (Units=GPa)
#
#
# Indices 1 2 3 4 5 6 
#
# 1 34.7434 -0.8096 -3.7865 0.0000 0.0000 0.0000
# 2 -0.8096 98.8464 6.6273 0.0000 0.0000 0.0000
# 3 -3.7865 6.6273 108.9721 0.0000 0.0000 0.0000
# 4 0.0000 0.0000 0.0000 879.3884 0.0000 0.0000
# 5 0.0000 0.0000 0.0000 0.0000 5.1176 0.0000
# 6 0.0000 0.0000 0.0000 0.0000 0.0000 34.1975
#
#
#
# Elastic Compliance Matrix: (Units=1/GPa)
#
#
# Indices 1 2 3 4 5 6 
#
# 1 0.028895 0.000170 0.000994 0.000000 0.000000 0.000000
# 2 0.000170 0.010159 -0.000612 0.000000 0.000000 0.000000
# 3 0.000994 -0.000612 0.009248 0.000000 0.000000 0.000000
# 4 0.000000 0.000000 0.000000 0.001137 0.000000 0.000000
# 5 0.000000 0.000000 0.000000 0.000000 0.195406 0.000000
# 6 0.000000 0.000000 0.000000 0.000000 0.000000 0.029242
#
#
# Mechanical properties :
#
#
# Convention : Reuss Voigt Hill
#
# Bulk Modulus (GPa) = 20.24057 27.40271 23.82164
# Shear Modulus (GPa) = 17.27401 199.77607 108.52504
#
# Velocity S-wave (km/s) = 2.76590 9.40613 6.93273
# Velocity P-wave (km/s) = 4.37770 11.40627 8.63907
#
# Compressibility (1/GPa) = 0.04940573
#
# Stress axis : x y z
#
# Youngs Moduli (GPa) = 34.60845 98.43366 108.12680
#
# Poissons Ratio (x) = -0.01674 -0.10744
# Poissons Ratio (y) = -0.00588 0.06617
# Poissons Ratio (z) = -0.03439 0.06023
#
# Static dielectric constant tensor:
#      x y z
#    x 1.905410 0.000000 0.000000 
#    y 0.000000 1.889360 0.000000 
#    z 0.000000 0.000000 1.914530 
# 
# From -- ./inp_files/18657.got.cif
#   From: 2010.05.17/outbox.cif.g08.bks.cpg/sg54_10_cif.got.tgz:18657.got - 2010.06.03 13:09:01.
