data_PCOD9423786
_publ_section_title
;
Structure prediction by ZEFSAII (Michael W. Deem and Ramdas Pophale) SiO2 
 PCOD9423786
Probable space group: P C C A
;
_chemical_formula_sum "Si O2"
_cell_formula_units_Z 32
_cell_length_a 16.214016
_cell_length_b 5.337008
_cell_length_c 13.599587
_cell_angle_alpha 90.000000
_cell_angle_beta 90.000000
_cell_angle_gamma 90.000000
_cell_volume 1176.831192
_symmetry_space_group_name_H-M "P C C A"
_symmetry_group_IT_number 54
_symmetry_cell_setting 'orthorhombic'
loop_
_space_group_symop_operation_xyz
x,y,z
1/2-x,-y,z
1/2+x,-y,1/2-z
-x,y,1/2-z
-x,-y,-z
1/2+x,y,-z
1/2-x,y,1/2+z
x,-y,1/2+z
loop_
_atom_site_type_symbol
_atom_site_label
_atom_site_fract_x
_atom_site_fract_y
_atom_site_fract_z
Si Si1 0.334050 0.669445 0.939063
Si Si2 0.368403 0.804122 0.714976
Si Si3 0.750000 0.000000 0.917897
Si Si4 0.961765 0.802612 0.924607
Si Si5 0.000000 0.405616 0.250000
O O1 0.250000 0.500000 0.940687
O O2 0.350086 0.772288 0.830144
O O3 0.413660 0.597942 0.006592
O O4 0.317458 0.911775 0.006283
O O5 0.432397 0.583123 0.700068
O O6 0.284235 0.787086 0.653767
O O7 0.409014 0.053633 0.665325
O O8 0.034601 0.720609 0.848439
O O9 0.000000 0.000000 0.000000
#
# Coordination Sequence:
#
# PCOD9423786 Si02
#       5
#     8   8   4   8   4
#     4  11  24  42  67  98 135 181 233 288 354 425
#     4  11  25  43  69 103 137 182 234 290 352 425
#     4  10  24  46  66  94 138 182 226 282 350 418
#     4  11  25  46  69 100 142 186 235 296 360 430
#     4  12  24  42  70 102 136 178 236 288 348 426
#
# _framework density 27.191666999999999
#
# number of rings (size 3 to 8) (size 9 to 14) (size 15 to 20)
#    0.000    1.000    0.000    6.000    0.000   15.000 
#    0.000    0.000    0.000    0.000    0.000    0.000 
#    0.000    0.000    0.000    0.000    0.000    0.000 
#
# Total GULP energy -178209.635978 kJ/mol
# GULP energy per Si atom -5569.051124 kJ/mol
# Density = 2.712978 g / cm^3
# Si number density = 27.191667 Si / 1000 Ang^3
#
#
#
# Elastic Constant Matrix: (Units=GPa)
#
#
# Indices 1 2 3 4 5 6 
#
# 1 81.9178 8.4777 62.5351 0.0000 0.0000 0.0000
# 2 8.4777 53.8087 51.1426 0.0000 0.0000 0.0000
# 3 62.5351 51.1426 317.1994 0.0000 0.0000 0.0000
# 4 0.0000 0.0000 0.0000 62.0539 0.0000 0.0000
# 5 0.0000 0.0000 0.0000 0.0000 58.8639 0.0000
# 6 0.0000 0.0000 0.0000 0.0000 0.0000 24.0547
#
#
#
# Elastic Compliance Matrix: (Units=1/GPa)
#
#
# Indices 1 2 3 4 5 6 
#
# 1 0.014382 0.000507 -0.002917 0.000000 0.000000 0.000000
# 2 0.000507 0.021966 -0.003641 0.000000 0.000000 0.000000
# 3 -0.002917 -0.003641 0.004315 0.000000 0.000000 0.000000
# 4 0.000000 0.000000 0.000000 0.016115 0.000000 0.000000
# 5 0.000000 0.000000 0.000000 0.000000 0.016988 0.000000
# 6 0.000000 0.000000 0.000000 0.000000 0.000000 0.041572
#
#
# Mechanical properties :
#
#
# Convention : Reuss Voigt Hill
#
# Bulk Modulus (GPa) = 35.01595 77.47073 56.24334
# Shear Modulus (GPa) = 36.50689 51.04586 43.77637
#
# Velocity S-wave (km/s) = 3.66809 4.33744 4.01673
# Velocity P-wave (km/s) = 5.55385 7.32373 6.49932
#
# Compressibility (1/GPa) = 0.02855841
#
# Stress axis : x y z
#
# Youngs Moduli (GPa) = 69.53256 45.52591 231.76137
#
# Poissons Ratio (x) = -0.02306 0.67605
# Poissons Ratio (y) = -0.03523 0.84394
# Poissons Ratio (z) = 0.20283 0.16578
#
# Static dielectric constant tensor:
#      x y z
#    x 6.367150 0.000000 0.000000 
#    y 0.000000 1.556340 0.000000 
#    z 0.000000 0.000000 2.327840 
# 
# From -- ./inp_files/9272.got.cif
#   From: 2010.05.17/outbox.cif.g08.bks.cpg/sg54_5_cif.got.tgz:9272.got - 2010.06.03 13:09:01.
