data_PCOD9423114
_publ_section_title
;
Structure prediction by ZEFSAII (Michael W. Deem and Ramdas Pophale) SiO2 
 PCOD9423114
Probable space group: P C C A
;
_chemical_formula_sum "Si O2"
_cell_formula_units_Z 40
_cell_length_a 9.937223
_cell_length_b 7.702914
_cell_length_c 27.694995
_cell_angle_alpha 90.000000
_cell_angle_beta 90.000000
_cell_angle_gamma 90.000000
_cell_volume 2119.929294
_symmetry_space_group_name_H-M "P C C A"
_symmetry_group_IT_number 54
_symmetry_cell_setting 'orthorhombic'
loop_
_space_group_symop_operation_xyz
x,y,z
1/2-x,-y,z
1/2+x,-y,1/2-z
-x,y,1/2-z
-x,-y,-z
1/2+x,y,-z
1/2-x,y,1/2+z
x,-y,1/2+z
loop_
_atom_site_type_symbol
_atom_site_label
_atom_site_fract_x
_atom_site_fract_y
_atom_site_fract_z
Si Si1 0.116465 0.392368 0.972513
Si Si2 0.961743 0.706684 0.378274
Si Si3 0.096213 0.071083 0.157334
Si Si4 0.406131 0.437757 0.704515
Si Si5 0.197294 0.191592 0.065866
O O1 0.250000 0.500000 0.961487
O O2 0.062589 0.312886 0.922859
O O3 0.158388 0.263093 0.014831
O O4 0.000000 0.500000 0.000000
O O5 0.981173 0.887833 0.348609
O O6 0.959492 0.547784 0.341256
O O7 0.815949 0.709256 0.405505
O O8 0.250000 0.000000 0.162525
O O9 0.081619 0.229821 0.194425
O O10 0.080997 0.166545 0.105367
O O11 0.250000 0.500000 0.711295
O O12 0.500000 0.480021 0.750000
O O13 0.250000 0.000000 0.057250
#
# Coordination Sequence:
#
# PCOD9423114 Si02
#       5
#     8   8   8   8   8
#     4  12  23  36  63  98 133 175 222 263 317 382
#     4  10  22  42  65  91 135 170 223 266 320 391
#     4   9  19  38  67  92 123 172 218 259 323 394
#     4  12  24  43  73  96 125 168 219 275 342 396
#     4   9  19  37  63  91 123 175 219 254 312 382
#
# _framework density 18.868555000000001
#
# number of rings (size 3 to 8) (size 9 to 14) (size 15 to 20)
#    0.000    2.000    6.000    1.200    0.000    4.800 
#    3.600    0.000    0.000    0.000    0.000    0.000 
#    0.000    0.000    0.000    0.000    0.000    0.000 
#
# Total GULP energy -222674.740074 kJ/mol
# GULP energy per Si atom -5566.868502 kJ/mol
# Density = 1.882561 g / cm^3
# Si number density = 18.868555 Si / 1000 Ang^3
#
#
#
# Elastic Constant Matrix: (Units=GPa)
#
#
# Indices 1 2 3 4 5 6 
#
# 1 41.3852 29.9020 28.4905 0.0000 0.0000 0.0000
# 2 29.9020 110.7991 60.5155 0.0000 0.0000 0.0000
# 3 28.4905 60.5155 109.0789 0.0000 0.0000 0.0000
# 4 0.0000 0.0000 0.0000 37.3014 0.0000 0.0000
# 5 0.0000 0.0000 0.0000 0.0000 -44.5872 0.0000
# 6 0.0000 0.0000 0.0000 0.0000 0.0000 5.1379
#
#
#
# Elastic Compliance Matrix: (Units=1/GPa)
#
#
# Indices 1 2 3 4 5 6 
#
# 1 0.031877 -0.005818 -0.005098 0.000000 0.000000 0.000000
# 2 -0.005818 0.014011 -0.006253 0.000000 0.000000 0.000000
# 3 -0.005098 -0.006253 0.013969 0.000000 0.000000 0.000000
# 4 0.000000 0.000000 0.000000 0.026809 0.000000 0.000000
# 5 0.000000 0.000000 0.000000 0.000000 -0.022428 0.000000
# 6 0.000000 0.000000 0.000000 0.000000 0.000000 0.194634
#
#
# Mechanical properties :
#
#
# Convention : Reuss Voigt Hill
#
# Bulk Modulus (GPa) = 39.18996 55.45326 47.32161
# Shear Modulus (GPa) = 16.57187 9.06076 12.81632
#
# Velocity S-wave (km/s) = 2.96679 2.19373 2.60906
# Velocity P-wave (km/s) = 5.70534 5.98913 5.84896
#
# Compressibility (1/GPa) = 0.02551674
#
# Stress axis : x y z
#
# Youngs Moduli (GPa) = 31.37087 71.37233 71.58937
#
# Poissons Ratio (x) = 0.41527 0.36496
# Poissons Ratio (y) = 0.18253 0.44768
# Poissons Ratio (z) = 0.15993 0.44632
#
# Static dielectric constant tensor:
#      x y z
#    x 1.818830 0.000000 0.000000 
#    y 0.000000 1.747750 0.000000 
#    z 0.000000 0.000000 1.716170 
# 
# From -- ./inp_files/25739.got.cif
#   From: 2010.05.17/outbox.cif.g08.bks.cpg/sg54_13_cif.got.tgz:25739.got - 2010.06.03 13:09:01.
