data_PCOD9423513
_publ_section_title
;
Structure prediction by ZEFSAII (Michael W. Deem and Ramdas Pophale) SiO2 
 PCOD9423513
Probable space group: P C C A
;
_chemical_formula_sum "Si O2"
_cell_formula_units_Z 40
_cell_length_a 15.656609
_cell_length_b 11.607758
_cell_length_c 8.900240
_cell_angle_alpha 90.000000
_cell_angle_beta 90.000000
_cell_angle_gamma 90.000000
_cell_volume 1617.512960
_symmetry_space_group_name_H-M "P C C A"
_symmetry_group_IT_number 54
_symmetry_cell_setting 'orthorhombic'
loop_
_space_group_symop_operation_xyz
x,y,z
1/2-x,-y,z
1/2+x,-y,1/2-z
-x,y,1/2-z
-x,-y,-z
1/2+x,y,-z
1/2-x,y,1/2+z
x,-y,1/2+z
loop_
_atom_site_type_symbol
_atom_site_label
_atom_site_fract_x
_atom_site_fract_y
_atom_site_fract_z
Si Si1 0.500000 0.470300 0.250000
Si Si2 0.293565 0.658947 0.961368
Si Si3 0.750000 0.500000 0.802565
Si Si4 0.384755 0.890690 0.878435
Si Si5 0.090102 0.352643 0.471176
Si Si6 0.084831 0.890415 0.037960
O O1 0.441962 0.556447 0.349625
O O2 0.543299 0.386837 0.373801
O O3 0.317366 0.428492 0.595215
O O4 0.342383 0.778891 0.956157
O O5 0.296956 0.590994 0.804998
O O6 0.191916 0.660084 0.987412
O O7 0.486092 0.905328 0.910420
O O8 0.369988 0.875210 0.700615
O O9 0.360341 0.013625 0.949922
O O10 0.071300 0.220456 0.432840
#
# Coordination Sequence:
#
# PCOD9423513 Si02
#       6
#     4   8   4   8   8   8
#     4  10  24  42  70 108 146 188 236 292 366 442
#     4  11  23  42  67 100 139 182 234 293 353 424
#     4  10  24  40  64 100 144 184 222 286 364 418
#     4  10  23  44  69  95 133 182 237 291 348 418
#     4  11  23  42  69 102 140 185 237 294 359 431
#     4  10  23  44  68  96 133 183 233 289 353 423
#
# _framework density 24.729322
#
# number of rings (size 3 to 8) (size 9 to 14) (size 15 to 20)
#    0.000    1.600    0.000    3.600    0.000   15.200 
#    0.000    2.000    0.000    1.200    0.000    0.000 
#    0.000    0.000    0.000    0.000    0.000    0.000 
#
# Total GULP energy -223276.733589 kJ/mol
# GULP energy per Si atom -5581.918340 kJ/mol
# Density = 2.467304 g / cm^3
# Si number density = 24.729322 Si / 1000 Ang^3
#
#
#
# Elastic Constant Matrix: (Units=GPa)
#
#
# Indices 1 2 3 4 5 6 
#
# 1 67.0502 33.3275 40.8194 0.0000 0.0000 0.0000
# 2 33.3275 194.5007 67.6626 0.0000 0.0000 0.0000
# 3 40.8194 67.6626 122.1680 0.0000 0.0000 0.0000
# 4 0.0000 0.0000 0.0000 28.9951 0.0000 0.0000
# 5 0.0000 0.0000 0.0000 0.0000 30.8585 0.0000
# 6 0.0000 0.0000 0.0000 0.0000 0.0000 41.1920
#
#
#
# Elastic Compliance Matrix: (Units=1/GPa)
#
#
# Indices 1 2 3 4 5 6 
#
# 1 0.018983 -0.001296 -0.005625 0.000000 0.000000 0.000000
# 2 -0.001296 0.006457 -0.003143 0.000000 0.000000 0.000000
# 3 -0.005625 -0.003143 0.011806 0.000000 0.000000 0.000000
# 4 0.000000 0.000000 0.000000 0.034489 0.000000 0.000000
# 5 0.000000 0.000000 0.000000 0.000000 0.032406 0.000000
# 6 0.000000 0.000000 0.000000 0.000000 0.000000 0.024277
#
#
# Mechanical properties :
#
#
# Convention : Reuss Voigt Hill
#
# Bulk Modulus (GPa) = 58.41996 74.14866 66.28431
# Shear Modulus (GPa) = 32.41493 36.33642 34.37567
#
# Velocity S-wave (km/s) = 3.62441 3.83739 3.73242
# Velocity P-wave (km/s) = 6.41796 7.04864 6.74068
#
# Compressibility (1/GPa) = 0.01711744
#
# Stress axis : x y z
#
# Youngs Moduli (GPa) = 52.67961 154.87435 84.70503
#
# Poissons Ratio (x) = 0.20070 0.47645
# Poissons Ratio (y) = 0.06827 0.26624
# Poissons Ratio (z) = 0.29632 0.48679
#
# Static dielectric constant tensor:
#      x y z
#    x 2.311060 0.000000 0.000000 
#    y 0.000000 2.135990 0.000000 
#    z 0.000000 0.000000 2.025770 
# 
# From -- ./inp_files/4676.got.cif
#   From: 2010.05.17/outbox.cif.g08.bks.cpg/sg54_3_cif.got.tgz:4676.got - 2010.06.03 13:09:01.
