data_PCOD9423355
_publ_section_title
;
Structure prediction by ZEFSAII (Michael W. Deem and Ramdas Pophale) SiO2 
 PCOD9423355
Probable space group: P C C A
;
_chemical_formula_sum "Si O2"
_cell_formula_units_Z 56
_cell_length_a 14.289686
_cell_length_b 13.352048
_cell_length_c 11.738007
_cell_angle_alpha 90.000000
_cell_angle_beta 90.000000
_cell_angle_gamma 90.000000
_cell_volume 2239.571514
_symmetry_space_group_name_H-M "P C C A"
_symmetry_group_IT_number 54
_symmetry_cell_setting 'orthorhombic'
loop_
_space_group_symop_operation_xyz
x,y,z
1/2-x,-y,z
1/2+x,-y,1/2-z
-x,y,1/2-z
-x,-y,-z
1/2+x,y,-z
1/2-x,y,1/2+z
x,-y,1/2+z
loop_
_atom_site_type_symbol
_atom_site_label
_atom_site_fract_x
_atom_site_fract_y
_atom_site_fract_z
Si Si1 0.878169 0.180069 0.933590
Si Si2 0.794631 0.150977 0.580511
Si Si3 0.455096 0.280953 0.540315
Si Si4 0.250000 0.500000 0.592120
Si Si5 0.721162 0.320791 0.257034
Si Si6 0.396315 0.465666 0.408260
Si Si7 0.500000 0.622049 0.250000
Si Si8 0.473593 0.971406 0.867028
O O1 0.840990 0.267499 0.853292
O O2 0.948424 0.116042 0.855995
O O3 0.790422 0.126261 0.994657
O O4 0.947485 0.223802 0.028417
O O5 0.869926 0.217395 0.509883
O O6 0.752128 0.225389 0.677568
O O7 0.864534 0.064507 0.628607
O O8 0.462075 0.383599 0.467974
O O9 0.440198 0.306422 0.670473
O O10 0.226072 0.595514 0.668143
O O11 0.336172 0.516405 0.507427
O O12 0.667596 0.395054 0.170722
O O13 0.442426 0.548702 0.330773
O O14 0.500000 0.032727 0.750000
O O15 0.500000 0.000000 0.000000
#
# Coordination Sequence:
#
# PCOD9423355 Si02
#       8
#     8   8   8   4   8   8   4   8
#     4  11  23  44  72 103 145 193 247 313 379 480
#     4  10  24  45  71 107 142 197 247 299 391 474
#     4  10  23  38  59  90 133 183 252 299 374 447
#     4  12  24  36  60 102 136 194 264 348 370 466
#     4  11  21  39  66  91 143 193 255 309 392 438
#     4  11  23  37  56  88 128 187 257 318 396 441
#     4  12  22  38  52  80 134 186 244 322 378 422
#     4  11  25  54  84 120 153 197 245 319 399 491
#
# _framework density 25.004784000000001
#
# number of rings (size 3 to 8) (size 9 to 14) (size 15 to 20)
#    0.000    1.143    1.429    5.143    0.000    5.143 
#    7.714    1.429    0.000    0.000    0.000    0.000 
#    0.000    0.000    0.000    0.000    0.000    0.000 
#
# Total GULP energy -312679.042483 kJ/mol
# GULP energy per Si atom -5583.554330 kJ/mol
# Density = 2.494787 g / cm^3
# Si number density = 25.004784 Si / 1000 Ang^3
#
#
#
# Elastic Constant Matrix: (Units=GPa)
#
#
# Indices 1 2 3 4 5 6 
#
# 1 114.0449 2.9650 39.8682 0.0000 0.0000 0.0000
# 2 2.9650 34.1659 21.5122 0.0000 0.0000 0.0000
# 3 39.8682 21.5122 143.3833 0.0000 0.0000 0.0000
# 4 0.0000 0.0000 0.0000 29.9272 0.0000 0.0000
# 5 0.0000 0.0000 0.0000 0.0000 31.1631 0.0000
# 6 0.0000 0.0000 0.0000 0.0000 0.0000 22.3086
#
#
#
# Elastic Compliance Matrix: (Units=1/GPa)
#
#
# Indices 1 2 3 4 5 6 
#
# 1 0.009740 0.000950 -0.002851 0.000000 0.000000 0.000000
# 2 0.000950 0.032415 -0.005127 0.000000 0.000000 0.000000
# 3 -0.002851 -0.005127 0.008536 0.000000 0.000000 0.000000
# 4 0.000000 0.000000 0.000000 0.033414 0.000000 0.000000
# 5 0.000000 0.000000 0.000000 0.000000 0.032089 0.000000
# 6 0.000000 0.000000 0.000000 0.000000 0.000000 0.044826
#
#
# Mechanical properties :
#
#
# Convention : Reuss Voigt Hill
#
# Bulk Modulus (GPa) = 27.29663 46.69833 36.99748
# Shear Modulus (GPa) = 26.69664 31.82970 29.26317
#
# Velocity S-wave (km/s) = 3.27105 3.57171 3.42468
# Velocity P-wave (km/s) = 5.02062 5.97710 5.51962
#
# Compressibility (1/GPa) = 0.03663456
#
# Stress axis : x y z
#
# Youngs Moduli (GPa) = 102.66529 30.85001 117.14717
#
# Poissons Ratio (x) = -0.02930 0.33397
# Poissons Ratio (y) = -0.09750 0.60066
# Poissons Ratio (z) = 0.29268 0.15818
#
# Static dielectric constant tensor:
#      x y z
#    x 1.999050 0.000000 0.000000 
#    y 0.000000 1.952860 0.000000 
#    z 0.000000 0.000000 2.036080 
# 
# From -- ./inp_files/8470.got.cif
#   From: 2010.05.17/outbox.cif.g08.bks.cpg/sg54_5_cif.got.tgz:8470.got - 2010.06.03 13:09:01.
