data_PCOD9423994
_publ_section_title
;
Structure prediction by ZEFSAII (Michael W. Deem and Ramdas Pophale) SiO2 
 PCOD9423994
Probable space group: P C C A
;
_chemical_formula_sum "Si O2"
_cell_formula_units_Z 48
_cell_length_a 8.377125
_cell_length_b 17.734204
_cell_length_c 15.145259
_cell_angle_alpha 90.000000
_cell_angle_beta 90.000000
_cell_angle_gamma 90.000000
_cell_volume 2250.004571
_symmetry_space_group_name_H-M "P C C A"
_symmetry_group_IT_number 54
_symmetry_cell_setting 'orthorhombic'
loop_
_space_group_symop_operation_xyz
x,y,z
1/2-x,-y,z
1/2+x,-y,1/2-z
-x,y,1/2-z
-x,-y,-z
1/2+x,y,-z
1/2-x,y,1/2+z
x,-y,1/2+z
loop_
_atom_site_type_symbol
_atom_site_label
_atom_site_fract_x
_atom_site_fract_y
_atom_site_fract_z
Si Si1 0.369113 0.443877 0.459914
Si Si2 0.277457 0.228529 0.699433
Si Si3 0.366625 0.663793 0.556909
Si Si4 0.313527 0.922689 0.631183
Si Si5 0.872134 0.229935 0.115740
Si Si6 0.823478 0.918951 0.060316
O O1 0.250000 0.500000 0.408682
O O2 0.500000 0.500000 0.500000
O O3 0.265293 0.399755 0.533652
O O4 0.471007 0.378063 0.416791
O O5 0.184311 0.281928 0.634012
O O6 0.201907 0.145769 0.698345
O O7 0.285486 0.261839 0.797216
O O8 0.450877 0.217463 0.654081
O O9 0.382470 0.714517 0.467913
O O10 0.196121 0.914033 0.546167
O O11 0.492992 0.920277 0.591890
O O12 0.250000 0.000000 0.673286
O O13 0.778962 0.152994 0.092242
O O14 0.750000 0.000000 0.085862
#
# Coordination Sequence:
#
# PCOD9423994 Si02
#       6
#     8   8   8   8   8   8
#     4   9  20  38  68 100 124 163 209 244 313 393
#     4  11  24  40  62  95 131 174 218 268 323 384
#     4  11  20  40  67  94 131 169 206 266 317 375
#     4  11  22  38  61  88 125 172 222 273 327 377
#     4  11  24  40  62  95 131 172 221 264 327 379
#     4  11  22  38  61  88 125 172 222 274 326 380
#
# _framework density 21.333290000000002
#
# number of rings (size 3 to 8) (size 9 to 14) (size 15 to 20)
#    0.000    1.333    3.333    4.000    2.333    1.333 
#    0.000    0.000    0.000   15.000    0.000    0.000 
#    0.000    0.000    0.000    0.000    0.000    0.000 
#
# Total GULP energy -267978.879635 kJ/mol
# GULP energy per Si atom -5582.893326 kJ/mol
# Density = 2.128473 g / cm^3
# Si number density = 21.333290 Si / 1000 Ang^3
#
#
#
# Elastic Constant Matrix: (Units=GPa)
#
#
# Indices 1 2 3 4 5 6 
#
# 1 94.9731 51.7020 14.2922 0.0000 0.0000 0.0000
# 2 51.7020 128.5706 43.1454 0.0000 0.0000 0.0000
# 3 14.2922 43.1454 81.6784 0.0000 0.0000 0.0000
# 4 0.0000 0.0000 0.0000 -23.6868 0.0000 0.0000
# 5 0.0000 0.0000 0.0000 0.0000 18.0571 0.0000
# 6 0.0000 0.0000 0.0000 0.0000 0.0000 51.0937
#
#
#
# Elastic Compliance Matrix: (Units=1/GPa)
#
#
# Indices 1 2 3 4 5 6 
#
# 1 0.013506 -0.005637 0.000615 0.000000 0.000000 0.000000
# 2 -0.005637 0.011807 -0.005250 0.000000 0.000000 0.000000
# 3 0.000615 -0.005250 0.014909 0.000000 0.000000 0.000000
# 4 0.000000 0.000000 0.000000 -0.042218 0.000000 0.000000
# 5 0.000000 0.000000 0.000000 0.000000 0.055380 0.000000
# 6 0.000000 0.000000 0.000000 0.000000 0.000000 0.019572
#
#
# Mechanical properties :
#
#
# Convention : Reuss Voigt Hill
#
# Bulk Modulus (GPa) = 50.82505 58.16682 54.49594
# Shear Modulus (GPa) = 49.97021 22.16496 36.06758
#
# Velocity S-wave (km/s) = 4.84504 3.22683 4.11624
# Velocity P-wave (km/s) = 7.42800 6.41936 6.94202
#
# Compressibility (1/GPa) = 0.01967534
#
# Stress axis : x y z
#
# Youngs Moduli (GPa) = 74.04305 84.69844 67.07370
#
# Poissons Ratio (x) = 0.47747 -0.04122
# Poissons Ratio (y) = 0.41740 0.35215
# Poissons Ratio (z) = -0.04550 0.44469
#
# Static dielectric constant tensor:
#      x y z
#    x 1.842520 0.000000 0.000000 
#    y 0.000000 1.788480 0.000000 
#    z 0.000000 0.000000 1.718120 
# 
# From -- ./inp_files/11690.got.cif
#   From: 2010.05.17/outbox.cif.g08.bks.cpg/sg54_6_cif.got.tgz:11690.got - 2010.06.03 13:09:01.
