data_PCOD9423957
_publ_section_title
;
Structure prediction by ZEFSAII (Michael W. Deem and Ramdas Pophale) SiO2 
 PCOD9423957
Probable space group: P C C A
;
_chemical_formula_sum "Si O2"
_cell_formula_units_Z 32
_cell_length_a 5.052787
_cell_length_b 10.186336
_cell_length_c 34.378244
_cell_angle_alpha 90.000000
_cell_angle_beta 90.000000
_cell_angle_gamma 90.000000
_cell_volume 1769.427115
_symmetry_space_group_name_H-M "P C C A"
_symmetry_group_IT_number 54
_symmetry_cell_setting 'orthorhombic'
loop_
_space_group_symop_operation_xyz
x,y,z
1/2-x,-y,z
1/2+x,-y,1/2-z
-x,y,1/2-z
-x,-y,-z
1/2+x,y,-z
1/2-x,y,1/2+z
x,-y,1/2+z
loop_
_atom_site_type_symbol
_atom_site_label
_atom_site_fract_x
_atom_site_fract_y
_atom_site_fract_z
Si Si1 0.750000 0.500000 0.527561
Si Si2 0.759344 0.340255 0.371634
Si Si3 0.494846 0.403907 0.708348
Si Si4 0.750000 0.000000 0.529106
Si Si5 0.241683 0.254109 0.916350
O O1 0.500000 0.500000 0.500000
O O2 0.710583 0.624631 0.554685
O O3 0.750000 0.500000 0.377587
O O4 0.473574 0.278954 0.381899
O O5 0.894296 0.324526 0.329113
O O6 0.963651 0.270568 0.400167
O O7 0.750000 0.500000 0.700054
O O8 0.500000 0.330020 0.750000
O O9 0.250000 0.500000 0.715502
O O10 0.719732 0.876162 0.558032
O O11 0.500000 0.000000 0.500000
#
# Coordination Sequence:
#
# PCOD9423957 Si02
#       5
#     4   8   8   4   8
#     4  12  22  36  54  80 104 136 184 232 290 342
#     4  11  19  35  56  87 118 146 185 237 282 336
#     4   9  17  29  49  81 122 158 182 218 281 343
#     4  12  26  46  60  78 112 152 198 244 286 350
#     4  12  23  38  59  83 110 151 188 238 291 334
#
# _framework density 18.084949000000002
#
# number of rings (size 3 to 8) (size 9 to 14) (size 15 to 20)
#    0.000    1.000    2.500    7.500    0.000    0.000 
#    0.000    0.000    0.000    0.000    0.000    3.500 
#    0.000    2.000    0.000    0.000    0.000    0.000 
#
# Total GULP energy -178255.044998 kJ/mol
# GULP energy per Si atom -5570.470156 kJ/mol
# Density = 1.804379 g / cm^3
# Si number density = 18.084949 Si / 1000 Ang^3
#
#
#
# Elastic Constant Matrix: (Units=GPa)
#
#
# Indices 1 2 3 4 5 6 
#
# 1 115.5439 8.4039 14.7528 0.0000 0.0000 0.0000
# 2 8.4039 98.9344 43.4759 0.0000 0.0000 0.0000
# 3 14.7528 43.4759 107.0045 0.0000 0.0000 0.0000
# 4 0.0000 0.0000 0.0000 -55.7504 0.0000 0.0000
# 5 0.0000 0.0000 0.0000 0.0000 43.4316 0.0000
# 6 0.0000 0.0000 0.0000 0.0000 0.0000 16.3109
#
#
#
# Elastic Compliance Matrix: (Units=1/GPa)
#
#
# Indices 1 2 3 4 5 6 
#
# 1 0.008815 -0.000261 -0.001109 0.000000 0.000000 0.000000
# 2 -0.000261 0.012312 -0.004966 0.000000 0.000000 0.000000
# 3 -0.001109 -0.004966 0.011516 0.000000 0.000000 0.000000
# 4 0.000000 0.000000 0.000000 -0.017937 0.000000 0.000000
# 5 0.000000 0.000000 0.000000 0.000000 0.023025 0.000000
# 6 0.000000 0.000000 0.000000 0.000000 0.000000 0.061309
#
#
# Mechanical properties :
#
#
# Convention : Reuss Voigt Hill
#
# Bulk Modulus (GPa) = 50.07551 50.52756 50.30154
# Shear Modulus (GPa) = 42.24013 17.78844 30.01429
#
# Velocity S-wave (km/s) = 4.83810 3.13965 4.07827
# Velocity P-wave (km/s) = 7.67846 6.41427 7.07466
#
# Compressibility (1/GPa) = 0.01996984
#
# Stress axis : x y z
#
# Youngs Moduli (GPa) = 113.43841 81.21898 86.83412
#
# Poissons Ratio (x) = 0.02123 0.09631
# Poissons Ratio (y) = 0.02965 0.43126
# Poissons Ratio (z) = 0.12582 0.40337
#
# Static dielectric constant tensor:
#      x y z
#    x 1.662750 0.000000 0.000000 
#    y 0.000000 1.600730 0.000000 
#    z 0.000000 0.000000 1.707240 
# 
# From -- ./inp_files/26898.got.cif
#   From: 2010.05.17/outbox.cif.g08.bks.cpg/sg54_14_cif.got.tgz:26898.got - 2010.06.03 13:09:01.
