data_PCOD9423275
_publ_section_title
;
Structure prediction by ZEFSAII (Michael W. Deem and Ramdas Pophale) SiO2 
 PCOD9423275
Probable space group: P C C A
;
_chemical_formula_sum "Si O2"
_cell_formula_units_Z 32
_cell_length_a 5.194412
_cell_length_b 8.319008
_cell_length_c 32.733437
_cell_angle_alpha 90.000000
_cell_angle_beta 90.000000
_cell_angle_gamma 90.000000
_cell_volume 1414.488899
_symmetry_space_group_name_H-M "P C C A"
_symmetry_group_IT_number 54
_symmetry_cell_setting 'orthorhombic'
loop_
_space_group_symop_operation_xyz
x,y,z
1/2-x,-y,z
1/2+x,-y,1/2-z
-x,y,1/2-z
-x,-y,-z
1/2+x,y,-z
1/2-x,y,1/2+z
x,-y,1/2+z
loop_
_atom_site_type_symbol
_atom_site_label
_atom_site_fract_x
_atom_site_fract_y
_atom_site_fract_z
Si Si1 0.750000 0.500000 0.066986
Si Si2 0.250000 0.500000 0.121940
Si Si3 0.906442 0.176525 0.526758
Si Si4 0.250000 0.000000 0.397543
Si Si5 0.613804 0.176576 0.838689
Si Si6 0.000000 0.112574 0.250000
O O1 0.503423 0.535644 0.095227
O O2 0.636580 0.360119 0.039068
O O3 0.224737 0.668257 0.146862
O O4 0.639047 0.145304 0.503436
O O5 0.939935 0.085831 0.570085
O O6 0.119023 0.134368 0.369537
O O7 0.525036 0.207942 0.792302
O O8 0.750000 0.000000 0.837861
O O9 0.250000 0.000000 0.254446
#
# Coordination Sequence:
#
# PCOD9423275 Si02
#       6
#     4   4   8   4   8   4
#     4  12  24  47  69  98 142 188 238 300 363 425
#     4  12  26  45  75 110 140 186 250 290 357 441
#     4  12  26  43  66 100 137 184 242 297 357 425
#     4  12  24  44  72  96 144 188 240 294 366 424
#     4  11  25  46  76 107 145 193 236 301 360 438
#     4  10  22  44  74 108 142 186 234 288 360 434
#
# _framework density 22.623014000000001
#
# number of rings (size 3 to 8) (size 9 to 14) (size 15 to 20)
#    0.000    0.500    3.750    4.500    3.500    0.000 
#    0.000    6.250    0.000    0.000    0.000    0.000 
#    0.000    0.000    0.000    0.000    0.000    0.000 
#
# Total GULP energy -178783.520470 kJ/mol
# GULP energy per Si atom -5586.985015 kJ/mol
# Density = 2.257152 g / cm^3
# Si number density = 22.623014 Si / 1000 Ang^3
#
#
#
# Elastic Constant Matrix: (Units=GPa)
#
#
# Indices 1 2 3 4 5 6 
#
# 1 112.6540 16.0276 39.5349 0.0000 0.0000 0.0000
# 2 16.0276 128.4222 35.7814 0.0000 0.0000 0.0000
# 3 39.5349 35.7814 145.1833 0.0000 0.0000 0.0000
# 4 0.0000 0.0000 0.0000 -11.9082 0.0000 0.0000
# 5 0.0000 0.0000 0.0000 0.0000 32.6109 0.0000
# 6 0.0000 0.0000 0.0000 0.0000 0.0000 33.6545
#
#
#
# Elastic Compliance Matrix: (Units=1/GPa)
#
#
# Indices 1 2 3 4 5 6 
#
# 1 0.009847 -0.000517 -0.002554 0.000000 0.000000 0.000000
# 2 -0.000517 0.008388 -0.001926 0.000000 0.000000 0.000000
# 3 -0.002554 -0.001926 0.008058 0.000000 0.000000 0.000000
# 4 0.000000 0.000000 0.000000 -0.083976 0.000000 0.000000
# 5 0.000000 0.000000 0.000000 0.000000 0.030665 0.000000
# 6 0.000000 0.000000 0.000000 0.000000 0.000000 0.029714
#
#
# Mechanical properties :
#
#
# Convention : Reuss Voigt Hill
#
# Bulk Modulus (GPa) = 61.35881 63.21637 62.28759
# Shear Modulus (GPa) = 275.88745 30.53246 153.20995
#
# Velocity S-wave (km/s) = 11.05507 3.67770 8.23833
# Velocity P-wave (km/s) = 13.78891 6.78513 10.86674
#
# Compressibility (1/GPa) = 0.01629758
#
# Stress axis : x y z
#
# Youngs Moduli (GPa) = 101.55808 119.21606 124.09936
#
# Poissons Ratio (x) = 0.06168 0.31693
# Poissons Ratio (y) = 0.05254 0.23907
# Poissons Ratio (z) = 0.25936 0.22966
#
# Static dielectric constant tensor:
#      x y z
#    x 1.878440 0.000000 0.000000 
#    y 0.000000 1.943840 0.000000 
#    z 0.000000 0.000000 1.824350 
# 
# From -- ./inp_files/26914.got.cif
#   From: 2010.05.17/outbox.cif.g08.bks.cpg/sg54_14_cif.got.tgz:26914.got - 2010.06.03 13:09:01.
