data_PCOD9423634
_publ_section_title
;
Structure prediction by ZEFSAII (Michael W. Deem and Ramdas Pophale) SiO2 
 PCOD9423634
Probable space group: P C C A
;
_chemical_formula_sum "Si O2"
_cell_formula_units_Z 36
_cell_length_a 8.689055
_cell_length_b 9.518109
_cell_length_c 21.188913
_cell_angle_alpha 90.000000
_cell_angle_beta 90.000000
_cell_angle_gamma 90.000000
_cell_volume 1752.394567
_symmetry_space_group_name_H-M "P C C A"
_symmetry_group_IT_number 54
_symmetry_cell_setting 'orthorhombic'
loop_
_space_group_symop_operation_xyz
x,y,z
1/2-x,-y,z
1/2+x,-y,1/2-z
-x,y,1/2-z
-x,-y,-z
1/2+x,y,-z
1/2-x,y,1/2+z
x,-y,1/2+z
loop_
_atom_site_type_symbol
_atom_site_label
_atom_site_fract_x
_atom_site_fract_y
_atom_site_fract_z
Si Si1 0.750000 0.000000 0.981207
Si Si2 0.069012 0.523168 0.931063
Si Si3 0.881518 0.382199 0.692862
Si Si4 0.031831 0.851517 0.919665
Si Si5 0.653498 0.875059 0.212283
O O1 0.866547 0.908279 0.940136
O O2 0.649921 0.897132 0.025544
O O3 0.250000 0.500000 0.938959
O O4 0.031837 0.416449 0.873408
O O5 0.033684 0.683363 0.911157
O O6 0.000000 0.500000 0.000000
O O7 0.750000 0.500000 0.699709
O O8 0.781264 0.241410 0.696518
O O9 0.000000 0.386803 0.750000
O O10 0.086784 0.922818 0.855175
O O11 0.500000 0.828383 0.250000
O O12 0.750000 0.000000 0.244626
#
# Coordination Sequence:
#
# PCOD9423634 Si02
#       5
#     4   8   8   8   8
#     4  10  24  40  70  94 138 182 216 282 356 406
#     4  11  23  41  66  99 133 173 224 282 335 410
#     4  11  24  45  69  98 137 184 225 287 352 408
#     4  11  22  43  65  98 134 175 228 280 347 412
#     4  12  26  46  69  98 136 178 237 292 344 421
#
# _framework density 20.543319
#
# number of rings (size 3 to 8) (size 9 to 14) (size 15 to 20)
#    0.000    0.889    5.556    2.667    1.556    0.889 
#    4.000    0.000    0.000    0.000    0.000    0.000 
#    0.000    0.000    0.000    0.000    0.000    0.000 
#
# Total GULP energy -201011.826522 kJ/mol
# GULP energy per Si atom -5583.661848 kJ/mol
# Density = 2.049656 g / cm^3
# Si number density = 20.543319 Si / 1000 Ang^3
#
#
#
# Elastic Constant Matrix: (Units=GPa)
#
#
# Indices 1 2 3 4 5 6 
#
# 1 108.3638 28.2237 67.7059 0.0000 0.0000 0.0000
# 2 28.2237 96.8230 15.0242 0.0000 0.0000 0.0000
# 3 67.7059 15.0242 135.8637 0.0000 0.0000 0.0000
# 4 0.0000 0.0000 0.0000 18.6455 0.0000 0.0000
# 5 0.0000 0.0000 0.0000 0.0000 181.4297 0.0000
# 6 0.0000 0.0000 0.0000 0.0000 0.0000 31.6188
#
#
#
# Elastic Compliance Matrix: (Units=1/GPa)
#
#
# Indices 1 2 3 4 5 6 
#
# 1 0.014264 -0.003108 -0.006765 0.000000 0.000000 0.000000
# 2 -0.003108 0.011186 0.000312 0.000000 0.000000 0.000000
# 3 -0.006765 0.000312 0.010697 0.000000 0.000000 0.000000
# 4 0.000000 0.000000 0.000000 0.053632 0.000000 0.000000
# 5 0.000000 0.000000 0.000000 0.000000 0.005512 0.000000
# 6 0.000000 0.000000 0.000000 0.000000 0.000000 0.031627
#
#
# Mechanical properties :
#
#
# Convention : Reuss Voigt Hill
#
# Bulk Modulus (GPa) = 58.73708 62.55091 60.64399
# Shear Modulus (GPa) = 32.95652 61.67858 47.31755
#
# Velocity S-wave (km/s) = 4.00965 5.48533 4.80448
# Velocity P-wave (km/s) = 7.07745 8.40434 7.76927
#
# Compressibility (1/GPa) = 0.01702502
#
# Stress axis : x y z
#
# Youngs Moduli (GPa) = 70.10469 89.39920 93.48477
#
# Poissons Ratio (x) = 0.27788 0.63240
# Poissons Ratio (y) = 0.21791 -0.02917
# Poissons Ratio (z) = 0.47424 -0.02790
#
# Static dielectric constant tensor:
#      x y z
#    x 1.717780 0.000000 0.000000 
#    y 0.000000 1.768810 0.000000 
#    z 0.000000 0.000000 1.790600 
# 
# From -- ./inp_files/20117.got.cif
#   From: 2010.05.17/outbox.cif.g08.bks.cpg/sg54_11_cif.got.tgz:20117.got - 2010.06.03 13:09:01.
