data_PCOD9423972
_publ_section_title
;
Structure prediction by ZEFSAII (Michael W. Deem and Ramdas Pophale) SiO2 
 PCOD9423972
Probable space group: P C C A
;
_chemical_formula_sum "Si O2"
_cell_formula_units_Z 48
_cell_length_a 11.202358
_cell_length_b 7.626474
_cell_length_c 24.310868
_cell_angle_alpha 90.000000
_cell_angle_beta 90.000000
_cell_angle_gamma 90.000000
_cell_volume 2076.986658
_symmetry_space_group_name_H-M "P C C A"
_symmetry_group_IT_number 54
_symmetry_cell_setting 'orthorhombic'
loop_
_space_group_symop_operation_xyz
x,y,z
1/2-x,-y,z
1/2+x,-y,1/2-z
-x,y,1/2-z
-x,-y,-z
1/2+x,y,-z
1/2-x,y,1/2+z
x,-y,1/2+z
loop_
_atom_site_type_symbol
_atom_site_label
_atom_site_fract_x
_atom_site_fract_y
_atom_site_fract_z
Si Si1 0.606228 0.715881 0.106548
Si Si2 0.480286 0.874545 0.886427
Si Si3 0.719188 0.790770 0.698505
Si Si4 0.714937 0.800470 0.821244
Si Si5 0.856289 0.633710 0.910459
Si Si6 0.807029 0.808362 0.023027
O O1 0.674675 0.696076 0.164739
O O2 0.495980 0.589586 0.092833
O O3 0.706772 0.704685 0.058704
O O4 0.547433 0.914310 0.110514
O O5 0.395075 0.790435 0.840353
O O6 0.609730 0.816301 0.866225
O O7 0.431916 0.806440 0.944369
O O8 0.691996 0.728118 0.760179
O O9 0.750000 0.000000 0.699578
O O10 0.823652 0.704174 0.850226
O O11 0.750000 0.000000 0.812096
O O12 0.750000 0.500000 0.921988
O O13 0.836199 0.765571 0.960670
O O14 0.750000 0.000000 0.025277
#
# Coordination Sequence:
#
# PCOD9423972 Si02
#       6
#     8   8   8   8   8   8
#     4   9  19  38  59  87 120 151 192 250 312 359
#     4   9  17  35  61  93 116 142 191 254 308 361
#     4   8  17  33  61  92 115 144 191 251 308 361
#     4  11  20  34  61  91 116 148 196 245 305 364
#     4  12  26  38  53  82 121 163 207 245 291 352
#     4   9  21  38  62  84 115 156 197 248 308 360
#
# _framework density 23.110403000000002
#
# number of rings (size 3 to 8) (size 9 to 14) (size 15 to 20)
#    0.000    2.333    1.667    3.000    2.333    2.667 
#    0.000    0.000    7.333    0.000    0.000    0.000 
#    0.000    0.000    0.000    0.000    0.000    0.000 
#
# Total GULP energy -267817.277991 kJ/mol
# GULP energy per Si atom -5579.526625 kJ/mol
# Density = 2.305780 g / cm^3
# Si number density = 23.110403 Si / 1000 Ang^3
#
#
#
# Elastic Constant Matrix: (Units=GPa)
#
#
# Indices 1 2 3 4 5 6 
#
# 1 96.9813 22.2664 22.8146 0.0000 0.0000 0.0000
# 2 22.2664 25.7917 7.2823 0.0000 0.0000 0.0000
# 3 22.8146 7.2823 116.8051 0.0000 0.0000 0.0000
# 4 0.0000 0.0000 0.0000 1.0924 0.0000 0.0000
# 5 0.0000 0.0000 0.0000 0.0000 4.7417 0.0000
# 6 0.0000 0.0000 0.0000 0.0000 0.0000 23.4567
#
#
#
# Elastic Compliance Matrix: (Units=1/GPa)
#
#
# Indices 1 2 3 4 5 6 
#
# 1 0.013267 -0.010914 -0.001911 0.000000 0.000000 0.000000
# 2 -0.010914 0.048445 -0.000889 0.000000 0.000000 0.000000
# 3 -0.001911 -0.000889 0.008990 0.000000 0.000000 0.000000
# 4 0.000000 0.000000 0.000000 0.915413 0.000000 0.000000
# 5 0.000000 0.000000 0.000000 0.000000 0.210894 0.000000
# 6 0.000000 0.000000 0.000000 0.000000 0.000000 0.042632
#
#
# Mechanical properties :
#
#
# Convention : Reuss Voigt Hill
#
# Bulk Modulus (GPa) = 23.10800 38.25609 30.68204
# Shear Modulus (GPa) = 3.90170 18.33914 11.12042
#
# Velocity S-wave (km/s) = 1.30075 2.82005 2.19598
# Velocity P-wave (km/s) = 3.50380 5.21470 4.44239
#
# Compressibility (1/GPa) = 0.04327506
#
# Stress axis : x y z
#
# Youngs Moduli (GPa) = 75.37774 20.64198 111.23592
#
# Poissons Ratio (x) = 0.22528 0.21255
# Poissons Ratio (y) = 0.82265 0.09885
# Poissons Ratio (z) = 0.14403 0.01834
#
# Static dielectric constant tensor:
#      x y z
#    x 1.837780 0.000000 0.000000 
#    y 0.000000 1.963080 0.000000 
#    z 0.000000 0.000000 1.891830 
# 
# From -- ./inp_files/24048.got.cif
#   From: 2010.05.17/outbox.cif.g08.bks.cpg/sg54_13_cif.got.tgz:24048.got - 2010.06.03 13:09:01.
