data_PCOD9423541
_publ_section_title
;
Structure prediction by ZEFSAII (Michael W. Deem and Ramdas Pophale) SiO2 
 PCOD9423541
Probable space group: P C C A
;
_chemical_formula_sum "Si O2"
_cell_formula_units_Z 40
_cell_length_a 14.758794
_cell_length_b 13.427793
_cell_length_c 9.512629
_cell_angle_alpha 90.000000
_cell_angle_beta 90.000000
_cell_angle_gamma 90.000000
_cell_volume 1885.194083
_symmetry_space_group_name_H-M "P C C A"
_symmetry_group_IT_number 54
_symmetry_cell_setting 'orthorhombic'
loop_
_space_group_symop_operation_xyz
x,y,z
1/2-x,-y,z
1/2+x,-y,1/2-z
-x,y,1/2-z
-x,-y,-z
1/2+x,y,-z
1/2-x,y,1/2+z
x,-y,1/2+z
loop_
_atom_site_type_symbol
_atom_site_label
_atom_site_fract_x
_atom_site_fract_y
_atom_site_fract_z
Si Si1 0.250000 0.000000 0.166479
Si Si2 0.000000 0.126263 0.250000
Si Si3 0.000000 0.233892 0.750000
Si Si4 0.089965 0.097874 0.521710
Si Si5 0.750000 0.500000 0.968619
Si Si6 0.175211 0.628259 0.278465
Si Si7 0.184325 0.800413 0.794400
O O1 0.157455 0.984696 0.080708
O O2 0.260420 0.899566 0.254576
O O3 0.087571 0.192955 0.215208
O O4 0.965294 0.064238 0.116932
O O5 0.027458 0.158557 0.625941
O O6 0.085087 0.305135 0.782437
O O7 0.157161 0.182989 0.456450
O O8 0.815495 0.440201 0.860671
O O9 0.691617 0.432749 0.077263
O O10 0.259629 0.703653 0.267675
#
# Coordination Sequence:
#
# PCOD9423541 Si02
#       7
#     4   4   4   8   4   8   8
#     4  12  22  42  72 106 144 194 250 290 360 436
#     4   8  24  43  63 102 134 192 238 289 357 414
#     4  12  24  43  77 108 138 200 240 295 371 440
#     4  10  24  44  66 107 139 192 242 296 353 430
#     4  10  26  46  72 106 138 188 244 300 378 426
#     4  11  24  46  73 104 146 186 238 306 364 441
#     4  10  23  45  67 102 147 189 235 302 361 423
#
# _framework density 21.217974000000002
#
# number of rings (size 3 to 8) (size 9 to 14) (size 15 to 20)
#    1.200    0.400    2.000    1.800    2.800    2.400 
#    3.600    4.000    0.000    1.200    0.000    0.000 
#    0.000    0.000    0.000    0.000    0.000    0.000 
#
# Total GULP energy -223227.700720 kJ/mol
# GULP energy per Si atom -5580.692518 kJ/mol
# Density = 2.116968 g / cm^3
# Si number density = 21.217974 Si / 1000 Ang^3
#
#
#
# Elastic Constant Matrix: (Units=GPa)
#
#
# Indices 1 2 3 4 5 6 
#
# 1 117.1653 51.4454 49.3495 0.0000 0.0000 0.0000
# 2 51.4454 110.8588 64.6493 0.0000 0.0000 0.0000
# 3 49.3495 64.6493 150.8380 0.0000 0.0000 0.0000
# 4 0.0000 0.0000 0.0000 21.4403 0.0000 0.0000
# 5 0.0000 0.0000 0.0000 0.0000 31.1820 0.0000
# 6 0.0000 0.0000 0.0000 0.0000 0.0000 37.3119
#
#
#
# Elastic Compliance Matrix: (Units=1/GPa)
#
#
# Indices 1 2 3 4 5 6 
#
# 1 0.011113 -0.004049 -0.001901 0.000000 0.000000 0.000000
# 2 -0.004049 0.013502 -0.004462 0.000000 0.000000 0.000000
# 3 -0.001901 -0.004462 0.009164 0.000000 0.000000 0.000000
# 4 0.000000 0.000000 0.000000 0.046641 0.000000 0.000000
# 5 0.000000 0.000000 0.000000 0.000000 0.032070 0.000000
# 6 0.000000 0.000000 0.000000 0.000000 0.000000 0.026801
#
#
# Mechanical properties :
#
#
# Convention : Reuss Voigt Hill
#
# Bulk Modulus (GPa) = 77.18668 78.86117 78.02392
# Shear Modulus (GPa) = 30.40762 32.21470 31.31116
#
# Velocity S-wave (km/s) = 3.78975 3.90073 3.84564
# Velocity P-wave (km/s) = 7.45698 7.58521 7.52137
#
# Compressibility (1/GPa) = 0.01295560
#
# Stress axis : x y z
#
# Youngs Moduli (GPa) = 89.98252 74.06533 109.12395
#
# Poissons Ratio (x) = 0.29988 0.20740
# Poissons Ratio (y) = 0.36433 0.48692
# Poissons Ratio (z) = 0.17102 0.33049
#
# Static dielectric constant tensor:
#      x y z
#    x 1.823930 0.000000 0.000000 
#    y 0.000000 1.784630 0.000000 
#    z 0.000000 0.000000 1.831260 
# 
# From -- ./inp_files/8290.got.cif
#   From: 2010.05.17/outbox.cif.g08.bks.cpg/sg54_5_cif.got.tgz:8290.got - 2010.06.03 13:09:01.
