data_PCOD9423234
_publ_section_title
;
Structure prediction by ZEFSAII (Michael W. Deem and Ramdas Pophale) SiO2 
 PCOD9423234
Probable space group: P C C A
;
_chemical_formula_sum "Si O2"
_cell_formula_units_Z 40
_cell_length_a 5.463045
_cell_length_b 17.273329
_cell_length_c 18.786927
_cell_angle_alpha 90.000000
_cell_angle_beta 90.000000
_cell_angle_gamma 90.000000
_cell_volume 1772.827871
_symmetry_space_group_name_H-M "P C C A"
_symmetry_group_IT_number 54
_symmetry_cell_setting 'orthorhombic'
loop_
_space_group_symop_operation_xyz
x,y,z
1/2-x,-y,z
1/2+x,-y,1/2-z
-x,y,1/2-z
-x,-y,-z
1/2+x,y,-z
1/2-x,y,1/2+z
x,-y,1/2+z
loop_
_atom_site_type_symbol
_atom_site_label
_atom_site_fract_x
_atom_site_fract_y
_atom_site_fract_z
Si Si1 0.500000 0.290336 0.250000
Si Si2 0.250000 0.000000 0.295888
Si Si3 0.831984 0.614846 0.976781
Si Si4 0.156646 0.830012 0.822862
Si Si5 0.835724 0.588370 0.820019
Si Si6 0.176263 0.789243 0.975689
O O1 0.643461 0.232141 0.199334
O O2 0.368054 0.348100 0.195883
O O3 0.234631 0.081499 0.336344
O O4 0.500000 0.005706 0.250000
O O5 0.939540 0.609143 0.897135
O O6 0.554299 0.580237 0.976034
O O7 0.752699 0.701583 0.001687
O O8 0.058432 0.797478 0.897149
O O9 0.000000 0.832502 0.750000
O O10 0.750000 0.500000 0.822051
O O11 0.000000 0.596197 0.750000
O O12 0.454480 0.823709 0.976496
#
# Coordination Sequence:
#
# PCOD9423234 Si02
#       6
#     4   4   8   8   8   8
#     4  12  24  42  72 102 138 186 248 302 356 428
#     4  10  22  44  66 112 152 184 236 306 366 426
#     4  10  24  44  69  97 139 186 236 295 362 436
#     4  11  25  42  76 107 144 191 246 299 363 435
#     4  12  28  46  70 104 146 189 249 314 366 428
#     4  10  23  41  64 100 142 181 239 293 352 435
#
# _framework density 22.562823000000002
#
# number of rings (size 3 to 8) (size 9 to 14) (size 15 to 20)
#    0.000    1.200    2.000    3.000   16.800    0.800 
#    0.000    1.000    0.000    0.000    0.000    0.000 
#    0.000    0.000    0.000    0.000    0.000    0.000 
#
# Total GULP energy -222755.887974 kJ/mol
# GULP energy per Si atom -5568.897199 kJ/mol
# Density = 2.251147 g / cm^3
# Si number density = 22.562823 Si / 1000 Ang^3
#
#
#
# Elastic Constant Matrix: (Units=GPa)
#
#
# Indices 1 2 3 4 5 6 
#
# 1 115.1694 16.5937 12.4681 0.0000 0.0000 0.0000
# 2 16.5937 153.7483 25.7122 0.0000 0.0000 0.0000
# 3 12.4681 25.7122 125.7681 0.0000 0.0000 0.0000
# 4 0.0000 0.0000 0.0000 28.1453 0.0000 0.0000
# 5 0.0000 0.0000 0.0000 0.0000 43.1756 0.0000
# 6 0.0000 0.0000 0.0000 0.0000 0.0000 27.6751
#
#
#
# Elastic Compliance Matrix: (Units=1/GPa)
#
#
# Indices 1 2 3 4 5 6 
#
# 1 0.008881 -0.000840 -0.000709 0.000000 0.000000 0.000000
# 2 -0.000840 0.006814 -0.001310 0.000000 0.000000 0.000000
# 3 -0.000709 -0.001310 0.008289 0.000000 0.000000 0.000000
# 4 0.000000 0.000000 0.000000 0.035530 0.000000 0.000000
# 5 0.000000 0.000000 0.000000 0.000000 0.023161 0.000000
# 6 0.000000 0.000000 0.000000 0.000000 0.000000 0.036134
#
#
# Mechanical properties :
#
#
# Convention : Reuss Voigt Hill
#
# Bulk Modulus (GPa) = 54.74397 56.02597 55.38497
# Shear Modulus (GPa) = 38.28074 42.45999 40.37036
#
# Velocity S-wave (km/s) = 4.12348 4.34274 4.23453
# Velocity P-wave (km/s) = 6.85466 7.07325 6.96482
#
# Compressibility (1/GPa) = 0.01826685
#
# Stress axis : x y z
#
# Youngs Moduli (GPa) = 112.60503 146.76039 120.63944
#
# Poissons Ratio (x) = 0.12327 0.08549
# Poissons Ratio (y) = 0.09458 0.15801
# Poissons Ratio (z) = 0.07980 0.19222
#
# Static dielectric constant tensor:
#      x y z
#    x 2.043190 0.000000 0.000000 
#    y 0.000000 1.839810 0.000000 
#    z 0.000000 0.000000 2.049900 
# 
# From -- ./inp_files/15803.got.cif
#   From: 2010.05.17/outbox.cif.g08.bks.cpg/sg54_8_cif.got.tgz:15803.got - 2010.06.03 13:09:01.
