data_PCOD9423260
_publ_section_title
;
Structure prediction by ZEFSAII (Michael W. Deem and Ramdas Pophale) SiO2 
 PCOD9423260
Probable space group: P C C A
;
_chemical_formula_sum "Si O2"
_cell_formula_units_Z 52
_cell_length_a 7.999327
_cell_length_b 20.439825
_cell_length_c 13.687927
_cell_angle_alpha 90.000000
_cell_angle_beta 90.000000
_cell_angle_gamma 90.000000
_cell_volume 2238.042369
_symmetry_space_group_name_H-M "P C C A"
_symmetry_group_IT_number 54
_symmetry_cell_setting 'orthorhombic'
loop_
_space_group_symop_operation_xyz
x,y,z
1/2-x,-y,z
1/2+x,-y,1/2-z
-x,y,1/2-z
-x,-y,-z
1/2+x,y,-z
1/2-x,y,1/2+z
x,-y,1/2+z
loop_
_atom_site_type_symbol
_atom_site_label
_atom_site_fract_x
_atom_site_fract_y
_atom_site_fract_z
Si Si1 0.788772 0.781504 0.773747
Si Si2 0.750000 0.000000 0.765477
Si Si3 0.401057 0.422868 0.107672
Si Si4 0.500544 0.438456 0.615187
Si Si5 0.306119 0.111798 0.875987
Si Si6 0.500000 0.668751 0.250000
Si Si7 0.092679 0.111971 0.601114
Si Si8 0.000000 0.310339 0.750000
O O1 0.865793 0.826689 0.687990
O O2 0.701837 0.828646 0.852937
O O3 0.647020 0.738509 0.721310
O O4 0.898623 0.721196 0.814326
O O5 0.656150 0.048174 0.689443
O O6 0.849104 0.048606 0.837420
O O7 0.200802 0.428596 0.120639
O O8 0.512110 0.485314 0.143194
O O9 0.455743 0.357469 0.160856
O O10 0.435213 0.426078 0.992822
O O11 0.590082 0.383777 0.680909
O O12 0.104794 0.118813 0.881466
O O13 0.375340 0.106585 0.985251
#
# Coordination Sequence:
#
# PCOD9423260 Si02
#       8
#     8   4   8   8   8   4   8   4
#     4  11  25  44  62  93 131 169 214 265 311 387
#     4  10  22  44  70  98 128 166 214 260 304 372
#     4  10  23  40  65  90 124 166 210 270 324 384
#     4  10  23  42  60  94 125 160 217 267 324 384
#     4  11  25  45  69  98 133 173 213 264 317 375
#     4  12  25  42  64  95 126 168 220 264 320 383
#     4  11  25  45  69  99 133 171 216 262 318 375
#     4  12  21  44  66  87 126 174 212 258 326 373
#
# _framework density 23.234591000000002
#
# number of rings (size 3 to 8) (size 9 to 14) (size 15 to 20)
#    0.000    1.231    3.077    2.308    4.308    6.154 
#    5.538    0.000    0.000    0.000    0.000    0.000 
#    0.000    0.000    0.000    0.000    0.000    0.000 
#
# Total GULP energy -290418.642572 kJ/mol
# GULP energy per Si atom -5584.973896 kJ/mol
# Density = 2.318171 g / cm^3
# Si number density = 23.234591 Si / 1000 Ang^3
#
#
#
# Elastic Constant Matrix: (Units=GPa)
#
#
# Indices 1 2 3 4 5 6 
#
# 1 44.6335 24.4508 17.8095 0.0000 0.0000 0.0000
# 2 24.4508 182.8451 67.7987 0.0000 0.0000 0.0000
# 3 17.8095 67.7987 170.5695 0.0000 0.0000 0.0000
# 4 0.0000 0.0000 0.0000 57.6870 0.0000 0.0000
# 5 0.0000 0.0000 0.0000 0.0000 36.0100 0.0000
# 6 0.0000 0.0000 0.0000 0.0000 0.0000 -16.2997
#
#
#
# Elastic Compliance Matrix: (Units=1/GPa)
#
#
# Indices 1 2 3 4 5 6 
#
# 1 0.024487 -0.002729 -0.001472 0.000000 0.000000 0.000000
# 2 -0.002729 0.006719 -0.002386 0.000000 0.000000 0.000000
# 3 -0.001472 -0.002386 0.006965 0.000000 0.000000 0.000000
# 4 0.000000 0.000000 0.000000 0.017335 0.000000 0.000000
# 5 0.000000 0.000000 0.000000 0.000000 0.027770 0.000000
# 6 0.000000 0.000000 0.000000 0.000000 0.000000 -0.061351
#
#
# Mechanical properties :
#
#
# Convention : Reuss Voigt Hill
#
# Bulk Modulus (GPa) = 40.00422 68.68512 54.34467
# Shear Modulus (GPa) = 115.12863 34.67871 74.90367
#
# Velocity S-wave (km/s) = 7.04685 3.86754 5.68401
# Velocity P-wave (km/s) = 9.13596 7.04057 8.15583
#
# Compressibility (1/GPa) = 0.02499736
#
# Stress axis : x y z
#
# Youngs Moduli (GPa) = 40.83820 148.84094 143.58179
#
# Poissons Ratio (x) = 0.40613 0.21137
# Poissons Ratio (y) = 0.11143 0.34253
# Poissons Ratio (z) = 0.06012 0.35508
#
# Static dielectric constant tensor:
#      x y z
#    x 2.103940 0.000000 0.000000 
#    y 0.000000 1.867740 0.000000 
#    z 0.000000 0.000000 1.826600 
# 
# From -- ./inp_files/11853.got.cif
#   From: 2010.05.17/outbox.cif.g08.bks.cpg/sg54_6_cif.got.tgz:11853.got - 2010.06.03 13:09:01.
