data_PCOD9423961
_publ_section_title
;
Structure prediction by ZEFSAII (Michael W. Deem and Ramdas Pophale) SiO2 
 PCOD9423961
Probable space group: P C C A
;
_chemical_formula_sum "Si O2"
_cell_formula_units_Z 64
_cell_length_a 19.791936
_cell_length_b 10.597716
_cell_length_c 14.064890
_cell_angle_alpha 90.000000
_cell_angle_beta 90.000000
_cell_angle_gamma 90.000000
_cell_volume 2950.101069
_symmetry_space_group_name_H-M "P C C A"
_symmetry_group_IT_number 54
_symmetry_cell_setting 'orthorhombic'
loop_
_space_group_symop_operation_xyz
x,y,z
1/2-x,-y,z
1/2+x,-y,1/2-z
-x,y,1/2-z
-x,-y,-z
1/2+x,y,-z
1/2-x,y,1/2+z
x,-y,1/2+z
loop_
_atom_site_type_symbol
_atom_site_label
_atom_site_fract_x
_atom_site_fract_y
_atom_site_fract_z
Si Si1 0.036811 0.128108 0.887415
Si Si2 0.042405 0.582494 0.371761
Si Si3 0.104136 0.542262 0.041464
Si Si4 0.422809 0.103344 0.768481
Si Si5 0.752269 0.363944 0.643028
Si Si6 0.397468 0.018837 0.568556
Si Si7 0.341741 0.198590 0.952483
Si Si8 0.852691 0.496512 0.759145
O O1 0.036008 0.270120 0.853792
O O2 0.963113 0.070252 0.910561
O O3 0.068142 0.038849 0.807564
O O4 0.078907 0.112798 0.985022
O O5 0.097234 0.553343 0.454491
O O6 0.072403 0.506917 0.282920
O O7 0.970294 0.543566 0.412240
O O8 0.151366 0.506026 0.128722
O O9 0.124134 0.679425 0.001807
O O10 0.500000 0.152179 0.750000
O O11 0.385678 0.167832 0.857675
O O12 0.385159 0.092551 0.667129
O O13 0.750000 0.500000 0.587550
O O14 0.732387 0.245587 0.580640
O O15 0.817351 0.373217 0.710213
O O16 0.690085 0.389377 0.715842
O O17 0.344306 0.921391 0.522370
#
# Coordination Sequence:
#
# PCOD9423961 Si02
#       8
#     8   8   8   8   8   8   8   8
#     4   9  18  32  51  81 126 158 197 236 301 385
#     4  11  21  35  56  92 125 152 193 258 319 382
#     4  11  22  34  57  93 125 158 194 258 327 369
#     4   9  20  33  57  87 128 170 203 252 314 376
#     4   8  20  43  58  80 116 164 212 242 291 373
#     4   9  18  33  53  88 116 165 204 238 307 363
#     4  11  19  38  62  90 122 157 212 260 292 371
#     4   9  21  40  54  83 118 164 205 235 303 384
#
# _framework density 21.694171999999998
#
# number of rings (size 3 to 8) (size 9 to 14) (size 15 to 20)
#    0.750    1.500    2.500    1.125    1.750    2.000 
#    9.000    0.000    0.000    3.000    0.000    0.000 
#    0.000    0.000    0.000    0.000    0.000    0.000 
#
# Total GULP energy -356641.399825 kJ/mol
# GULP energy per Si atom -5572.521872 kJ/mol
# Density = 2.164480 g / cm^3
# Si number density = 21.694172 Si / 1000 Ang^3
#
#
#
# Elastic Constant Matrix: (Units=GPa)
#
#
# Indices 1 2 3 4 5 6 
#
# 1 34.8512 -4.9428 7.0428 0.0000 0.0000 0.0000
# 2 -4.9428 27.5254 10.5880 0.0000 0.0000 0.0000
# 3 7.0428 10.5880 121.3745 0.0000 0.0000 0.0000
# 4 0.0000 0.0000 0.0000 19.3605 0.0000 0.0000
# 5 0.0000 0.0000 0.0000 0.0000 17.9167 0.0000
# 6 0.0000 0.0000 0.0000 0.0000 0.0000 23.3434
#
#
#
# Elastic Compliance Matrix: (Units=1/GPa)
#
#
# Indices 1 2 3 4 5 6 
#
# 1 0.030047 0.006277 -0.002291 0.000000 0.000000 0.000000
# 2 0.006277 0.038903 -0.003758 0.000000 0.000000 0.000000
# 3 -0.002291 -0.003758 0.008700 0.000000 0.000000 0.000000
# 4 0.000000 0.000000 0.000000 0.051652 0.000000 0.000000
# 5 0.000000 0.000000 0.000000 0.000000 0.055814 0.000000
# 6 0.000000 0.000000 0.000000 0.000000 0.000000 0.042839
#
#
# Mechanical properties :
#
#
# Convention : Reuss Voigt Hill
#
# Bulk Modulus (GPa) = 12.80331 23.23635 18.01983
# Shear Modulus (GPa) = 19.72134 23.52831 21.62483
#
# Velocity S-wave (km/s) = 3.01834 3.29682 3.16064
# Velocity P-wave (km/s) = 4.24990 5.02256 4.65230
#
# Compressibility (1/GPa) = 0.07810481
#
# Stress axis : x y z
#
# Youngs Moduli (GPa) = 33.28168 25.70516 114.94628
#
# Poissons Ratio (x) = -0.16135 0.26334
# Poissons Ratio (y) = -0.20890 0.43195
# Poissons Ratio (z) = 0.07625 0.09660
#
# Static dielectric constant tensor:
#      x y z
#    x 1.875410 0.000000 0.000000 
#    y 0.000000 1.757800 0.000000 
#    z 0.000000 0.000000 1.860830 
# 
# From -- ./inp_files/14357.got.cif
#   From: 2010.05.17/outbox.cif.g08.bks.cpg/sg54_8_cif.got.tgz:14357.got - 2010.06.03 13:09:01.
