data_PCOD9423256
_publ_section_title
;
Structure prediction by ZEFSAII (Michael W. Deem and Ramdas Pophale) SiO2 
 PCOD9423256
Probable space group: P C C A
;
_chemical_formula_sum "Si O2"
_cell_formula_units_Z 64
_cell_length_a 20.909877
_cell_length_b 10.090408
_cell_length_c 14.601204
_cell_angle_alpha 90.000000
_cell_angle_beta 90.000000
_cell_angle_gamma 90.000000
_cell_volume 3080.696207
_symmetry_space_group_name_H-M "P C C A"
_symmetry_group_IT_number 54
_symmetry_cell_setting 'orthorhombic'
loop_
_space_group_symop_operation_xyz
x,y,z
1/2-x,-y,z
1/2+x,-y,1/2-z
-x,y,1/2-z
-x,-y,-z
1/2+x,y,-z
1/2-x,y,1/2+z
x,-y,1/2+z
loop_
_atom_site_type_symbol
_atom_site_label
_atom_site_fract_x
_atom_site_fract_y
_atom_site_fract_z
Si Si1 0.092232 0.211319 0.352342
Si Si2 0.064967 0.495078 0.292103
Si Si3 0.039971 0.678723 0.454469
Si Si4 0.308015 0.826043 0.188340
Si Si5 0.661775 0.116251 0.305976
Si Si6 0.551004 0.923884 0.669314
Si Si7 0.889081 0.684763 0.455916
Si Si8 0.132119 0.417213 0.106758
O O1 0.054910 0.345740 0.327869
O O2 0.147023 0.196760 0.276233
O O3 0.122348 0.236791 0.450994
O O4 0.049458 0.079823 0.353301
O O5 0.077226 0.589480 0.378454
O O6 0.112467 0.477108 0.206474
O O7 0.000000 0.550639 0.250000
O O8 0.042064 0.828972 0.417249
O O9 0.073602 0.651299 0.551270
O O10 0.964489 0.644524 0.455385
O O11 0.233981 0.839284 0.213027
O O12 0.318404 0.700714 0.122872
O O13 0.332069 0.968470 0.150839
O O14 0.619836 0.104453 0.214723
O O15 0.627513 0.218910 0.372789
O O16 0.500000 0.896017 0.750000
O O17 0.849856 0.548516 0.448979
#
# Coordination Sequence:
#
# PCOD9423256 Si02
#       8
#     8   8   8   8   8   8   8   8
#     4  10  23  38  62  93 130 166 216 259 320 382
#     4  11  19  37  61  86 127 176 203 251 321 392
#     4  12  23  38  60 101 136 163 211 267 331 393
#     4   9  23  47  64  90 120 176 221 262 316 385
#     4  10  22  44  70  86 126 169 217 265 326 382
#     4  11  22  41  63  98 132 168 206 269 329 391
#     4  12  22  39  63  97 129 168 205 270 325 387
#     4  11  23  38  65  92 128 167 218 260 319 386
#
# _framework density 20.774525000000001
#
# number of rings (size 3 to 8) (size 9 to 14) (size 15 to 20)
#    0.000    1.250    3.750    2.625    1.750    3.000 
#    2.250    1.250    0.000    0.000    0.000    0.000 
#    0.000    0.000    0.000    0.000    0.000    0.000 
#
# Total GULP energy -357343.487013 kJ/mol
# GULP energy per Si atom -5583.491985 kJ/mol
# Density = 2.072724 g / cm^3
# Si number density = 20.774525 Si / 1000 Ang^3
#
#
#
# Elastic Constant Matrix: (Units=GPa)
#
#
# Indices 1 2 3 4 5 6 
#
# 1 56.0559 16.7979 -1.9682 0.0000 0.0000 0.0000
# 2 16.7979 106.1329 22.3202 0.0000 0.0000 0.0000
# 3 -1.9682 22.3202 51.3933 0.0000 0.0000 0.0000
# 4 0.0000 0.0000 0.0000 24.4901 0.0000 0.0000
# 5 0.0000 0.0000 0.0000 0.0000 16.4115 0.0000
# 6 0.0000 0.0000 0.0000 0.0000 0.0000 22.2641
#
#
#
# Elastic Compliance Matrix: (Units=1/GPa)
#
#
# Indices 1 2 3 4 5 6 
#
# 1 0.018958 -0.003470 0.002233 0.000000 0.000000 0.000000
# 2 -0.003470 0.011004 -0.004912 0.000000 0.000000 0.000000
# 3 0.002233 -0.004912 0.021677 0.000000 0.000000 0.000000
# 4 0.000000 0.000000 0.000000 0.040833 0.000000 0.000000
# 5 0.000000 0.000000 0.000000 0.000000 0.060933 0.000000
# 6 0.000000 0.000000 0.000000 0.000000 0.000000 0.044915
#
#
# Mechanical properties :
#
#
# Convention : Reuss Voigt Hill
#
# Bulk Modulus (GPa) = 25.41916 31.98688 28.70302
# Shear Modulus (GPa) = 22.34823 24.39529 23.37176
#
# Velocity S-wave (km/s) = 3.28342 3.43051 3.35777
# Velocity P-wave (km/s) = 5.16108 5.57869 5.37394
#
# Compressibility (1/GPa) = 0.03934040
#
# Stress axis : x y z
#
# Youngs Moduli (GPa) = 52.74930 90.87268 46.13257
#
# Poissons Ratio (x) = 0.31534 -0.10302
# Poissons Ratio (y) = 0.18305 0.22661
# Poissons Ratio (z) = -0.11779 0.44638
#
# Static dielectric constant tensor:
#      x y z
#    x 1.727140 0.000000 0.000000 
#    y 0.000000 1.789160 0.000000 
#    z 0.000000 0.000000 1.786560 
# 
# From -- ./inp_files/15003.got.cif
#   From: 2010.05.17/outbox.cif.g08.bks.cpg/sg54_8_cif.got.tgz:15003.got - 2010.06.03 13:09:01.
