data_PCOD9423591
_publ_section_title
;
Structure prediction by ZEFSAII (Michael W. Deem and Ramdas Pophale) SiO2 
 PCOD9423591
Probable space group: P C C A
;
_chemical_formula_sum "Si O2"
_cell_formula_units_Z 24
_cell_length_a 9.917832
_cell_length_b 9.853776
_cell_length_c 10.355508
_cell_angle_alpha 90.000000
_cell_angle_beta 90.000000
_cell_angle_gamma 90.000000
_cell_volume 1012.024069
_symmetry_space_group_name_H-M "P C C A"
_symmetry_group_IT_number 54
_symmetry_cell_setting 'orthorhombic'
loop_
_space_group_symop_operation_xyz
x,y,z
1/2-x,-y,z
1/2+x,-y,1/2-z
-x,y,1/2-z
-x,-y,-z
1/2+x,y,-z
1/2-x,y,1/2+z
x,-y,1/2+z
loop_
_atom_site_type_symbol
_atom_site_label
_atom_site_fract_x
_atom_site_fract_y
_atom_site_fract_z
Si Si1 0.500000 0.098226 0.750000
Si Si2 0.000000 0.338816 0.750000
Si Si3 0.750000 0.000000 0.117505
Si Si4 0.250000 0.500000 0.361995
Si Si5 0.603974 0.245535 0.515813
O O1 0.624196 0.003500 0.713918
O O2 0.497056 0.197487 0.625754
O O3 0.866753 0.427624 0.720520
O O4 0.965609 0.256781 0.878920
O O5 0.781751 0.129572 0.029432
O O6 0.327144 0.613214 0.445811
#
# Coordination Sequence:
#
# PCOD9423591 Si02
#       5
#     4   4   4   4   8
#     4   8  19  45  86 118 165 221 264 334 409 505
#     4  12  27  49  86 126 167 211 276 352 401 487
#     4   8  20  46  88 112 172 212 274 330 414 498
#     4  12  26  48  86 124 170 218 268 328 422 500
#     4  10  23  48  83 124 164 218 272 334 407 489
#
# _framework density 23.714852
#
# number of rings (size 3 to 8) (size 9 to 14) (size 15 to 20)
#    2.000    0.000    0.000    3.000    0.000    4.000 
#    0.000    5.000    7.333    2.000    0.000    0.000 
#    0.000    0.000    0.000    0.000    0.000    0.000 
#
# Total GULP energy -134098.969756 kJ/mol
# GULP energy per Si atom -5587.457073 kJ/mol
# Density = 2.366088 g / cm^3
# Si number density = 23.714852 Si / 1000 Ang^3
#
#
#
# Elastic Constant Matrix: (Units=GPa)
#
#
# Indices 1 2 3 4 5 6 
#
# 1 168.2837 62.6075 109.4528 0.0000 0.0000 0.0000
# 2 62.6075 121.9592 101.9298 0.0000 0.0000 0.0000
# 3 109.4528 101.9298 228.0264 0.0000 0.0000 0.0000
# 4 0.0000 0.0000 0.0000 -72.7266 0.0000 0.0000
# 5 0.0000 0.0000 0.0000 0.0000 26.5844 0.0000
# 6 0.0000 0.0000 0.0000 0.0000 0.0000 42.9600
#
#
#
# Elastic Compliance Matrix: (Units=1/GPa)
#
#
# Indices 1 2 3 4 5 6 
#
# 1 0.008826 -0.001581 -0.003530 0.000000 0.000000 0.000000
# 2 -0.001581 0.013373 -0.005219 0.000000 0.000000 0.000000
# 3 -0.003530 -0.005219 0.008413 0.000000 0.000000 0.000000
# 4 0.000000 0.000000 0.000000 -0.013750 0.000000 0.000000
# 5 0.000000 0.000000 0.000000 0.000000 0.037616 0.000000
# 6 0.000000 0.000000 0.000000 0.000000 0.000000 0.023277
#
#
# Mechanical properties :
#
#
# Convention : Reuss Voigt Hill
#
# Bulk Modulus (GPa) = 100.47772 118.47218 109.47495
# Shear Modulus (GPa) = 49.14847 15.64884 32.39865
#
# Velocity S-wave (km/s) = 4.55738 2.57159 3.70019
# Velocity P-wave (km/s) = 8.37580 7.67352 8.03234
#
# Compressibility (1/GPa) = 0.00995246
#
# Stress axis : x y z
#
# Youngs Moduli (GPa) = 113.29618 74.77864 118.86544
#
# Poissons Ratio (x) = 0.11820 0.41961
# Poissons Ratio (y) = 0.17908 0.62036
# Poissons Ratio (z) = 0.39995 0.39027
#
# Static dielectric constant tensor:
#      x y z
#    x 1.966900 0.000000 0.000000 
#    y 0.000000 1.913740 0.000000 
#    z 0.000000 0.000000 1.863910 
# 
# From -- ./inp_files/2722.got.cif
#   From: 2010.05.17/outbox.cif.g08.bks.cpg/sg54_2_cif.got.tgz:2722.got - 2010.06.03 13:09:01.
