data_PCOD9423754
_publ_section_title
;
Structure prediction by ZEFSAII (Michael W. Deem and Ramdas Pophale) SiO2 
 PCOD9423754
Probable space group: P C C A
;
_chemical_formula_sum "Si O2"
_cell_formula_units_Z 28
_cell_length_a 14.741101
_cell_length_b 5.422915
_cell_length_c 13.382707
_cell_angle_alpha 90.000000
_cell_angle_beta 90.000000
_cell_angle_gamma 90.000000
_cell_volume 1069.810088
_symmetry_space_group_name_H-M "P C C A"
_symmetry_group_IT_number 54
_symmetry_cell_setting 'orthorhombic'
loop_
_space_group_symop_operation_xyz
x,y,z
1/2-x,-y,z
1/2+x,-y,1/2-z
-x,y,1/2-z
-x,-y,-z
1/2+x,y,-z
1/2-x,y,1/2+z
x,-y,1/2+z
loop_
_atom_site_type_symbol
_atom_site_label
_atom_site_fract_x
_atom_site_fract_y
_atom_site_fract_z
Si Si1 0.197553 0.753678 0.448593
Si Si2 0.345664 0.409692 0.657738
Si Si3 0.500000 0.156030 0.750000
Si Si4 0.496998 0.794783 0.625419
O O1 0.250000 0.500000 0.430650
O O2 0.185864 0.767087 0.568585
O O3 0.095651 0.724199 0.407657
O O4 0.250000 0.000000 0.413095
O O5 0.250000 0.500000 0.700023
O O6 0.405735 0.300272 0.746314
O O7 0.410177 0.626915 0.610043
O O8 0.492762 0.089741 0.622406
O O9 0.500000 0.830706 0.750000
#
# Coordination Sequence:
#
# PCOD9423754 Si02
#       4
#     8   8   4   8
#     4  11  28  47  76 110 149 196 248 305 370 446
#     4  11  25  47  71 104 149 194 249 306 377 439
#     4  10  24  44  74 104 144 190 244 312 366 448
#     4  10  25  45  69 109 142 192 241 308 366 439
#
# _framework density 26.172871000000001
#
# number of rings (size 3 to 8) (size 9 to 14) (size 15 to 20)
#    0.857    0.571    1.429    0.857   12.000    4.571 
#    0.000    0.000    0.000    0.000    0.000    0.000 
#    0.000    0.000    0.000    0.000    0.000    0.000 
#
# Total GULP energy -155914.130920 kJ/mol
# GULP energy per Si atom -5568.361819 kJ/mol
# Density = 2.611330 g / cm^3
# Si number density = 26.172871 Si / 1000 Ang^3
#
#
#
# Elastic Constant Matrix: (Units=GPa)
#
#
# Indices 1 2 3 4 5 6 
#
# 1 273.0526 112.3700 40.8572 0.0000 0.0000 0.0000
# 2 112.3700 141.7904 25.9289 0.0000 0.0000 0.0000
# 3 40.8572 25.9289 49.6861 0.0000 0.0000 0.0000
# 4 0.0000 0.0000 0.0000 -9.3423 0.0000 0.0000
# 5 0.0000 0.0000 0.0000 0.0000 55.7841 0.0000
# 6 0.0000 0.0000 0.0000 0.0000 0.0000 50.9616
#
#
#
# Elastic Compliance Matrix: (Units=1/GPa)
#
#
# Indices 1 2 3 4 5 6 
#
# 1 0.005720 -0.004061 -0.002585 0.000000 0.000000 0.000000
# 2 -0.004061 0.010679 -0.002234 0.000000 0.000000 0.000000
# 3 -0.002585 -0.002234 0.023418 0.000000 0.000000 0.000000
# 4 0.000000 0.000000 0.000000 -0.107040 0.000000 0.000000
# 5 0.000000 0.000000 0.000000 0.000000 0.017926 0.000000
# 6 0.000000 0.000000 0.000000 0.000000 0.000000 0.019623
#
#
# Mechanical properties :
#
#
# Convention : Reuss Voigt Hill
#
# Bulk Modulus (GPa) = 45.33401 91.42680 68.38040
# Shear Modulus (GPa) = -1095.81455 38.50554 -528.65450
#
# Velocity S-wave (km/s) = -20.48395 3.83978 -14.22758
# Velocity P-wave (km/s) = 23.28299 7.39367 15.61140
#
# Compressibility (1/GPa) = 0.02205849
#
# Stress axis : x y z
#
# Youngs Moduli (GPa) = 174.82218 93.63986 42.70304
#
# Poissons Ratio (x) = 0.38023 0.11037
# Poissons Ratio (y) = 0.70988 0.09540
# Poissons Ratio (z) = 0.45185 0.20919
#
# Static dielectric constant tensor:
#      x y z
#    x 2.454190 0.000000 0.000000 
#    y 0.000000 2.138040 0.000000 
#    z 0.000000 0.000000 2.244180 
# 
# From -- ./inp_files/17518.got.cif
#   From: 2010.05.17/outbox.cif.g08.bks.cpg/sg54_9_cif.got.tgz:17518.got - 2010.06.03 13:09:01.
