data_PCOD9423172
_publ_section_title
;
Structure prediction by ZEFSAII (Michael W. Deem and Ramdas Pophale) SiO2 
 PCOD9423172
Probable space group: P C C A
;
_chemical_formula_sum "Si O2"
_cell_formula_units_Z 48
_cell_length_a 14.205226
_cell_length_b 11.380174
_cell_length_c 12.233077
_cell_angle_alpha 90.000000
_cell_angle_beta 90.000000
_cell_angle_gamma 90.000000
_cell_volume 1977.574072
_symmetry_space_group_name_H-M "P C C A"
_symmetry_group_IT_number 54
_symmetry_cell_setting 'orthorhombic'
loop_
_space_group_symop_operation_xyz
x,y,z
1/2-x,-y,z
1/2+x,-y,1/2-z
-x,y,1/2-z
-x,-y,-z
1/2+x,y,-z
1/2-x,y,1/2+z
x,-y,1/2+z
loop_
_atom_site_type_symbol
_atom_site_label
_atom_site_fract_x
_atom_site_fract_y
_atom_site_fract_z
Si Si1 0.369351 0.130175 0.660837
Si Si2 0.311909 0.674319 0.545156
Si Si3 0.750000 0.500000 0.780980
Si Si4 0.083779 0.497662 0.393445
Si Si5 0.500000 0.681616 0.250000
Si Si6 0.126334 0.754429 0.430340
Si Si7 0.643222 0.866791 0.805878
O O1 0.414026 0.227399 0.740423
O O2 0.396324 0.169454 0.537707
O O3 0.256985 0.127409 0.679214
O O4 0.399282 0.995676 0.678827
O O5 0.254539 0.615238 0.644372
O O6 0.368161 0.567102 0.494028
O O7 0.236175 0.719445 0.456465
O O8 0.378038 0.774550 0.596903
O O9 0.840766 0.500704 0.704820
O O10 0.068914 0.633273 0.419292
O O11 0.004961 0.408563 0.350770
O O12 0.120340 0.819380 0.314484
#
# Coordination Sequence:
#
# PCOD9423172 Si02
#       7
#     8   8   4   8   4   8   8
#     4  10  25  43  64  97 136 183 225 282 341 412
#     4  11  19  35  68 102 135 168 228 290 336 385
#     4  12  18  38  68 108 132 172 230 280 336 408
#     4  12  23  38  66 100 138 181 218 284 350 417
#     4  12  28  46  64 100 152 178 216 284 368 410
#     4  11  20  39  67  99 129 172 233 281 335 408
#     4  10  22  42  72  97 127 177 245 285 320 407
#
# _framework density 24.272162999999999
#
# number of rings (size 3 to 8) (size 9 to 14) (size 15 to 20)
#    0.000    1.000    5.000    3.000    0.000    7.333 
#    0.000    4.167    0.000    0.000    0.000    0.000 
#    0.000    0.000    0.000    0.000    0.000    0.000 
#
# Total GULP energy -268692.222093 kJ/mol
# GULP energy per Si atom -5597.754627 kJ/mol
# Density = 2.421692 g / cm^3
# Si number density = 24.272163 Si / 1000 Ang^3
#
#
#
# Elastic Constant Matrix: (Units=GPa)
#
#
# Indices 1 2 3 4 5 6 
#
# 1 54.6278 34.8929 17.2965 0.0000 0.0000 0.0000
# 2 34.8929 236.7237 89.6597 0.0000 0.0000 0.0000
# 3 17.2965 89.6597 103.7226 0.0000 0.0000 0.0000
# 4 0.0000 0.0000 0.0000 40.8404 0.0000 0.0000
# 5 0.0000 0.0000 0.0000 0.0000 30.5448 0.0000
# 6 0.0000 0.0000 0.0000 0.0000 0.0000 27.4331
#
#
#
# Elastic Compliance Matrix: (Units=1/GPa)
#
#
# Indices 1 2 3 4 5 6 
#
# 1 0.020306 -0.002543 -0.001188 0.000000 0.000000 0.000000
# 2 -0.002543 0.006599 -0.005280 0.000000 0.000000 0.000000
# 3 -0.001188 -0.005280 0.014404 0.000000 0.000000 0.000000
# 4 0.000000 0.000000 0.000000 0.024486 0.000000 0.000000
# 5 0.000000 0.000000 0.000000 0.000000 0.032739 0.000000
# 6 0.000000 0.000000 0.000000 0.000000 0.000000 0.036452
#
#
# Mechanical properties :
#
#
# Convention : Reuss Voigt Hill
#
# Bulk Modulus (GPa) = 42.94377 75.41915 59.18146
# Shear Modulus (GPa) = 31.10025 36.64532 33.87279
#
# Velocity S-wave (km/s) = 3.58343 3.88979 3.73975
# Velocity P-wave (km/s) = 5.90358 7.16336 6.56376
#
# Compressibility (1/GPa) = 0.02328626
#
# Stress axis : x y z
#
# Youngs Moduli (GPa) = 49.24595 151.53488 69.42725
#
# Poissons Ratio (x) = 0.38539 0.08246
# Poissons Ratio (y) = 0.12525 0.36660
# Poissons Ratio (z) = 0.05849 0.80015
#
# Static dielectric constant tensor:
#      x y z
#    x 1.994470 0.000000 0.000000 
#    y 0.000000 1.938720 0.000000 
#    z 0.000000 0.000000 1.906530 
# 
# From -- ./inp_files/8987.got.cif
#   From: 2010.05.17/outbox.cif.g08.bks.cpg/sg54_5_cif.got.tgz:8987.got - 2010.06.03 13:09:01.
