data_PCOD9423031
_publ_section_title
;
Structure prediction by ZEFSAII (Michael W. Deem and Ramdas Pophale) SiO2 
 PCOD9423031
Probable space group: P C C A
;
_chemical_formula_sum "Si O2"
_cell_formula_units_Z 40
_cell_length_a 9.662226
_cell_length_b 17.668288
_cell_length_c 10.165706
_cell_angle_alpha 90.000000
_cell_angle_beta 90.000000
_cell_angle_gamma 90.000000
_cell_volume 1735.438415
_symmetry_space_group_name_H-M "P C C A"
_symmetry_group_IT_number 54
_symmetry_cell_setting 'orthorhombic'
loop_
_space_group_symop_operation_xyz
x,y,z
1/2-x,-y,z
1/2+x,-y,1/2-z
-x,y,1/2-z
-x,-y,-z
1/2+x,y,-z
1/2-x,y,1/2+z
x,-y,1/2+z
loop_
_atom_site_type_symbol
_atom_site_label
_atom_site_fract_x
_atom_site_fract_y
_atom_site_fract_z
Si Si1 0.250000 0.500000 0.010821
Si Si2 0.589000 0.978274 0.129596
Si Si3 0.848870 0.805291 0.629522
Si Si4 0.000000 0.675029 0.750000
Si Si5 0.456110 0.767835 0.889641
Si Si6 0.000235 0.399170 0.539654
O O1 0.350536 0.435974 0.077078
O O2 0.372420 0.544106 0.936270
O O3 0.500000 0.012509 0.250000
O O4 0.609052 0.889503 0.165065
O O5 0.750000 0.000000 0.113238
O O6 0.500000 0.000000 0.000000
O O7 0.875225 0.736729 0.733756
O O8 0.693237 0.799923 0.582570
O O9 0.942003 0.787452 0.505044
O O10 0.999173 0.624259 0.882445
O O11 0.500000 0.798933 0.750000
O O12 0.461191 0.677222 0.887611
#
# Coordination Sequence:
#
# PCOD9423031 Si02
#       6
#     4   8   8   4   8   8
#     4  10  22  42  60  90 140 170 232 274 356 428
#     4  12  27  48  74 109 152 197 246 303 375 454
#     4  11  25  45  71 102 139 185 235 296 357 419
#     4  10  22  40  72  90 134 172 234 292 344 404
#     4  11  26  43  72 102 139 181 242 293 354 422
#     4  10  22  42  61  97 128 179 227 286 346 420
#
# _framework density 23.048931
#
# number of rings (size 3 to 8) (size 9 to 14) (size 15 to 20)
#    0.000    1.200    1.000    4.200    8.400    5.600 
#    7.200    0.000    0.000    0.000    0.000    0.000 
#    0.000    0.000    0.000    0.000    0.000    0.000 
#
# Total GULP energy -223173.041355 kJ/mol
# GULP energy per Si atom -5579.326034 kJ/mol
# Density = 2.299647 g / cm^3
# Si number density = 23.048931 Si / 1000 Ang^3
#
#
#
# Elastic Constant Matrix: (Units=GPa)
#
#
# Indices 1 2 3 4 5 6 
#
# 1 209.5720 52.9180 61.2903 0.0000 0.0000 0.0000
# 2 52.9180 106.4834 3.8218 0.0000 0.0000 0.0000
# 3 61.2903 3.8218 101.8973 0.0000 0.0000 0.0000
# 4 0.0000 0.0000 0.0000 16.1290 0.0000 0.0000
# 5 0.0000 0.0000 0.0000 0.0000 27.7834 0.0000
# 6 0.0000 0.0000 0.0000 0.0000 0.0000 46.3033
#
#
#
# Elastic Compliance Matrix: (Units=1/GPa)
#
#
# Indices 1 2 3 4 5 6 
#
# 1 0.006729 -0.003203 -0.003927 0.000000 0.000000 0.000000
# 2 -0.003203 0.010929 0.001517 0.000000 0.000000 0.000000
# 3 -0.003927 0.001517 0.012119 0.000000 0.000000 0.000000
# 4 0.000000 0.000000 0.000000 0.062000 0.000000 0.000000
# 5 0.000000 0.000000 0.000000 0.000000 0.035993 0.000000
# 6 0.000000 0.000000 0.000000 0.000000 0.000000 0.021597
#
#
# Mechanical properties :
#
#
# Convention : Reuss Voigt Hill
#
# Bulk Modulus (GPa) = 53.91022 72.66810 63.28916
# Shear Modulus (GPa) = 29.98021 38.03797 34.00909
#
# Velocity S-wave (km/s) = 3.61046 4.06681 3.84541
# Velocity P-wave (km/s) = 6.38912 7.32449 6.87274
#
# Compressibility (1/GPa) = 0.01854936
#
# Stress axis : x y z
#
# Youngs Moduli (GPa) = 148.61108 91.50385 82.51413
#
# Poissons Ratio (x) = 0.29309 0.32406
# Poissons Ratio (y) = 0.47601 -0.12515
# Poissons Ratio (z) = 0.58364 -0.13879
#
# Static dielectric constant tensor:
#      x y z
#    x 1.833350 0.000000 0.000000 
#    y 0.000000 1.928070 0.000000 
#    z 0.000000 0.000000 1.872360 
# 
# From -- ./inp_files/6969.got.cif
#   From: 2010.05.17/outbox.cif.g08.bks.cpg/sg54_4_cif.got.tgz:6969.got - 2010.06.03 13:09:01.
