data_PCOD9423104
_publ_section_title
;
Structure prediction by ZEFSAII (Michael W. Deem and Ramdas Pophale) SiO2 
 PCOD9423104
Probable space group: P C C A
;
_chemical_formula_sum "Si O2"
_cell_formula_units_Z 28
_cell_length_a 9.706786
_cell_length_b 6.494971
_cell_length_c 20.521694
_cell_angle_alpha 90.000000
_cell_angle_beta 90.000000
_cell_angle_gamma 90.000000
_cell_volume 1293.796223
_symmetry_space_group_name_H-M "P C C A"
_symmetry_group_IT_number 54
_symmetry_cell_setting 'orthorhombic'
loop_
_space_group_symop_operation_xyz
x,y,z
1/2-x,-y,z
1/2+x,-y,1/2-z
-x,y,1/2-z
-x,-y,-z
1/2+x,y,-z
1/2-x,y,1/2+z
x,-y,1/2+z
loop_
_atom_site_type_symbol
_atom_site_label
_atom_site_fract_x
_atom_site_fract_y
_atom_site_fract_z
Si Si1 0.750000 0.500000 0.331542
Si Si2 0.377968 0.845927 0.873788
Si Si3 0.344928 0.817524 0.561676
Si Si4 0.250000 0.500000 0.461457
Si Si5 0.500000 0.374561 0.250000
O O1 0.725985 0.301214 0.377311
O O2 0.614100 0.509705 0.287193
O O3 0.514001 0.917308 0.912663
O O4 0.335283 0.647007 0.914971
O O5 0.423772 0.768856 0.802714
O O6 0.250000 0.000000 0.871060
O O7 0.347694 0.641519 0.506739
O O8 0.250000 0.000000 0.536320
#
# Coordination Sequence:
#
# PCOD9423104 Si02
#       5
#     4   8   8   4   4
#     4   9  21  40  62  90 127 167 210 260 316 373
#     4  11  25  42  65  96 128 167 212 260 315 375
#     4  10  23  42  65  95 129 164 207 262 321 377
#     4  11  23  42  68  94 125 165 212 260 312 377
#     4  10  22  42  64  90 124 170 214 258 312 372
#
# _framework density 21.641739999999999
#
# number of rings (size 3 to 8) (size 9 to 14) (size 15 to 20)
#    0.000    1.714    0.000    2.571    0.000   18.286 
#    0.000    2.857    0.000    0.000    0.000    0.000 
#    0.000    0.000    0.000    0.000    0.000    0.000 
#
# Total GULP energy -156551.154373 kJ/mol
# GULP energy per Si atom -5591.112656 kJ/mol
# Density = 2.159248 g / cm^3
# Si number density = 21.641740 Si / 1000 Ang^3
#
#
#
# Elastic Constant Matrix: (Units=GPa)
#
#
# Indices 1 2 3 4 5 6 
#
# 1 136.0616 66.1812 63.0167 0.0000 0.0000 0.0000
# 2 66.1812 81.5436 44.9216 0.0000 0.0000 0.0000
# 3 63.0167 44.9216 141.4087 0.0000 0.0000 0.0000
# 4 0.0000 0.0000 0.0000 45.2654 0.0000 0.0000
# 5 0.0000 0.0000 0.0000 0.0000 14.0000 0.0000
# 6 0.0000 0.0000 0.0000 0.0000 0.0000-2565.8140
#
#
#
# Elastic Compliance Matrix: (Units=1/GPa)
#
#
# Indices 1 2 3 4 5 6 
#
# 1 0.013106 -0.008993 -0.002984 0.000000 0.000000 0.000000
# 2 -0.008993 0.021036 -0.002675 0.000000 0.000000 0.000000
# 3 -0.002984 -0.002675 0.009251 0.000000 0.000000 0.000000
# 4 0.000000 0.000000 0.000000 0.022092 0.000000 0.000000
# 5 0.000000 0.000000 0.000000 0.000000 0.071428 0.000000
# 6 0.000000 0.000000 0.000000 0.000000 0.000000 -0.000390
#
#
# Mechanical properties :
#
#
# Convention : Reuss Voigt Hill
#
# Bulk Modulus (GPa) = 70.97445 78.58366 74.77905
# Shear Modulus (GPa) = 29.32167 -488.98342 -229.83088
#
# Velocity S-wave (km/s) = 3.68484 -15.04776 -10.31642
# Velocity P-wave (km/s) = 7.13936 16.29489 10.35744
#
# Compressibility (1/GPa) = 0.01408958
#
# Stress axis : x y z
#
# Youngs Moduli (GPa) = 76.30259 47.53813 108.09668
#
# Poissons Ratio (x) = 0.42751 0.32251
# Poissons Ratio (y) = 0.68620 0.28914
# Poissons Ratio (z) = 0.22765 0.12716
#
# Static dielectric constant tensor:
#      x y z
#    x 1.862040 0.000000 0.000000 
#    y 0.000000 1.737010 0.000000 
#    z 0.000000 0.000000 1.791870 
# 
# From -- ./inp_files/20795.got.cif
#   From: 2010.05.17/outbox.cif.g08.bks.cpg/sg54_11_cif.got.tgz:20795.got - 2010.06.03 13:09:01.
