data_PCOD9423948
_publ_section_title
;
Structure prediction by ZEFSAII (Michael W. Deem and Ramdas Pophale) SiO2 
 PCOD9423948
Probable space group: P C C A
;
_chemical_formula_sum "Si O2"
_cell_formula_units_Z 28
_cell_length_a 23.676066
_cell_length_b 4.771663
_cell_length_c 9.351743
_cell_angle_alpha 90.000000
_cell_angle_beta 90.000000
_cell_angle_gamma 90.000000
_cell_volume 1056.505760
_symmetry_space_group_name_H-M "P C C A"
_symmetry_group_IT_number 54
_symmetry_cell_setting 'orthorhombic'
loop_
_space_group_symop_operation_xyz
x,y,z
1/2-x,-y,z
1/2+x,-y,1/2-z
-x,y,1/2-z
-x,-y,-z
1/2+x,y,-z
1/2-x,y,1/2+z
x,-y,1/2+z
loop_
_atom_site_type_symbol
_atom_site_label
_atom_site_fract_x
_atom_site_fract_y
_atom_site_fract_z
Si Si1 0.500000 0.379578 0.250000
Si Si2 0.250000 0.000000 0.173214
Si Si3 0.849119 0.153657 0.489156
Si Si4 0.926694 0.325425 0.005394
Si Si5 0.250000 0.500000 0.861190
O O1 0.536180 0.562336 0.136972
O O2 0.539506 0.217710 0.364584
O O3 0.273654 0.740970 0.261241
O O4 0.307854 0.070723 0.093002
O O5 0.891230 0.405649 0.446236
O O6 0.799065 0.333996 0.560414
O O7 0.889811 0.931685 0.565107
#
# Coordination Sequence:
#
# PCOD9423948 Si02
#       5
#     4   4   8   8   4
#     4  10  28  52  74 122 152 212 284 336 394 482
#     4  12  26  46  74 114 158 200 262 326 390 512
#     4  12  27  47  76 117 152 211 258 328 412 477
#     4  11  27  48  82 109 164 206 270 339 407 467
#     4  12  26  46  76 114 158 202 264 326 390 518
#
# _framework density 26.502455999999999
#
# number of rings (size 3 to 8) (size 9 to 14) (size 15 to 20)
#    0.000    0.571    0.000    6.857   12.000    6.857 
#    0.000    0.000    0.000    0.000    0.000    0.000 
#    0.000    0.000    0.000    0.000    0.000    0.000 
#
# Total GULP energy -156173.635405 kJ/mol
# GULP energy per Si atom -5577.629836 kJ/mol
# Density = 2.644213 g / cm^3
# Si number density = 26.502456 Si / 1000 Ang^3
#
#
#
# Elastic Constant Matrix: (Units=GPa)
#
#
# Indices 1 2 3 4 5 6 
#
# 1 115.6449 38.7454 45.4888 0.0000 0.0000 0.0000
# 2 38.7454 138.5419 14.3840 0.0000 0.0000 0.0000
# 3 45.4888 14.3840 108.2496 0.0000 0.0000 0.0000
# 4 0.0000 0.0000 0.0000 13.6503 0.0000 0.0000
# 5 0.0000 0.0000 0.0000 0.0000 -115.8605 0.0000
# 6 0.0000 0.0000 0.0000 0.0000 0.0000 22.3312
#
#
#
# Elastic Compliance Matrix: (Units=1/GPa)
#
#
# Indices 1 2 3 4 5 6 
#
# 1 0.011274 -0.002698 -0.004379 0.000000 0.000000 0.000000
# 2 -0.002698 0.007965 0.000075 0.000000 0.000000 0.000000
# 3 -0.004379 0.000075 0.011068 0.000000 0.000000 0.000000
# 4 0.000000 0.000000 0.000000 0.073259 0.000000 0.000000
# 5 0.000000 0.000000 0.000000 0.000000 -0.008631 0.000000
# 6 0.000000 0.000000 0.000000 0.000000 0.000000 0.044780
#
#
# Mechanical properties :
#
#
# Convention : Reuss Voigt Hill
#
# Bulk Modulus (GPa) = 61.33767 62.18587 61.76177
# Shear Modulus (GPa) = 31.41656 1.61207 16.51431
#
# Velocity S-wave (km/s) = 3.44673 0.78076 2.49895
# Velocity P-wave (km/s) = 6.24774 4.93233 5.62860
#
# Compressibility (1/GPa) = 0.01630319
#
# Stress axis : x y z
#
# Youngs Moduli (GPa) = 88.70294 125.55260 90.35077
#
# Poissons Ratio (x) = 0.33877 0.39563
# Poissons Ratio (y) = 0.23934 -0.00682
# Poissons Ratio (z) = 0.38842 -0.00948
#
# Static dielectric constant tensor:
#      x y z
#    x 2.449530 0.000000 0.000000 
#    y 0.000000 2.066720 0.000000 
#    z 0.000000 0.000000 2.327060 
# 
# From -- ./inp_files/5349.got.cif
#   From: 2010.05.17/outbox.cif.g08.bks.cpg/sg54_3_cif.got.tgz:5349.got - 2010.06.03 13:09:01.
