data_PCOD9423773
_publ_section_title
;
Structure prediction by ZEFSAII (Michael W. Deem and Ramdas Pophale) SiO2 
 PCOD9423773
Probable space group: P C C A
;
_chemical_formula_sum "Si O2"
_cell_formula_units_Z 40
_cell_length_a 14.001955
_cell_length_b 13.251375
_cell_length_c 7.821378
_cell_angle_alpha 90.000000
_cell_angle_beta 90.000000
_cell_angle_gamma 90.000000
_cell_volume 1451.218805
_symmetry_space_group_name_H-M "P C C A"
_symmetry_group_IT_number 54
_symmetry_cell_setting 'orthorhombic'
loop_
_space_group_symop_operation_xyz
x,y,z
1/2-x,-y,z
1/2+x,-y,1/2-z
-x,y,1/2-z
-x,-y,-z
1/2+x,y,-z
1/2-x,y,1/2+z
x,-y,1/2+z
loop_
_atom_site_type_symbol
_atom_site_label
_atom_site_fract_x
_atom_site_fract_y
_atom_site_fract_z
Si Si1 0.208635 0.839917 0.774796
Si Si2 0.889930 0.630497 0.817893
Si Si3 0.888973 0.413502 0.716998
Si Si4 0.955218 0.896111 0.935211
Si Si5 0.888071 0.201747 0.876123
O O1 0.173920 0.725695 0.731113
O O2 0.153295 0.904027 0.630509
O O3 0.323031 0.849116 0.771080
O O4 0.165986 0.847687 0.962469
O O5 0.849381 0.525815 0.743608
O O6 0.000000 0.644702 0.750000
O O7 0.881259 0.620345 0.021848
O O8 0.869739 0.320903 0.846818
O O9 0.000000 0.432712 0.750000
O O10 0.000000 0.869447 0.750000
O O11 0.001133 0.817407 0.072865
O O12 0.000000 0.000000 0.000000
#
# Coordination Sequence:
#
# PCOD9423773 Si02
#       5
#     8   8   8   8   8
#     4  11  23  42  64  94 131 171 220 278 333 403
#     4  11  21  37  61  92 131 174 219 266 317 382
#     4  11  21  36  61  92 128 175 218 264 319 383
#     4  10  24  45  69  94 127 165 213 275 340 408
#     4  11  24  42  65  96 131 173 222 275 337 400
#
# _framework density 27.563040000000001
#
# number of rings (size 3 to 8) (size 9 to 14) (size 15 to 20)
#    0.000    1.200    0.000    9.000    0.000    5.600 
#    0.000    8.000    0.000    0.000    0.000    0.000 
#    0.000    0.000    0.000    0.000    0.000    0.000 
#
# Total GULP energy -223587.011060 kJ/mol
# GULP energy per Si atom -5589.675277 kJ/mol
# Density = 2.750030 g / cm^3
# Si number density = 27.563040 Si / 1000 Ang^3
#
#
#
# Elastic Constant Matrix: (Units=GPa)
#
#
# Indices 1 2 3 4 5 6 
#
# 1 174.1661 9.9710 2.3891 0.0000 0.0000 0.0000
# 2 9.9710 147.9826 11.5441 0.0000 0.0000 0.0000
# 3 2.3891 11.5441 126.4686 0.0000 0.0000 0.0000
# 4 0.0000 0.0000 0.0000 -49.4757 0.0000 0.0000
# 5 0.0000 0.0000 0.0000 0.0000 34.3123 0.0000
# 6 0.0000 0.0000 0.0000 0.0000 0.0000 -0.7292
#
#
#
# Elastic Compliance Matrix: (Units=1/GPa)
#
#
# Indices 1 2 3 4 5 6 
#
# 1 0.005765 -0.000383 -0.000074 0.000000 0.000000 0.000000
# 2 -0.000383 0.006831 -0.000616 0.000000 0.000000 0.000000
# 3 -0.000074 -0.000616 0.007965 0.000000 0.000000 0.000000
# 4 0.000000 0.000000 0.000000 -0.020212 0.000000 0.000000
# 5 0.000000 0.000000 0.000000 0.000000 0.029144 0.000000
# 6 0.000000 0.000000 0.000000 0.000000 0.000000 -1.371350
#
#
# Mechanical properties :
#
#
# Convention : Reuss Voigt Hill
#
# Bulk Modulus (GPa) = 54.30407 55.15840 54.73123
# Shear Modulus (GPa) = -3.74933 25.13567 10.69317
#
# Velocity S-wave (km/s) = -1.16757 3.02310 1.97179
# Velocity P-wave (km/s) = 4.23402 5.67809 5.00837
#
# Compressibility (1/GPa) = 0.01841483
#
# Stress axis : x y z
#
# Youngs Moduli (GPa) = 173.47353 146.38256 125.55308
#
# Poissons Ratio (x) = 0.05601 0.00929
# Poissons Ratio (y) = 0.06638 0.07738
# Poissons Ratio (z) = 0.01283 0.09022
#
# Static dielectric constant tensor:
#      x y z
#    x 2.254140 0.000000 0.000000 
#    y 0.000000 2.206570 0.000000 
#    z 0.000000 0.000000 2.146340 
# 
# From -- ./inp_files/3410.got.cif
#   From: 2010.05.17/outbox.cif.g08.bks.cpg/sg54_2_cif.got.tgz:3410.got - 2010.06.03 13:09:01.
