data_PCOD9423394
_publ_section_title
;
Structure prediction by ZEFSAII (Michael W. Deem and Ramdas Pophale) SiO2 
 PCOD9423394
Probable space group: P C C A
;
_chemical_formula_sum "Si O2"
_cell_formula_units_Z 44
_cell_length_a 25.880275
_cell_length_b 8.989989
_cell_length_c 8.158687
_cell_angle_alpha 90.000000
_cell_angle_beta 90.000000
_cell_angle_gamma 90.000000
_cell_volume 1898.227756
_symmetry_space_group_name_H-M "P C C A"
_symmetry_group_IT_number 54
_symmetry_cell_setting 'orthorhombic'
loop_
_space_group_symop_operation_xyz
x,y,z
1/2-x,-y,z
1/2+x,-y,1/2-z
-x,y,1/2-z
-x,-y,-z
1/2+x,y,-z
1/2-x,y,1/2+z
x,-y,1/2+z
loop_
_atom_site_type_symbol
_atom_site_label
_atom_site_fract_x
_atom_site_fract_y
_atom_site_fract_z
Si Si1 0.289143 0.136652 0.864413
Si Si2 0.980435 0.341697 0.563787
Si Si3 0.500000 0.128738 0.750000
Si Si4 0.387291 0.983055 0.212992
Si Si5 0.632101 0.243356 0.087912
Si Si6 0.736499 0.338832 0.928086
O O1 0.347692 0.093486 0.838992
O O2 0.269642 0.202200 0.694150
O O3 0.250000 0.000000 0.906896
O O4 0.285236 0.283605 0.971192
O O5 0.996473 0.225356 0.418871
O O6 0.918224 0.344474 0.574673
O O7 0.000000 0.310565 0.750000
O O8 0.000000 0.500000 0.500000
O O9 0.552613 0.033860 0.743467
O O10 0.370026 0.154437 0.239202
O O11 0.377722 0.885027 0.050588
O O12 0.685110 0.326705 0.041948
O O13 0.750000 0.500000 0.859739
#
# Coordination Sequence:
#
# PCOD9423394 Si02
#       6
#     8   8   4   8   8   8
#     4  11  22  42  68  95 132 179 226 282 350 415
#     4  11  24  45  68  95 138 187 229 281 358 422
#     4  10  24  44  66 104 138 170 236 298 336 416
#     4  10  23  40  67  96 135 168 228 288 344 413
#     4  10  24  42  65 101 130 174 228 287 353 412
#     4  11  24  43  64  99 136 173 229 286 349 424
#
# _framework density 23.179516
#
# number of rings (size 3 to 8) (size 9 to 14) (size 15 to 20)
#    0.000    1.455    2.727    1.091    6.364    2.909 
#    6.545    0.000    0.000    0.000    0.000    0.000 
#    0.000    0.000    0.000    0.000    0.000    0.000 
#
# Total GULP energy -245364.176092 kJ/mol
# GULP energy per Si atom -5576.458548 kJ/mol
# Density = 2.312676 g / cm^3
# Si number density = 23.179516 Si / 1000 Ang^3
#
#
#
# Elastic Constant Matrix: (Units=GPa)
#
#
# Indices 1 2 3 4 5 6 
#
# 1 121.2881 41.5001 26.4862 0.0000 0.0000 0.0000
# 2 41.5001 100.8962 24.7282 0.0000 0.0000 0.0000
# 3 26.4862 24.7282 76.0666 0.0000 0.0000 0.0000
# 4 0.0000 0.0000 0.0000 27.4962 0.0000 0.0000
# 5 0.0000 0.0000 0.0000 0.0000 -7.6238 0.0000
# 6 0.0000 0.0000 0.0000 0.0000 0.0000 36.7853
#
#
#
# Elastic Compliance Matrix: (Units=1/GPa)
#
#
# Indices 1 2 3 4 5 6 
#
# 1 0.009959 -0.003527 -0.002321 0.000000 0.000000 0.000000
# 2 -0.003527 0.012019 -0.002679 0.000000 0.000000 0.000000
# 3 -0.002321 -0.002679 0.014825 0.000000 0.000000 0.000000
# 4 0.000000 0.000000 0.000000 0.036369 0.000000 0.000000
# 5 0.000000 0.000000 0.000000 0.000000 -0.131168 0.000000
# 6 0.000000 0.000000 0.000000 0.000000 0.000000 0.027185
#
#
# Mechanical properties :
#
#
# Convention : Reuss Voigt Hill
#
# Bulk Modulus (GPa) = 50.63701 53.74221 52.18961
# Shear Modulus (GPa) = -696.79005 25.03398 -335.87803
#
# Velocity S-wave (km/s) = -17.35680 3.28991 -12.05062
# Velocity P-wave (km/s) = 19.48807 6.13733 13.07896
#
# Compressibility (1/GPa) = 0.01974840
#
# Stress axis : x y z
#
# Youngs Moduli (GPa) = 100.41623 83.20468 67.45203
#
# Poissons Ratio (x) = 0.29349 0.15655
# Poissons Ratio (y) = 0.35420 0.18070
# Poissons Ratio (z) = 0.23305 0.22289
#
# Static dielectric constant tensor:
#      x y z
#    x 1.841020 0.000000 0.000000 
#    y 0.000000 1.704520 0.000000 
#    z 0.000000 0.000000 2.157850 
# 
# From -- ./inp_files/5773.got.cif
#   From: 2010.05.17/outbox.cif.g08.bks.cpg/sg54_3_cif.got.tgz:5773.got - 2010.06.03 13:09:01.
