data_PCOD9423935
_publ_section_title
;
Structure prediction by ZEFSAII (Michael W. Deem and Ramdas Pophale) SiO2 
 PCOD9423935
Probable space group: P C C A
;
_chemical_formula_sum "Si O2"
_cell_formula_units_Z 36
_cell_length_a 19.881091
_cell_length_b 5.705481
_cell_length_c 13.777273
_cell_angle_alpha 90.000000
_cell_angle_beta 90.000000
_cell_angle_gamma 90.000000
_cell_volume 1562.772429
_symmetry_space_group_name_H-M "P C C A"
_symmetry_group_IT_number 54
_symmetry_cell_setting 'orthorhombic'
loop_
_space_group_symop_operation_xyz
x,y,z
1/2-x,-y,z
1/2+x,-y,1/2-z
-x,y,1/2-z
-x,-y,-z
1/2+x,y,-z
1/2-x,y,1/2+z
x,-y,1/2+z
loop_
_atom_site_type_symbol
_atom_site_label
_atom_site_fract_x
_atom_site_fract_y
_atom_site_fract_z
Si Si1 0.500000 0.441061 0.750000
Si Si2 0.176515 0.685037 0.932399
Si Si3 0.350224 0.389729 0.252115
Si Si4 0.750000 0.000000 0.721413
Si Si5 0.476071 0.247997 0.957110
Si Si6 0.750000 0.500000 0.394185
O O1 0.569402 0.591967 0.757433
O O2 0.493650 0.277110 0.843892
O O3 0.166811 0.449791 0.865144
O O4 0.204225 0.851842 0.850886
O O5 0.103630 0.753132 0.968043
O O6 0.223580 0.682634 0.025741
O O7 0.313051 0.564428 0.175262
O O8 0.306016 0.160702 0.226574
O O9 0.500000 0.500000 0.000000
O O10 0.500000 0.000000 0.000000
#
# Coordination Sequence:
#
# PCOD9423935 Si02
#       6
#     4   8   8   4   8   4
#     4  10  26  50  78 110 164 210 256 342 400 476
#     4  11  25  44  71 104 154 194 251 328 376 460
#     4  11  24  47  70 109 150 197 263 318 397 466
#     4  12  22  46  72 102 154 194 246 332 380 458
#     4  11  27  51  76 117 159 207 265 322 401 476
#     4  12  20  46  68 100 142 198 250 308 384 468
#
# _framework density 23.035983000000002
#
# number of rings (size 3 to 8) (size 9 to 14) (size 15 to 20)
#    0.000    0.889    4.444    1.333    6.222    3.556 
#   12.000    0.000    0.000    0.000    0.000    0.000 
#    0.000    0.000    0.000    0.000    0.000    0.000 
#
# Total GULP energy -200645.724533 kJ/mol
# GULP energy per Si atom -5573.492348 kJ/mol
# Density = 2.298355 g / cm^3
# Si number density = 23.035983 Si / 1000 Ang^3
#
#
#
# Elastic Constant Matrix: (Units=GPa)
#
#
# Indices 1 2 3 4 5 6 
#
# 1 162.5536 60.5424 30.0001 0.0000 0.0000 0.0000
# 2 60.5424 113.1118 42.0034 0.0000 0.0000 0.0000
# 3 30.0001 42.0034 145.6101 0.0000 0.0000 0.0000
# 4 0.0000 0.0000 0.0000 13.5116 0.0000 0.0000
# 5 0.0000 0.0000 0.0000 0.0000 40.6505 0.0000
# 6 0.0000 0.0000 0.0000 0.0000 0.0000 23.7102
#
#
#
# Elastic Compliance Matrix: (Units=1/GPa)
#
#
# Indices 1 2 3 4 5 6 
#
# 1 0.007709 -0.003961 -0.000446 0.000000 0.000000 0.000000
# 2 -0.003961 0.011936 -0.002627 0.000000 0.000000 0.000000
# 3 -0.000446 -0.002627 0.007717 0.000000 0.000000 0.000000
# 4 0.000000 0.000000 0.000000 0.074011 0.000000 0.000000
# 5 0.000000 0.000000 0.000000 0.000000 0.024600 0.000000
# 6 0.000000 0.000000 0.000000 0.000000 0.000000 0.042176
#
#
# Mechanical properties :
#
#
# Convention : Reuss Voigt Hill
#
# Bulk Modulus (GPa) = 75.21361 76.26302 75.73831
# Shear Modulus (GPa) = 26.78826 34.82310 30.80568
#
# Velocity S-wave (km/s) = 3.41381 3.89225 3.66086
# Velocity P-wave (km/s) = 6.94696 7.30599 7.12873
#
# Compressibility (1/GPa) = 0.01329547
#
# Stress axis : x y z
#
# Youngs Moduli (GPa) = 129.71393 83.77743 129.57809
#
# Poissons Ratio (x) = 0.33183 0.05776
# Poissons Ratio (y) = 0.51377 0.34043
# Poissons Ratio (z) = 0.05783 0.22010
#
# Static dielectric constant tensor:
#      x y z
#    x 1.865890 0.000000 0.000000 
#    y 0.000000 1.569380 0.000000 
#    z 0.000000 0.000000 1.887660 
# 
# From -- ./inp_files/14476.got.cif
#   From: 2010.05.17/outbox.cif.g08.bks.cpg/sg54_8_cif.got.tgz:14476.got - 2010.06.03 13:09:01.
