data_PCOD9423340
_publ_section_title
;
Structure prediction by ZEFSAII (Michael W. Deem and Ramdas Pophale) SiO2 
 PCOD9423340
Probable space group: P C C A
;
_chemical_formula_sum "Si O2"
_cell_formula_units_Z 32
_cell_length_a 7.918615
_cell_length_b 5.975491
_cell_length_c 27.405051
_cell_angle_alpha 90.000000
_cell_angle_beta 90.000000
_cell_angle_gamma 90.000000
_cell_volume 1296.741588
_symmetry_space_group_name_H-M "P C C A"
_symmetry_group_IT_number 54
_symmetry_cell_setting 'orthorhombic'
loop_
_space_group_symop_operation_xyz
x,y,z
1/2-x,-y,z
1/2+x,-y,1/2-z
-x,y,1/2-z
-x,-y,-z
1/2+x,y,-z
1/2-x,y,1/2+z
x,-y,1/2+z
loop_
_atom_site_type_symbol
_atom_site_label
_atom_site_fract_x
_atom_site_fract_y
_atom_site_fract_z
Si Si1 0.066170 0.382457 0.343310
Si Si2 0.138096 0.676792 0.982344
Si Si3 0.750000 0.000000 0.205927
Si Si4 0.000000 0.341743 0.750000
Si Si5 0.137008 0.184889 0.075172
O O1 0.250000 0.500000 0.350425
O O2 0.982557 0.506037 0.297587
O O3 0.934189 0.370524 0.387855
O O4 0.114568 0.128939 0.327728
O O5 0.250000 0.500000 0.952104
O O6 0.042773 0.868712 0.952115
O O7 0.000000 0.500000 0.000000
O O8 0.237587 0.755937 0.030179
O O9 0.658607 0.183472 0.238922
O O10 0.250000 0.000000 0.102093
#
# Coordination Sequence:
#
# PCOD9423340 Si02
#       5
#     8   8   4   4   8
#     4  10  23  47  73 108 152 197 242 304 369 445
#     4   9  20  42  65  93 138 186 232 293 371 431
#     4  10  22  48  70 110 144 194 244 298 370 434
#     4  10  22  48  80 100 150 192 238 306 370 434
#     4  11  22  43  68 108 140 189 246 302 362 444
#
# _framework density 24.677237000000002
#
# number of rings (size 3 to 8) (size 9 to 14) (size 15 to 20)
#    0.000    2.000    0.000    2.250    0.000    0.000 
#   56.250    0.000    0.000    0.000    0.000    0.000 
#    0.000    0.000    0.000    0.000    0.000    0.000 
#
# Total GULP energy -178410.668913 kJ/mol
# GULP energy per Si atom -5575.333404 kJ/mol
# Density = 2.462107 g / cm^3
# Si number density = 24.677237 Si / 1000 Ang^3
#
#
#
# Elastic Constant Matrix: (Units=GPa)
#
#
# Indices 1 2 3 4 5 6 
#
# 1 125.6499 36.8384 54.3495 0.0000 0.0000 0.0000
# 2 36.8384 82.3876 36.0539 0.0000 0.0000 0.0000
# 3 54.3495 36.0539 157.0934 0.0000 0.0000 0.0000
# 4 0.0000 0.0000 0.0000 11.5723 0.0000 0.0000
# 5 0.0000 0.0000 0.0000 0.0000 39.6304 0.0000
# 6 0.0000 0.0000 0.0000 0.0000 0.0000 53.2596
#
#
#
# Elastic Compliance Matrix: (Units=1/GPa)
#
#
# Indices 1 2 3 4 5 6 
#
# 1 0.010118 -0.003326 -0.002737 0.000000 0.000000 0.000000
# 2 -0.003326 0.014586 -0.002197 0.000000 0.000000 0.000000
# 3 -0.002737 -0.002197 0.007817 0.000000 0.000000 0.000000
# 4 0.000000 0.000000 0.000000 0.086413 0.000000 0.000000
# 5 0.000000 0.000000 0.000000 0.000000 0.025233 0.000000
# 6 0.000000 0.000000 0.000000 0.000000 0.000000 0.018776
#
#
# Mechanical properties :
#
#
# Convention : Reuss Voigt Hill
#
# Bulk Modulus (GPa) = 62.49770 68.84604 65.67187
# Shear Modulus (GPa) = 27.05670 36.75174 31.90422
#
# Velocity S-wave (km/s) = 3.31482 3.86333 3.59954
# Velocity P-wave (km/s) = 6.32706 6.91806 6.62915
#
# Compressibility (1/GPa) = 0.01600059
#
# Stress axis : x y z
#
# Youngs Moduli (GPa) = 98.83665 68.55699 127.93016
#
# Poissons Ratio (x) = 0.22804 0.35015
# Poissons Ratio (y) = 0.32875 0.28105
# Poissons Ratio (z) = 0.27052 0.15061
#
# Static dielectric constant tensor:
#      x y z
#    x 1.904430 0.000000 0.000000 
#    y 0.000000 2.128260 0.000000 
#    z 0.000000 0.000000 1.999530 
# 
# From -- ./inp_files/27411.got.cif
#   From: 2010.05.17/outbox.cif.g08.bks.cpg/sg54_14_cif.got.tgz:27411.got - 2010.06.03 13:09:01.
