data_PCOD9423904
_publ_section_title
;
Structure prediction by ZEFSAII (Michael W. Deem and Ramdas Pophale) SiO2 
 PCOD9423904
Probable space group: P C C A
;
_chemical_formula_sum "Si O2"
_cell_formula_units_Z 40
_cell_length_a 5.431261
_cell_length_b 11.837286
_cell_length_c 27.519611
_cell_angle_alpha 90.000000
_cell_angle_beta 90.000000
_cell_angle_gamma 90.000000
_cell_volume 1769.274038
_symmetry_space_group_name_H-M "P C C A"
_symmetry_group_IT_number 54
_symmetry_cell_setting 'orthorhombic'
loop_
_space_group_symop_operation_xyz
x,y,z
1/2-x,-y,z
1/2+x,-y,1/2-z
-x,y,1/2-z
-x,-y,-z
1/2+x,y,-z
1/2-x,y,1/2+z
x,-y,1/2+z
loop_
_atom_site_type_symbol
_atom_site_label
_atom_site_fract_x
_atom_site_fract_y
_atom_site_fract_z
Si Si1 0.073759 0.814685 0.194121
Si Si2 0.141671 0.391025 0.863736
Si Si3 0.750000 0.000000 0.637685
Si Si4 0.265741 0.743671 0.025281
Si Si5 0.250000 0.500000 0.060755
Si Si6 0.040135 0.201843 0.120446
O O1 0.355238 0.819213 0.174748
O O2 0.000000 0.818308 0.250000
O O3 0.995591 0.693770 0.172046
O O4 0.927162 0.918201 0.169132
O O5 0.250000 0.500000 0.836681
O O6 0.361167 0.309956 0.883354
O O7 0.968140 0.450218 0.904442
O O8 0.596225 0.087933 0.606690
O O9 0.303516 0.607879 0.027498
O O10 0.245924 0.780227 0.081542
O O11 0.523066 0.782291 0.002330
#
# Coordination Sequence:
#
# PCOD9423904 Si02
#       6
#     8   8   4   8   4   8
#     4  11  25  45  72 105 137 184 241 304 371 443
#     4  11  21  41  68 100 152 192 226 285 369 436
#     4  10  26  42  78  96 138 184 240 308 374 426
#     4  12  26  42  72 109 149 196 253 304 365 442
#     4  12  22  42  68 104 148 196 238 300 354 434
#     4  11  24  46  69 102 148 188 238 303 373 431
#
# _framework density 22.608143999999999
#
# number of rings (size 3 to 8) (size 9 to 14) (size 15 to 20)
#    0.000    0.800    4.000    2.400    5.600    2.400 
#    5.400    1.000    0.000    0.000    0.000    0.000 
#    0.000    0.000    0.000    0.000    0.000    0.000 
#
# Total GULP energy -223324.998087 kJ/mol
# GULP energy per Si atom -5583.124952 kJ/mol
# Density = 2.255669 g / cm^3
# Si number density = 22.608144 Si / 1000 Ang^3
#
#
#
# Elastic Constant Matrix: (Units=GPa)
#
#
# Indices 1 2 3 4 5 6 
#
# 1 104.0653 26.8482 28.9497 0.0000 0.0000 0.0000
# 2 26.8482 132.7082 2.3433 0.0000 0.0000 0.0000
# 3 28.9497 2.3433 75.3780 0.0000 0.0000 0.0000
# 4 0.0000 0.0000 0.0000 16.6927 0.0000 0.0000
# 5 0.0000 0.0000 0.0000 0.0000 14.3394 0.0000
# 6 0.0000 0.0000 0.0000 0.0000 0.0000 42.6453
#
#
#
# Elastic Compliance Matrix: (Units=1/GPa)
#
#
# Indices 1 2 3 4 5 6 
#
# 1 0.011380 -0.002226 -0.004302 0.000000 0.000000 0.000000
# 2 -0.002226 0.007975 0.000607 0.000000 0.000000 0.000000
# 3 -0.004302 0.000607 0.014900 0.000000 0.000000 0.000000
# 4 0.000000 0.000000 0.000000 0.059906 0.000000 0.000000
# 5 0.000000 0.000000 0.000000 0.000000 0.069738 0.000000
# 6 0.000000 0.000000 0.000000 0.000000 0.000000 0.023449
#
#
# Mechanical properties :
#
#
# Convention : Reuss Voigt Hill
#
# Bulk Modulus (GPa) = 44.61603 47.60376 46.10989
# Shear Modulus (GPa) = 24.19416 31.66949 27.93182
#
# Velocity S-wave (km/s) = 3.27487 3.74679 3.51875
# Velocity P-wave (km/s) = 5.83755 6.31028 6.07851
#
# Compressibility (1/GPa) = 0.02241347
#
# Stress axis : x y z
#
# Youngs Moduli (GPa) = 87.87048 125.39133 67.11571
#
# Poissons Ratio (x) = 0.27917 0.28870
# Poissons Ratio (y) = 0.19564 -0.04075
# Poissons Ratio (z) = 0.37798 -0.07613
#
# Static dielectric constant tensor:
#      x y z
#    x 1.987150 0.000000 0.000000 
#    y 0.000000 1.810590 0.000000 
#    z 0.000000 0.000000 1.813030 
# 
# From -- ./inp_files/25190.got.cif
#   From: 2010.05.17/outbox.cif.g08.bks.cpg/sg54_13_cif.got.tgz:25190.got - 2010.06.03 13:09:01.
