data_PCOD9423732
_publ_section_title
;
Structure prediction by ZEFSAII (Michael W. Deem and Ramdas Pophale) SiO2 
 PCOD9423732
Probable space group: P C C A
;
_chemical_formula_sum "Si O2"
_cell_formula_units_Z 60
_cell_length_a 27.250344
_cell_length_b 5.595619
_cell_length_c 17.310315
_cell_angle_alpha 90.000000
_cell_angle_beta 90.000000
_cell_angle_gamma 90.000000
_cell_volume 2639.520845
_symmetry_space_group_name_H-M "P C C A"
_symmetry_group_IT_number 54
_symmetry_cell_setting 'orthorhombic'
loop_
_space_group_symop_operation_xyz
x,y,z
1/2-x,-y,z
1/2+x,-y,1/2-z
-x,y,1/2-z
-x,-y,-z
1/2+x,y,-z
1/2-x,y,1/2+z
x,-y,1/2+z
loop_
_atom_site_type_symbol
_atom_site_label
_atom_site_fract_x
_atom_site_fract_y
_atom_site_fract_z
Si Si1 0.132593 0.632060 0.224615
Si Si2 0.834591 0.127874 0.613321
Si Si3 0.801159 0.641132 0.420538
Si Si4 0.392219 0.579711 0.987300
Si Si5 0.614615 0.264657 0.660154
Si Si6 0.511686 0.048653 0.662463
Si Si7 0.537230 0.430301 0.377981
Si Si8 0.750000 0.000000 0.026407
O O1 0.149101 0.755543 0.305369
O O2 0.174880 0.680798 0.163098
O O3 0.124446 0.362750 0.255050
O O4 0.080522 0.664131 0.180347
O O5 0.874770 0.165431 0.545149
O O6 0.781317 0.182294 0.579368
O O7 0.835061 0.848663 0.631551
O O8 0.750000 0.500000 0.413925
O O9 0.843948 0.507967 0.467453
O O10 0.788102 0.874235 0.469272
O O11 0.436686 0.519160 0.043431
O O12 0.400361 0.447411 0.906318
O O13 0.569842 0.082377 0.660812
O O14 0.500000 0.981464 0.750000
O O15 0.488919 0.319149 0.649235
O O16 0.494967 0.814034 0.613235
#
# Coordination Sequence:
#
# PCOD9423732 Si02
#       8
#     8   8   8   8   8   8   8   4
#     4  10  25  44  67 100 140 187 236 298 358 431
#     4  11  24  44  70 101 140 182 236 292 368 429
#     4  11  23  45  67  99 135 179 234 289 352 434
#     4  10  24  44  69  99 142 181 232 292 368 425
#     4  11  24  43  68  99 139 185 226 297 356 433
#     4  12  25  43  71 103 145 188 250 295 362 426
#     4  11  26  45  72 105 142 194 242 302 355 435
#     4  12  24  40  74 102 136 192 232 296 362 436
#
# _framework density 22.731397000000001
#
# number of rings (size 3 to 8) (size 9 to 14) (size 15 to 20)
#    0.000    1.067    4.000    1.200    5.600    3.733 
#    0.000    0.000    0.000    0.000    0.000    0.000 
#    0.000    0.000    0.000    0.000    0.000    0.000 
#
# Total GULP energy -334098.692050 kJ/mol
# GULP energy per Si atom -5568.311534 kJ/mol
# Density = 2.267966 g / cm^3
# Si number density = 22.731397 Si / 1000 Ang^3
#
#
#
# Elastic Constant Matrix: (Units=GPa)
#
#
# Indices 1 2 3 4 5 6 
#
# 1 88.4293 33.1897 37.3709 0.0000 0.0000 0.0000
# 2 33.1897 58.9022 19.2913 0.0000 0.0000 0.0000
# 3 37.3709 19.2913 114.8168 0.0000 0.0000 0.0000
# 4 0.0000 0.0000 0.0000 13.7639 0.0000 0.0000
# 5 0.0000 0.0000 0.0000 0.0000 29.1109 0.0000
# 6 0.0000 0.0000 0.0000 0.0000 0.0000 39.2548
#
#
#
# Elastic Compliance Matrix: (Units=1/GPa)
#
#
# Indices 1 2 3 4 5 6 
#
# 1 0.015809 -0.007643 -0.003861 0.000000 0.000000 0.000000
# 2 -0.007643 0.021661 -0.001152 0.000000 0.000000 0.000000
# 3 -0.003861 -0.001152 0.010160 0.000000 0.000000 0.000000
# 4 0.000000 0.000000 0.000000 0.072654 0.000000 0.000000
# 5 0.000000 0.000000 0.000000 0.000000 0.034351 0.000000
# 6 0.000000 0.000000 0.000000 0.000000 0.000000 0.025475
#
#
# Mechanical properties :
#
#
# Convention : Reuss Voigt Hill
#
# Bulk Modulus (GPa) = 44.80807 49.09468 46.95138
# Shear Modulus (GPa) = 23.48944 27.91235 25.70089
#
# Velocity S-wave (km/s) = 3.21806 3.50797 3.36614
# Velocity P-wave (km/s) = 5.79333 6.16867 5.98394
#
# Compressibility (1/GPa) = 0.02231741
#
# Stress axis : x y z
#
# Youngs Moduli (GPa) = 63.25500 46.16532 98.42666
#
# Poissons Ratio (x) = 0.35285 0.38006
# Poissons Ratio (y) = 0.48348 0.11336
# Poissons Ratio (z) = 0.24425 0.05317
#
# Static dielectric constant tensor:
#      x y z
#    x 1.949280 0.000000 0.000000 
#    y 0.000000 1.978790 0.000000 
#    z 0.000000 0.000000 1.831890 
# 
# From -- ./inp_files/19253.got.cif
#   From: 2010.05.17/outbox.cif.g08.bks.cpg/sg54_10_cif.got.tgz:19253.got - 2010.06.03 13:09:01.
