data_PCOD9423915
_publ_section_title
;
Structure prediction by ZEFSAII (Michael W. Deem and Ramdas Pophale) SiO2 
 PCOD9423915
Probable space group: P C C A
;
_chemical_formula_sum "Si O2"
_cell_formula_units_Z 32
_cell_length_a 5.403202
_cell_length_b 8.328736
_cell_length_c 28.760336
_cell_angle_alpha 90.000000
_cell_angle_beta 90.000000
_cell_angle_gamma 90.000000
_cell_volume 1294.268126
_symmetry_space_group_name_H-M "P C C A"
_symmetry_group_IT_number 54
_symmetry_cell_setting 'orthorhombic'
loop_
_space_group_symop_operation_xyz
x,y,z
1/2-x,-y,z
1/2+x,-y,1/2-z
-x,y,1/2-z
-x,-y,-z
1/2+x,y,-z
1/2-x,y,1/2+z
x,-y,1/2+z
loop_
_atom_site_type_symbol
_atom_site_label
_atom_site_fract_x
_atom_site_fract_y
_atom_site_fract_z
Si Si1 0.338359 0.821537 0.388595
Si Si2 0.511725 0.685596 0.480743
Si Si3 0.998430 0.401965 0.841505
Si Si4 0.158718 0.177870 0.207200
O O1 0.492388 0.720993 0.426271
O O2 0.091744 0.715895 0.381642
O O3 0.491968 0.830488 0.340009
O O4 0.250000 0.000000 0.401367
O O5 0.500000 0.500000 0.500000
O O6 0.762482 0.760229 0.499086
O O7 0.250000 0.500000 0.830268
O O8 0.750000 0.500000 0.853341
O O9 0.896570 0.287342 0.801471
O O10 0.000000 0.241210 0.250000
O O11 0.250000 0.000000 0.218063
#
# Coordination Sequence:
#
# PCOD9423915 Si02
#       4
#     8   8   8   8
#     4  12  27  51  84 121 169 228 291 356 425 522
#     4  10  26  46  77 115 160 213 278 349 434 511
#     4  12  28  50  81 121 166 220 281 351 419 503
#     4  12  28  52  86 125 174 230 289 348 428 515
#
# _framework density 24.724398999999998
#
# number of rings (size 3 to 8) (size 9 to 14) (size 15 to 20)
#    0.000    0.500    5.000    0.750    7.000    3.000 
#    4.500    0.000    0.000    0.000    0.000    0.000 
#    0.000    0.000    0.000    0.000    0.000    0.000 
#
# Total GULP energy -179020.312936 kJ/mol
# GULP energy per Si atom -5594.384779 kJ/mol
# Density = 2.466812 g / cm^3
# Si number density = 24.724399 Si / 1000 Ang^3
#
#
#
# Elastic Constant Matrix: (Units=GPa)
#
#
# Indices 1 2 3 4 5 6 
#
# 1 206.9510 50.7506 42.1716 0.0000 0.0000 0.0000
# 2 50.7506 139.4186 12.5881 0.0000 0.0000 0.0000
# 3 42.1716 12.5881 124.9369 0.0000 0.0000 0.0000
# 4 0.0000 0.0000 0.0000 49.0916 0.0000 0.0000
# 5 0.0000 0.0000 0.0000 0.0000 55.8602 0.0000
# 6 0.0000 0.0000 0.0000 0.0000 0.0000 39.7246
#
#
#
# Elastic Compliance Matrix: (Units=1/GPa)
#
#
# Indices 1 2 3 4 5 6 
#
# 1 0.005648 -0.001901 -0.001715 0.000000 0.000000 0.000000
# 2 -0.001901 0.007878 -0.000152 0.000000 0.000000 0.000000
# 3 -0.001715 -0.000152 0.008598 0.000000 0.000000 0.000000
# 4 0.000000 0.000000 0.000000 0.020370 0.000000 0.000000
# 5 0.000000 0.000000 0.000000 0.000000 0.017902 0.000000
# 6 0.000000 0.000000 0.000000 0.000000 0.000000 0.025173
#
#
# Mechanical properties :
#
#
# Convention : Reuss Voigt Hill
#
# Bulk Modulus (GPa) = 68.54769 75.81412 72.18091
# Shear Modulus (GPa) = 51.03699 53.32169 52.17934
#
# Velocity S-wave (km/s) = 4.54832 4.64900 4.59894
# Velocity P-wave (km/s) = 7.44095 7.71673 7.58010
#
# Compressibility (1/GPa) = 0.01458838
#
# Stress axis : x y z
#
# Youngs Moduli (GPa) = 177.06384 126.92971 116.30356
#
# Poissons Ratio (x) = 0.24130 0.19944
# Poissons Ratio (y) = 0.33660 0.01769
# Poissons Ratio (z) = 0.30363 0.01931
#
# Static dielectric constant tensor:
#      x y z
#    x 1.808300 0.000000 0.000000 
#    y 0.000000 1.960420 0.000000 
#    z 0.000000 0.000000 2.045470 
# 
# From -- ./inp_files/26845.got.cif
#   From: 2010.05.17/outbox.cif.g08.bks.cpg/sg54_14_cif.got.tgz:26845.got - 2010.06.03 13:09:01.
