data_PCOD9423044
_publ_section_title
;
Structure prediction by ZEFSAII (Michael W. Deem and Ramdas Pophale) SiO2 
 PCOD9423044
Probable space group: P C C A
;
_chemical_formula_sum "Si O2"
_cell_formula_units_Z 48
_cell_length_a 9.079408
_cell_length_b 15.257675
_cell_length_c 14.416207
_cell_angle_alpha 90.000000
_cell_angle_beta 90.000000
_cell_angle_gamma 90.000000
_cell_volume 1997.086619
_symmetry_space_group_name_H-M "P C C A"
_symmetry_group_IT_number 54
_symmetry_cell_setting 'orthorhombic'
loop_
_space_group_symop_operation_xyz
x,y,z
1/2-x,-y,z
1/2+x,-y,1/2-z
-x,y,1/2-z
-x,-y,-z
1/2+x,y,-z
1/2-x,y,1/2+z
x,-y,1/2+z
loop_
_atom_site_type_symbol
_atom_site_label
_atom_site_fract_x
_atom_site_fract_y
_atom_site_fract_z
Si Si1 0.693217 0.761363 0.937613
Si Si2 0.150586 0.583547 0.619749
Si Si3 0.321175 0.590392 0.341333
Si Si4 0.399839 0.947874 0.870769
Si Si5 0.869920 0.073668 0.418422
Si Si6 0.645005 0.235282 0.120517
O O1 0.771653 0.669728 0.918591
O O2 0.787103 0.838418 0.886773
O O3 0.522205 0.749949 0.914598
O O4 0.728421 0.786374 0.044021
O O5 0.250000 0.500000 0.590073
O O6 0.152682 0.581449 0.731453
O O7 0.975165 0.594978 0.602196
O O8 0.250000 0.500000 0.373456
O O9 0.209830 0.672924 0.344290
O O10 0.374794 0.854530 0.820856
O O11 0.250000 0.000000 0.866746
O O12 0.519592 0.022576 0.851370
O O13 0.438745 0.916023 0.977655
O O14 0.750000 0.000000 0.434488
#
# Coordination Sequence:
#
# PCOD9423044 Si02
#       6
#     8   8   8   8   8   8
#     4  11  22  34  57  87 120 151 190 240 286 342
#     4  10  22  41  63  85 109 149 191 236 289 351
#     4  10  22  41  63  84 112 146 192 237 287 354
#     4   9  18  28  49  77 113 151 186 228 272 335
#     4   9  16  30  47  77 113 150 187 225 274 327
#     4  11  22  35  55  89 119 151 191 238 291 336
#
# _framework density 24.03501
#
# number of rings (size 3 to 8) (size 9 to 14) (size 15 to 20)
#    0.000    2.000    1.667    2.000    9.333    2.667 
#    0.000    3.333    0.000    1.000    0.000    0.000 
#    0.000    0.000    0.000    0.000    0.000    0.000 
#
# Total GULP energy -267515.136629 kJ/mol
# GULP energy per Si atom -5573.232013 kJ/mol
# Density = 2.398031 g / cm^3
# Si number density = 24.035010 Si / 1000 Ang^3
#
#
#
# Elastic Constant Matrix: (Units=GPa)
#
#
# Indices 1 2 3 4 5 6 
#
# 1 162.5986 80.0170 10.5821 0.0000 0.0000 0.0000
# 2 80.0170 228.5076 4.5724 0.0000 0.0000 0.0000
# 3 10.5821 4.5724 45.9618 0.0000 0.0000 0.0000
# 4 0.0000 0.0000 0.0000 57.4692 0.0000 0.0000
# 5 0.0000 0.0000 0.0000 0.0000 18.9636 0.0000
# 6 0.0000 0.0000 0.0000 0.0000 0.0000 42.6641
#
#
#
# Elastic Compliance Matrix: (Units=1/GPa)
#
#
# Indices 1 2 3 4 5 6 
#
# 1 0.007529 -0.002607 -0.001474 0.000000 0.000000 0.000000
# 2 -0.002607 0.005288 0.000074 0.000000 0.000000 0.000000
# 3 -0.001474 0.000074 0.022089 0.000000 0.000000 0.000000
# 4 0.000000 0.000000 0.000000 0.017401 0.000000 0.000000
# 5 0.000000 0.000000 0.000000 0.000000 0.052733 0.000000
# 6 0.000000 0.000000 0.000000 0.000000 0.000000 0.023439
#
#
# Mechanical properties :
#
#
# Convention : Reuss Voigt Hill
#
# Bulk Modulus (GPa) = 37.18564 69.71233 53.44899
# Shear Modulus (GPa) = 34.37473 46.61247 40.49360
#
# Velocity S-wave (km/s) = 3.78589 4.40859 4.10905
# Velocity P-wave (km/s) = 5.88351 7.41496 6.69318
#
# Compressibility (1/GPa) = 0.02689210
#
# Stress axis : x y z
#
# Youngs Moduli (GPa) = 132.82052 189.12128 45.27095
#
# Poissons Ratio (x) = 0.49303 0.06673
# Poissons Ratio (y) = 0.34625 -0.00336
# Poissons Ratio (z) = 0.19579 -0.01403
#
# Static dielectric constant tensor:
#      x y z
#    x 2.092000 0.000000 0.000000 
#    y 0.000000 1.953750 0.000000 
#    z 0.000000 0.000000 2.081280 
# 
# From -- ./inp_files/16643.got.cif
#   From: 2010.05.17/outbox.cif.g08.bks.cpg/sg54_9_cif.got.tgz:16643.got - 2010.06.03 13:09:01.
