data_PCOD9423331
_publ_section_title
;
Structure prediction by ZEFSAII (Michael W. Deem and Ramdas Pophale) SiO2 
 PCOD9423331
Probable space group: P C C A
;
_chemical_formula_sum "Si O2"
_cell_formula_units_Z 32
_cell_length_a 21.974496
_cell_length_b 4.587105
_cell_length_c 11.651629
_cell_angle_alpha 90.000000
_cell_angle_beta 90.000000
_cell_angle_gamma 90.000000
_cell_volume 1174.476286
_symmetry_space_group_name_H-M "P C C A"
_symmetry_group_IT_number 54
_symmetry_cell_setting 'orthorhombic'
loop_
_space_group_symop_operation_xyz
x,y,z
1/2-x,-y,z
1/2+x,-y,1/2-z
-x,y,1/2-z
-x,-y,-z
1/2+x,y,-z
1/2-x,y,1/2+z
x,-y,1/2+z
loop_
_atom_site_type_symbol
_atom_site_label
_atom_site_fract_x
_atom_site_fract_y
_atom_site_fract_z
Si Si1 0.494785 0.341189 0.378416
Si Si2 0.131948 0.402265 0.781359
Si Si3 0.206792 0.741140 0.962145
Si Si4 0.113249 0.942414 0.624081
O O1 0.500000 0.484185 0.250000
O O2 0.500000 0.500000 0.500000
O O3 0.422568 0.298739 0.366641
O O4 0.543699 0.074300 0.377757
O O5 0.150182 0.102667 0.725165
O O6 0.114215 0.609901 0.669666
O O7 0.179909 0.559280 0.858514
O O8 0.250000 0.500000 0.029127
O O9 0.150405 0.915849 0.020060
O O10 0.250000 0.000000 0.927612
#
# Coordination Sequence:
#
# PCOD9423331 Si02
#       4
#     8   8   8   8
#     4  10  22  46  74 108 144 190 242 306 382 450
#     4  11  25  46  72 106 146 193 243 314 380 452
#     4  12  26  45  72 106 142 199 254 310 370 448
#     4  11  25  46  72 106 146 193 243 314 380 452
#
# _framework density 27.246189999999999
#
# number of rings (size 3 to 8) (size 9 to 14) (size 15 to 20)
#    0.000    1.000    2.500    3.000    0.000   15.000 
#    4.500   10.000    0.000    0.000    0.000    0.000 
#    0.000    0.000    0.000    0.000    0.000    0.000 
#
# Total GULP energy -178437.502283 kJ/mol
# GULP energy per Si atom -5576.171946 kJ/mol
# Density = 2.718418 g / cm^3
# Si number density = 27.246190 Si / 1000 Ang^3
#
#
#
# Elastic Constant Matrix: (Units=GPa)
#
#
# Indices 1 2 3 4 5 6 
#
# 1 135.1094 56.9502 33.9117 0.0000 0.0000 0.0000
# 2 56.9502 128.2460 28.1455 0.0000 0.0000 0.0000
# 3 33.9117 28.1455 117.1594 0.0000 0.0000 0.0000
# 4 0.0000 0.0000 0.0000 38.1493 0.0000 0.0000
# 5 0.0000 0.0000 0.0000 0.0000 2.8457 0.0000
# 6 0.0000 0.0000 0.0000 0.0000 0.0000 56.6619
#
#
#
# Elastic Compliance Matrix: (Units=1/GPa)
#
#
# Indices 1 2 3 4 5 6 
#
# 1 0.009462 -0.003801 -0.001826 0.000000 0.000000 0.000000
# 2 -0.003801 0.009758 -0.001244 0.000000 0.000000 0.000000
# 3 -0.001826 -0.001244 0.009363 0.000000 0.000000 0.000000
# 4 0.000000 0.000000 0.000000 0.026213 0.000000 0.000000
# 5 0.000000 0.000000 0.000000 0.000000 0.351410 0.000000
# 6 0.000000 0.000000 0.000000 0.000000 0.000000 0.017649
#
#
# Mechanical properties :
#
#
# Convention : Reuss Voigt Hill
#
# Bulk Modulus (GPa) = 67.37858 68.72549 68.05204
# Shear Modulus (GPa) = 11.29834 36.96519 24.13177
#
# Velocity S-wave (km/s) = 2.03857 3.68735 2.97929
# Velocity P-wave (km/s) = 5.50675 6.58843 6.07172
#
# Compressibility (1/GPa) = 0.01484151
#
# Stress axis : x y z
#
# Youngs Moduli (GPa) = 105.68807 102.47494 106.80726
#
# Poissons Ratio (x) = 0.38951 0.19498
# Poissons Ratio (y) = 0.40173 0.13288
# Poissons Ratio (z) = 0.19294 0.12749
#
# Static dielectric constant tensor:
#      x y z
#    x 2.447750 0.000000 0.000000 
#    y 0.000000 1.967660 0.000000 
#    z 0.000000 0.000000 2.370730 
# 
# From -- ./inp_files/9158.got.cif
#   From: 2010.05.17/outbox.cif.g08.bks.cpg/sg54_5_cif.got.tgz:9158.got - 2010.06.03 13:09:01.
