data_PCOD9423960
_publ_section_title
;
Structure prediction by ZEFSAII (Michael W. Deem and Ramdas Pophale) SiO2 
 PCOD9423960
Probable space group: P C C A
;
_chemical_formula_sum "Si O2"
_cell_formula_units_Z 40
_cell_length_a 13.633113
_cell_length_b 9.023375
_cell_length_c 14.304529
_cell_angle_alpha 90.000000
_cell_angle_beta 90.000000
_cell_angle_gamma 90.000000
_cell_volume 1759.695824
_symmetry_space_group_name_H-M "P C C A"
_symmetry_group_IT_number 54
_symmetry_cell_setting 'orthorhombic'
loop_
_space_group_symop_operation_xyz
x,y,z
1/2-x,-y,z
1/2+x,-y,1/2-z
-x,y,1/2-z
-x,-y,-z
1/2+x,y,-z
1/2-x,y,1/2+z
x,-y,1/2+z
loop_
_atom_site_type_symbol
_atom_site_label
_atom_site_fract_x
_atom_site_fract_y
_atom_site_fract_z
Si Si1 0.368701 0.521272 0.176960
Si Si2 0.406503 0.689880 0.007169
Si Si3 0.644070 0.582542 0.111599
Si Si4 0.455448 0.191810 0.148450
Si Si5 0.202352 0.852488 0.003189
O O1 0.250000 0.500000 0.157360
O O2 0.382274 0.576472 0.281330
O O3 0.413864 0.357394 0.166582
O O4 0.426275 0.639015 0.112573
O O5 0.409006 0.532579 0.955029
O O6 0.463892 0.796041 0.934935
O O7 0.297683 0.753661 0.021660
O O8 0.750000 0.500000 0.111917
O O9 0.643185 0.745687 0.067049
O O10 0.500000 0.141520 0.250000
O O11 0.363720 0.112664 0.095019
O O12 0.250000 0.000000 0.961558
#
# Coordination Sequence:
#
# PCOD9423960 Si02
#       5
#     8   8   8   8   8
#     4  11  19  37  67 105 138 174 235 309 362 414
#     4  11  21  40  69 100 141 181 236 302 358 423
#     4   9  19  36  66 100 131 180 230 290 352 412
#     4  12  24  41  72 108 142 187 242 306 370 426
#     4  11  25  45  67 102 146 194 236 292 361 441
#
# _framework density 22.731203000000001
#
# number of rings (size 3 to 8) (size 9 to 14) (size 15 to 20)
#    0.000    1.200    6.000    1.200    0.000    0.800 
#    0.000    4.000    0.000    1.200    0.000    0.000 
#    0.000    0.000    0.000    0.000    0.000    0.000 
#
# Total GULP energy -222919.856795 kJ/mol
# GULP energy per Si atom -5572.996420 kJ/mol
# Density = 2.267947 g / cm^3
# Si number density = 22.731203 Si / 1000 Ang^3
#
#
#
# Elastic Constant Matrix: (Units=GPa)
#
#
# Indices 1 2 3 4 5 6 
#
# 1 112.2416 -10.9699 52.0628 0.0000 0.0000 0.0000
# 2 -10.9699 44.3856 -2.5810 0.0000 0.0000 0.0000
# 3 52.0628 -2.5810 111.4377 0.0000 0.0000 0.0000
# 4 0.0000 0.0000 0.0000 10.0633 0.0000 0.0000
# 5 0.0000 0.0000 0.0000 0.0000 38.1462 0.0000
# 6 0.0000 0.0000 0.0000 0.0000 0.0000 -13.0770
#
#
#
# Elastic Compliance Matrix: (Units=1/GPa)
#
#
# Indices 1 2 3 4 5 6 
#
# 1 0.011659 0.002568 -0.005388 0.000000 0.000000 0.000000
# 2 0.002568 0.023126 -0.000664 0.000000 0.000000 0.000000
# 3 -0.005388 -0.000664 0.011475 0.000000 0.000000 0.000000
# 4 0.000000 0.000000 0.000000 0.099371 0.000000 0.000000
# 5 0.000000 0.000000 0.000000 0.000000 0.026215 0.000000
# 6 0.000000 0.000000 0.000000 0.000000 0.000000 -0.076470
#
#
# Mechanical properties :
#
#
# Convention : Reuss Voigt Hill
#
# Bulk Modulus (GPa) = 25.44957 38.34319 31.89638
# Shear Modulus (GPa) = 43.31209 22.33006 32.82107
#
# Velocity S-wave (km/s) = 4.36983 3.13765 3.80396
# Velocity P-wave (km/s) = 6.05646 5.48007 5.77546
#
# Compressibility (1/GPa) = 0.03929340
#
# Stress axis : x y z
#
# Youngs Moduli (GPa) = 85.76752 43.24148 87.14350
#
# Poissons Ratio (x) = -0.11106 0.46950
# Poissons Ratio (y) = -0.22028 0.05789
# Poissons Ratio (z) = 0.46209 0.02872
#
# Static dielectric constant tensor:
#      x y z
#    x 2.072480 0.000000 0.000000 
#    y 0.000000 1.843690 0.000000 
#    z 0.000000 0.000000 1.829860 
# 
# From -- ./inp_files/13187.got.cif
#   From: 2010.05.17/outbox.cif.g08.bks.cpg/sg54_7_cif.got.tgz:13187.got - 2010.06.03 13:09:01.
