data_PCOD9423797
_publ_section_title
;
Structure prediction by ZEFSAII (Michael W. Deem and Ramdas Pophale) SiO2 
 PCOD9423797
Probable space group: P C C A
;
_chemical_formula_sum "Si O2"
_cell_formula_units_Z 24
_cell_length_a 4.917204
_cell_length_b 16.036776
_cell_length_c 11.882068
_cell_angle_alpha 90.000000
_cell_angle_beta 90.000000
_cell_angle_gamma 90.000000
_cell_volume 936.973532
_symmetry_space_group_name_H-M "P C C A"
_symmetry_group_IT_number 54
_symmetry_cell_setting 'orthorhombic'
loop_
_space_group_symop_operation_xyz
x,y,z
1/2-x,-y,z
1/2+x,-y,1/2-z
-x,y,1/2-z
-x,-y,-z
1/2+x,y,-z
1/2-x,y,1/2+z
x,-y,1/2+z
loop_
_atom_site_type_symbol
_atom_site_label
_atom_site_fract_x
_atom_site_fract_y
_atom_site_fract_z
Si Si1 0.750000 0.000000 0.668416
Si Si2 0.207900 0.596864 0.575112
Si Si3 0.000000 0.285438 0.750000
Si Si4 0.169979 0.819976 0.928703
O O1 0.686164 0.081650 0.596490
O O2 0.500000 0.980356 0.750000
O O3 0.250000 0.500000 0.606752
O O4 0.400597 0.610584 0.465484
O O5 0.316602 0.654932 0.672618
O O6 0.200098 0.228141 0.824420
O O7 0.364150 0.800593 0.035124
#
# Coordination Sequence:
#
# PCOD9423797 Si02
#       4
#     4   8   4   8
#     4  12  24  48  76 104 142 200 244 292 364 432
#     4  10  24  46  71 103 140 183 234 290 356 428
#     4  12  26  46  76 108 146 188 244 296 364 430
#     4  12  27  46  72 107 148 192 240 302 359 426
#
# _framework density 25.614384000000001
#
# number of rings (size 3 to 8) (size 9 to 14) (size 15 to 20)
#    0.000    0.667    1.667    5.000    0.000    8.000 
#    0.000    0.000    0.000    0.000    0.000    0.000 
#    0.000    0.000    0.000    0.000    0.000    0.000 
#
# Total GULP energy -134971.697694 kJ/mol
# GULP energy per Si atom -5623.820737 kJ/mol
# Density = 2.555608 g / cm^3
# Si number density = 25.614384 Si / 1000 Ang^3
#
#
#
# Elastic Constant Matrix: (Units=GPa)
#
#
# Indices 1 2 3 4 5 6 
#
# 1 99.3645 1.7776 3.4782 0.0000 0.0000 0.0000
# 2 1.7776 160.7550 59.5965 0.0000 0.0000 0.0000
# 3 3.4782 59.5965 90.2443 0.0000 0.0000 0.0000
# 4 0.0000 0.0000 0.0000 18.4235 0.0000 0.0000
# 5 0.0000 0.0000 0.0000 0.0000 35.3271 0.0000
# 6 0.0000 0.0000 0.0000 0.0000 0.0000 41.0706
#
#
#
# Elastic Compliance Matrix: (Units=1/GPa)
#
#
# Indices 1 2 3 4 5 6 
#
# 1 0.010078 0.000043 -0.000417 0.000000 0.000000 0.000000
# 2 0.000043 0.008238 -0.005442 0.000000 0.000000 0.000000
# 3 -0.000417 -0.005442 0.014691 0.000000 0.000000 0.000000
# 4 0.000000 0.000000 0.000000 0.054279 0.000000 0.000000
# 5 0.000000 0.000000 0.000000 0.000000 0.028307 0.000000
# 6 0.000000 0.000000 0.000000 0.000000 0.000000 0.024348
#
#
# Mechanical properties :
#
#
# Convention : Reuss Voigt Hill
#
# Bulk Modulus (GPa) = 46.78323 53.34093 50.06208
# Shear Modulus (GPa) = 31.50682 37.99833 34.75258
#
# Velocity S-wave (km/s) = 3.51100 3.85577 3.68742
# Velocity P-wave (km/s) = 5.89409 6.37906 6.14136
#
# Compressibility (1/GPa) = 0.02137518
#
# Stress axis : x y z
#
# Youngs Moduli (GPa) = 99.22820 121.39532 68.07016
#
# Poissons Ratio (x) = -0.00523 0.02838
# Poissons Ratio (y) = -0.00428 0.37041
# Poissons Ratio (z) = 0.04137 0.66059
#
# Static dielectric constant tensor:
#      x y z
#    x 1.922900 0.000000 0.000000 
#    y 0.000000 2.015010 0.000000 
#    z 0.000000 0.000000 1.980510 
# 
# From -- ./inp_files/6197.got.cif
#   From: 2010.05.17/outbox.cif.g08.bks.cpg/sg54_4_cif.got.tgz:6197.got - 2010.06.03 13:09:01.
