data_PCOD9423501
_publ_section_title
;
Structure prediction by ZEFSAII (Michael W. Deem and Ramdas Pophale) SiO2 
 PCOD9423501
Probable space group: P C C A
;
_chemical_formula_sum "Si O2"
_cell_formula_units_Z 32
_cell_length_a 21.972135
_cell_length_b 5.056457
_cell_length_c 10.656225
_cell_angle_alpha 90.000000
_cell_angle_beta 90.000000
_cell_angle_gamma 90.000000
_cell_volume 1183.918914
_symmetry_space_group_name_H-M "P C C A"
_symmetry_group_IT_number 54
_symmetry_cell_setting 'orthorhombic'
loop_
_space_group_symop_operation_xyz
x,y,z
1/2-x,-y,z
1/2+x,-y,1/2-z
-x,y,1/2-z
-x,-y,-z
1/2+x,y,-z
1/2-x,y,1/2+z
x,-y,1/2+z
loop_
_atom_site_type_symbol
_atom_site_label
_atom_site_fract_x
_atom_site_fract_y
_atom_site_fract_z
Si Si1 0.443091 0.667777 0.543492
Si Si2 0.250000 0.500000 0.749653
Si Si3 0.543725 0.037244 0.188717
Si Si4 0.750000 0.000000 0.430326
Si Si5 0.651350 0.333270 0.075457
O O1 0.500000 0.500000 0.500000
O O2 0.434330 0.886226 0.437647
O O3 0.384742 0.479589 0.537607
O O4 0.471788 0.832898 0.658963
O O5 0.237246 0.247733 0.661882
O O6 0.306165 0.467804 0.845412
O O7 0.500000 0.792718 0.250000
O O8 0.601952 0.237098 0.176687
O O9 0.694953 0.890688 0.516251
#
# Coordination Sequence:
#
# PCOD9423501 Si02
#       5
#     8   4   8   4   8
#     4   9  22  44  67 104 151 198 249 332 399 459
#     4  12  30  50  80 118 154 228 270 332 418 482
#     4  10  23  43  76 110 149 204 262 329 409 493
#     4  12  30  50  80 116 162 216 274 340 412 480
#     4  11  27  49  75 111 165 199 280 333 399 501
#
# _framework density 27.028880999999998
#
# number of rings (size 3 to 8) (size 9 to 14) (size 15 to 20)
#    0.000    1.500    0.000    1.500   14.000    8.000 
#    0.000    0.000    0.000    0.000    0.000    0.000 
#    0.000    0.000    0.000    0.000    0.000    0.000 
#
# Total GULP energy -178343.233189 kJ/mol
# GULP energy per Si atom -5573.226037 kJ/mol
# Density = 2.696736 g / cm^3
# Si number density = 27.028881 Si / 1000 Ang^3
#
#
#
# Elastic Constant Matrix: (Units=GPa)
#
#
# Indices 1 2 3 4 5 6 
#
# 1 186.1158 58.9625 40.0173 0.0000 0.0000 0.0000
# 2 58.9625 134.9989 49.8007 0.0000 0.0000 0.0000
# 3 40.0173 49.8007 87.6309 0.0000 0.0000 0.0000
# 4 0.0000 0.0000 0.0000 38.0556 0.0000 0.0000
# 5 0.0000 0.0000 0.0000 0.0000 66.5127 0.0000
# 6 0.0000 0.0000 0.0000 0.0000 0.0000 63.7297
#
#
#
# Elastic Compliance Matrix: (Units=1/GPa)
#
#
# Indices 1 2 3 4 5 6 
#
# 1 0.006429 -0.002182 -0.001696 0.000000 0.000000 0.000000
# 2 -0.002182 0.010113 -0.004751 0.000000 0.000000 0.000000
# 3 -0.001696 -0.004751 0.014886 0.000000 0.000000 0.000000
# 4 0.000000 0.000000 0.000000 0.026277 0.000000 0.000000
# 5 0.000000 0.000000 0.000000 0.000000 0.015035 0.000000
# 6 0.000000 0.000000 0.000000 0.000000 0.000000 0.015691
#
#
# Mechanical properties :
#
#
# Convention : Reuss Voigt Hill
#
# Bulk Modulus (GPa) = 70.56978 78.47852 74.52415
# Shear Modulus (GPa) = 45.28492 50.99060 48.13776
#
# Velocity S-wave (km/s) = 4.09764 4.34812 4.22474
# Velocity P-wave (km/s) = 6.96802 7.36928 7.17146
#
# Compressibility (1/GPa) = 0.01417037
#
# Stress axis : x y z
#
# Youngs Moduli (GPa) = 155.54570 98.88058 67.17892
#
# Poissons Ratio (x) = 0.21580 0.11391
# Poissons Ratio (y) = 0.33947 0.31915
# Poissons Ratio (z) = 0.26374 0.46975
#
# Static dielectric constant tensor:
#      x y z
#    x 2.033230 0.000000 0.000000 
#    y 0.000000 2.167430 0.000000 
#    z 0.000000 0.000000 1.956980 
# 
# From -- ./inp_files/9290.got.cif
#   From: 2010.05.17/outbox.cif.g08.bks.cpg/sg54_5_cif.got.tgz:9290.got - 2010.06.03 13:09:01.
