data_PCOD9423080
_publ_section_title
;
Structure prediction by ZEFSAII (Michael W. Deem and Ramdas Pophale) SiO2 
 PCOD9423080
Probable space group: P C C A
;
_chemical_formula_sum "Si O2"
_cell_formula_units_Z 32
_cell_length_a 12.001594
_cell_length_b 7.679680
_cell_length_c 13.934495
_cell_angle_alpha 90.000000
_cell_angle_beta 90.000000
_cell_angle_gamma 90.000000
_cell_volume 1284.320129
_symmetry_space_group_name_H-M "P C C A"
_symmetry_group_IT_number 54
_symmetry_cell_setting 'orthorhombic'
loop_
_space_group_symop_operation_xyz
x,y,z
1/2-x,-y,z
1/2+x,-y,1/2-z
-x,y,1/2-z
-x,-y,-z
1/2+x,y,-z
1/2-x,y,1/2+z
x,-y,1/2+z
loop_
_atom_site_type_symbol
_atom_site_label
_atom_site_fract_x
_atom_site_fract_y
_atom_site_fract_z
Si Si1 0.243700 0.195518 0.234939
Si Si2 0.604621 0.893421 0.585233
Si Si3 0.560089 0.398467 0.351664
Si Si4 0.950737 0.781264 0.889464
O O1 0.300859 0.174331 0.340556
O O2 0.316164 0.334012 0.175429
O O3 0.115396 0.231194 0.211704
O O4 0.250000 0.000000 0.196980
O O5 0.498941 0.768297 0.602237
O O6 0.628767 0.860202 0.473863
O O7 0.556392 0.087186 0.606193
O O8 0.500000 0.419852 0.250000
O O9 0.537075 0.575741 0.408293
#
# Coordination Sequence:
#
# PCOD9423080 Si02
#       4
#     8   8   8   8
#     4  11  23  42  70  99 142 176 227 289 344 409
#     4  10  24  45  68 102 137 182 234 284 341 416
#     4  10  22  41  69 100 136 183 227 284 347 413
#     4  11  23  44  72  98 139 186 228 284 349 410
#
# _framework density 24.915906
#
# number of rings (size 3 to 8) (size 9 to 14) (size 15 to 20)
#    0.000    1.500    2.500    1.500    3.500    1.000 
#    0.000   10.000    0.000    0.000    0.000    0.000 
#    0.000    0.000    0.000    0.000    0.000    0.000 
#
# Total GULP energy -178417.320940 kJ/mol
# GULP energy per Si atom -5575.541279 kJ/mol
# Density = 2.485920 g / cm^3
# Si number density = 24.915906 Si / 1000 Ang^3
#
#
#
# Elastic Constant Matrix: (Units=GPa)
#
#
# Indices 1 2 3 4 5 6 
#
# 1 112.5592 41.0277 37.3560 0.0000 0.0000 0.0000
# 2 41.0277 181.7943 41.2466 0.0000 0.0000 0.0000
# 3 37.3560 41.2466 142.7577 0.0000 0.0000 0.0000
# 4 0.0000 0.0000 0.0000 12.8135 0.0000 0.0000
# 5 0.0000 0.0000 0.0000 0.0000 23.2724 0.0000
# 6 0.0000 0.0000 0.0000 0.0000 0.0000 35.6895
#
#
#
# Elastic Compliance Matrix: (Units=1/GPa)
#
#
# Indices 1 2 3 4 5 6 
#
# 1 0.010267 -0.001827 -0.002159 0.000000 0.000000 0.000000
# 2 -0.001827 0.006212 -0.001317 0.000000 0.000000 0.000000
# 3 -0.002159 -0.001317 0.007950 0.000000 0.000000 0.000000
# 4 0.000000 0.000000 0.000000 0.078043 0.000000 0.000000
# 5 0.000000 0.000000 0.000000 0.000000 0.042969 0.000000
# 6 0.000000 0.000000 0.000000 0.000000 0.000000 0.028019
#
#
# Mechanical properties :
#
#
# Convention : Reuss Voigt Hill
#
# Bulk Modulus (GPa) = 72.33953 75.15242 73.74597
# Shear Modulus (GPa) = 26.50087 35.52046 31.01066
#
# Velocity S-wave (km/s) = 3.26485 3.77983 3.53173
# Velocity P-wave (km/s) = 6.58094 7.01978 6.80390
#
# Compressibility (1/GPa) = 0.01382370
#
# Stress axis : x y z
#
# Youngs Moduli (GPa) = 97.40304 160.98335 125.78414
#
# Poissons Ratio (x) = 0.29416 0.27151
# Poissons Ratio (y) = 0.17798 0.16561
# Poissons Ratio (z) = 0.21025 0.21195
#
# Static dielectric constant tensor:
#      x y z
#    x 2.579060 0.000000 0.000000 
#    y 0.000000 2.438980 0.000000 
#    z 0.000000 0.000000 2.088620 
# 
# From -- ./inp_files/12320.got.cif
#   From: 2010.05.17/outbox.cif.g08.bks.cpg/sg54_7_cif.got.tgz:12320.got - 2010.06.03 13:09:01.
