data_PCOD9423142
_publ_section_title
;
Structure prediction by ZEFSAII (Michael W. Deem and Ramdas Pophale) SiO2 
 PCOD9423142
Probable space group: P C C A
;
_chemical_formula_sum "Si O2"
_cell_formula_units_Z 64
_cell_length_a 15.331702
_cell_length_b 9.655286
_cell_length_c 20.145927
_cell_angle_alpha 90.000000
_cell_angle_beta 90.000000
_cell_angle_gamma 90.000000
_cell_volume 2982.241214
_symmetry_space_group_name_H-M "P C C A"
_symmetry_group_IT_number 54
_symmetry_cell_setting 'orthorhombic'
loop_
_space_group_symop_operation_xyz
x,y,z
1/2-x,-y,z
1/2+x,-y,1/2-z
-x,y,1/2-z
-x,-y,-z
1/2+x,y,-z
1/2-x,y,1/2+z
x,-y,1/2+z
loop_
_atom_site_type_symbol
_atom_site_label
_atom_site_fract_x
_atom_site_fract_y
_atom_site_fract_z
Si Si1 0.382907 0.156136 0.494257
Si Si2 0.365844 0.282643 0.848186
Si Si3 0.532166 0.079575 0.871480
Si Si4 0.532815 0.372672 0.455204
Si Si5 0.172382 0.920691 0.738368
Si Si6 0.452518 0.576185 0.820139
Si Si7 0.720060 0.659618 0.013328
Si Si8 0.105051 0.873481 0.350264
O O1 0.420349 0.075876 0.557434
O O2 0.462886 0.254580 0.472291
O O3 0.298881 0.246741 0.513102
O O4 0.359946 0.085128 0.423664
O O5 0.450526 0.187310 0.867864
O O6 0.316904 0.210661 0.786646
O O7 0.400051 0.433971 0.828237
O O8 0.304536 0.296383 0.911922
O O9 0.598486 0.118870 0.813635
O O10 0.494350 0.929185 0.853259
O O11 0.500000 0.500000 0.500000
O O12 0.522766 0.418314 0.379463
O O13 0.630238 0.330040 0.473107
O O14 0.250000 0.000000 0.700980
O O15 0.146149 0.039138 0.791393
O O16 0.500000 0.585912 0.750000
O O17 0.393408 0.711450 0.834479
O O18 0.750000 0.500000 0.013552
#
# Coordination Sequence:
#
# PCOD9423142 Si02
#       8
#     8   8   8   8   8   8   8   8
#     4  11  22  39  66  97 126 175 237 278 332 418
#     4  11  22  40  71  96 129 180 234 269 331 415
#     4  11  22  44  67  93 134 186 221 278 350 406
#     4  11  20  40  62  93 140 176 216 284 347 412
#     4  11  24  44  64  94 137 175 220 279 342 407
#     4  11  21  38  68 101 128 172 229 271 334 410
#     4  12  22  38  67  98 136 176 220 290 355 397
#     4  10  22  42  68  91 132 178 223 274 340 403
#
# _framework density 21.460370999999999
#
# number of rings (size 3 to 8) (size 9 to 14) (size 15 to 20)
#    0.000    1.000    3.750    4.875    0.000    0.000 
#    6.750    0.625    0.000    0.000    0.000    0.000 
#    0.000    0.000    0.000    0.000    0.000    0.000 
#
# Total GULP energy -357654.532547 kJ/mol
# GULP energy per Si atom -5588.352071 kJ/mol
# Density = 2.141153 g / cm^3
# Si number density = 21.460371 Si / 1000 Ang^3
#
#
#
# Elastic Constant Matrix: (Units=GPa)
#
#
# Indices 1 2 3 4 5 6 
#
# 1 101.7525 18.9862 8.1984 0.0000 0.0000 0.0000
# 2 18.9862 91.9258 9.0795 0.0000 0.0000 0.0000
# 3 8.1984 9.0795 90.5374 0.0000 0.0000 0.0000
# 4 0.0000 0.0000 0.0000 19.0898 0.0000 0.0000
# 5 0.0000 0.0000 0.0000 0.0000 67.9372 0.0000
# 6 0.0000 0.0000 0.0000 0.0000 0.0000 10.8311
#
#
#
# Elastic Compliance Matrix: (Units=1/GPa)
#
#
# Indices 1 2 3 4 5 6 
#
# 1 0.010269 -0.002049 -0.000724 0.000000 0.000000 0.000000
# 2 -0.002049 0.011396 -0.000957 0.000000 0.000000 0.000000
# 3 -0.000724 -0.000957 0.011207 0.000000 0.000000 0.000000
# 4 0.000000 0.000000 0.000000 0.052384 0.000000 0.000000
# 5 0.000000 0.000000 0.000000 0.000000 0.014719 0.000000
# 6 0.000000 0.000000 0.000000 0.000000 0.000000 0.092327
#
#
# Mechanical properties :
#
#
# Convention : Reuss Voigt Hill
#
# Bulk Modulus (GPa) = 39.35523 39.63821 39.49672
# Shear Modulus (GPa) = 24.01150 36.10171 30.05660
#
# Velocity S-wave (km/s) = 3.34859 4.10597 3.74647
# Velocity P-wave (km/s) = 5.77314 6.40228 6.09583
#
# Compressibility (1/GPa) = 0.02540958
#
# Stress axis : x y z
#
# Youngs Moduli (GPa) = 97.38505 87.74889 89.23188
#
# Poissons Ratio (x) = 0.17982 0.06463
# Poissons Ratio (y) = 0.19957 0.08542
# Poissons Ratio (z) = 0.07054 0.08400
#
# Static dielectric constant tensor:
#      x y z
#    x 1.794160 0.000000 0.000000 
#    y 0.000000 1.791350 0.000000 
#    z 0.000000 0.000000 1.807690 
# 
# From -- ./inp_files/21964.got.cif
#   From: 2010.05.17/outbox.cif.g08.bks.cpg/sg54_11_cif.got.tgz:21964.got - 2010.06.03 13:09:01.
