data_PCOD9423254
_publ_section_title
;
Structure prediction by ZEFSAII (Michael W. Deem and Ramdas Pophale) SiO2 
 PCOD9423254
Probable space group: P C C A
;
_chemical_formula_sum "Si O2"
_cell_formula_units_Z 36
_cell_length_a 10.012736
_cell_length_b 17.772561
_cell_length_c 8.894058
_cell_angle_alpha 90.000000
_cell_angle_beta 90.000000
_cell_angle_gamma 90.000000
_cell_volume 1582.715065
_symmetry_space_group_name_H-M "P C C A"
_symmetry_group_IT_number 54
_symmetry_cell_setting 'orthorhombic'
loop_
_space_group_symop_operation_xyz
x,y,z
1/2-x,-y,z
1/2+x,-y,1/2-z
-x,y,1/2-z
-x,-y,-z
1/2+x,y,-z
1/2-x,y,1/2+z
x,-y,1/2+z
loop_
_atom_site_type_symbol
_atom_site_label
_atom_site_fract_x
_atom_site_fract_y
_atom_site_fract_z
Si Si1 0.250000 0.500000 0.639001
Si Si2 0.155386 0.072286 0.200022
Si Si3 0.518388 0.259789 0.570279
Si Si4 0.104546 0.428624 0.372512
Si Si5 0.779059 0.825223 0.055782
O O1 0.138514 0.476556 0.517742
O O2 0.269759 0.430814 0.756112
O O3 0.232854 0.139121 0.287444
O O4 0.000000 0.061590 0.250000
O O5 0.250000 0.000000 0.214436
O O6 0.159889 0.103327 0.031414
O O7 0.500000 0.240882 0.750000
O O8 0.557181 0.347130 0.575376
O O9 0.388573 0.239260 0.473180
O O10 0.639373 0.211155 0.503725
O O11 0.000000 0.459196 0.250000
#
# Coordination Sequence:
#
# PCOD9423254 Si02
#       5
#     4   8   8   8   8
#     4  10  22  44  70 102 142 192 230 306 360 418
#     4  12  28  47  72 107 143 185 237 290 353 431
#     4  11  25  45  71 103 143 182 239 298 350 429
#     4  10  23  41  70 100 142 183 244 289 357 429
#     4  12  23  49  70 100 146 180 235 297 351 416
#
# _framework density 22.745723000000002
#
# number of rings (size 3 to 8) (size 9 to 14) (size 15 to 20)
#    0.000    0.889    4.444    1.333    9.333    1.778 
#    0.000    0.000    0.000    0.000    0.000    0.000 
#    0.000    0.000    0.000    0.000    0.000    0.000 
#
# Total GULP energy -200470.244067 kJ/mol
# GULP energy per Si atom -5568.617891 kJ/mol
# Density = 2.269395 g / cm^3
# Si number density = 22.745723 Si / 1000 Ang^3
#
#
#
# Elastic Constant Matrix: (Units=GPa)
#
#
# Indices 1 2 3 4 5 6 
#
# 1 126.3982 51.3240 26.9876 0.0000 0.0000 0.0000
# 2 51.3240 97.3196 49.4895 0.0000 0.0000 0.0000
# 3 26.9876 49.4895 66.7140 0.0000 0.0000 0.0000
# 4 0.0000 0.0000 0.0000 12.1011 0.0000 0.0000
# 5 0.0000 0.0000 0.0000 0.0000 33.0451 0.0000
# 6 0.0000 0.0000 0.0000 0.0000 0.0000 30.2719
#
#
#
# Elastic Compliance Matrix: (Units=1/GPa)
#
#
# Indices 1 2 3 4 5 6 
#
# 1 0.010069 -0.005201 -0.000215 0.000000 0.000000 0.000000
# 2 -0.005201 0.019186 -0.012128 0.000000 0.000000 0.000000
# 3 -0.000215 -0.012128 0.024073 0.000000 0.000000 0.000000
# 4 0.000000 0.000000 0.000000 0.082637 0.000000 0.000000
# 5 0.000000 0.000000 0.000000 0.000000 0.030262 0.000000
# 6 0.000000 0.000000 0.000000 0.000000 0.000000 0.033034
#
#
# Mechanical properties :
#
#
# Convention : Reuss Voigt Hill
#
# Bulk Modulus (GPa) = 54.82596 60.67046 57.74821
# Shear Modulus (GPa) = 20.79605 25.92567 23.36086
#
# Velocity S-wave (km/s) = 3.02699 3.37976 3.20823
# Velocity P-wave (km/s) = 6.03101 6.47778 6.25838
#
# Compressibility (1/GPa) = 0.01823953
#
# Stress axis : x y z
#
# Youngs Moduli (GPa) = 99.31222 52.12177 41.53947
#
# Poissons Ratio (x) = 0.27108 0.00894
# Poissons Ratio (y) = 0.51651 0.50381
# Poissons Ratio (z) = 0.02137 0.63216
#
# Static dielectric constant tensor:
#      x y z
#    x 2.136700 0.000000 0.000000 
#    y 0.000000 1.862550 0.000000 
#    z 0.000000 0.000000 1.840810 
# 
# From -- ./inp_files/2480.got.cif
#   From: 2010.05.17/outbox.cif.g08.bks.cpg/sg54_2_cif.got.tgz:2480.got - 2010.06.03 13:09:01.
