data_PCOD9423204
_publ_section_title
;
Structure prediction by ZEFSAII (Michael W. Deem and Ramdas Pophale) SiO2 
 PCOD9423204
Probable space group: P C C A
;
_chemical_formula_sum "Si O2"
_cell_formula_units_Z 64
_cell_length_a 22.668887
_cell_length_b 9.215184
_cell_length_c 13.870118
_cell_angle_alpha 90.000000
_cell_angle_beta 90.000000
_cell_angle_gamma 90.000000
_cell_volume 2897.439421
_symmetry_space_group_name_H-M "P C C A"
_symmetry_group_IT_number 54
_symmetry_cell_setting 'orthorhombic'
loop_
_space_group_symop_operation_xyz
x,y,z
1/2-x,-y,z
1/2+x,-y,1/2-z
-x,y,1/2-z
-x,-y,-z
1/2+x,y,-z
1/2-x,y,1/2+z
x,-y,1/2+z
loop_
_atom_site_type_symbol
_atom_site_label
_atom_site_fract_x
_atom_site_fract_y
_atom_site_fract_z
Si Si1 0.453671 0.138230 0.334106
Si Si2 0.620541 0.476264 0.572368
Si Si3 0.255582 0.335589 0.733953
Si Si4 0.952799 0.309904 0.938457
Si Si5 0.611328 0.976682 0.003626
Si Si6 0.331977 0.262888 0.555437
Si Si7 0.125570 0.644383 0.231393
Si Si8 0.714683 0.782177 0.068474
O O1 0.500000 0.096465 0.250000
O O2 0.483682 0.265928 0.398636
O O3 0.431611 0.018024 0.407894
O O4 0.398216 0.209513 0.281435
O O5 0.560529 0.398206 0.535705
O O6 0.635897 0.612894 0.505547
O O7 0.622812 0.526850 0.682990
O O8 0.672309 0.358185 0.555930
O O9 0.250000 0.500000 0.773418
O O10 0.307893 0.318733 0.657830
O O11 0.190185 0.320874 0.690050
O O12 0.264306 0.225940 0.821213
O O13 0.918851 0.394019 0.853722
O O14 0.920070 0.153824 0.947800
O O15 0.672977 0.916535 0.044479
O O16 0.626947 0.120448 0.943061
O O17 0.271906 0.226484 0.497661
#
# Coordination Sequence:
#
# PCOD9423204 Si02
#       8
#     8   8   8   8   8   8   8   8
#     4  10  22  43  69  90 129 180 224 281 345 396
#     4  11  21  40  64  92 132 171 220 269 330 403
#     4  12  21  36  64  94 132 174 215 263 336 403
#     4  10  24  41  69  93 127 176 227 284 339 396
#     4  11  23  43  62  98 135 172 228 276 333 412
#     4  12  23  39  62  98 139 175 215 269 334 409
#     4  11  21  40  63  94 128 169 220 266 335 399
#     4  11  22  38  60  92 132 175 211 270 330 400
#
# _framework density 22.088466
#
# number of rings (size 3 to 8) (size 9 to 14) (size 15 to 20)
#    0.000    1.000    3.750    4.125    0.000    2.500 
#    0.000    2.500    0.000    3.000    0.000    0.000 
#    0.000    0.000    0.000    0.000    0.000    0.000 
#
# Total GULP energy -357787.558659 kJ/mol
# GULP energy per Si atom -5590.430604 kJ/mol
# Density = 2.203819 g / cm^3
# Si number density = 22.088466 Si / 1000 Ang^3
#
#
#
# Elastic Constant Matrix: (Units=GPa)
#
#
# Indices 1 2 3 4 5 6 
#
# 1 55.8153 11.6278 1.8008 0.0000 0.0000 0.0000
# 2 11.6278 80.0852 16.5742 0.0000 0.0000 0.0000
# 3 1.8008 16.5742 86.4560 0.0000 0.0000 0.0000
# 4 0.0000 0.0000 0.0000 29.1253 0.0000 0.0000
# 5 0.0000 0.0000 0.0000 0.0000 39.9554 0.0000
# 6 0.0000 0.0000 0.0000 0.0000 0.0000 28.5456
#
#
#
# Elastic Compliance Matrix: (Units=1/GPa)
#
#
# Indices 1 2 3 4 5 6 
#
# 1 0.018477 -0.002711 0.000135 0.000000 0.000000 0.000000
# 2 -0.002711 0.013400 -0.002512 0.000000 0.000000 0.000000
# 3 0.000135 -0.002512 0.012045 0.000000 0.000000 0.000000
# 4 0.000000 0.000000 0.000000 0.034334 0.000000 0.000000
# 5 0.000000 0.000000 0.000000 0.000000 0.025028 0.000000
# 6 0.000000 0.000000 0.000000 0.000000 0.000000 0.035032
#
#
# Mechanical properties :
#
#
# Convention : Reuss Voigt Hill
#
# Bulk Modulus (GPa) = 29.63335 31.37356 30.50346
# Shear Modulus (GPa) = 31.30062 32.34884 31.82473
#
# Velocity S-wave (km/s) = 3.76847 3.83105 3.79989
# Velocity P-wave (km/s) = 5.69034 5.81409 5.75255
#
# Compressibility (1/GPa) = 0.03374576
#
# Stress axis : x y z
#
# Youngs Moduli (GPa) = 54.12258 74.62557 83.01907
#
# Poissons Ratio (x) = 0.20228 -0.01119
# Poissons Ratio (y) = 0.14670 0.20858
# Poissons Ratio (z) = -0.00730 0.18749
#
# Static dielectric constant tensor:
#      x y z
#    x 1.849070 0.000000 0.000000 
#    y 0.000000 1.800270 0.000000 
#    z 0.000000 0.000000 1.809230 
# 
# From -- ./inp_files/14985.got.cif
#   From: 2010.05.17/outbox.cif.g08.bks.cpg/sg54_8_cif.got.tgz:14985.got - 2010.06.03 13:09:01.
