data_PCOD9423435
_publ_section_title
;
Structure prediction by ZEFSAII (Michael W. Deem and Ramdas Pophale) SiO2 
 PCOD9423435
Probable space group: P C C A
;
_chemical_formula_sum "Si O2"
_cell_formula_units_Z 48
_cell_length_a 8.758622
_cell_length_b 10.225434
_cell_length_c 28.074329
_cell_angle_alpha 90.000000
_cell_angle_beta 90.000000
_cell_angle_gamma 90.000000
_cell_volume 2514.356871
_symmetry_space_group_name_H-M "P C C A"
_symmetry_group_IT_number 54
_symmetry_cell_setting 'orthorhombic'
loop_
_space_group_symop_operation_xyz
x,y,z
1/2-x,-y,z
1/2+x,-y,1/2-z
-x,y,1/2-z
-x,-y,-z
1/2+x,y,-z
1/2-x,y,1/2+z
x,-y,1/2+z
loop_
_atom_site_type_symbol
_atom_site_label
_atom_site_fract_x
_atom_site_fract_y
_atom_site_fract_z
Si Si1 0.069057 0.470268 0.599649
Si Si2 0.112135 0.400199 0.705233
Si Si3 0.561996 0.738385 0.060981
Si Si4 0.612730 0.900609 0.794879
Si Si5 0.069086 0.000126 0.886613
Si Si6 0.077595 0.232919 0.957881
O O1 0.250000 0.500000 0.595377
O O2 0.035923 0.438585 0.654903
O O3 0.981820 0.598332 0.581836
O O4 0.016807 0.347280 0.568291
O O5 0.250000 0.500000 0.712641
O O6 0.165608 0.249815 0.700382
O O7 0.000000 0.407981 0.750000
O O8 0.526414 0.853440 0.098433
O O9 0.741907 0.742590 0.048831
O O10 0.468895 0.765810 0.012801
O O11 0.500000 0.906607 0.750000
O O12 0.750000 0.000000 0.787241
O O13 0.523848 0.944159 0.842332
O O14 0.250000 0.000000 0.875528
O O15 0.044290 0.095977 0.931616
#
# Coordination Sequence:
#
# PCOD9423435 Si02
#       6
#     8   8   8   8   8   8
#     4  11  23  41  62  92 125 164 211 257 310 368
#     4  10  24  44  65  95 127 163 207 256 308 371
#     4  11  24  38  65  90 125 167 210 257 315 368
#     4  11  24  43  68  96 129 163 207 258 310 372
#     4  10  23  42  63  93 126 165 208 257 315 370
#     4  11  22  42  61  92 126 164 211 261 310 371
#
# _framework density 19.090367000000001
#
# number of rings (size 3 to 8) (size 9 to 14) (size 15 to 20)
#    0.000    1.333    1.667    3.000    4.667    3.333 
#    3.000    0.000    0.000    0.000    0.000    0.000 
#    0.000    0.000    0.000    0.000    0.000    0.000 
#
# Total GULP energy -268390.234452 kJ/mol
# GULP energy per Si atom -5591.463218 kJ/mol
# Density = 1.904692 g / cm^3
# Si number density = 19.090367 Si / 1000 Ang^3
#
#
#
# Elastic Constant Matrix: (Units=GPa)
#
#
# Indices 1 2 3 4 5 6 
#
# 1 45.9447 36.7001 26.3803 0.0000 0.0000 0.0000
# 2 36.7001 91.8252 20.6659 0.0000 0.0000 0.0000
# 3 26.3803 20.6659 78.1537 0.0000 0.0000 0.0000
# 4 0.0000 0.0000 0.0000 26.7059 0.0000 0.0000
# 5 0.0000 0.0000 0.0000 0.0000 21.3624 0.0000
# 6 0.0000 0.0000 0.0000 0.0000 0.0000 24.0167
#
#
#
# Elastic Compliance Matrix: (Units=1/GPa)
#
#
# Indices 1 2 3 4 5 6 
#
# 1 0.037300 -0.012838 -0.009196 0.000000 0.000000 0.000000
# 2 -0.012838 0.015998 0.000103 0.000000 0.000000 0.000000
# 3 -0.009196 0.000103 0.015872 0.000000 0.000000 0.000000
# 4 0.000000 0.000000 0.000000 0.037445 0.000000 0.000000
# 5 0.000000 0.000000 0.000000 0.000000 0.046811 0.000000
# 6 0.000000 0.000000 0.000000 0.000000 0.000000 0.041638
#
#
# Mechanical properties :
#
#
# Convention : Reuss Voigt Hill
#
# Bulk Modulus (GPa) = 39.51214 42.60183 41.05698
# Shear Modulus (GPa) = 20.21324 23.22881 21.72103
#
# Velocity S-wave (km/s) = 3.25748 3.49202 3.37679
# Velocity P-wave (km/s) = 5.90683 6.21476 6.06275
#
# Compressibility (1/GPa) = 0.02530868
#
# Stress axis : x y z
#
# Youngs Moduli (GPa) = 26.80937 62.50700 63.00412
#
# Poissons Ratio (x) = 0.80249 0.57937
# Poissons Ratio (y) = 0.34419 -0.00650
# Poissons Ratio (z) = 0.24653 -0.00645
#
# Static dielectric constant tensor:
#      x y z
#    x 1.640940 0.000000 0.000000 
#    y 0.000000 1.638550 0.000000 
#    z 0.000000 0.000000 1.638350 
# 
# From -- ./inp_files/27717.got.cif
#   From: 2010.05.17/outbox.cif.g08.bks.cpg/sg54_14_cif.got.tgz:27717.got - 2010.06.03 13:09:01.
