data_PCOD9423553
_publ_section_title
;
Structure prediction by ZEFSAII (Michael W. Deem and Ramdas Pophale) SiO2 
 PCOD9423553
Probable space group: P C C A
;
_chemical_formula_sum "Si O2"
_cell_formula_units_Z 56
_cell_length_a 31.355586
_cell_length_b 5.316349
_cell_length_c 14.621489
_cell_angle_alpha 90.000000
_cell_angle_beta 90.000000
_cell_angle_gamma 90.000000
_cell_volume 2437.361836
_symmetry_space_group_name_H-M "P C C A"
_symmetry_group_IT_number 54
_symmetry_cell_setting 'orthorhombic'
loop_
_space_group_symop_operation_xyz
x,y,z
1/2-x,-y,z
1/2+x,-y,1/2-z
-x,y,1/2-z
-x,-y,-z
1/2+x,y,-z
1/2-x,y,1/2+z
x,-y,1/2+z
loop_
_atom_site_type_symbol
_atom_site_label
_atom_site_fract_x
_atom_site_fract_y
_atom_site_fract_z
Si Si1 0.358328 0.858629 0.258174
Si Si2 0.985549 0.750801 0.945856
Si Si3 0.000000 0.572408 0.750000
Si Si4 0.750000 0.500000 0.020377
Si Si5 0.188647 0.866717 0.580066
Si Si6 0.410605 0.335846 0.276207
Si Si7 0.332233 0.253911 0.948251
Si Si8 0.603658 0.352520 0.012651
O O1 0.320355 0.846047 0.186029
O O2 0.382136 0.588035 0.261235
O O3 0.340444 0.913718 0.359475
O O4 0.389619 0.088610 0.232328
O O5 0.934537 0.718638 0.946308
O O6 0.003136 0.735178 0.842738
O O7 0.000000 0.500000 0.000000
O O8 0.000000 0.000000 0.000000
O O9 0.042111 0.401203 0.743316
O O10 0.728447 0.285497 0.957485
O O11 0.708361 0.574496 0.080466
O O12 0.146361 0.765225 0.528026
O O13 0.186688 0.146460 0.541664
O O14 0.411356 0.282298 0.385382
O O15 0.378742 0.364518 0.973400
#
# Coordination Sequence:
#
# PCOD9423553 Si02
#       8
#     8   8   4   4   8   8   8   8
#     4  11  26  44  74 104 142 193 241 294 360 450
#     4  12  29  46  71 108 149 198 255 314 382 442
#     4  12  28  46  76 106 156 200 254 330 372 444
#     4  10  24  44  68 110 140 188 238 296 372 440
#     4  11  23  43  74 101 146 185 239 297 367 436
#     4  11  25  46  69 105 142 190 254 294 370 432
#     4  10  23  45  73 101 143 190 236 303 360 448
#     4  10  23  46  70  97 144 190 244 298 370 433
#
# _framework density 22.975657999999999
#
# number of rings (size 3 to 8) (size 9 to 14) (size 15 to 20)
#    0.000    1.143    2.857    1.286   10.000    2.857 
#    0.000    2.857    0.000    0.000    0.000    0.000 
#    0.000    0.000    0.000    0.000    0.000    0.000 
#
# Total GULP energy -312556.131644 kJ/mol
# GULP energy per Si atom -5581.359494 kJ/mol
# Density = 2.292336 g / cm^3
# Si number density = 22.975658 Si / 1000 Ang^3
#
#
#
# Elastic Constant Matrix: (Units=GPa)
#
#
# Indices 1 2 3 4 5 6 
#
# 1 114.4898 21.1637 12.5300 0.0000 0.0000 0.0000
# 2 21.1637 82.8542 28.8422 0.0000 0.0000 0.0000
# 3 12.5300 28.8422 102.5946 0.0000 0.0000 0.0000
# 4 0.0000 0.0000 0.0000 21.2374 0.0000 0.0000
# 5 0.0000 0.0000 0.0000 0.0000 23.1385 0.0000
# 6 0.0000 0.0000 0.0000 0.0000 0.0000 25.6855
#
#
#
# Elastic Compliance Matrix: (Units=1/GPa)
#
#
# Indices 1 2 3 4 5 6 
#
# 1 0.009192 -0.002169 -0.000513 0.000000 0.000000 0.000000
# 2 -0.002169 0.013891 -0.003640 0.000000 0.000000 0.000000
# 3 -0.000513 -0.003640 0.010833 0.000000 0.000000 0.000000
# 4 0.000000 0.000000 0.000000 0.047087 0.000000 0.000000
# 5 0.000000 0.000000 0.000000 0.000000 0.043218 0.000000
# 6 0.000000 0.000000 0.000000 0.000000 0.000000 0.038932
#
#
# Mechanical properties :
#
#
# Convention : Reuss Voigt Hill
#
# Bulk Modulus (GPa) = 47.01253 47.22337 47.11795
# Shear Modulus (GPa) = 27.33929 29.83914 28.58922
#
# Velocity S-wave (km/s) = 3.45327 3.60770 3.53133
# Velocity P-wave (km/s) = 6.03377 6.16054 6.09749
#
# Compressibility (1/GPa) = 0.02127093
#
# Stress axis : x y z
#
# Youngs Moduli (GPa) = 108.79589 71.99078 92.31003
#
# Poissons Ratio (x) = 0.15617 0.04733
# Poissons Ratio (y) = 0.23602 0.33602
# Poissons Ratio (z) = 0.05578 0.26205
#
# Static dielectric constant tensor:
#      x y z
#    x 1.931780 0.000000 0.000000 
#    y 0.000000 2.093020 0.000000 
#    z 0.000000 0.000000 1.865650 
# 
# From -- ./inp_files/15409.got.cif
#   From: 2010.05.17/outbox.cif.g08.bks.cpg/sg54_8_cif.got.tgz:15409.got - 2010.06.03 13:09:01.
