data_PCOD9423867
_publ_section_title
;
Structure prediction by ZEFSAII (Michael W. Deem and Ramdas Pophale) SiO2 
 PCOD9423867
Probable space group: P C C A
;
_chemical_formula_sum "Si O2"
_cell_formula_units_Z 60
_cell_length_a 9.240861
_cell_length_b 15.441937
_cell_length_c 18.458005
_cell_angle_alpha 90.000000
_cell_angle_beta 90.000000
_cell_angle_gamma 90.000000
_cell_volume 2633.898126
_symmetry_space_group_name_H-M "P C C A"
_symmetry_group_IT_number 54
_symmetry_cell_setting 'orthorhombic'
loop_
_space_group_symop_operation_xyz
x,y,z
1/2-x,-y,z
1/2+x,-y,1/2-z
-x,y,1/2-z
-x,-y,-z
1/2+x,y,-z
1/2-x,y,1/2+z
x,-y,1/2+z
loop_
_atom_site_type_symbol
_atom_site_label
_atom_site_fract_x
_atom_site_fract_y
_atom_site_fract_z
Si Si1 0.750000 0.000000 0.672392
Si Si2 0.741111 0.351253 0.904008
Si Si3 0.009597 0.662333 0.491000
Si Si4 0.764740 0.151007 0.381046
Si Si5 0.827845 0.409136 0.241523
Si Si6 0.226905 0.280759 0.394598
Si Si7 0.029209 0.993153 0.084308
Si Si8 0.842242 0.164545 0.230015
O O1 0.620438 0.968457 0.622092
O O2 0.662506 0.062459 0.724992
O O3 0.893884 0.380786 0.936975
O O4 0.726727 0.245986 0.916801
O O5 0.723968 0.372060 0.819605
O O6 0.614178 0.390250 0.954547
O O7 0.903980 0.711736 0.547926
O O8 0.122257 0.710098 0.436990
O O9 0.904784 0.087020 0.389712
O O10 0.741029 0.180307 0.298002
O O11 0.639603 0.085928 0.404355
O O12 0.750000 0.500000 0.230810
O O13 0.792300 0.350864 0.170761
O O14 0.000000 0.418167 0.250000
O O15 0.210132 0.194867 0.347620
O O16 0.000000 0.000000 0.000000
O O17 0.000000 0.200820 0.250000
#
# Coordination Sequence:
#
# PCOD9423867 Si02
#       8
#     4   8   8   8   8   8   8   8
#     4  12  26  40  64  92 130 186 238 300 354 430
#     4  11  24  47  75 105 152 193 251 306 368 447
#     4  10  25  43  75 112 145 190 248 295 367 450
#     4  11  24  43  68  97 141 190 246 299 363 433
#     4  12  27  50  80 114 151 191 244 307 381 450
#     4  11  24  49  77 108 147 196 239 306 370 449
#     4  11  26  43  63 101 146 191 241 307 373 427
#     4  12  24  44  72  97 134 186 246 303 368 424
#
# _framework density 22.779924999999999
#
# number of rings (size 3 to 8) (size 9 to 14) (size 15 to 20)
#    0.000    0.800    4.000    2.800    5.600    2.133 
#    0.000    4.000    0.000    0.000    0.000    0.000 
#    0.000    0.000    0.000    0.000    0.000    0.000 
#
# Total GULP energy -334762.614843 kJ/mol
# GULP energy per Si atom -5579.376914 kJ/mol
# Density = 2.272808 g / cm^3
# Si number density = 22.779925 Si / 1000 Ang^3
#
#
#
# Elastic Constant Matrix: (Units=GPa)
#
#
# Indices 1 2 3 4 5 6 
#
# 1 142.2660 25.3046 56.4647 0.0000 0.0000 0.0000
# 2 25.3046 72.3593 7.5984 0.0000 0.0000 0.0000
# 3 56.4647 7.5984 156.9868 0.0000 0.0000 0.0000
# 4 0.0000 0.0000 0.0000 6.4881 0.0000 0.0000
# 5 0.0000 0.0000 0.0000 0.0000 46.8999 0.0000
# 6 0.0000 0.0000 0.0000 0.0000 0.0000 5.8760
#
#
#
# Elastic Compliance Matrix: (Units=1/GPa)
#
#
# Indices 1 2 3 4 5 6 
#
# 1 0.008705 -0.002729 -0.002999 0.000000 0.000000 0.000000
# 2 -0.002729 0.014746 0.000268 0.000000 0.000000 0.000000
# 3 -0.002999 0.000268 0.007436 0.000000 0.000000 0.000000
# 4 0.000000 0.000000 0.000000 0.154128 0.000000 0.000000
# 5 0.000000 0.000000 0.000000 0.000000 0.021322 0.000000
# 6 0.000000 0.000000 0.000000 0.000000 0.000000 0.170185
#
#
# Mechanical properties :
#
#
# Convention : Reuss Voigt Hill
#
# Bulk Modulus (GPa) = 50.08435 61.14973 55.61704
# Shear Modulus (GPa) = 12.68724 30.66910 21.67817
#
# Velocity S-wave (km/s) = 2.36254 3.67321 3.08820
# Velocity P-wave (km/s) = 5.42918 6.70014 6.09786
#
# Compressibility (1/GPa) = 0.01996632
#
# Stress axis : x y z
#
# Youngs Moduli (GPa) = 114.87996 67.81402 134.48809
#
# Poissons Ratio (x) = 0.18508 0.40330
# Poissons Ratio (y) = 0.31353 -0.03603
# Poissons Ratio (z) = 0.34450 -0.01817
#
# Static dielectric constant tensor:
#      x y z
#    x 1.887060 0.000000 0.000000 
#    y 0.000000 1.950640 0.000000 
#    z 0.000000 0.000000 1.890210 
# 
# From -- ./inp_files/16836.got.cif
#   From: 2010.05.17/outbox.cif.g08.bks.cpg/sg54_9_cif.got.tgz:16836.got - 2010.06.03 13:09:01.
