data_PCOD9423084
_publ_section_title
;
Structure prediction by ZEFSAII (Michael W. Deem and Ramdas Pophale) SiO2 
 PCOD9423084
Probable space group: P C C A
;
_chemical_formula_sum "Si O2"
_cell_formula_units_Z 48
_cell_length_a 16.762112
_cell_length_b 5.110628
_cell_length_c 24.129415
_cell_angle_alpha 90.000000
_cell_angle_beta 90.000000
_cell_angle_gamma 90.000000
_cell_volume 2067.044380
_symmetry_space_group_name_H-M "P C C A"
_symmetry_group_IT_number 54
_symmetry_cell_setting 'orthorhombic'
loop_
_space_group_symop_operation_xyz
x,y,z
1/2-x,-y,z
1/2+x,-y,1/2-z
-x,y,1/2-z
-x,-y,-z
1/2+x,y,-z
1/2-x,y,1/2+z
x,-y,1/2+z
loop_
_atom_site_type_symbol
_atom_site_label
_atom_site_fract_x
_atom_site_fract_y
_atom_site_fract_z
Si Si1 0.334138 0.658278 0.630720
Si Si2 0.694381 0.753558 0.989959
Si Si3 0.423919 0.058857 0.342827
Si Si4 0.154198 0.558746 0.896516
Si Si5 0.947743 0.330029 0.304109
Si Si6 0.667371 0.978791 0.758236
O O1 0.250000 0.500000 0.627881
O O2 0.342590 0.796458 0.570825
O O3 0.416839 0.508870 0.645817
O O4 0.322339 0.838812 0.683734
O O5 0.750000 0.500000 0.984526
O O6 0.750000 0.000000 0.005031
O O7 0.639379 0.671496 0.041417
O O8 0.372772 0.800529 0.358471
O O9 0.510400 0.926863 0.331689
O O10 0.398154 0.300091 0.382106
O O11 0.395789 0.150042 0.282119
O O12 0.250000 0.500000 0.891245
O O13 0.000000 0.404252 0.250000
O O14 0.864815 0.259760 0.274728
O O15 0.750000 0.000000 0.727504
#
# Coordination Sequence:
#
# PCOD9423084 Si02
#       6
#     8   8   8   8   8   8
#     4  11  23  40  72 100 132 176 237 285 338 411
#     4  10  22  41  70 102 134 174 231 296 341 395
#     4  11  26  41  67  99 142 179 223 283 354 420
#     4  11  22  44  68  98 132 182 232 281 341 414
#     4  10  25  43  60  98 141 184 215 285 355 418
#     4  11  22  39  65  97 130 176 232 284 339 411
#
# _framework density 23.221563
#
# number of rings (size 3 to 8) (size 9 to 14) (size 15 to 20)
#    0.000    1.333    1.667    4.000    9.333    1.333 
#    0.000    1.667    0.000    0.000    0.000    0.000 
#    0.000    0.000    0.000    0.000    0.000    0.000 
#
# Total GULP energy -267579.732263 kJ/mol
# GULP energy per Si atom -5574.577755 kJ/mol
# Density = 2.316871 g / cm^3
# Si number density = 23.221563 Si / 1000 Ang^3
#
#
#
# Elastic Constant Matrix: (Units=GPa)
#
#
# Indices 1 2 3 4 5 6 
#
# 1 98.3688 38.6345 13.5627 0.0000 0.0000 0.0000
# 2 38.6345 126.4578 30.2432 0.0000 0.0000 0.0000
# 3 13.5627 30.2432 121.1784 0.0000 0.0000 0.0000
# 4 0.0000 0.0000 0.0000 35.0397 0.0000 0.0000
# 5 0.0000 0.0000 0.0000 0.0000 8.9690 0.0000
# 6 0.0000 0.0000 0.0000 0.0000 0.0000 50.2181
#
#
#
# Elastic Compliance Matrix: (Units=1/GPa)
#
#
# Indices 1 2 3 4 5 6 
#
# 1 0.011574 -0.003431 -0.000439 0.000000 0.000000 0.000000
# 2 -0.003431 0.009427 -0.001969 0.000000 0.000000 0.000000
# 3 -0.000439 -0.001969 0.008793 0.000000 0.000000 0.000000
# 4 0.000000 0.000000 0.000000 0.028539 0.000000 0.000000
# 5 0.000000 0.000000 0.000000 0.000000 0.111495 0.000000
# 6 0.000000 0.000000 0.000000 0.000000 0.000000 0.019913
#
#
# Mechanical properties :
#
#
# Convention : Reuss Voigt Hill
#
# Bulk Modulus (GPa) = 55.19998 56.76509 55.98253
# Shear Modulus (GPa) = 24.10145 36.41633 30.25889
#
# Velocity S-wave (km/s) = 3.22513 3.96436 3.61370
# Velocity P-wave (km/s) = 6.13932 6.74188 6.44764
#
# Compressibility (1/GPa) = 0.01811595
#
# Stress axis : x y z
#
# Youngs Moduli (GPa) = 86.40142 106.08047 113.72962
#
# Poissons Ratio (x) = 0.36396 0.04994
# Poissons Ratio (y) = 0.29644 0.22390
# Poissons Ratio (z) = 0.03794 0.20884
#
# Static dielectric constant tensor:
#      x y z
#    x 1.943030 0.000000 0.000000 
#    y 0.000000 1.962970 0.000000 
#    z 0.000000 0.000000 1.917740 
# 
# From -- ./inp_files/24598.got.cif
#   From: 2010.05.17/outbox.cif.g08.bks.cpg/sg54_13_cif.got.tgz:24598.got - 2010.06.03 13:09:01.
