data_PCOD9423596
_publ_section_title
;
Structure prediction by ZEFSAII (Michael W. Deem and Ramdas Pophale) SiO2 
 PCOD9423596
Probable space group: P C C A
;
_chemical_formula_sum "Si O2"
_cell_formula_units_Z 60
_cell_length_a 23.687692
_cell_length_b 14.835338
_cell_length_c 8.509516
_cell_angle_alpha 90.000000
_cell_angle_beta 90.000000
_cell_angle_gamma 90.000000
_cell_volume 2990.370861
_symmetry_space_group_name_H-M "P C C A"
_symmetry_group_IT_number 54
_symmetry_cell_setting 'orthorhombic'
loop_
_space_group_symop_operation_xyz
x,y,z
1/2-x,-y,z
1/2+x,-y,1/2-z
-x,y,1/2-z
-x,-y,-z
1/2+x,y,-z
1/2-x,y,1/2+z
x,-y,1/2+z
loop_
_atom_site_type_symbol
_atom_site_label
_atom_site_fract_x
_atom_site_fract_y
_atom_site_fract_z
Si Si1 0.698664 0.613844 0.530539
Si Si2 0.679117 0.423248 0.396638
Si Si3 0.830836 0.788467 0.849349
Si Si4 0.792293 0.869818 0.358076
Si Si5 0.750000 0.000000 0.619175
Si Si6 0.879250 0.261628 0.007224
Si Si7 0.542297 0.889403 0.021632
Si Si8 0.077548 0.935025 0.621584
O O1 0.674726 0.528758 0.433278
O O2 0.765506 0.612692 0.490510
O O3 0.671681 0.707036 0.473273
O O4 0.689870 0.594463 0.713543
O O5 0.627133 0.364465 0.458283
O O6 0.766640 0.819313 0.824961
O O7 0.856174 0.753897 0.684199
O O8 0.867340 0.874571 0.905806
O O9 0.782956 0.928499 0.514296
O O10 0.794985 0.945036 0.223187
O O11 0.839303 0.796230 0.390064
O O12 0.939188 0.212868 0.996530
O O13 0.560727 0.916966 0.198002
O O14 0.475230 0.902394 0.014124
O O15 0.576907 0.958339 0.911180
#
# Coordination Sequence:
#
# PCOD9423596 Si02
#       8
#     8   8   8   8   4   8   8   8
#     4  11  22  37  57  81 112 145 179 223 273 331
#     4  11  22  37  57  81 112 145 179 223 273 331
#     4  11  22  35  55  80 111 144 184 226 272 329
#     4  11  22  34  47  74 106 146 179 220 261 326
#     4  10  24  34  44  66 112 150 180 210 268 320
#     4  11  22  35  55  80 111 144 184 226 272 329
#     4   9  20  37  56  79 109 148 190 231 273 318
#     4   9  20  37  56  79 109 148 190 231 273 318
#
# _framework density 20.064399999999999
#
# number of rings (size 3 to 8) (size 9 to 14) (size 15 to 20)
#    0.000    1.600    2.667    3.200    5.600    1.067 
#    0.000    0.000    0.000    0.800    0.000    0.000 
#    0.000    0.000    0.000    0.000    0.000    0.000 
#
# Total GULP energy -335402.908074 kJ/mol
# GULP energy per Si atom -5590.048468 kJ/mol
# Density = 2.001873 g / cm^3
# Si number density = 20.064400 Si / 1000 Ang^3
#
#
#
# Elastic Constant Matrix: (Units=GPa)
#
#
# Indices 1 2 3 4 5 6 
#
# 1 31.1573 0.9190 -9.1992 0.0000 0.0000 0.0000
# 2 0.9190 69.9173 9.3829 0.0000 0.0000 0.0000
# 3 -9.1992 9.3829 74.7278 0.0000 0.0000 0.0000
# 4 0.0000 0.0000 0.0000 30.8284 0.0000 0.0000
# 5 0.0000 0.0000 0.0000 0.0000 -7.6561 0.0000
# 6 0.0000 0.0000 0.0000 0.0000 0.0000 29.0614
#
#
#
# Elastic Compliance Matrix: (Units=1/GPa)
#
#
# Indices 1 2 3 4 5 6 
#
# 1 0.033375 -0.001007 0.004235 0.000000 0.000000 0.000000
# 2 -0.001007 0.014578 -0.001954 0.000000 0.000000 0.000000
# 3 0.004235 -0.001954 0.014149 0.000000 0.000000 0.000000
# 4 0.000000 0.000000 0.000000 0.032438 0.000000 0.000000
# 5 0.000000 0.000000 0.000000 0.000000 -0.130615 0.000000
# 6 0.000000 0.000000 0.000000 0.000000 0.000000 0.034410
#
#
# Mechanical properties :
#
#
# Convention : Reuss Voigt Hill
#
# Bulk Modulus (GPa) = 15.46808 19.77866 17.62337
# Shear Modulus (GPa) = 288.40380 22.09340 155.24860
#
# Velocity S-wave (km/s) = 12.00213 3.32192 8.80586
# Velocity P-wave (km/s) = 14.13485 4.95908 10.59213
#
# Compressibility (1/GPa) = 0.06464927
#
# Stress axis : x y z
#
# Youngs Moduli (GPa) = 29.96224 68.59593 70.67816
#
# Poissons Ratio (x) = 0.06908 -0.29933
# Poissons Ratio (y) = 0.03017 0.13813
# Poissons Ratio (z) = -0.12689 0.13407
#
# Static dielectric constant tensor:
#      x y z
#    x 1.731920 0.000000 0.000000 
#    y 0.000000 1.726440 0.000000 
#    z 0.000000 0.000000 1.736550 
# 
# From -- ./inp_files/5270.got.cif
#   From: 2010.05.17/outbox.cif.g08.bks.cpg/sg54_3_cif.got.tgz:5270.got - 2010.06.03 13:09:01.
