data_PCOD9423861
_publ_section_title
;
Structure prediction by ZEFSAII (Michael W. Deem and Ramdas Pophale) SiO2 
 PCOD9423861
Probable space group: P C C A
;
_chemical_formula_sum "Si O2"
_cell_formula_units_Z 56
_cell_length_a 12.032800
_cell_length_b 10.896751
_cell_length_c 19.753084
_cell_angle_alpha 90.000000
_cell_angle_beta 90.000000
_cell_angle_gamma 90.000000
_cell_volume 2589.993272
_symmetry_space_group_name_H-M "P C C A"
_symmetry_group_IT_number 54
_symmetry_cell_setting 'orthorhombic'
loop_
_space_group_symop_operation_xyz
x,y,z
1/2-x,-y,z
1/2+x,-y,1/2-z
-x,y,1/2-z
-x,-y,-z
1/2+x,y,-z
1/2-x,y,1/2+z
x,-y,1/2+z
loop_
_atom_site_type_symbol
_atom_site_label
_atom_site_fract_x
_atom_site_fract_y
_atom_site_fract_z
Si Si1 0.450607 0.250510 0.173801
Si Si2 0.000000 0.132145 0.250000
Si Si3 0.532445 0.528893 0.329633
Si Si4 0.802738 0.372131 0.132859
Si Si5 0.507031 0.002162 0.383123
Si Si6 0.750000 0.000000 0.926887
Si Si7 0.311330 0.881195 0.443143
Si Si8 0.791167 0.301583 0.285227
O O1 0.500000 0.236740 0.250000
O O2 0.470794 0.388292 0.148109
O O3 0.500793 0.148722 0.123936
O O4 0.317100 0.240505 0.182807
O O5 0.104994 0.212860 0.228581
O O6 0.963345 0.050752 0.187404
O O7 0.500000 0.525686 0.250000
O O8 0.435635 0.606999 0.363989
O O9 0.652428 0.592356 0.330618
O O10 0.750000 0.500000 0.107617
O O11 0.785044 0.246895 0.091841
O O12 0.759910 0.353001 0.210343
O O13 0.637833 0.976068 0.387530
O O14 0.439073 0.926230 0.438687
O O15 0.726758 0.888143 0.979199
O O16 0.250000 0.000000 0.409937
#
# Coordination Sequence:
#
# PCOD9423861 Si02
#       8
#     8   4   8   8   8   4   8   8
#     4  11  23  32  58  94 136 172 205 263 322 408
#     4  12  22  36  64  96 136 170 202 280 338 392
#     4   9  18  34  53  85 132 179 206 253 329 393
#     4  11  20  35  65  93 126 166 224 271 316 388
#     4  12  23  43  62 100 132 166 222 269 336 389
#     4  10  26  46  70  86 124 186 216 274 322 396
#     4  10  25  42  68  93 123 174 229 271 321 383
#     4  11  19  37  54  90 138 178 213 251 339 404
#
# _framework density 21.621676999999998
#
# number of rings (size 3 to 8) (size 9 to 14) (size 15 to 20)
#    0.429    0.857    4.286    4.286    4.000    0.000 
#    1.286    0.000    0.000    6.857    0.000    0.000 
#    0.000    0.000    0.000    0.000    0.000    0.000 
#
# Total GULP energy -312663.098914 kJ/mol
# GULP energy per Si atom -5583.269623 kJ/mol
# Density = 2.157247 g / cm^3
# Si number density = 21.621677 Si / 1000 Ang^3
#
#
#
# Elastic Constant Matrix: (Units=GPa)
#
#
# Indices 1 2 3 4 5 6 
#
# 1 84.6042 25.1740 -5.0641 0.0000 0.0000 0.0000
# 2 25.1740 147.1063 26.4411 0.0000 0.0000 0.0000
# 3 -5.0641 26.4411 26.3196 0.0000 0.0000 0.0000
# 4 0.0000 0.0000 0.0000 0.0631 0.0000 0.0000
# 5 0.0000 0.0000 0.0000 0.0000 18.0085 0.0000
# 6 0.0000 0.0000 0.0000 0.0000 0.0000 11.5891
#
#
#
# Elastic Compliance Matrix: (Units=1/GPa)
#
#
# Indices 1 2 3 4 5 6 
#
# 1 0.013152 -0.003302 0.005848 0.000000 0.000000 0.000000
# 2 -0.003302 0.009125 -0.009802 0.000000 0.000000 0.000000
# 3 0.005848 -0.009802 0.048967 0.000000 0.000000 0.000000
# 4 0.000000 0.000000 0.000000 15.843246 0.000000 0.000000
# 5 0.000000 0.000000 0.000000 0.000000 0.055529 0.000000
# 6 0.000000 0.000000 0.000000 0.000000 0.000000 0.086288
#
#
# Mechanical properties :
#
#
# Convention : Reuss Voigt Hill
#
# Bulk Modulus (GPa) = 17.62692 39.01466 28.32079
# Shear Modulus (GPa) = 0.31076 20.03076 10.17076
#
# Velocity S-wave (km/s) = 0.37952 3.04702 2.17122
# Velocity P-wave (km/s) = 2.89174 5.51928 4.40594
#
# Compressibility (1/GPa) = 0.05673142
#
# Stress axis : x y z
#
# Youngs Moduli (GPa) = 76.03283 109.59291 20.42192
#
# Poissons Ratio (x) = 0.36185 -0.11942
# Poissons Ratio (y) = 0.25104 0.20018
# Poissons Ratio (z) = -0.44461 1.07424
#
# Static dielectric constant tensor:
#      x y z
#    x 1.852510 0.000000 0.000000 
#    y 0.000000 1.841690 0.000000 
#    z 0.000000 0.000000 1.802440 
# 
# From -- ./inp_files/24223.got.cif
#   From: 2010.05.17/outbox.cif.g08.bks.cpg/sg54_13_cif.got.tgz:24223.got - 2010.06.03 13:09:01.
