data_PCOD9423691
_publ_section_title
;
Structure prediction by ZEFSAII (Michael W. Deem and Ramdas Pophale) SiO2 
 PCOD9423691
Probable space group: P C C A
;
_chemical_formula_sum "Si O2"
_cell_formula_units_Z 32
_cell_length_a 10.434307
_cell_length_b 10.183683
_cell_length_c 13.627856
_cell_angle_alpha 90.000000
_cell_angle_beta 90.000000
_cell_angle_gamma 90.000000
_cell_volume 1448.091547
_symmetry_space_group_name_H-M "P C C A"
_symmetry_group_IT_number 54
_symmetry_cell_setting 'orthorhombic'
loop_
_space_group_symop_operation_xyz
x,y,z
1/2-x,-y,z
1/2+x,-y,1/2-z
-x,y,1/2-z
-x,-y,-z
1/2+x,y,-z
1/2-x,y,1/2+z
x,-y,1/2+z
loop_
_atom_site_type_symbol
_atom_site_label
_atom_site_fract_x
_atom_site_fract_y
_atom_site_fract_z
Si Si1 0.342197 0.729164 0.501241
Si Si2 0.410643 0.886336 0.042194
Si Si3 0.145494 0.269054 0.735427
Si Si4 0.750000 0.000000 0.283903
Si Si5 0.750000 0.500000 0.632643
O O1 0.482463 0.773306 0.463528
O O2 0.220928 0.832074 0.491703
O O3 0.337039 0.708705 0.618984
O O4 0.321203 0.597686 0.440626
O O5 0.363882 0.950472 0.144303
O O6 0.500000 0.000000 0.000000
O O7 0.218376 0.136289 0.768813
O O8 0.176213 0.398877 0.796485
O O9 0.000000 0.234174 0.750000
#
# Coordination Sequence:
#
# PCOD9423691 Si02
#       5
#     8   8   8   4   4
#     4  11  25  44  72 106 140 190 246 288 359 440
#     4  11  19  42  74 103 136 181 235 304 353 409
#     4  11  25  46  69 102 147 185 239 302 362 426
#     4  10  24  42  72 112 140 182 248 310 354 432
#     4  12  28  44  68 104 146 200 234 292 358 442
#
# _framework density 22.098050000000001
#
# number of rings (size 3 to 8) (size 9 to 14) (size 15 to 20)
#    0.000    1.000    5.000    2.250    0.000   10.000 
#    0.000    0.000    0.000    0.000    0.000    0.000 
#    0.000    0.000    0.000    0.000    0.000    0.000 
#
# Total GULP energy -178327.059492 kJ/mol
# GULP energy per Si atom -5572.720609 kJ/mol
# Density = 2.204775 g / cm^3
# Si number density = 22.098050 Si / 1000 Ang^3
#
#
#
# Elastic Constant Matrix: (Units=GPa)
#
#
# Indices 1 2 3 4 5 6 
#
# 1 101.2874 15.6652 29.9416 0.0000 0.0000 0.0000
# 2 15.6652 102.2734 48.4575 0.0000 0.0000 0.0000
# 3 29.9416 48.4575 117.8644 0.0000 0.0000 0.0000
# 4 0.0000 0.0000 0.0000 38.3618 0.0000 0.0000
# 5 0.0000 0.0000 0.0000 0.0000 29.1374 0.0000
# 6 0.0000 0.0000 0.0000 0.0000 0.0000 -56.8053
#
#
#
# Elastic Compliance Matrix: (Units=1/GPa)
#
#
# Indices 1 2 3 4 5 6 
#
# 1 0.010690 -0.000436 -0.002537 0.000000 0.000000 0.000000
# 2 -0.000436 0.012161 -0.004889 0.000000 0.000000 0.000000
# 3 -0.002537 -0.004889 0.011139 0.000000 0.000000 0.000000
# 4 0.000000 0.000000 0.000000 0.026068 0.000000 0.000000
# 5 0.000000 0.000000 0.000000 0.000000 0.034320 0.000000
# 6 0.000000 0.000000 0.000000 0.000000 0.000000 -0.017604
#
#
# Mechanical properties :
#
#
# Convention : Reuss Voigt Hill
#
# Bulk Modulus (GPa) = 54.74250 56.61708 55.67979
# Shear Modulus (GPa) = 50.71771 17.29618 34.00694
#
# Velocity S-wave (km/s) = 4.79594 2.80072 3.92715
# Velocity P-wave (km/s) = 7.44945 6.01125 6.76866
#
# Compressibility (1/GPa) = 0.01826734
#
# Stress axis : x y z
#
# Youngs Moduli (GPa) = 93.54451 82.23098 89.77685
#
# Poissons Ratio (x) = 0.03582 0.22773
# Poissons Ratio (y) = 0.04074 0.43892
# Poissons Ratio (z) = 0.23728 0.40203
#
# Static dielectric constant tensor:
#      x y z
#    x 1.802930 0.000000 0.000000 
#    y 0.000000 1.902750 0.000000 
#    z 0.000000 0.000000 1.741760 
# 
# From -- ./inp_files/11290.got.cif
#   From: 2010.05.17/outbox.cif.g08.bks.cpg/sg54_6_cif.got.tgz:11290.got - 2010.06.03 13:09:01.
