data_PCOD9423563
_publ_section_title
;
Structure prediction by ZEFSAII (Michael W. Deem and Ramdas Pophale) SiO2 
 PCOD9423563
Probable space group: P C C A
;
_chemical_formula_sum "Si O2"
_cell_formula_units_Z 36
_cell_length_a 13.153130
_cell_length_b 10.359632
_cell_length_c 13.107716
_cell_angle_alpha 90.000000
_cell_angle_beta 90.000000
_cell_angle_gamma 90.000000
_cell_volume 1786.078177
_symmetry_space_group_name_H-M "P C C A"
_symmetry_group_IT_number 54
_symmetry_cell_setting 'orthorhombic'
loop_
_space_group_symop_operation_xyz
x,y,z
1/2-x,-y,z
1/2+x,-y,1/2-z
-x,y,1/2-z
-x,-y,-z
1/2+x,y,-z
1/2-x,y,1/2+z
x,-y,1/2+z
loop_
_atom_site_type_symbol
_atom_site_label
_atom_site_fract_x
_atom_site_fract_y
_atom_site_fract_z
Si Si1 0.051634 0.311362 0.934374
Si Si2 0.912763 0.081519 0.943250
Si Si3 0.950826 0.401543 0.142412
Si Si4 0.250000 0.000000 0.714106
Si Si5 0.728366 0.210066 0.612573
O O1 0.052886 0.444684 0.872600
O O2 0.162267 0.249147 0.929647
O O3 0.968591 0.207653 0.897457
O O4 0.018477 0.346085 0.049699
O O5 0.849590 0.008694 0.856842
O O6 0.833205 0.127893 0.028884
O O7 0.000000 0.000000 0.000000
O O8 0.840708 0.335497 0.133731
O O9 0.000000 0.368027 0.250000
O O10 0.257614 0.124261 0.786775
#
# Coordination Sequence:
#
# PCOD9423563 Si02
#       5
#     8   8   8   4   8
#     4  10  23  46  65  99 137 172 223 292 340 399
#     4  11  25  43  67  95 139 178 226 287 345 412
#     4  10  24  43  72  97 133 178 228 276 346 415
#     4  12  26  40  70 100 132 192 226 286 350 422
#     4  11  25  42  67 101 134 174 233 280 345 415
#
# _framework density 20.155892000000001
#
# number of rings (size 3 to 8) (size 9 to 14) (size 15 to 20)
#    0.000    1.333    0.000    4.000   12.444    1.778 
#    0.000    2.222    0.000    0.000    0.000    0.000 
#    0.000    0.000    0.000    0.000    0.000    0.000 
#
# Total GULP energy -201428.856456 kJ/mol
# GULP energy per Si atom -5595.246013 kJ/mol
# Density = 2.011002 g / cm^3
# Si number density = 20.155892 Si / 1000 Ang^3
#
#
#
# Elastic Constant Matrix: (Units=GPa)
#
#
# Indices 1 2 3 4 5 6 
#
# 1 158.8392 54.8297 52.1078 0.0000 0.0000 0.0000
# 2 54.8297 102.3375 27.1955 0.0000 0.0000 0.0000
# 3 52.1078 27.1955 58.5051 0.0000 0.0000 0.0000
# 4 0.0000 0.0000 0.0000 12.4519 0.0000 0.0000
# 5 0.0000 0.0000 0.0000 0.0000 22.8619 0.0000
# 6 0.0000 0.0000 0.0000 0.0000 0.0000 44.0451
#
#
#
# Elastic Compliance Matrix: (Units=1/GPa)
#
#
# Indices 1 2 3 4 5 6 
#
# 1 0.009805 -0.003346 -0.007178 0.000000 0.000000 0.000000
# 2 -0.003346 0.012291 -0.002733 0.000000 0.000000 0.000000
# 3 -0.007178 -0.002733 0.024756 0.000000 0.000000 0.000000
# 4 0.000000 0.000000 0.000000 0.080309 0.000000 0.000000
# 5 0.000000 0.000000 0.000000 0.000000 0.043741 0.000000
# 6 0.000000 0.000000 0.000000 0.000000 0.000000 0.022704
#
#
# Mechanical properties :
#
#
# Convention : Reuss Voigt Hill
#
# Bulk Modulus (GPa) = 49.16871 65.32754 57.24812
# Shear Modulus (GPa) = 22.03621 28.24169 25.13895
#
# Velocity S-wave (km/s) = 3.31008 3.74727 3.53544
# Velocity P-wave (km/s) = 6.24948 7.15571 6.71789
#
# Compressibility (1/GPa) = 0.02033814
#
# Stress axis : x y z
#
# Youngs Moduli (GPa) = 101.98442 81.36315 40.39430
#
# Poissons Ratio (x) = 0.27224 0.28995
# Poissons Ratio (y) = 0.34124 0.11040
# Poissons Ratio (z) = 0.73203 0.22237
#
# Static dielectric constant tensor:
#      x y z
#    x 1.674860 0.000000 0.000000 
#    y 0.000000 1.733670 0.000000 
#    z 0.000000 0.000000 1.683190 
# 
# From -- ./inp_files/7369.got.cif
#   From: 2010.05.17/outbox.cif.g08.bks.cpg/sg54_4_cif.got.tgz:7369.got - 2010.06.03 13:09:01.
