data_PCOD9423887
_publ_section_title
;
Structure prediction by ZEFSAII (Michael W. Deem and Ramdas Pophale) SiO2 
 PCOD9423887
Probable space group: P C C A
;
_chemical_formula_sum "Si O2"
_cell_formula_units_Z 40
_cell_length_a 15.457618
_cell_length_b 13.952446
_cell_length_c 8.549000
_cell_angle_alpha 90.000000
_cell_angle_beta 90.000000
_cell_angle_gamma 90.000000
_cell_volume 1843.776341
_symmetry_space_group_name_H-M "P C C A"
_symmetry_group_IT_number 54
_symmetry_cell_setting 'orthorhombic'
loop_
_space_group_symop_operation_xyz
x,y,z
1/2-x,-y,z
1/2+x,-y,1/2-z
-x,y,1/2-z
-x,-y,-z
1/2+x,y,-z
1/2-x,y,1/2+z
x,-y,1/2+z
loop_
_atom_site_type_symbol
_atom_site_label
_atom_site_fract_x
_atom_site_fract_y
_atom_site_fract_z
Si Si1 0.327261 0.924367 0.499503
Si Si2 0.308061 0.287481 0.140667
Si Si3 0.366521 0.270323 0.500264
Si Si4 0.908817 0.079555 0.329611
Si Si5 0.523903 0.396630 0.433157
O O1 0.316140 0.818653 0.566717
O O2 0.342604 0.918389 0.315187
O O3 0.250000 0.000000 0.527255
O O4 0.406458 0.976468 0.587615
O O5 0.331866 0.279969 0.323191
O O6 0.208354 0.314208 0.110168
O O7 0.377617 0.358467 0.059767
O O8 0.383080 0.160670 0.546977
O O9 0.458022 0.322845 0.513910
O O10 0.000000 0.100584 0.250000
O O11 0.500000 0.396830 0.250000
O O12 0.500000 0.500000 0.500000
#
# Coordination Sequence:
#
# PCOD9423887 Si02
#       5
#     8   8   8   8   8
#     4  12  24  40  63  95 136 181 231 278 339 406
#     4  11  24  44  70  98 140 182 226 290 342 417
#     4  11  24  44  68 102 136 182 232 280 351 412
#     4  12  25  40  63  96 135 185 233 285 339 409
#     4  10  25  47  72 101 135 173 228 291 351 416
#
# _framework density 21.694606
#
# number of rings (size 3 to 8) (size 9 to 14) (size 15 to 20)
#    0.000    0.800    2.000    4.800    0.000    7.200 
#    0.000    4.000    0.000    0.000    0.000    0.000 
#    0.000    0.000    0.000    0.000    0.000    0.000 
#
# Total GULP energy -223793.639226 kJ/mol
# GULP energy per Si atom -5594.840981 kJ/mol
# Density = 2.164523 g / cm^3
# Si number density = 21.694606 Si / 1000 Ang^3
#
#
#
# Elastic Constant Matrix: (Units=GPa)
#
#
# Indices 1 2 3 4 5 6 
#
# 1 85.0674 2.6063 0.9425 0.0000 0.0000 0.0000
# 2 2.6063 67.2326 1.1503 0.0000 0.0000 0.0000
# 3 0.9425 1.1503 63.1047 0.0000 0.0000 0.0000
# 4 0.0000 0.0000 0.0000 37.7875 0.0000 0.0000
# 5 0.0000 0.0000 0.0000 0.0000 36.2423 0.0000
# 6 0.0000 0.0000 0.0000 0.0000 0.0000 31.6848
#
#
#
# Elastic Compliance Matrix: (Units=1/GPa)
#
#
# Indices 1 2 3 4 5 6 
#
# 1 0.011771 -0.000453 -0.000168 0.000000 0.000000 0.000000
# 2 -0.000453 0.014896 -0.000265 0.000000 0.000000 0.000000
# 3 -0.000168 -0.000265 0.015854 0.000000 0.000000 0.000000
# 4 0.000000 0.000000 0.000000 0.026464 0.000000 0.000000
# 5 0.000000 0.000000 0.000000 0.000000 0.027592 0.000000
# 6 0.000000 0.000000 0.000000 0.000000 0.000000 0.031561
#
#
# Mechanical properties :
#
#
# Convention : Reuss Voigt Hill
#
# Bulk Modulus (GPa) = 24.54017 24.97809 24.75913
# Shear Modulus (GPa) = 34.84505 35.18995 35.01750
#
# Velocity S-wave (km/s) = 4.01204 4.03185 4.02196
# Velocity P-wave (km/s) = 5.72697 5.76306 5.74505
#
# Compressibility (1/GPa) = 0.04074952
#
# Stress axis : x y z
#
# Youngs Moduli (GPa) = 84.95361 67.13277 63.07550
#
# Poissons Ratio (x) = 0.03044 0.01057
# Poissons Ratio (y) = 0.03852 0.01670
# Poissons Ratio (z) = 0.01423 0.01777
#
# Static dielectric constant tensor:
#      x y z
#    x 1.796350 0.000000 0.000000 
#    y 0.000000 1.765900 0.000000 
#    z 0.000000 0.000000 1.769300 
# 
# From -- ./inp_files/3415.got.cif
#   From: 2010.05.17/outbox.cif.g08.bks.cpg/sg54_2_cif.got.tgz:3415.got - 2010.06.03 13:09:01.
