data_PCOD9423518
_publ_section_title
;
Structure prediction by ZEFSAII (Michael W. Deem and Ramdas Pophale) SiO2 
 PCOD9423518
Probable space group: P C C A
;
_chemical_formula_sum "Si O2"
_cell_formula_units_Z 40
_cell_length_a 12.700287
_cell_length_b 9.207118
_cell_length_c 14.594694
_cell_angle_alpha 90.000000
_cell_angle_beta 90.000000
_cell_angle_gamma 90.000000
_cell_volume 1706.601953
_symmetry_space_group_name_H-M "P C C A"
_symmetry_group_IT_number 54
_symmetry_cell_setting 'orthorhombic'
loop_
_space_group_symop_operation_xyz
x,y,z
1/2-x,-y,z
1/2+x,-y,1/2-z
-x,y,1/2-z
-x,-y,-z
1/2+x,y,-z
1/2-x,y,1/2+z
x,-y,1/2+z
loop_
_atom_site_type_symbol
_atom_site_label
_atom_site_fract_x
_atom_site_fract_y
_atom_site_fract_z
Si Si1 0.850047 0.404589 0.575146
Si Si2 0.372927 0.035447 0.112863
Si Si3 0.609574 0.658494 0.200093
Si Si4 0.493830 0.772932 0.470131
Si Si5 0.296457 0.149689 0.298760
O O1 0.750000 0.500000 0.539712
O O2 0.876414 0.492337 0.669312
O O3 0.936379 0.366988 0.498545
O O4 0.834707 0.243323 0.616122
O O5 0.064039 0.108432 0.083055
O O6 0.250000 0.000000 0.093308
O O7 0.431609 0.158889 0.054891
O O8 0.372342 0.092383 0.218064
O O9 0.500000 0.676555 0.250000
O O10 0.595781 0.730196 0.101080
O O11 0.706107 0.744675 0.245235
O O12 0.250000 0.000000 0.335939
#
# Coordination Sequence:
#
# PCOD9423518 Si02
#       5
#     8   8   8   8   8
#     4  10  25  45  70 103 141 189 235 295 363 434
#     4  10  24  43  69 107 135 183 240 297 360 418
#     4  11  24  44  65 102 141 184 236 288 359 438
#     4  11  25  43  72 104 142 186 240 297 361 433
#     4  10  23  44  69  96 139 180 230 298 355 422
#
# _framework density 23.438389999999998
#
# number of rings (size 3 to 8) (size 9 to 14) (size 15 to 20)
#    0.000    1.600    0.000    3.000   14.000    0.000 
#    3.600    1.000    0.000    0.000    0.000    0.000 
#    0.000    0.000    0.000    0.000    0.000    0.000 
#
# Total GULP energy -223116.183885 kJ/mol
# GULP energy per Si atom -5577.904597 kJ/mol
# Density = 2.338504 g / cm^3
# Si number density = 23.438390 Si / 1000 Ang^3
#
#
#
# Elastic Constant Matrix: (Units=GPa)
#
#
# Indices 1 2 3 4 5 6 
#
# 1 77.2136 16.5766 19.7745 0.0000 0.0000 0.0000
# 2 16.5766 122.9247 40.1007 0.0000 0.0000 0.0000
# 3 19.7745 40.1007 57.9187 0.0000 0.0000 0.0000
# 4 0.0000 0.0000 0.0000 10.0299 0.0000 0.0000
# 5 0.0000 0.0000 0.0000 0.0000 31.0122 0.0000
# 6 0.0000 0.0000 0.0000 0.0000 0.0000 39.5235
#
#
#
# Elastic Compliance Matrix: (Units=1/GPa)
#
#
# Indices 1 2 3 4 5 6 
#
# 1 0.014210 -0.000431 -0.004553 0.000000 0.000000 0.000000
# 2 -0.000431 0.010522 -0.007138 0.000000 0.000000 0.000000
# 3 -0.004553 -0.007138 0.023762 0.000000 0.000000 0.000000
# 4 0.000000 0.000000 0.000000 0.099702 0.000000 0.000000
# 5 0.000000 0.000000 0.000000 0.000000 0.032245 0.000000
# 6 0.000000 0.000000 0.000000 0.000000 0.000000 0.025301
#
#
# Mechanical properties :
#
#
# Convention : Reuss Voigt Hill
#
# Bulk Modulus (GPa) = 41.23725 45.66229 43.44977
# Shear Modulus (GPa) = 21.00234 28.22013 24.61123
#
# Velocity S-wave (km/s) = 2.99668 3.47365 3.24395
# Velocity P-wave (km/s) = 5.44110 5.96762 5.71043
#
# Compressibility (1/GPa) = 0.02424992
#
# Stress axis : x y z
#
# Youngs Moduli (GPa) = 70.37474 95.04239 42.08411
#
# Poissons Ratio (x) = 0.04095 0.19161
# Poissons Ratio (y) = 0.03032 0.30038
# Poissons Ratio (z) = 0.32042 0.67838
#
# Static dielectric constant tensor:
#      x y z
#    x 1.959220 0.000000 0.000000 
#    y 0.000000 2.091670 0.000000 
#    z 0.000000 0.000000 1.861480 
# 
# From -- ./inp_files/13252.got.cif
#   From: 2010.05.17/outbox.cif.g08.bks.cpg/sg54_7_cif.got.tgz:13252.got - 2010.06.03 13:09:01.
