data_PCOD9423110
_publ_section_title
;
Structure prediction by ZEFSAII (Michael W. Deem and Ramdas Pophale) SiO2 
 PCOD9423110
Probable space group: P C C A
;
_chemical_formula_sum "Si O2"
_cell_formula_units_Z 40
_cell_length_a 21.873914
_cell_length_b 8.113763
_cell_length_c 10.399608
_cell_angle_alpha 90.000000
_cell_angle_beta 90.000000
_cell_angle_gamma 90.000000
_cell_volume 1845.719870
_symmetry_space_group_name_H-M "P C C A"
_symmetry_group_IT_number 54
_symmetry_cell_setting 'orthorhombic'
loop_
_space_group_symop_operation_xyz
x,y,z
1/2-x,-y,z
1/2+x,-y,1/2-z
-x,y,1/2-z
-x,-y,-z
1/2+x,y,-z
1/2-x,y,1/2+z
x,-y,1/2+z
loop_
_atom_site_type_symbol
_atom_site_label
_atom_site_fract_x
_atom_site_fract_y
_atom_site_fract_z
Si Si1 0.750000 0.500000 0.541898
Si Si2 0.830691 0.783397 0.644056
Si Si3 0.374717 0.882448 0.841591
Si Si4 0.410567 0.308748 0.101721
Si Si5 0.000000 0.106698 0.750000
Si Si6 0.130612 0.653759 0.583921
O O1 0.774395 0.658703 0.620335
O O2 0.806351 0.435664 0.457956
O O3 0.876114 0.755475 0.523656
O O4 0.860379 0.729844 0.777460
O O5 0.822647 0.980294 0.652479
O O6 0.370289 0.747047 0.727365
O O7 0.438690 0.974923 0.803561
O O8 0.381844 0.789121 0.975614
O O9 0.474091 0.220495 0.134721
O O10 0.416986 0.504058 0.091019
#
# Coordination Sequence:
#
# PCOD9423110 Si02
#       6
#     4   8   8   8   4   8
#     4  10  24  42  66  92 130 170 218 278 354 392
#     4  11  22  41  67  97 127 172 219 281 328 404
#     4  10  22  42  64  95 138 170 223 270 331 400
#     4   9  20  41  62  92 136 172 222 267 324 399
#     4   8  22  42  64  94 140 178 218 268 336 394
#     4  11  22  41  66  94 127 174 222 280 325 405
#
# _framework density 21.671761
#
# number of rings (size 3 to 8) (size 9 to 14) (size 15 to 20)
#    1.200    0.800    0.000    4.200    0.000    4.000 
#    0.000    2.000    0.000    0.000    0.000    0.000 
#    0.000    0.000    0.000    0.000    0.000    0.000 
#
# Total GULP energy -222951.893499 kJ/mol
# GULP energy per Si atom -5573.797337 kJ/mol
# Density = 2.162243 g / cm^3
# Si number density = 21.671761 Si / 1000 Ang^3
#
#
#
# Elastic Constant Matrix: (Units=GPa)
#
#
# Indices 1 2 3 4 5 6 
#
# 1 74.3732 19.2830 10.5583 0.0000 0.0000 0.0000
# 2 19.2830 105.2913 16.8121 0.0000 0.0000 0.0000
# 3 10.5583 16.8121 133.1531 0.0000 0.0000 0.0000
# 4 0.0000 0.0000 0.0000 144.0349 0.0000 0.0000
# 5 0.0000 0.0000 0.0000 0.0000 22.1912 0.0000
# 6 0.0000 0.0000 0.0000 0.0000 0.0000 38.0455
#
#
#
# Elastic Compliance Matrix: (Units=1/GPa)
#
#
# Indices 1 2 3 4 5 6 
#
# 1 0.014202 -0.002471 -0.000814 0.000000 0.000000 0.000000
# 2 -0.002471 0.010123 -0.001082 0.000000 0.000000 0.000000
# 3 -0.000814 -0.001082 0.007711 0.000000 0.000000 0.000000
# 4 0.000000 0.000000 0.000000 0.006943 0.000000 0.000000
# 5 0.000000 0.000000 0.000000 0.000000 0.045063 0.000000
# 6 0.000000 0.000000 0.000000 0.000000 0.000000 0.026284
#
#
# Mechanical properties :
#
#
# Convention : Reuss Voigt Hill
#
# Bulk Modulus (GPa) = 42.91566 45.12493 44.02030
# Shear Modulus (GPa) = 39.42351 58.59858 49.01105
#
# Velocity S-wave (km/s) = 4.26974 5.20556 4.76070
# Velocity P-wave (km/s) = 6.64478 7.54968 7.11164
#
# Compressibility (1/GPa) = 0.02330152
#
# Stress axis : x y z
#
# Youngs Moduli (GPa) = 70.41297 98.78703 129.67899
#
# Poissons Ratio (x) = 0.24410 0.10558
# Poissons Ratio (y) = 0.17399 0.14034
# Poissons Ratio (z) = 0.05733 0.10691
#
# Static dielectric constant tensor:
#      x y z
#    x 1.803620 0.000000 0.000000 
#    y 0.000000 1.824280 0.000000 
#    z 0.000000 0.000000 1.740210 
# 
# From -- ./inp_files/5456.got.cif
#   From: 2010.05.17/outbox.cif.g08.bks.cpg/sg54_3_cif.got.tgz:5456.got - 2010.06.03 13:09:01.
