data_PCOD9423309
_publ_section_title
;
Structure prediction by ZEFSAII (Michael W. Deem and Ramdas Pophale) SiO2 
 PCOD9423309
Probable space group: P C C A
;
_chemical_formula_sum "Si O2"
_cell_formula_units_Z 36
_cell_length_a 11.769696
_cell_length_b 5.545420
_cell_length_c 22.613334
_cell_angle_alpha 90.000000
_cell_angle_beta 90.000000
_cell_angle_gamma 90.000000
_cell_volume 1475.924994
_symmetry_space_group_name_H-M "P C C A"
_symmetry_group_IT_number 54
_symmetry_cell_setting 'orthorhombic'
loop_
_space_group_symop_operation_xyz
x,y,z
1/2-x,-y,z
1/2+x,-y,1/2-z
-x,y,1/2-z
-x,-y,-z
1/2+x,y,-z
1/2-x,y,1/2+z
x,-y,1/2+z
loop_
_atom_site_type_symbol
_atom_site_label
_atom_site_fract_x
_atom_site_fract_y
_atom_site_fract_z
Si Si1 0.179639 0.752066 0.981360
Si Si2 0.250000 0.500000 0.173830
Si Si3 0.439162 0.212106 0.101398
Si Si4 0.123023 0.542705 0.859259
Si Si5 0.564674 0.834808 0.300264
O O1 0.250000 0.500000 0.991374
O O2 0.085702 0.778242 0.032313
O O3 0.250000 0.000000 0.985369
O O4 0.130811 0.720159 0.915662
O O5 0.347514 0.389857 0.132229
O O6 0.185515 0.292238 0.210481
O O7 0.565280 0.302300 0.115343
O O8 0.418657 0.969309 0.137569
O O9 0.250000 0.500000 0.838331
O O10 0.036087 0.643356 0.811544
O O11 0.500000 0.994095 0.250000
#
# Coordination Sequence:
#
# PCOD9423309 Si02
#       5
#     8   4   8   8   8
#     4  11  24  43  76 112 150 193 237 308 375 445
#     4  10  22  46  66 100 134 182 238 302 362 436
#     4  11  23  45  72 102 141 187 248 294 367 443
#     4  10  26  45  68 105 148 189 238 302 371 436
#     4  11  26  44  73 101 136 193 244 306 361 438
#
# _framework density 24.391484999999999
#
# number of rings (size 3 to 8) (size 9 to 14) (size 15 to 20)
#    0.000    1.333    1.111    2.667   10.889    4.444 
#    4.000    0.000    0.000    0.000    0.000    0.000 
#    0.000    0.000    0.000    0.000    0.000    0.000 
#
# Total GULP energy -201217.045912 kJ/mol
# GULP energy per Si atom -5589.362386 kJ/mol
# Density = 2.433597 g / cm^3
# Si number density = 24.391485 Si / 1000 Ang^3
#
#
#
# Elastic Constant Matrix: (Units=GPa)
#
#
# Indices 1 2 3 4 5 6 
#
# 1 130.1737 33.1771 19.2689 0.0000 0.0000 0.0000
# 2 33.1771 95.8388 2.2880 0.0000 0.0000 0.0000
# 3 19.2689 2.2880 76.7275 0.0000 0.0000 0.0000
# 4 0.0000 0.0000 0.0000 26.7189 0.0000 0.0000
# 5 0.0000 0.0000 0.0000 0.0000 -309.6041 0.0000
# 6 0.0000 0.0000 0.0000 0.0000 0.0000 37.2459
#
#
#
# Elastic Compliance Matrix: (Units=1/GPa)
#
#
# Indices 1 2 3 4 5 6 
#
# 1 0.008754 -0.002980 -0.002110 0.000000 0.000000 0.000000
# 2 -0.002980 0.011456 0.000407 0.000000 0.000000 0.000000
# 3 -0.002110 0.000407 0.013551 0.000000 0.000000 0.000000
# 4 0.000000 0.000000 0.000000 0.037427 0.000000 0.000000
# 5 0.000000 0.000000 0.000000 0.000000 -0.003230 0.000000
# 6 0.000000 0.000000 0.000000 0.000000 0.000000 0.026849
#
#
# Mechanical properties :
#
#
# Convention : Reuss Voigt Hill
#
# Bulk Modulus (GPa) = 40.99174 45.80089 43.39631
# Shear Modulus (GPa) = 44.52231 -32.59413 5.96409
#
# Velocity S-wave (km/s) = 4.27701 -3.65950 1.56540
# Velocity P-wave (km/s) = 6.42127 0.98096 4.59320
#
# Compressibility (1/GPa) = 0.02439516
#
# Stress axis : x y z
#
# Youngs Moduli (GPa) = 114.23591 87.28983 73.79648
#
# Poissons Ratio (x) = 0.26012 0.15568
# Poissons Ratio (y) = 0.34042 -0.03002
# Poissons Ratio (z) = 0.24098 -0.03551
#
# Static dielectric constant tensor:
#      x y z
#    x 1.915050 0.000000 0.000000 
#    y 0.000000 2.008530 0.000000 
#    z 0.000000 0.000000 2.043740 
# 
# From -- ./inp_files/23807.got.cif
#   From: 2010.05.17/outbox.cif.g08.bks.cpg/sg54_12_cif.got.tgz:23807.got - 2010.06.03 13:09:01.
