data_PCOD9423926
_publ_section_title
;
Structure prediction by ZEFSAII (Michael W. Deem and Ramdas Pophale) SiO2 
 PCOD9423926
Probable space group: P C C A
;
_chemical_formula_sum "Si O2"
_cell_formula_units_Z 60
_cell_length_a 27.506901
_cell_length_b 9.002294
_cell_length_c 11.167138
_cell_angle_alpha 90.000000
_cell_angle_beta 90.000000
_cell_angle_gamma 90.000000
_cell_volume 2765.264890
_symmetry_space_group_name_H-M "P C C A"
_symmetry_group_IT_number 54
_symmetry_cell_setting 'orthorhombic'
loop_
_space_group_symop_operation_xyz
x,y,z
1/2-x,-y,z
1/2+x,-y,1/2-z
-x,y,1/2-z
-x,-y,-z
1/2+x,y,-z
1/2-x,y,1/2+z
x,-y,1/2+z
loop_
_atom_site_type_symbol
_atom_site_label
_atom_site_fract_x
_atom_site_fract_y
_atom_site_fract_z
Si Si1 0.604311 0.972287 0.213472
Si Si2 0.147854 0.528901 0.165494
Si Si3 0.150851 0.767216 0.964921
Si Si4 0.000000 0.524713 0.750000
Si Si5 0.796365 0.896673 0.309514
Si Si6 0.729190 0.637425 0.213476
Si Si7 0.927451 0.282308 0.381928
Si Si8 0.917642 0.702968 0.163124
O O1 0.660329 0.025409 0.235518
O O2 0.575650 0.127025 0.204662
O O3 0.581402 0.124504 0.819993
O O4 0.608356 0.863316 0.097644
O O5 0.137906 0.620313 0.043099
O O6 0.200168 0.452266 0.182134
O O7 0.112219 0.390494 0.175344
O O8 0.130711 0.638542 0.272531
O O9 0.179155 0.863630 0.063235
O O10 0.188714 0.720720 0.863017
O O11 0.022193 0.635796 0.650423
O O12 0.040714 0.413389 0.800757
O O13 0.771054 0.749142 0.255265
O O14 0.750000 0.000000 0.324744
O O15 0.750000 0.500000 0.136948
O O16 0.916103 0.283631 0.521264
#
# Coordination Sequence:
#
# PCOD9423926 Si02
#       8
#     8   8   8   4   8   8   8   8
#     4  12  25  46  69 106 135 187 226 283 352 414
#     4  11  23  44  68 100 134 183 242 277 340 403
#     4  12  25  41  68  93 137 184 235 289 334 396
#     4  10  26  48  76 112 130 172 224 276 350 428
#     4  12  25  43  60  96 140 184 237 279 341 390
#     4  12  24  41  59  96 132 185 238 286 329 384
#     4  11  24  47  75 102 140 176 222 278 345 415
#     4  11  24  47  73 103 142 173 223 281 349 414
#
# _framework density 21.697738999999999
#
# number of rings (size 3 to 8) (size 9 to 14) (size 15 to 20)
#    0.000    0.533    5.333    2.000    5.600    0.533 
#    2.400    1.333    0.000    0.000    0.000    0.000 
#    0.000    0.000    0.000    0.000    0.000    0.000 
#
# Total GULP energy -334921.293310 kJ/mol
# GULP energy per Si atom -5582.021555 kJ/mol
# Density = 2.164835 g / cm^3
# Si number density = 21.697739 Si / 1000 Ang^3
#
#
#
# Elastic Constant Matrix: (Units=GPa)
#
#
# Indices 1 2 3 4 5 6 
#
# 1 65.0222 30.5220 12.9838 0.0000 0.0000 0.0000
# 2 30.5220 149.0126 48.2715 0.0000 0.0000 0.0000
# 3 12.9838 48.2715 104.6271 0.0000 0.0000 0.0000
# 4 0.0000 0.0000 0.0000 51.6586 0.0000 0.0000
# 5 0.0000 0.0000 0.0000 0.0000 21.5954 0.0000
# 6 0.0000 0.0000 0.0000 0.0000 0.0000 40.7251
#
#
#
# Elastic Compliance Matrix: (Units=1/GPa)
#
#
# Indices 1 2 3 4 5 6 
#
# 1 0.017047 -0.003299 -0.000593 0.000000 0.000000 0.000000
# 2 -0.003299 0.008529 -0.003525 0.000000 0.000000 0.000000
# 3 -0.000593 -0.003525 0.011258 0.000000 0.000000 0.000000
# 4 0.000000 0.000000 0.000000 0.019358 0.000000 0.000000
# 5 0.000000 0.000000 0.000000 0.000000 0.046306 0.000000
# 6 0.000000 0.000000 0.000000 0.000000 0.000000 0.024555
#
#
# Mechanical properties :
#
#
# Convention : Reuss Voigt Hill
#
# Bulk Modulus (GPa) = 45.46051 55.80182 50.63116
# Shear Modulus (GPa) = 33.50746 37.92146 35.71446
#
# Velocity S-wave (km/s) = 3.93400 4.18510 4.06149
# Velocity P-wave (km/s) = 6.45231 7.00907 6.73645
#
# Compressibility (1/GPa) = 0.02199711
#
# Stress axis : x y z
#
# Youngs Moduli (GPa) = 58.66270 117.25122 88.82681
#
# Poissons Ratio (x) = 0.38687 0.05269
# Poissons Ratio (y) = 0.19356 0.31315
# Poissons Ratio (z) = 0.03480 0.41336
#
# Static dielectric constant tensor:
#      x y z
#    x 1.850890 0.000000 0.000000 
#    y 0.000000 1.844580 0.000000 
#    z 0.000000 0.000000 1.782910 
# 
# From -- ./inp_files/10514.got.cif
#   From: 2010.05.17/outbox.cif.g08.bks.cpg/sg54_6_cif.got.tgz:10514.got - 2010.06.03 13:09:01.
