data_PCOD9423909
_publ_section_title
;
Structure prediction by ZEFSAII (Michael W. Deem and Ramdas Pophale) SiO2 
 PCOD9423909
Probable space group: P C C A
;
_chemical_formula_sum "Si O2"
_cell_formula_units_Z 32
_cell_length_a 8.315134
_cell_length_b 7.762570
_cell_length_c 22.192939
_cell_angle_alpha 90.000000
_cell_angle_beta 90.000000
_cell_angle_gamma 90.000000
_cell_volume 1432.483411
_symmetry_space_group_name_H-M "P C C A"
_symmetry_group_IT_number 54
_symmetry_cell_setting 'orthorhombic'
loop_
_space_group_symop_operation_xyz
x,y,z
1/2-x,-y,z
1/2+x,-y,1/2-z
-x,y,1/2-z
-x,-y,-z
1/2+x,y,-z
1/2-x,y,1/2+z
x,-y,1/2+z
loop_
_atom_site_type_symbol
_atom_site_label
_atom_site_fract_x
_atom_site_fract_y
_atom_site_fract_z
Si Si1 0.000000 0.300747 0.750000
Si Si2 0.753560 0.699521 0.966647
Si Si3 0.397250 0.801702 0.415192
Si Si4 0.250000 0.500000 0.832151
Si Si5 0.587607 0.109066 0.367551
O O1 0.118083 0.418339 0.788524
O O2 0.081136 0.183009 0.699234
O O3 0.750000 0.500000 0.983515
O O4 0.615975 0.741462 0.916900
O O5 0.928451 0.739266 0.939835
O O6 0.713171 0.808959 0.025680
O O7 0.323915 0.655592 0.371724
O O8 0.439379 0.982904 0.382942
O O9 0.750000 0.000000 0.373703
#
# Coordination Sequence:
#
# PCOD9423909 Si02
#       5
#     4   8   8   4   8
#     4  12  30  48  74 100 144 198 248 310 352 446
#     4  11  22  43  73 106 150 187 237 300 374 439
#     4  11  25  45  72 110 145 187 243 302 374 443
#     4  12  30  48  74 106 140 198 254 304 366 444
#     4  10  26  45  71 106 147 197 241 302 365 443
#
# _framework density 22.338829
#
# number of rings (size 3 to 8) (size 9 to 14) (size 15 to 20)
#    0.000    1.000    1.250    3.000   15.750    0.000 
#    0.000    0.000    0.000    0.000    0.000    0.000 
#    0.000    0.000    0.000    0.000    0.000    0.000 
#
# Total GULP energy -179173.057284 kJ/mol
# GULP energy per Si atom -5599.158040 kJ/mol
# Density = 2.228798 g / cm^3
# Si number density = 22.338829 Si / 1000 Ang^3
#
#
#
# Elastic Constant Matrix: (Units=GPa)
#
#
# Indices 1 2 3 4 5 6 
#
# 1 102.3568 31.5234 46.0865 0.0000 0.0000 0.0000
# 2 31.5234 106.1057 52.9995 0.0000 0.0000 0.0000
# 3 46.0865 52.9995 164.4175 0.0000 0.0000 0.0000
# 4 0.0000 0.0000 0.0000 233.2750 0.0000 0.0000
# 5 0.0000 0.0000 0.0000 0.0000 52.2411 0.0000
# 6 0.0000 0.0000 0.0000 0.0000 0.0000 25.9443
#
#
#
# Elastic Compliance Matrix: (Units=1/GPa)
#
#
# Indices 1 2 3 4 5 6 
#
# 1 0.011585 -0.002169 -0.002548 0.000000 0.000000 0.000000
# 2 -0.002169 0.011639 -0.003144 0.000000 0.000000 0.000000
# 3 -0.002548 -0.003144 0.007810 0.000000 0.000000 0.000000
# 4 0.000000 0.000000 0.000000 0.004287 0.000000 0.000000
# 5 0.000000 0.000000 0.000000 0.000000 0.019142 0.000000
# 6 0.000000 0.000000 0.000000 0.000000 0.000000 0.038544
#
#
# Mechanical properties :
#
#
# Convention : Reuss Voigt Hill
#
# Bulk Modulus (GPa) = 65.30846 70.45543 67.88194
# Shear Modulus (GPa) = 43.92387 78.44344 61.18365
#
# Velocity S-wave (km/s) = 4.43906 5.93224 5.23912
# Velocity P-wave (km/s) = 7.45470 8.86171 8.18848
#
# Compressibility (1/GPa) = 0.01531195
#
# Stress axis : x y z
#
# Youngs Moduli (GPa) = 86.31798 85.91533 128.04501
#
# Poissons Ratio (x) = 0.18636 0.32627
# Poissons Ratio (y) = 0.18723 0.40256
# Poissons Ratio (z) = 0.21995 0.27011
#
# Static dielectric constant tensor:
#      x y z
#    x 1.958220 0.000000 0.000000 
#    y 0.000000 1.990380 0.000000 
#    z 0.000000 0.000000 1.760490 
# 
# From -- ./inp_files/20070.got.cif
#   From: 2010.05.17/outbox.cif.g08.bks.cpg/sg54_11_cif.got.tgz:20070.got - 2010.06.03 13:09:01.
