data_PCOD9423831
_publ_section_title
;
Structure prediction by ZEFSAII (Michael W. Deem and Ramdas Pophale) SiO2 
 PCOD9423831
Probable space group: P C C A
;
_chemical_formula_sum "Si O2"
_cell_formula_units_Z 48
_cell_length_a 5.298991
_cell_length_b 27.044078
_cell_length_c 17.138338
_cell_angle_alpha 90.000000
_cell_angle_beta 90.000000
_cell_angle_gamma 90.000000
_cell_volume 2456.032251
_symmetry_space_group_name_H-M "P C C A"
_symmetry_group_IT_number 54
_symmetry_cell_setting 'orthorhombic'
loop_
_space_group_symop_operation_xyz
x,y,z
1/2-x,-y,z
1/2+x,-y,1/2-z
-x,y,1/2-z
-x,-y,-z
1/2+x,y,-z
1/2-x,y,1/2+z
x,-y,1/2+z
loop_
_atom_site_type_symbol
_atom_site_label
_atom_site_fract_x
_atom_site_fract_y
_atom_site_fract_z
Si Si1 0.290367 0.942708 0.551289
Si Si2 0.000000 0.213691 0.750000
Si Si3 0.472973 0.794892 0.448725
Si Si4 0.348102 0.285527 0.832885
Si Si5 0.249914 0.607097 0.304011
Si Si6 0.133523 0.866759 0.675337
Si Si7 0.750000 0.500000 0.695777
O O1 0.551285 0.934003 0.505756
O O2 0.279487 0.906702 0.624817
O O3 0.250000 0.000000 0.574835
O O4 0.888470 0.250382 0.685397
O O5 0.799136 0.177616 0.789306
O O6 0.233613 0.799582 0.504776
O O7 0.483003 0.742751 0.402815
O O8 0.450719 0.838230 0.384440
O O9 0.500000 0.285216 0.750000
O O10 0.273538 0.341833 0.850748
O O11 0.500000 0.605673 0.250000
O O12 0.243451 0.553487 0.345967
O O13 0.000000 0.611234 0.250000
O O14 0.000000 0.890335 0.750000
O O15 0.500000 0.500276 0.750000
#
# Coordination Sequence:
#
# PCOD9423831 Si02
#       7
#     8   4   8   8   8   8   4
#     4  10  24  48  71  94 125 162 200 243 298 354
#     4  12  20  38  60  86 128 152 202 240 300 346
#     4  12  25  39  58  85 121 159 199 241 291 356
#     4  11  21  37  57  83 117 161 199 245 301 355
#     4   9  17  27  50  74 108 147 185 242 299 353
#     4  12  25  40  64  94 121 162 198 250 295 354
#     4   8  14  26  40  74 106 136 184 236 300 352
#
# _framework density 19.543718999999999
#
# number of rings (size 3 to 8) (size 9 to 14) (size 15 to 20)
#    0.000    1.333    4.167    2.000    2.333    0.000 
#    1.500    0.000    0.000    0.000    0.000    1.167 
#    0.000    0.000    0.000    0.333    0.000    0.000 
#
# Total GULP energy -267863.407093 kJ/mol
# GULP energy per Si atom -5580.487648 kJ/mol
# Density = 1.949924 g / cm^3
# Si number density = 19.543719 Si / 1000 Ang^3
#
#
#
# Elastic Constant Matrix: (Units=GPa)
#
#
# Indices 1 2 3 4 5 6 
#
# 1 88.4560 7.6788 14.4586 0.0000 0.0000 0.0000
# 2 7.6788 123.7241 39.5462 0.0000 0.0000 0.0000
# 3 14.4586 39.5462 64.9094 0.0000 0.0000 0.0000
# 4 0.0000 0.0000 0.0000 3.8768 0.0000 0.0000
# 5 0.0000 0.0000 0.0000 0.0000 18.6851 0.0000
# 6 0.0000 0.0000 0.0000 0.0000 0.0000 46.2590
#
#
#
# Elastic Compliance Matrix: (Units=1/GPa)
#
#
# Indices 1 2 3 4 5 6 
#
# 1 0.011734 0.000133 -0.002695 0.000000 0.000000 0.000000
# 2 0.000133 0.010039 -0.006146 0.000000 0.000000 0.000000
# 3 -0.002695 -0.006146 0.019751 0.000000 0.000000 0.000000
# 4 0.000000 0.000000 0.000000 0.257942 0.000000 0.000000
# 5 0.000000 0.000000 0.000000 0.000000 0.053519 0.000000
# 6 0.000000 0.000000 0.000000 0.000000 0.000000 0.021617
#
#
# Mechanical properties :
#
#
# Convention : Reuss Voigt Hill
#
# Bulk Modulus (GPa) = 41.47935 44.49516 42.98726
# Shear Modulus (GPa) = 12.49836 28.12457 20.31147
#
# Velocity S-wave (km/s) = 2.53159 3.79761 3.22729
# Velocity P-wave (km/s) = 5.46033 6.48425 5.99420
#
# Compressibility (1/GPa) = 0.02410838
#
# Stress axis : x y z
#
# Youngs Moduli (GPa) = 85.22249 99.61543 50.63125
#
# Poissons Ratio (x) = -0.01326 0.13644
# Poissons Ratio (y) = -0.01134 0.31116
# Poissons Ratio (z) = 0.22966 0.61221
#
# Static dielectric constant tensor:
#      x y z
#    x 1.735230 0.000000 0.000000 
#    y 0.000000 1.734980 0.000000 
#    z 0.000000 0.000000 1.663510 
# 
# From -- ./inp_files/10937.got.cif
#   From: 2010.05.17/outbox.cif.g08.bks.cpg/sg54_6_cif.got.tgz:10937.got - 2010.06.03 13:09:01.
