data_PCOD9423393
_publ_section_title
;
Structure prediction by ZEFSAII (Michael W. Deem and Ramdas Pophale) SiO2 
 PCOD9423393
Probable space group: P C C A
;
_chemical_formula_sum "Si O2"
_cell_formula_units_Z 36
_cell_length_a 5.529413
_cell_length_b 11.163274
_cell_length_c 26.900824
_cell_angle_alpha 90.000000
_cell_angle_beta 90.000000
_cell_angle_gamma 90.000000
_cell_volume 1660.489741
_symmetry_space_group_name_H-M "P C C A"
_symmetry_group_IT_number 54
_symmetry_cell_setting 'orthorhombic'
loop_
_space_group_symop_operation_xyz
x,y,z
1/2-x,-y,z
1/2+x,-y,1/2-z
-x,y,1/2-z
-x,-y,-z
1/2+x,y,-z
1/2-x,y,1/2+z
x,-y,1/2+z
loop_
_atom_site_type_symbol
_atom_site_label
_atom_site_fract_x
_atom_site_fract_y
_atom_site_fract_z
Si Si1 0.447384 0.352039 0.302878
Si Si2 0.250000 0.500000 0.622667
Si Si3 0.437450 0.282061 0.875912
Si Si4 0.167945 0.863613 0.700780
Si Si5 0.272167 0.356161 0.470821
O O1 0.500000 0.410337 0.250000
O O2 0.550227 0.439652 0.343753
O O3 0.182536 0.327070 0.323987
O O4 0.608765 0.230702 0.299778
O O5 0.377175 0.381287 0.601334
O O6 0.550352 0.161829 0.853660
O O7 0.245017 0.279631 0.919992
O O8 0.000000 0.843249 0.750000
O O9 0.250000 0.000000 0.704268
O O10 0.250000 0.500000 0.460103
O O11 0.533080 0.332355 0.495785
#
# Coordination Sequence:
#
# PCOD9423393 Si02
#       5
#     8   4   8   8   8
#     4  11  22  36  57  87 124 167 207 255 323 393
#     4  10  24  32  58  86 134 164 206 252 318 400
#     4  11  24  41  60  94 129 172 215 270 329 395
#     4  11  24  41  63  91 125 167 223 273 323 390
#     4  10  23  40  67  96 133 177 226 279 338 399
#
# _framework density 21.680353
#
# number of rings (size 3 to 8) (size 9 to 14) (size 15 to 20)
#    0.000    1.333    2.222    2.667   14.000    0.000 
#    0.000    0.000    0.000    1.333    0.000    0.000 
#    0.000    0.000    0.000    0.000    0.000    0.000 
#
# Total GULP energy -200537.183421 kJ/mol
# GULP energy per Si atom -5570.477317 kJ/mol
# Density = 2.163101 g / cm^3
# Si number density = 21.680353 Si / 1000 Ang^3
#
#
#
# Elastic Constant Matrix: (Units=GPa)
#
#
# Indices 1 2 3 4 5 6 
#
# 1 76.2810 30.2609 39.8098 0.0000 0.0000 0.0000
# 2 30.2609 93.1970 24.8171 0.0000 0.0000 0.0000
# 3 39.8098 24.8171 121.8383 0.0000 0.0000 0.0000
# 4 0.0000 0.0000 0.0000 29.1670 0.0000 0.0000
# 5 0.0000 0.0000 0.0000 0.0000 30.0529 0.0000
# 6 0.0000 0.0000 0.0000 0.0000 0.0000 30.9192
#
#
#
# Elastic Compliance Matrix: (Units=1/GPa)
#
#
# Indices 1 2 3 4 5 6 
#
# 1 0.017329 -0.004355 -0.004775 0.000000 0.000000 0.000000
# 2 -0.004355 0.012440 -0.001111 0.000000 0.000000 0.000000
# 3 -0.004775 -0.001111 0.009994 0.000000 0.000000 0.000000
# 4 0.000000 0.000000 0.000000 0.034285 0.000000 0.000000
# 5 0.000000 0.000000 0.000000 0.000000 0.033275 0.000000
# 6 0.000000 0.000000 0.000000 0.000000 0.000000 0.032342
#
#
# Mechanical properties :
#
#
# Convention : Reuss Voigt Hill
#
# Bulk Modulus (GPa) = 51.86479 53.45467 52.65973
# Shear Modulus (GPa) = 30.01657 31.12307 30.56982
#
# Velocity S-wave (km/s) = 3.72493 3.79297 3.75910
# Velocity P-wave (km/s) = 6.51725 6.62506 6.57138
#
# Compressibility (1/GPa) = 0.01928090
#
# Stress axis : x y z
#
# Youngs Moduli (GPa) = 57.70612 80.38658 100.05925
#
# Poissons Ratio (x) = 0.35010 0.47779
# Poissons Ratio (y) = 0.25132 0.11115
# Poissons Ratio (z) = 0.27555 0.08930
#
# Static dielectric constant tensor:
#      x y z
#    x 1.672450 0.000000 0.000000 
#    y 0.000000 1.792640 0.000000 
#    z 0.000000 0.000000 1.871100 
# 
# From -- ./inp_files/22682.got.cif
#   From: 2010.05.17/outbox.cif.g08.bks.cpg/sg54_12_cif.got.tgz:22682.got - 2010.06.03 13:09:01.
