data_PCOD9423551
_publ_section_title
;
Structure prediction by ZEFSAII (Michael W. Deem and Ramdas Pophale) SiO2 
 PCOD9423551
Probable space group: P C C A
;
_chemical_formula_sum "Si O2"
_cell_formula_units_Z 32
_cell_length_a 10.752102
_cell_length_b 10.397420
_cell_length_c 13.347050
_cell_angle_alpha 90.000000
_cell_angle_beta 90.000000
_cell_angle_gamma 90.000000
_cell_volume 1492.121714
_symmetry_space_group_name_H-M "P C C A"
_symmetry_group_IT_number 54
_symmetry_cell_setting 'orthorhombic'
loop_
_space_group_symop_operation_xyz
x,y,z
1/2-x,-y,z
1/2+x,-y,1/2-z
-x,y,1/2-z
-x,-y,-z
1/2+x,y,-z
1/2-x,y,1/2+z
x,-y,1/2+z
loop_
_atom_site_type_symbol
_atom_site_label
_atom_site_fract_x
_atom_site_fract_y
_atom_site_fract_z
Si Si1 0.500000 0.427902 0.250000
Si Si2 0.656768 0.880430 0.413904
Si Si3 0.859207 0.225863 0.634256
Si Si4 0.500000 0.981767 0.750000
Si Si5 0.644276 0.672461 0.259841
O O1 0.459641 0.336167 0.340336
O O2 0.616744 0.520722 0.273524
O O3 0.627137 0.827527 0.523438
O O4 0.700575 0.754934 0.350815
O O5 0.750000 0.000000 0.424809
O O6 0.547023 0.941287 0.346762
O O7 0.726181 0.287324 0.664086
O O8 0.889162 0.108992 0.709995
O O9 0.500000 0.713994 0.250000
#
# Coordination Sequence:
#
# PCOD9423551 Si02
#       5
#     4   8   8   4   8
#     4   9  23  48  74  96 147 189 246 306 362 437
#     4  12  25  41  73 108 147 190 237 304 371 449
#     4  11  24  43  71 107 137 194 246 300 371 434
#     4  11  23  44  68 104 151 181 232 308 368 441
#     4  10  23  45  71  99 147 187 240 307 356 437
#
# _framework density 21.445969999999999
#
# number of rings (size 3 to 8) (size 9 to 14) (size 15 to 20)
#    0.750    0.500    3.750    1.500    3.500    3.000 
#    0.000    2.500    0.000    0.000    0.000    0.000 
#    0.000    0.000    0.000    0.000    0.000    0.000 
#
# Total GULP energy -178305.673577 kJ/mol
# GULP energy per Si atom -5572.052299 kJ/mol
# Density = 2.139716 g / cm^3
# Si number density = 21.445970 Si / 1000 Ang^3
#
#
#
# Elastic Constant Matrix: (Units=GPa)
#
#
# Indices 1 2 3 4 5 6 
#
# 1 107.8301 45.6599 52.5203 0.0000 0.0000 0.0000
# 2 45.6599 150.3783 88.7384 0.0000 0.0000 0.0000
# 3 52.5203 88.7384 164.9425 0.0000 0.0000 0.0000
# 4 0.0000 0.0000 0.0000 -16.4749 0.0000 0.0000
# 5 0.0000 0.0000 0.0000 0.0000 24.7499 0.0000
# 6 0.0000 0.0000 0.0000 0.0000 0.0000 -1.4444
#
#
#
# Elastic Compliance Matrix: (Units=1/GPa)
#
#
# Indices 1 2 3 4 5 6 
#
# 1 0.011344 -0.001924 -0.002577 0.000000 0.000000 0.000000
# 2 -0.001924 0.010069 -0.004805 0.000000 0.000000 0.000000
# 3 -0.002577 -0.004805 0.009468 0.000000 0.000000 0.000000
# 4 0.000000 0.000000 0.000000 -0.060698 0.000000 0.000000
# 5 0.000000 0.000000 0.000000 0.000000 0.040404 0.000000
# 6 0.000000 0.000000 0.000000 0.000000 0.000000 -0.692343
#
#
# Mechanical properties :
#
#
# Convention : Reuss Voigt Hill
#
# Bulk Modulus (GPa) = 81.49767 88.55425 85.02596
# Shear Modulus (GPa) = -7.58661 17.11495 4.76417
#
# Velocity S-wave (km/s) = -1.88288 2.82804 1.49208
# Velocity P-wave (km/s) = 5.77554 7.21424 6.53460
#
# Compressibility (1/GPa) = 0.01227029
#
# Stress axis : x y z
#
# Youngs Moduli (GPa) = 88.15559 99.31266 105.61639
#
# Poissons Ratio (x) = 0.19103 0.27219
# Poissons Ratio (y) = 0.16957 0.50746
# Poissons Ratio (z) = 0.22719 0.47717
#
# Static dielectric constant tensor:
#      x y z
#    x 1.876890 0.000000 0.000000 
#    y 0.000000 1.882180 0.000000 
#    z 0.000000 0.000000 1.719270 
# 
# From -- ./inp_files/7320.got.cif
#   From: 2010.05.17/outbox.cif.g08.bks.cpg/sg54_4_cif.got.tgz:7320.got - 2010.06.03 13:09:01.
