data_PCOD9423775
_publ_section_title
;
Structure prediction by ZEFSAII (Michael W. Deem and Ramdas Pophale) SiO2 
 PCOD9423775
Probable space group: P C C A
;
_chemical_formula_sum "Si O2"
_cell_formula_units_Z 32
_cell_length_a 7.804462
_cell_length_b 12.737667
_cell_length_c 14.570088
_cell_angle_alpha 90.000000
_cell_angle_beta 90.000000
_cell_angle_gamma 90.000000
_cell_volume 1448.421745
_symmetry_space_group_name_H-M "P C C A"
_symmetry_group_IT_number 54
_symmetry_cell_setting 'orthorhombic'
loop_
_space_group_symop_operation_xyz
x,y,z
1/2-x,-y,z
1/2+x,-y,1/2-z
-x,y,1/2-z
-x,-y,-z
1/2+x,y,-z
1/2-x,y,1/2+z
x,-y,1/2+z
loop_
_atom_site_type_symbol
_atom_site_label
_atom_site_fract_x
_atom_site_fract_y
_atom_site_fract_z
Si Si1 0.750000 0.000000 0.393837
Si Si2 0.500000 0.910114 0.250000
Si Si3 0.692963 0.612466 0.788215
Si Si4 0.399671 0.779060 0.563795
Si Si5 0.788081 0.250737 0.132018
O O1 0.592229 0.976128 0.327521
O O2 0.808668 0.893413 0.443843
O O3 0.637162 0.840281 0.195947
O O4 0.750000 0.500000 0.824100
O O5 0.500000 0.605859 0.750000
O O6 0.699898 0.703645 0.864890
O O7 0.795446 0.648231 0.697722
O O8 0.393994 0.735211 0.460947
O O9 0.593524 0.778538 0.602361
#
# Coordination Sequence:
#
# PCOD9423775 Si02
#       5
#     4   4   8   8   8
#     4  12  24  40  68 100 140 180 220 276 328 408
#     4  12  24  40  70  94 140 182 222 270 338 402
#     4  10  24  45  70  97 135 175 225 281 333 397
#     4  11  25  45  65 106 135 177 226 274 332 406
#     4  11  25  45  69  99 138 176 228 274 337 398
#
# _framework density 22.093014
#
# number of rings (size 3 to 8) (size 9 to 14) (size 15 to 20)
#    0.000    1.000    2.500    3.000    3.500    6.000 
#    0.000    5.000    0.000    0.000    0.000    0.000 
#    0.000    0.000    0.000    0.000    0.000    0.000 
#
# Total GULP energy -178974.372385 kJ/mol
# GULP energy per Si atom -5592.949137 kJ/mol
# Density = 2.204273 g / cm^3
# Si number density = 22.093014 Si / 1000 Ang^3
#
#
#
# Elastic Constant Matrix: (Units=GPa)
#
#
# Indices 1 2 3 4 5 6 
#
# 1 55.4629 29.5750 27.0740 0.0000 0.0000 0.0000
# 2 29.5750 104.5004 42.0980 0.0000 0.0000 0.0000
# 3 27.0740 42.0980 127.0863 0.0000 0.0000 0.0000
# 4 0.0000 0.0000 0.0000 24.9422 0.0000 0.0000
# 5 0.0000 0.0000 0.0000 0.0000 34.6984 0.0000
# 6 0.0000 0.0000 0.0000 0.0000 0.0000 27.8340
#
#
#
# Elastic Compliance Matrix: (Units=1/GPa)
#
#
# Indices 1 2 3 4 5 6 
#
# 1 0.022219 -0.005056 -0.003059 0.000000 0.000000 0.000000
# 2 -0.005056 0.012194 -0.002962 0.000000 0.000000 0.000000
# 3 -0.003059 -0.002962 0.009501 0.000000 0.000000 0.000000
# 4 0.000000 0.000000 0.000000 0.040093 0.000000 0.000000
# 5 0.000000 0.000000 0.000000 0.000000 0.028820 0.000000
# 6 0.000000 0.000000 0.000000 0.000000 0.000000 0.035927
#
#
# Mechanical properties :
#
#
# Convention : Reuss Voigt Hill
#
# Bulk Modulus (GPa) = 45.95458 53.83819 49.89638
# Shear Modulus (GPa) = 28.06445 30.04842 29.05644
#
# Velocity S-wave (km/s) = 3.56797 3.69194 3.63048
# Velocity P-wave (km/s) = 6.14976 6.52653 6.34095
#
# Compressibility (1/GPa) = 0.02176062
#
# Stress axis : x y z
#
# Youngs Moduli (GPa) = 45.00594 82.01049 105.24698
#
# Poissons Ratio (x) = 0.41466 0.32191
# Poissons Ratio (y) = 0.22756 0.31174
# Poissons Ratio (z) = 0.13766 0.24292
#
# Static dielectric constant tensor:
#      x y z
#    x 1.838600 0.000000 0.000000 
#    y 0.000000 1.827080 0.000000 
#    z 0.000000 0.000000 1.765560 
# 
# From -- ./inp_files/11256.got.cif
#   From: 2010.05.17/outbox.cif.g08.bks.cpg/sg54_6_cif.got.tgz:11256.got - 2010.06.03 13:09:01.
