data_PCOD9423548
_publ_section_title
;
Structure prediction by ZEFSAII (Michael W. Deem and Ramdas Pophale) SiO2 
 PCOD9423548
Probable space group: P C C A
;
_chemical_formula_sum "Si O2"
_cell_formula_units_Z 56
_cell_length_a 16.277478
_cell_length_b 12.088220
_cell_length_c 14.555539
_cell_angle_alpha 90.000000
_cell_angle_beta 90.000000
_cell_angle_gamma 90.000000
_cell_volume 2864.031331
_symmetry_space_group_name_H-M "P C C A"
_symmetry_group_IT_number 54
_symmetry_cell_setting 'orthorhombic'
loop_
_space_group_symop_operation_xyz
x,y,z
1/2-x,-y,z
1/2+x,-y,1/2-z
-x,y,1/2-z
-x,-y,-z
1/2+x,y,-z
1/2-x,y,1/2+z
x,-y,1/2+z
loop_
_atom_site_type_symbol
_atom_site_label
_atom_site_fract_x
_atom_site_fract_y
_atom_site_fract_z
Si Si1 0.700104 0.888508 0.249923
Si Si2 0.404442 0.572317 0.749270
Si Si3 0.845947 0.402568 0.112720
Si Si4 0.152117 0.486002 0.070923
Si Si5 0.879133 0.227400 0.425180
Si Si6 0.187116 0.733650 0.376101
Si Si7 0.953993 0.193607 0.156736
O O1 0.676665 0.827516 0.345393
O O2 0.760433 0.815622 0.187002
O O3 0.613706 0.895902 0.191997
O O4 0.750000 0.000000 0.268003
O O5 0.500000 0.548398 0.750000
O O6 0.355389 0.469345 0.793324
O O7 0.380238 0.575230 0.643561
O O8 0.381005 0.676929 0.811584
O O9 0.753168 0.361838 0.097507
O O10 0.901341 0.294221 0.117970
O O11 0.876011 0.479358 0.030327
O O12 0.250000 0.500000 0.076307
O O13 0.122203 0.360956 0.090849
O O14 0.846358 0.215351 0.529284
O O15 0.969840 0.174399 0.411634
O O16 0.000000 0.230074 0.250000
#
# Coordination Sequence:
#
# PCOD9423548 Si02
#       7
#     8   8   8   8   8   8   8
#     4  10  23  45  69  89 117 168 223 278 339 401
#     4  12  24  35  53  87 131 174 209 261 314 373
#     4  11  20  37  59  89 128 180 212 246 305 396
#     4  12  21  34  59  89 130 177 218 249 309 385
#     4  11  21  39  65  96 128 168 220 274 326 389
#     4  11  23  40  61  92 133 164 221 274 321 393
#     4   9  20  38  63  94 127 167 215 266 322 385
#
# _framework density 19.552858000000001
#
# number of rings (size 3 to 8) (size 9 to 14) (size 15 to 20)
#    0.000    1.143    2.857    6.000    2.000    1.714 
#    0.000    2.857    0.000    0.000    0.000    0.000 
#    0.000    0.000    0.000    0.000    0.000    0.000 
#
# Total GULP energy -312439.098062 kJ/mol
# GULP energy per Si atom -5579.269608 kJ/mol
# Density = 1.950835 g / cm^3
# Si number density = 19.552858 Si / 1000 Ang^3
#
#
#
# Elastic Constant Matrix: (Units=GPa)
#
#
# Indices 1 2 3 4 5 6 
#
# 1 74.9880 21.2094 13.2293 0.0000 0.0000 0.0000
# 2 21.2094 65.6911 29.4683 0.0000 0.0000 0.0000
# 3 13.2293 29.4683 73.9665 0.0000 0.0000 0.0000
# 4 0.0000 0.0000 0.0000 17.0625 0.0000 0.0000
# 5 0.0000 0.0000 0.0000 0.0000 -5.0504 0.0000
# 6 0.0000 0.0000 0.0000 0.0000 0.0000 19.2438
#
#
#
# Elastic Compliance Matrix: (Units=1/GPa)
#
#
# Indices 1 2 3 4 5 6 
#
# 1 0.014725 -0.004350 -0.000901 0.000000 0.000000 0.000000
# 2 -0.004350 0.019821 -0.007118 0.000000 0.000000 0.000000
# 3 -0.000901 -0.007118 0.016517 0.000000 0.000000 0.000000
# 4 0.000000 0.000000 0.000000 0.058608 0.000000 0.000000
# 5 0.000000 0.000000 0.000000 0.000000 -0.198004 0.000000
# 6 0.000000 0.000000 0.000000 0.000000 0.000000 0.051965
#
#
# Mechanical properties :
#
#
# Convention : Reuss Voigt Hill
#
# Bulk Modulus (GPa) = 37.98856 38.05109 38.01982
# Shear Modulus (GPa) = -1750.59465 16.30042 -867.14712
#
# Velocity S-wave (km/s) = -29.95426 2.89045 -21.08202
# Velocity P-wave (km/s) = 34.30558 5.53556 23.93982
#
# Compressibility (1/GPa) = 0.02632371
#
# Stress axis : x y z
#
# Youngs Moduli (GPa) = 67.91306 50.45272 60.54478
#
# Poissons Ratio (x) = 0.21948 0.05452
# Poissons Ratio (y) = 0.29543 0.43099
# Poissons Ratio (z) = 0.06116 0.35915
#
# Static dielectric constant tensor:
#      x y z
#    x 1.702240 0.000000 0.000000 
#    y 0.000000 1.684450 0.000000 
#    z 0.000000 0.000000 1.701710 
# 
# From -- ./inp_files/13475.got.cif
#   From: 2010.05.17/outbox.cif.g08.bks.cpg/sg54_7_cif.got.tgz:13475.got - 2010.06.03 13:09:01.
