data_PCOD9423265
_publ_section_title
;
Structure prediction by ZEFSAII (Michael W. Deem and Ramdas Pophale) SiO2 
 PCOD9423265
Probable space group: P C C A
;
_chemical_formula_sum "Si O2"
_cell_formula_units_Z 28
_cell_length_a 10.850831
_cell_length_b 14.064607
_cell_length_c 8.255721
_cell_angle_alpha 90.000000
_cell_angle_beta 90.000000
_cell_angle_gamma 90.000000
_cell_volume 1259.927655
_symmetry_space_group_name_H-M "P C C A"
_symmetry_group_IT_number 54
_symmetry_cell_setting 'orthorhombic'
loop_
_space_group_symop_operation_xyz
x,y,z
1/2-x,-y,z
1/2+x,-y,1/2-z
-x,y,1/2-z
-x,-y,-z
1/2+x,y,-z
1/2-x,y,1/2+z
x,-y,1/2+z
loop_
_atom_site_type_symbol
_atom_site_label
_atom_site_fract_x
_atom_site_fract_y
_atom_site_fract_z
Si Si1 0.124950 0.383879 0.651245
Si Si2 0.750000 0.000000 0.330601
Si Si3 0.250000 0.500000 0.900279
Si Si4 0.082467 0.828757 0.084671
Si Si5 0.500000 0.100150 0.750000
O O1 0.225041 0.410629 0.786031
O O2 0.141170 0.464201 0.515682
O O3 0.135592 0.277627 0.585915
O O4 0.000000 0.391428 0.750000
O O5 0.807993 0.906537 0.415267
O O6 0.625495 0.961500 0.246141
O O7 0.000000 0.838242 0.250000
O O8 0.003437 0.844296 0.920875
#
# Coordination Sequence:
#
# PCOD9423265 Si02
#       5
#     8   4   4   8   4
#     4  10  23  44  69 104 140 184 241 293 365 434
#     4  12  26  48  74 112 150 198 246 300 362 436
#     4  10  22  44  72 100 140 186 232 308 358 432
#     4  11  27  46  70 108 145 194 245 296 363 438
#     4  12  28  46  76 104 154 196 242 306 360 428
#
# _framework density 22.223499
#
# number of rings (size 3 to 8) (size 9 to 14) (size 15 to 20)
#    0.000    1.143    1.429    2.571    8.000    2.286 
#   12.857    0.000    0.000    0.000    0.000    0.000 
#    0.000    0.000    0.000    0.000    0.000    0.000 
#
# Total GULP energy -156081.346778 kJ/mol
# GULP energy per Si atom -5574.333814 kJ/mol
# Density = 2.217292 g / cm^3
# Si number density = 22.223499 Si / 1000 Ang^3
#
#
#
# Elastic Constant Matrix: (Units=GPa)
#
#
# Indices 1 2 3 4 5 6 
#
# 1 96.6134 45.1118 44.5448 0.0000 0.0000 0.0000
# 2 45.1118 149.1510 65.2319 0.0000 0.0000 0.0000
# 3 44.5448 65.2319 139.2784 0.0000 0.0000 0.0000
# 4 0.0000 0.0000 0.0000 49.3508 0.0000 0.0000
# 5 0.0000 0.0000 0.0000 0.0000 35.8825 0.0000
# 6 0.0000 0.0000 0.0000 0.0000 0.0000 27.3708
#
#
#
# Elastic Compliance Matrix: (Units=1/GPa)
#
#
# Indices 1 2 3 4 5 6 
#
# 1 0.012918 -0.002641 -0.002895 0.000000 0.000000 0.000000
# 2 -0.002641 0.008972 -0.003357 0.000000 0.000000 0.000000
# 3 -0.002895 -0.003357 0.009678 0.000000 0.000000 0.000000
# 4 0.000000 0.000000 0.000000 0.020263 0.000000 0.000000
# 5 0.000000 0.000000 0.000000 0.000000 0.027869 0.000000
# 6 0.000000 0.000000 0.000000 0.000000 0.000000 0.036535
#
#
# Mechanical properties :
#
#
# Convention : Reuss Voigt Hill
#
# Bulk Modulus (GPa) = 72.55848 77.20221 74.88035
# Shear Modulus (GPa) = 36.07096 37.86442 36.96769
#
# Velocity S-wave (km/s) = 4.03314 4.13219 4.08297
# Velocity P-wave (km/s) = 7.37622 7.58822 7.48297
#
# Compressibility (1/GPa) = 0.01378199
#
# Stress axis : x y z
#
# Youngs Moduli (GPa) = 77.40882 111.46020 103.32711
#
# Poissons Ratio (x) = 0.29440 0.29909
# Poissons Ratio (y) = 0.20446 0.34689
# Poissons Ratio (z) = 0.22406 0.37420
#
# Static dielectric constant tensor:
#      x y z
#    x 1.809900 0.000000 0.000000 
#    y 0.000000 1.809070 0.000000 
#    z 0.000000 0.000000 1.891160 
# 
# From -- ./inp_files/2751.got.cif
#   From: 2010.05.17/outbox.cif.g08.bks.cpg/sg54_2_cif.got.tgz:2751.got - 2010.06.03 13:09:01.
