data_PCOD9423963
_publ_section_title
;
Structure prediction by ZEFSAII (Michael W. Deem and Ramdas Pophale) SiO2 
 PCOD9423963
Probable space group: P C C A
;
_chemical_formula_sum "Si O2"
_cell_formula_units_Z 48
_cell_length_a 13.844815
_cell_length_b 17.144570
_cell_length_c 7.768072
_cell_angle_alpha 90.000000
_cell_angle_beta 90.000000
_cell_angle_gamma 90.000000
_cell_volume 1843.855981
_symmetry_space_group_name_H-M "P C C A"
_symmetry_group_IT_number 54
_symmetry_cell_setting 'orthorhombic'
loop_
_space_group_symop_operation_xyz
x,y,z
1/2-x,-y,z
1/2+x,-y,1/2-z
-x,y,1/2-z
-x,-y,-z
1/2+x,y,-z
1/2-x,y,1/2+z
x,-y,1/2+z
loop_
_atom_site_type_symbol
_atom_site_label
_atom_site_fract_x
_atom_site_fract_y
_atom_site_fract_z
Si Si1 0.558088 0.165516 0.910483
Si Si2 0.307688 0.309257 0.565189
Si Si3 0.355936 0.816240 0.543799
Si Si4 0.612956 0.608113 0.769185
Si Si5 0.109555 0.571302 0.822871
Si Si6 0.288666 0.086821 0.357099
O O1 0.500000 0.131076 0.750000
O O2 0.615259 0.244741 0.872071
O O3 0.697483 0.143465 0.616522
O O4 0.632563 0.105620 0.995898
O O5 0.206902 0.261552 0.569701
O O6 0.336701 0.335786 0.373698
O O7 0.321075 0.382003 0.692375
O O8 0.469285 0.806297 0.529837
O O9 0.338439 0.881631 0.687191
O O10 0.500000 0.627980 0.750000
O O11 0.627195 0.520676 0.693470
O O12 0.624751 0.596840 0.978308
O O13 0.000000 0.585128 0.750000
O O14 0.250000 0.000000 0.352758
#
# Coordination Sequence:
#
# PCOD9423963 Si02
#       6
#     8   8   8   8   8   8
#     4  11  26  51  80 118 166 212 261 325 407 488
#     4  11  24  43  72 117 160 217 276 348 406 498
#     4  11  25  49  75 118 166 203 264 325 404 482
#     4  11  20  36  69 112 158 220 286 355 433 489
#     4  11  19  38  66 112 161 214 290 356 426 500
#     4  11  25  50  84 118 156 206 259 319 388 487
#
# _framework density 26.032402000000001
#
# number of rings (size 3 to 8) (size 9 to 14) (size 15 to 20)
#    0.000    1.000    3.333    4.500    0.000    3.333 
#    9.000    4.167    0.000    2.000    0.000   38.500 
#    0.000    0.167    0.000    0.000    0.000    0.000 
#
# Total GULP energy -268997.193433 kJ/mol
# GULP energy per Si atom -5604.108197 kJ/mol
# Density = 2.597315 g / cm^3
# Si number density = 26.032402 Si / 1000 Ang^3
#
#
#
# Elastic Constant Matrix: (Units=GPa)
#
#
# Indices 1 2 3 4 5 6 
#
# 1 120.2585 50.0164 50.2280 0.0000 0.0000 0.0000
# 2 50.0164 141.6244 57.0837 0.0000 0.0000 0.0000
# 3 50.2280 57.0837 165.9063 0.0000 0.0000 0.0000
# 4 0.0000 0.0000 0.0000 23.0472 0.0000 0.0000
# 5 0.0000 0.0000 0.0000 0.0000 42.5566 0.0000
# 6 0.0000 0.0000 0.0000 0.0000 0.0000 -20.1863
#
#
#
# Elastic Compliance Matrix: (Units=1/GPa)
#
#
# Indices 1 2 3 4 5 6 
#
# 1 0.010388 -0.002788 -0.002186 0.000000 0.000000 0.000000
# 2 -0.002788 0.008946 -0.002234 0.000000 0.000000 0.000000
# 3 -0.002186 -0.002234 0.007458 0.000000 0.000000 0.000000
# 4 0.000000 0.000000 0.000000 0.043389 0.000000 0.000000
# 5 0.000000 0.000000 0.000000 0.000000 0.023498 0.000000
# 6 0.000000 0.000000 0.000000 0.000000 0.000000 -0.049539
#
#
# Mechanical properties :
#
#
# Convention : Reuss Voigt Hill
#
# Bulk Modulus (GPa) = 80.79694 82.49393 81.64544
# Shear Modulus (GPa) = 79.76936 27.11423 53.44179
#
# Velocity S-wave (km/s) = 5.54156 3.23082 4.53580
# Velocity P-wave (km/s) = 8.48820 6.75835 7.67219
#
# Compressibility (1/GPa) = 0.01237671
#
# Stress axis : x y z
#
# Youngs Moduli (GPa) = 96.26772 111.78342 134.08566
#
# Poissons Ratio (x) = 0.31160 0.29308
# Poissons Ratio (y) = 0.26835 0.29956
# Poissons Ratio (z) = 0.21042 0.24973
#
# Static dielectric constant tensor:
#      x y z
#    x 2.115440 0.000000 0.000000 
#    y 0.000000 1.967280 0.000000 
#    z 0.000000 0.000000 2.235060 
# 
# From -- ./inp_files/3593.got.cif
#   From: 2010.05.17/outbox.cif.g08.bks.cpg/sg54_2_cif.got.tgz:3593.got - 2010.06.03 13:09:01.
