data_PCOD9423570
_publ_section_title
;
Structure prediction by ZEFSAII (Michael W. Deem and Ramdas Pophale) SiO2 
 PCOD9423570
Probable space group: P C C A
;
_chemical_formula_sum "Si O2"
_cell_formula_units_Z 48
_cell_length_a 8.539162
_cell_length_b 11.095824
_cell_length_c 22.661529
_cell_angle_alpha 90.000000
_cell_angle_beta 90.000000
_cell_angle_gamma 90.000000
_cell_volume 2147.158087
_symmetry_space_group_name_H-M "P C C A"
_symmetry_group_IT_number 54
_symmetry_cell_setting 'orthorhombic'
loop_
_space_group_symop_operation_xyz
x,y,z
1/2-x,-y,z
1/2+x,-y,1/2-z
-x,y,1/2-z
-x,-y,-z
1/2+x,y,-z
1/2-x,y,1/2+z
x,-y,1/2+z
loop_
_atom_site_type_symbol
_atom_site_label
_atom_site_fract_x
_atom_site_fract_y
_atom_site_fract_z
Si Si1 0.189549 0.864657 0.186168
Si Si2 0.854134 0.689694 0.585221
Si Si3 0.464001 0.363134 0.481490
Si Si4 0.816722 0.867965 0.175183
Si Si5 0.162919 0.628568 0.133097
Si Si6 0.573067 0.525018 0.193629
O O1 0.214752 0.842008 0.255808
O O2 0.257613 0.745717 0.154233
O O3 0.004782 0.864974 0.170013
O O4 0.250000 0.000000 0.172721
O O5 0.992143 0.716816 0.538607
O O6 0.710586 0.647975 0.543373
O O7 0.775079 0.784576 0.629329
O O8 0.916709 0.589468 0.630600
O O9 0.500000 0.500000 0.500000
O O10 0.579070 0.336932 0.427350
O O11 0.750000 0.000000 0.164292
O O12 0.250000 0.500000 0.126872
O O13 0.028765 0.594612 0.181261
O O14 0.750000 0.500000 0.210652
O O15 0.500000 0.590908 0.250000
#
# Coordination Sequence:
#
# PCOD9423570 Si02
#       6
#     8   8   8   8   8   8
#     4  10  23  46  74 102 145 195 238 300 379 447
#     4  12  25  47  69 104 145 191 246 300 360 437
#     4  12  23  45  71  98 150 198 239 296 365 434
#     4  10  23  47  72  99 143 191 244 304 367 443
#     4  12  25  41  72 111 148 192 247 300 364 445
#     4  12  25  42  65 106 151 185 229 298 370 431
#
# _framework density 22.355129999999999
#
# number of rings (size 3 to 8) (size 9 to 14) (size 15 to 20)
#    0.000    0.667    5.000    2.000    7.000    1.333 
#    3.000    1.667    0.000    0.000    0.000    0.000 
#    0.000    0.000    0.000    0.000    0.000    0.000 
#
# Total GULP energy -268414.026134 kJ/mol
# GULP energy per Si atom -5591.958878 kJ/mol
# Density = 2.230425 g / cm^3
# Si number density = 22.355130 Si / 1000 Ang^3
#
#
#
# Elastic Constant Matrix: (Units=GPa)
#
#
# Indices 1 2 3 4 5 6 
#
# 1 85.2873 35.2576 52.9618 0.0000 0.0000 0.0000
# 2 35.2576 104.3511 51.0713 0.0000 0.0000 0.0000
# 3 52.9618 51.0713 143.0328 0.0000 0.0000 0.0000
# 4 0.0000 0.0000 0.0000 23.0651 0.0000 0.0000
# 5 0.0000 0.0000 0.0000 0.0000 47.8378 0.0000
# 6 0.0000 0.0000 0.0000 0.0000 0.0000 32.9120
#
#
#
# Elastic Compliance Matrix: (Units=1/GPa)
#
#
# Indices 1 2 3 4 5 6 
#
# 1 0.015981 -0.003034 -0.004834 0.000000 0.000000 0.000000
# 2 -0.003034 0.012188 -0.003229 0.000000 0.000000 0.000000
# 3 -0.004834 -0.003229 0.009934 0.000000 0.000000 0.000000
# 4 0.000000 0.000000 0.000000 0.043356 0.000000 0.000000
# 5 0.000000 0.000000 0.000000 0.000000 0.020904 0.000000
# 6 0.000000 0.000000 0.000000 0.000000 0.000000 0.030384
#
#
# Mechanical properties :
#
#
# Convention : Reuss Voigt Hill
#
# Bulk Modulus (GPa) = 62.85159 67.91695 65.38427
# Shear Modulus (GPa) = 31.20246 33.65502 32.42874
#
# Velocity S-wave (km/s) = 3.74004 3.88425 3.81283
# Velocity P-wave (km/s) = 6.84300 7.11080 6.97818
#
# Compressibility (1/GPa) = 0.01591050
#
# Stress axis : x y z
#
# Youngs Moduli (GPa) = 62.57367 82.04682 100.66202
#
# Poissons Ratio (x) = 0.24890 0.48663
# Poissons Ratio (y) = 0.18983 0.32500
# Poissons Ratio (z) = 0.30250 0.26490
#
# Static dielectric constant tensor:
#      x y z
#    x 1.949160 0.000000 0.000000 
#    y 0.000000 1.857090 0.000000 
#    z 0.000000 0.000000 1.832580 
# 
# From -- ./inp_files/23488.got.cif
#   From: 2010.05.17/outbox.cif.g08.bks.cpg/sg54_12_cif.got.tgz:23488.got - 2010.06.03 13:09:01.
