data_PCOD9423651
_publ_section_title
;
Structure prediction by ZEFSAII (Michael W. Deem and Ramdas Pophale) SiO2 
 PCOD9423651
Probable space group: P C C A
;
_chemical_formula_sum "Si O2"
_cell_formula_units_Z 36
_cell_length_a 19.624310
_cell_length_b 6.964671
_cell_length_c 10.903389
_cell_angle_alpha 90.000000
_cell_angle_beta 90.000000
_cell_angle_gamma 90.000000
_cell_volume 1490.241002
_symmetry_space_group_name_H-M "P C C A"
_symmetry_group_IT_number 54
_symmetry_cell_setting 'orthorhombic'
loop_
_space_group_symop_operation_xyz
x,y,z
1/2-x,-y,z
1/2+x,-y,1/2-z
-x,y,1/2-z
-x,-y,-z
1/2+x,y,-z
1/2-x,y,1/2+z
x,-y,1/2+z
loop_
_atom_site_type_symbol
_atom_site_label
_atom_site_fract_x
_atom_site_fract_y
_atom_site_fract_z
Si Si1 0.291082 0.322031 0.308451
Si Si2 0.607716 0.377625 0.966603
Si Si3 0.250000 0.000000 0.451188
Si Si4 0.133543 0.015101 0.150706
Si Si5 0.023921 0.728600 0.116357
O O1 0.250000 0.500000 0.247975
O O2 0.336282 0.390398 0.424798
O O3 0.333874 0.154719 0.236505
O O4 0.235263 0.183936 0.369022
O O5 0.541026 0.283727 0.029382
O O6 0.583376 0.587278 0.928480
O O7 0.625803 0.248156 0.846495
O O8 0.315730 0.015648 0.535304
O O9 0.058180 0.934884 0.128941
O O10 0.000000 0.662075 0.250000
#
# Coordination Sequence:
#
# PCOD9423651 Si02
#       5
#     8   8   4   8   8
#     4  11  23  42  67  96 136 180 230 283 347 422
#     4  10  24  44  64 101 139 176 231 294 348 421
#     4  10  24  42  60  98 132 176 228 282 348 416
#     4  11  23  42  68  96 136 176 229 284 354 413
#     4  11  22  43  69 100 132 183 233 287 357 418
#
# _framework density 24.157166
#
# number of rings (size 3 to 8) (size 9 to 14) (size 15 to 20)
#    0.000    1.333    2.222    2.667    0.000    7.111 
#   16.000    0.000    0.000    0.000    0.000    0.000 
#    0.000    0.000    0.000    0.000    0.000    0.000 
#
# Total GULP energy -200527.132399 kJ/mol
# GULP energy per Si atom -5570.198122 kJ/mol
# Density = 2.410218 g / cm^3
# Si number density = 24.157166 Si / 1000 Ang^3
#
#
#
# Elastic Constant Matrix: (Units=GPa)
#
#
# Indices 1 2 3 4 5 6 
#
# 1 55.2788 24.7135 5.5178 0.0000 0.0000 0.0000
# 2 24.7135 73.8503 29.0452 0.0000 0.0000 0.0000
# 3 5.5178 29.0452 65.2377 0.0000 0.0000 0.0000
# 4 0.0000 0.0000 0.0000 17.9304 0.0000 0.0000
# 5 0.0000 0.0000 0.0000 0.0000 40.1461 0.0000
# 6 0.0000 0.0000 0.0000 0.0000 0.0000 42.5288
#
#
#
# Elastic Compliance Matrix: (Units=1/GPa)
#
#
# Indices 1 2 3 4 5 6 
#
# 1 0.021422 -0.007827 0.001673 0.000000 0.000000 0.000000
# 2 -0.007827 0.019275 -0.007920 0.000000 0.000000 0.000000
# 3 0.001673 -0.007920 0.018713 0.000000 0.000000 0.000000
# 4 0.000000 0.000000 0.000000 0.055771 0.000000 0.000000
# 5 0.000000 0.000000 0.000000 0.000000 0.024909 0.000000
# 6 0.000000 0.000000 0.000000 0.000000 0.000000 0.023514
#
#
# Mechanical properties :
#
#
# Convention : Reuss Voigt Hill
#
# Bulk Modulus (GPa) = 31.98669 34.76886 33.37777
# Shear Modulus (GPa) = 24.73141 29.12707 26.92924
#
# Velocity S-wave (km/s) = 3.20311 3.47613 3.34241
# Velocity P-wave (km/s) = 5.19131 5.52588 5.36121
#
# Compressibility (1/GPa) = 0.03126301
#
# Stress axis : x y z
#
# Youngs Moduli (GPa) = 46.68048 51.88114 53.43860
#
# Poissons Ratio (x) = 0.40606 -0.08939
# Poissons Ratio (y) = 0.36535 0.42321
# Poissons Ratio (z) = -0.07808 0.41088
#
# Static dielectric constant tensor:
#      x y z
#    x 1.996780 0.000000 0.000000 
#    y 0.000000 2.020640 0.000000 
#    z 0.000000 0.000000 1.984570 
# 
# From -- ./inp_files/9762.got.cif
#   From: 2010.05.17/outbox.cif.g08.bks.cpg/sg54_5_cif.got.tgz:9762.got - 2010.06.03 13:09:01.
