data_PCOD9423198
_publ_section_title
;
Structure prediction by ZEFSAII (Michael W. Deem and Ramdas Pophale) SiO2 
 PCOD9423198
Probable space group: P C C A
;
_chemical_formula_sum "Si O2"
_cell_formula_units_Z 32
_cell_length_a 8.817075
_cell_length_b 13.827798
_cell_length_c 10.984115
_cell_angle_alpha 90.000000
_cell_angle_beta 90.000000
_cell_angle_gamma 90.000000
_cell_volume 1339.191342
_symmetry_space_group_name_H-M "P C C A"
_symmetry_group_IT_number 54
_symmetry_cell_setting 'orthorhombic'
loop_
_space_group_symop_operation_xyz
x,y,z
1/2-x,-y,z
1/2+x,-y,1/2-z
-x,y,1/2-z
-x,-y,-z
1/2+x,y,-z
1/2-x,y,1/2+z
x,-y,1/2+z
loop_
_atom_site_type_symbol
_atom_site_label
_atom_site_fract_x
_atom_site_fract_y
_atom_site_fract_z
Si Si1 0.522069 0.610326 0.964687
Si Si2 0.807438 0.286625 0.381157
Si Si3 0.182385 0.233057 0.866721
Si Si4 0.425884 0.028674 0.372666
O O1 0.685620 0.627704 0.905622
O O2 0.500000 0.500000 0.000000
O O3 0.473983 0.671981 0.086131
O O4 0.401164 0.662420 0.875171
O O5 0.757052 0.219397 0.495443
O O6 0.784839 0.237160 0.252368
O O7 0.067730 0.144601 0.860479
O O8 0.500000 0.985918 0.250000
O O9 0.250000 0.000000 0.373448
O O10 0.500000 0.000000 0.500000
#
# Coordination Sequence:
#
# PCOD9423198 Si02
#       4
#     8   8   8   8
#     4  10  22  43  68 103 139 186 241 288 359 431
#     4  10  23  44  68  99 141 190 228 299 353 434
#     4  10  26  46  74  97 151 183 247 296 374 433
#     4  12  29  49  79 114 151 195 256 315 386 460
#
# _framework density 23.895018
#
# number of rings (size 3 to 8) (size 9 to 14) (size 15 to 20)
#    1.500    0.000    0.000    3.750   10.500    1.000 
#   13.500    0.000    0.000    0.000    0.000    0.000 
#    0.000    0.000    0.000    0.000    0.000    0.000 
#
# Total GULP energy -178264.217545 kJ/mol
# GULP energy per Si atom -5570.756798 kJ/mol
# Density = 2.384063 g / cm^3
# Si number density = 23.895018 Si / 1000 Ang^3
#
#
#
# Elastic Constant Matrix: (Units=GPa)
#
#
# Indices 1 2 3 4 5 6 
#
# 1 91.1337 10.5328 63.9131 0.0000 0.0000 0.0000
# 2 10.5328 84.0832 61.5138 0.0000 0.0000 0.0000
# 3 63.9131 61.5138 233.3132 0.0000 0.0000 0.0000
# 4 0.0000 0.0000 0.0000 10.7754 0.0000 0.0000
# 5 0.0000 0.0000 0.0000 0.0000 53.2813 0.0000
# 6 0.0000 0.0000 0.0000 0.0000 0.0000 33.9871
#
#
#
# Elastic Compliance Matrix: (Units=1/GPa)
#
#
# Indices 1 2 3 4 5 6 
#
# 1 0.013692 0.001275 -0.004087 0.000000 0.000000 0.000000
# 2 0.001275 0.014854 -0.004265 0.000000 0.000000 0.000000
# 3 -0.004087 -0.004265 0.006530 0.000000 0.000000 0.000000
# 4 0.000000 0.000000 0.000000 0.092804 0.000000 0.000000
# 5 0.000000 0.000000 0.000000 0.000000 0.018768 0.000000
# 6 0.000000 0.000000 0.000000 0.000000 0.000000 0.029423
#
#
# Mechanical properties :
#
#
# Convention : Reuss Voigt Hill
#
# Bulk Modulus (GPa) = 47.79959 75.60549 61.70254
# Shear Modulus (GPa) = 25.35499 37.78010 31.56755
#
# Velocity S-wave (km/s) = 3.26099 3.98060 3.63863
# Velocity P-wave (km/s) = 5.85031 7.26886 6.59782
#
# Compressibility (1/GPa) = 0.02092068
#
# Stress axis : x y z
#
# Youngs Moduli (GPa) = 73.03729 67.32268 153.13497
#
# Poissons Ratio (x) = -0.08581 0.62582
# Poissons Ratio (y) = -0.09310 0.65319
# Poissons Ratio (z) = 0.29848 0.28716
#
# Static dielectric constant tensor:
#      x y z
#    x 2.035130 0.000000 0.000000 
#    y 0.000000 1.972710 0.000000 
#    z 0.000000 0.000000 1.544330 
# 
# From -- ./inp_files/6729.got.cif
#   From: 2010.05.17/outbox.cif.g08.bks.cpg/sg54_4_cif.got.tgz:6729.got - 2010.06.03 13:09:01.
