data_PCOD9423389
_publ_section_title
;
Structure prediction by ZEFSAII (Michael W. Deem and Ramdas Pophale) SiO2 
 PCOD9423389
Probable space group: P C C A
;
_chemical_formula_sum "Si O2"
_cell_formula_units_Z 28
_cell_length_a 34.515217
_cell_length_b 7.033428
_cell_length_c 5.250800
_cell_angle_alpha 90.000000
_cell_angle_beta 90.000000
_cell_angle_gamma 90.000000
_cell_volume 1274.685750
_symmetry_space_group_name_H-M "P C C A"
_symmetry_group_IT_number 54
_symmetry_cell_setting 'orthorhombic'
loop_
_space_group_symop_operation_xyz
x,y,z
1/2-x,-y,z
1/2+x,-y,1/2-z
-x,y,1/2-z
-x,-y,-z
1/2+x,y,-z
1/2-x,y,1/2+z
x,-y,1/2+z
loop_
_atom_site_type_symbol
_atom_site_label
_atom_site_fract_x
_atom_site_fract_y
_atom_site_fract_z
Si Si1 0.845340 0.125800 0.211574
Si Si2 0.734219 0.714116 0.357756
Si Si3 0.000000 0.130735 0.250000
Si Si4 0.078120 0.625728 0.716189
O O1 0.809335 0.267400 0.260036
O O2 0.885558 0.235709 0.244257
O O3 0.842991 0.967323 0.433258
O O4 0.750000 0.500000 0.395783
O O5 0.738865 0.801219 0.637507
O O6 0.038214 0.260118 0.246631
O O7 0.000000 0.000000 0.500000
O O8 0.079845 0.532764 0.437038
#
# Coordination Sequence:
#
# PCOD9423389 Si02
#       4
#     8   8   4   8
#     4  12  26  44  68 101 136 175 228 284 344 397
#     4  10  23  40  66  91 130 172 228 270 348 396
#     4  12  24  46  74 104 146 178 224 282 334 390
#     4  12  26  44  73 102 141 182 229 270 335 410
#
# _framework density 21.966200000000001
#
# number of rings (size 3 to 8) (size 9 to 14) (size 15 to 20)
#    0.000    0.571    0.000    7.714    8.000    3.429 
#    0.000    0.000    0.000    0.000    0.000    0.000 
#    0.000    0.000    0.000    0.000    0.000    0.000 
#
# Total GULP energy -156789.864834 kJ/mol
# GULP energy per Si atom -5599.638030 kJ/mol
# Density = 2.191620 g / cm^3
# Si number density = 21.966200 Si / 1000 Ang^3
#
#
#
# Elastic Constant Matrix: (Units=GPa)
#
#
# Indices 1 2 3 4 5 6 
#
# 1 173.6911 30.7169 -11.8976 0.0000 0.0000 0.0000
# 2 30.7169 72.9151 -12.7188 0.0000 0.0000 0.0000
# 3 -11.8976 -12.7188 114.1107 0.0000 0.0000 0.0000
# 4 0.0000 0.0000 0.0000 37.6966 0.0000 0.0000
# 5 0.0000 0.0000 0.0000 0.0000 34.0676 0.0000
# 6 0.0000 0.0000 0.0000 0.0000 0.0000 53.8872
#
#
#
# Elastic Compliance Matrix: (Units=1/GPa)
#
#
# Indices 1 2 3 4 5 6 
#
# 1 0.006236 -0.002563 0.000364 0.000000 0.000000 0.000000
# 2 -0.002563 0.015040 0.001409 0.000000 0.000000 0.000000
# 3 0.000364 0.001409 0.008958 0.000000 0.000000 0.000000
# 4 0.000000 0.000000 0.000000 0.026528 0.000000 0.000000
# 5 0.000000 0.000000 0.000000 0.000000 0.029353 0.000000
# 6 0.000000 0.000000 0.000000 0.000000 0.000000 0.018557
#
#
# Mechanical properties :
#
#
# Convention : Reuss Voigt Hill
#
# Bulk Modulus (GPa) = 34.89811 41.43533 38.16672
# Shear Modulus (GPa) = 43.17654 48.77139 45.97396
#
# Velocity S-wave (km/s) = 4.43831 4.71711 4.57983
# Velocity P-wave (km/s) = 6.49511 6.96939 6.73642
#
# Compressibility (1/GPa) = 0.02865485
#
# Stress axis : x y z
#
# Youngs Moduli (GPa) = 160.36881 66.48839 111.62605
#
# Poissons Ratio (x) = 0.17043 -0.04068
# Poissons Ratio (y) = 0.41107 -0.15730
# Poissons Ratio (z) = -0.05844 -0.09369
#
# Static dielectric constant tensor:
#      x y z
#    x 1.753270 0.000000 0.000000 
#    y 0.000000 1.509540 0.000000 
#    z 0.000000 0.000000 1.832040 
# 
# From -- ./inp_files/1779.got.cif
#   From: 2010.05.17/outbox.cif.g08.bks.cpg/sg54_1_cif.got.tgz:1779.got - 2010.06.03 13:09:01.
