data_PCOD9423349
_publ_section_title
;
Structure prediction by ZEFSAII (Michael W. Deem and Ramdas Pophale) SiO2 
 PCOD9423349
Probable space group: P C C A
;
_chemical_formula_sum "Si O2"
_cell_formula_units_Z 28
_cell_length_a 15.452449
_cell_length_b 4.852664
_cell_length_c 13.864408
_cell_angle_alpha 90.000000
_cell_angle_beta 90.000000
_cell_angle_gamma 90.000000
_cell_volume 1039.630162
_symmetry_space_group_name_H-M "P C C A"
_symmetry_group_IT_number 54
_symmetry_cell_setting 'orthorhombic'
loop_
_space_group_symop_operation_xyz
x,y,z
1/2-x,-y,z
1/2+x,-y,1/2-z
-x,y,1/2-z
-x,-y,-z
1/2+x,y,-z
1/2-x,y,1/2+z
x,-y,1/2+z
loop_
_atom_site_type_symbol
_atom_site_label
_atom_site_fract_x
_atom_site_fract_y
_atom_site_fract_z
Si Si1 0.844648 0.030355 0.857804
Si Si2 0.501098 0.289334 0.910649
Si Si3 0.750000 0.000000 0.540152
Si Si4 0.099114 0.235741 0.841185
O O1 0.898995 0.758030 0.883243
O O2 0.750000 0.000000 0.812866
O O3 0.897037 0.165647 0.771649
O O4 0.816314 0.148079 0.963523
O O5 0.436617 0.457250 0.842773
O O6 0.462009 0.980019 0.901342
O O7 0.500000 0.500000 0.000000
O O8 0.691294 0.804346 0.605879
#
# Coordination Sequence:
#
# PCOD9423349 Si02
#       4
#     8   8   4   8
#     4  10  24  48  77 114 153 208 261 323 396 472
#     4  12  26  49  78 112 157 206 262 328 398 473
#     4  10  22  50  78 110 158 206 260 326 394 474
#     4  12  26  51  77 113 157 206 263 328 393 477
#
# _framework density 26.932653999999999
#
# number of rings (size 3 to 8) (size 9 to 14) (size 15 to 20)
#    0.857    0.000    4.286    1.714    0.000    5.714 
#    0.000   10.000    0.000    0.000    0.000    0.000 
#    0.000    0.000    0.000    0.000    0.000    0.000 
#
# Total GULP energy -156283.746476 kJ/mol
# GULP energy per Si atom -5581.562374 kJ/mol
# Density = 2.687135 g / cm^3
# Si number density = 26.932654 Si / 1000 Ang^3
#
#
#
# Elastic Constant Matrix: (Units=GPa)
#
#
# Indices 1 2 3 4 5 6 
#
# 1 142.3722 56.2911 37.6667 0.0000 0.0000 0.0000
# 2 56.2911 150.6763 34.6024 0.0000 0.0000 0.0000
# 3 37.6667 34.6024 143.4560 0.0000 0.0000 0.0000
# 4 0.0000 0.0000 0.0000 18.4521 0.0000 0.0000
# 5 0.0000 0.0000 0.0000 0.0000 41.2584 0.0000
# 6 0.0000 0.0000 0.0000 0.0000 0.0000 36.3850
#
#
#
# Elastic Compliance Matrix: (Units=1/GPa)
#
#
# Indices 1 2 3 4 5 6 
#
# 1 0.008560 -0.002839 -0.001563 0.000000 0.000000 0.000000
# 2 -0.002839 0.007968 -0.001176 0.000000 0.000000 0.000000
# 3 -0.001563 -0.001176 0.007665 0.000000 0.000000 0.000000
# 4 0.000000 0.000000 0.000000 0.054194 0.000000 0.000000
# 5 0.000000 0.000000 0.000000 0.000000 0.024237 0.000000
# 6 0.000000 0.000000 0.000000 0.000000 0.000000 0.027484
#
#
# Mechanical properties :
#
#
# Convention : Reuss Voigt Hill
#
# Bulk Modulus (GPa) = 76.71094 77.06943 76.89018
# Shear Modulus (GPa) = 34.33845 39.74872 37.04359
#
# Velocity S-wave (km/s) = 3.57455 3.84585 3.71268
# Velocity P-wave (km/s) = 6.75136 6.95691 6.85490
#
# Compressibility (1/GPa) = 0.01303595
#
# Stress axis : x y z
#
# Youngs Moduli (GPa) = 116.82581 125.50986 130.46575
#
# Poissons Ratio (x) = 0.35632 0.20388
# Poissons Ratio (y) = 0.33166 0.15348
# Poissons Ratio (z) = 0.18257 0.14765
#
# Static dielectric constant tensor:
#      x y z
#    x 2.448150 0.000000 0.000000 
#    y 0.000000 2.048640 0.000000 
#    z 0.000000 0.000000 2.162480 
# 
# From -- ./inp_files/13623.got.cif
#   From: 2010.05.17/outbox.cif.g08.bks.cpg/sg54_7_cif.got.tgz:13623.got - 2010.06.03 13:09:01.
