data_PCOD9423410
_publ_section_title
;
Structure prediction by ZEFSAII (Michael W. Deem and Ramdas Pophale) SiO2 
 PCOD9423410
Probable space group: P C C A
;
_chemical_formula_sum "Si O2"
_cell_formula_units_Z 56
_cell_length_a 14.008931
_cell_length_b 13.441202
_cell_length_c 14.407472
_cell_angle_alpha 90.000000
_cell_angle_beta 90.000000
_cell_angle_gamma 90.000000
_cell_volume 2712.881902
_symmetry_space_group_name_H-M "P C C A"
_symmetry_group_IT_number 54
_symmetry_cell_setting 'orthorhombic'
loop_
_space_group_symop_operation_xyz
x,y,z
1/2-x,-y,z
1/2+x,-y,1/2-z
-x,y,1/2-z
-x,-y,-z
1/2+x,y,-z
1/2-x,y,1/2+z
x,-y,1/2+z
loop_
_atom_site_type_symbol
_atom_site_label
_atom_site_fract_x
_atom_site_fract_y
_atom_site_fract_z
Si Si1 0.502452 0.005752 0.889155
Si Si2 0.259832 0.281426 0.213785
Si Si3 0.581452 0.373039 0.001426
Si Si4 0.448334 0.230965 0.656529
Si Si5 0.843979 0.069361 0.750074
Si Si6 0.613750 0.416477 0.422747
Si Si7 0.267602 0.382350 0.901004
O O1 0.513697 0.120428 0.859710
O O2 0.593317 0.952443 0.842013
O O3 0.409892 0.960387 0.837723
O O4 0.500000 0.000000 0.000000
O O5 0.166945 0.237670 0.161974
O O6 0.318261 0.185374 0.247391
O O7 0.326929 0.359088 0.156626
O O8 0.214598 0.336361 0.302029
O O9 0.500697 0.405015 0.075203
O O10 0.671428 0.334424 0.057813
O O11 0.532381 0.296725 0.932978
O O12 0.623025 0.463981 0.937536
O O13 0.500000 0.268280 0.750000
O O14 0.750000 0.000000 0.749681
O O15 0.654534 0.373355 0.519223
O O16 0.250000 0.500000 0.888613
#
# Coordination Sequence:
#
# PCOD9423410 Si02
#       7
#     8   8   8   8   8   8   8
#     4  11  26  45  70  94 135 176 221 290 352 403
#     4  12  25  40  75  96 136 182 228 277 343 408
#     4  10  23  42  67  94 146 174 224 281 334 407
#     4  12  23  44  70  99 129 181 230 275 345 408
#     4  11  24  48  64 101 135 168 233 291 334 413
#     4  10  23  44  62 103 139 180 224 282 332 404
#     4  10  23  41  65 100 139 178 223 272 329 402
#
# _framework density 20.642256
#
# number of rings (size 3 to 8) (size 9 to 14) (size 15 to 20)
#    0.000    1.143    4.286    0.857    6.000    2.286 
#    0.000    0.000    0.000    0.000    0.000    0.000 
#    0.000    0.000    0.000    0.000    0.000    0.000 
#
# Total GULP energy -312561.837354 kJ/mol
# GULP energy per Si atom -5581.461381 kJ/mol
# Density = 2.059527 g / cm^3
# Si number density = 20.642256 Si / 1000 Ang^3
#
#
#
# Elastic Constant Matrix: (Units=GPa)
#
#
# Indices 1 2 3 4 5 6 
#
# 1 96.1620 7.7340 7.6466 0.0000 0.0000 0.0000
# 2 7.7340 53.1420 8.0306 0.0000 0.0000 0.0000
# 3 7.6466 8.0306 79.1654 0.0000 0.0000 0.0000
# 4 0.0000 0.0000 0.0000 29.6423 0.0000 0.0000
# 5 0.0000 0.0000 0.0000 0.0000 26.1979 0.0000
# 6 0.0000 0.0000 0.0000 0.0000 0.0000 32.0872
#
#
#
# Elastic Compliance Matrix: (Units=1/GPa)
#
#
# Indices 1 2 3 4 5 6 
#
# 1 0.010582 -0.001407 -0.000879 0.000000 0.000000 0.000000
# 2 -0.001407 0.019298 -0.001822 0.000000 0.000000 0.000000
# 3 -0.000879 -0.001822 0.012902 0.000000 0.000000 0.000000
# 4 0.000000 0.000000 0.000000 0.033736 0.000000 0.000000
# 5 0.000000 0.000000 0.000000 0.000000 0.038171 0.000000
# 6 0.000000 0.000000 0.000000 0.000000 0.000000 0.031165
#
#
# Mechanical properties :
#
#
# Convention : Reuss Voigt Hill
#
# Bulk Modulus (GPa) = 28.93110 30.58797 29.75953
# Shear Modulus (GPa) = 30.19485 31.25601 30.72543
#
# Velocity S-wave (km/s) = 3.82877 3.89546 3.86226
# Velocity P-wave (km/s) = 5.79585 5.92310 5.85982
#
# Compressibility (1/GPa) = 0.03456488
#
# Stress axis : x y z
#
# Youngs Moduli (GPa) = 94.49812 51.81992 77.51030
#
# Poissons Ratio (x) = 0.07292 0.06816
# Poissons Ratio (y) = 0.13298 0.14120
# Poissons Ratio (z) = 0.08310 0.09440
#
# Static dielectric constant tensor:
#      x y z
#    x 0.858580 0.000000 0.000000 
#    y 0.000000 1.779330 0.000000 
#    z 0.000000 0.000000 1.757150 
# 
# From -- ./inp_files/13487.got.cif
#   From: 2010.05.17/outbox.cif.g08.bks.cpg/sg54_7_cif.got.tgz:13487.got - 2010.06.03 13:09:01.
