data_PCOD9423984
_publ_section_title
;
Structure prediction by ZEFSAII (Michael W. Deem and Ramdas Pophale) SiO2 
 PCOD9423984
Probable space group: P C C A
;
_chemical_formula_sum "Si O2"
_cell_formula_units_Z 56
_cell_length_a 14.605089
_cell_length_b 11.077707
_cell_length_c 16.767456
_cell_angle_alpha 90.000000
_cell_angle_beta 90.000000
_cell_angle_gamma 90.000000
_cell_volume 2712.821741
_symmetry_space_group_name_H-M "P C C A"
_symmetry_group_IT_number 54
_symmetry_cell_setting 'orthorhombic'
loop_
_space_group_symop_operation_xyz
x,y,z
1/2-x,-y,z
1/2+x,-y,1/2-z
-x,y,1/2-z
-x,-y,-z
1/2+x,y,-z
1/2-x,y,1/2+z
x,-y,1/2+z
loop_
_atom_site_type_symbol
_atom_site_label
_atom_site_fract_x
_atom_site_fract_y
_atom_site_fract_z
Si Si1 0.666959 0.159714 0.953931
Si Si2 0.521304 0.195060 0.084660
Si Si3 0.342669 0.552455 0.068973
Si Si4 0.857042 0.828437 0.536497
Si Si5 0.830290 0.576379 0.602926
Si Si6 0.492178 0.053644 0.656537
Si Si7 0.486589 0.553006 0.839356
O O1 0.664027 0.303370 0.935091
O O2 0.604449 0.096471 0.884696
O O3 0.603703 0.143745 0.031608
O O4 0.770902 0.125348 0.982006
O O5 0.546667 0.326002 0.116923
O O6 0.496428 0.091583 0.147496
O O7 0.433789 0.212155 0.027050
O O8 0.250000 0.500000 0.104733
O O9 0.425238 0.499642 0.118215
O O10 0.349520 0.493685 0.980595
O O11 0.813555 0.713813 0.581817
O O12 0.921200 0.896960 0.602644
O O13 0.750000 0.500000 0.641632
O O14 0.917144 0.558099 0.657191
O O15 0.500000 0.088041 0.750000
O O16 0.500000 0.590986 0.750000
#
# Coordination Sequence:
#
# PCOD9423984 Si02
#       7
#     8   8   8   8   8   8   8
#     4  11  21  40  71  93 120 168 222 252 308 391
#     4  11  22  41  62  88 126 171 217 261 300 378
#     4  11  20  38  63  91 123 155 199 251 307 369
#     4  11  21  40  71  93 120 168 222 252 308 391
#     4  11  20  38  63  91 123 155 199 251 307 369
#     4  11  27  45  62  92 134 165 210 278 325 353
#     4  12  23  35  59  93 128 165 200 247 319 375
#
# _framework density 20.642712
#
# number of rings (size 3 to 8) (size 9 to 14) (size 15 to 20)
#    0.000    0.857    5.714    4.286    0.000    5.143 
#    0.000    7.143    0.000    0.000    0.000    0.000 
#    0.000    0.000    0.000    0.000    0.000    0.000 
#
# Total GULP energy -312178.003716 kJ/mol
# GULP energy per Si atom -5574.607209 kJ/mol
# Density = 2.059573 g / cm^3
# Si number density = 20.642712 Si / 1000 Ang^3
#
#
#
# Elastic Constant Matrix: (Units=GPa)
#
#
# Indices 1 2 3 4 5 6 
#
# 1 93.1760 -6.4182 20.2947 0.0000 0.0000 0.0000
# 2 -6.4182 91.6805 5.7980 0.0000 0.0000 0.0000
# 3 20.2947 5.7980 75.0037 0.0000 0.0000 0.0000
# 4 0.0000 0.0000 0.0000 15.0058 0.0000 0.0000
# 5 0.0000 0.0000 0.0000 0.0000 39.6308 0.0000
# 6 0.0000 0.0000 0.0000 0.0000 0.0000 24.9783
#
#
#
# Elastic Compliance Matrix: (Units=1/GPa)
#
#
# Indices 1 2 3 4 5 6 
#
# 1 0.011496 0.001006 -0.003188 0.000000 0.000000 0.000000
# 2 0.001006 0.011049 -0.001126 0.000000 0.000000 0.000000
# 3 -0.003188 -0.001126 0.014283 0.000000 0.000000 0.000000
# 4 0.000000 0.000000 0.000000 0.066641 0.000000 0.000000
# 5 0.000000 0.000000 0.000000 0.000000 0.025233 0.000000
# 6 0.000000 0.000000 0.000000 0.000000 0.000000 0.040035
#
#
# Mechanical properties :
#
#
# Convention : Reuss Voigt Hill
#
# Bulk Modulus (GPa) = 33.10069 33.24548 33.17309
# Shear Modulus (GPa) = 26.96525 31.93533 29.45029
#
# Velocity S-wave (km/s) = 3.61818 3.93752 3.78122
# Velocity P-wave (km/s) = 5.79006 6.06731 5.93031
#
# Compressibility (1/GPa) = 0.03021085
#
# Stress axis : x y z
#
# Youngs Moduli (GPa) = 86.98531 90.50481 70.01569
#
# Poissons Ratio (x) = -0.09109 0.22324
# Poissons Ratio (y) = -0.08755 0.07887
# Poissons Ratio (z) = 0.27735 0.10195
#
# Static dielectric constant tensor:
#      x y z
#    x 1.745370 0.000000 0.000000 
#    y 0.000000 1.779840 0.000000 
#    z 0.000000 0.000000 1.786730 
# 
# From -- ./inp_files/13483.got.cif
#   From: 2010.05.17/outbox.cif.g08.bks.cpg/sg54_7_cif.got.tgz:13483.got - 2010.06.03 13:09:01.
