data_PCOD9423039
_publ_section_title
;
Structure prediction by ZEFSAII (Michael W. Deem and Ramdas Pophale) SiO2 
 PCOD9423039
Probable space group: P C C A
;
_chemical_formula_sum "Si O2"
_cell_formula_units_Z 44
_cell_length_a 17.898213
_cell_length_b 14.718701
_cell_length_c 8.333378
_cell_angle_alpha 90.000000
_cell_angle_beta 90.000000
_cell_angle_gamma 90.000000
_cell_volume 2195.332147
_symmetry_space_group_name_H-M "P C C A"
_symmetry_group_IT_number 54
_symmetry_cell_setting 'orthorhombic'
loop_
_space_group_symop_operation_xyz
x,y,z
1/2-x,-y,z
1/2+x,-y,1/2-z
-x,y,1/2-z
-x,-y,-z
1/2+x,y,-z
1/2-x,y,1/2+z
x,-y,1/2+z
loop_
_atom_site_type_symbol
_atom_site_label
_atom_site_fract_x
_atom_site_fract_y
_atom_site_fract_z
Si Si1 0.810239 0.865994 0.025202
Si Si2 0.700935 0.701200 0.934162
Si Si3 0.046286 0.575474 0.595015
Si Si4 0.750000 0.000000 0.784194
Si Si5 0.308127 0.576710 0.271987
Si Si6 0.577325 0.734468 0.659357
O O1 0.744087 0.791881 0.993890
O O2 0.791127 0.924420 0.180864
O O3 0.887192 0.814035 0.051850
O O4 0.807732 0.941701 0.888248
O O5 0.669316 0.642738 0.082370
O O6 0.764414 0.639970 0.852615
O O7 0.638970 0.717414 0.798347
O O8 0.121433 0.536416 0.677465
O O9 0.066517 0.650657 0.462652
O O10 0.000000 0.610465 0.750000
O O11 0.000000 0.500000 0.500000
O O12 0.250000 0.500000 0.327776
O O13 0.500000 0.753774 0.750000
#
# Coordination Sequence:
#
# PCOD9423039 Si02
#       6
#     8   8   8   4   8   8
#     4  11  21  44  74 109 140 188 230 300 364 434
#     4  12  23  45  72 100 141 188 245 294 362 436
#     4  12  29  47  66  95 143 191 242 303 364 419
#     4  10  22  40  78 114 142 168 250 298 358 446
#     4  12  26  40  67 101 132 187 248 306 347 425
#     4  12  26  47  69 103 145 191 239 298 370 438
#
# _framework density 20.042524
#
# number of rings (size 3 to 8) (size 9 to 14) (size 15 to 20)
#    0.000    0.364    5.455    2.182   10.182    0.000 
#    0.000    0.909    0.000    0.000    0.000    0.000 
#    0.000    0.000    0.000    0.000    0.000    0.000 
#
# Total GULP energy -246045.405524 kJ/mol
# GULP energy per Si atom -5591.941035 kJ/mol
# Density = 1.999691 g / cm^3
# Si number density = 20.042524 Si / 1000 Ang^3
#
#
#
# Elastic Constant Matrix: (Units=GPa)
#
#
# Indices 1 2 3 4 5 6 
#
# 1 109.4298 39.5614 42.3211 0.0000 0.0000 0.0000
# 2 39.5614 124.8213 60.4343 0.0000 0.0000 0.0000
# 3 42.3211 60.4343 115.5158 0.0000 0.0000 0.0000
# 4 0.0000 0.0000 0.0000 352.3755 0.0000 0.0000
# 5 0.0000 0.0000 0.0000 0.0000 13.0890 0.0000
# 6 0.0000 0.0000 0.0000 0.0000 0.0000 36.6881
#
#
#
# Elastic Compliance Matrix: (Units=1/GPa)
#
#
# Indices 1 2 3 4 5 6 
#
# 1 0.011029 -0.002061 -0.002962 0.000000 0.000000 0.000000
# 2 -0.002061 0.011114 -0.005059 0.000000 0.000000 0.000000
# 3 -0.002962 -0.005059 0.012389 0.000000 0.000000 0.000000
# 4 0.000000 0.000000 0.000000 0.002838 0.000000 0.000000
# 5 0.000000 0.000000 0.000000 0.000000 0.076400 0.000000
# 6 0.000000 0.000000 0.000000 0.000000 0.000000 0.027257
#
#
# Mechanical properties :
#
#
# Convention : Reuss Voigt Hill
#
# Bulk Modulus (GPa) = 69.60710 70.48895 70.04803
# Shear Modulus (GPa) = 30.12363 94.26051 62.19207
#
# Velocity S-wave (km/s) = 3.88104 6.86530 5.57651
# Velocity P-wave (km/s) = 7.40867 9.90400 8.74579
#
# Compressibility (1/GPa) = 0.01436635
#
# Stress axis : x y z
#
# Youngs Moduli (GPa) = 90.66877 89.97305 80.71636
#
# Poissons Ratio (x) = 0.18547 0.23910
# Poissons Ratio (y) = 0.18691 0.40838
# Poissons Ratio (z) = 0.26858 0.45522
#
# Static dielectric constant tensor:
#      x y z
#    x 1.704520 0.000000 0.000000 
#    y 0.000000 2.093140 0.000000 
#    z 0.000000 0.000000 1.759070 
# 
# From -- ./inp_files/4117.got.cif
#   From: 2010.05.17/outbox.cif.g08.bks.cpg/sg54_3_cif.got.tgz:4117.got - 2010.06.03 13:09:01.
