data_PCOD9423962
_publ_section_title
;
Structure prediction by ZEFSAII (Michael W. Deem and Ramdas Pophale) SiO2 
 PCOD9423962
Probable space group: P C C A
;
_chemical_formula_sum "Si O2"
_cell_formula_units_Z 48
_cell_length_a 31.379362
_cell_length_b 8.066816
_cell_length_c 8.540588
_cell_angle_alpha 90.000000
_cell_angle_beta 90.000000
_cell_angle_gamma 90.000000
_cell_volume 2161.892188
_symmetry_space_group_name_H-M "P C C A"
_symmetry_group_IT_number 54
_symmetry_cell_setting 'orthorhombic'
loop_
_space_group_symop_operation_xyz
x,y,z
1/2-x,-y,z
1/2+x,-y,1/2-z
-x,y,1/2-z
-x,-y,-z
1/2+x,y,-z
1/2-x,y,1/2+z
x,-y,1/2+z
loop_
_atom_site_type_symbol
_atom_site_label
_atom_site_fract_x
_atom_site_fract_y
_atom_site_fract_z
Si Si1 0.531525 0.077015 0.126973
Si Si2 0.708318 0.596324 0.464234
Si Si3 0.655685 0.087764 0.447961
Si Si4 0.084952 0.826090 0.654177
Si Si5 0.352195 0.369348 0.819337
Si Si6 0.214346 0.880913 0.319494
O O1 0.500000 0.166621 0.250000
O O2 0.555072 0.927735 0.222564
O O3 0.563456 0.183442 0.018725
O O4 0.500000 0.000000 0.000000
O O5 0.750000 0.500000 0.406542
O O6 0.671677 0.507041 0.571858
O O7 0.683732 0.665834 0.312944
O O8 0.729991 0.730457 0.577885
O O9 0.636248 0.227281 0.556118
O O10 0.682660 0.176972 0.314231
O O11 0.623263 0.958020 0.373797
O O12 0.687371 0.989474 0.559796
O O13 0.104276 0.650730 0.714951
O O14 0.250000 0.000000 0.250377
#
# Coordination Sequence:
#
# PCOD9423962 Si02
#       6
#     8   8   8   8   8   8
#     4   9  19  35  64 104 140 160 195 269 346 404
#     4  12  27  45  61  88 134 183 243 281 327 391
#     4  12  22  39  64  92 126 167 226 280 337 382
#     4  11  19  38  63  99 137 161 212 268 336 406
#     4  12  25  43  64  91 132 182 220 287 336 389
#     4  12  24  40  62  90 126 177 233 287 336 384
#
# _framework density 22.202774000000002
#
# number of rings (size 3 to 8) (size 9 to 14) (size 15 to 20)
#    0.000    0.667    5.000    3.000    0.000    4.000 
#    0.000    1.667    0.000    0.000    0.000   15.167 
#    0.000    0.000    0.000    0.000    0.000    0.000 
#
# Total GULP energy -267569.622781 kJ/mol
# GULP energy per Si atom -5574.367141 kJ/mol
# Density = 2.215224 g / cm^3
# Si number density = 22.202774 Si / 1000 Ang^3
#
#
#
# Elastic Constant Matrix: (Units=GPa)
#
#
# Indices 1 2 3 4 5 6 
#
# 1 79.9271 2.7035 24.9584 0.0000 0.0000 0.0000
# 2 2.7035 20.2915 -1.2204 0.0000 0.0000 0.0000
# 3 24.9584 -1.2204 107.6327 0.0000 0.0000 0.0000
# 4 0.0000 0.0000 0.0000 21.3753 0.0000 0.0000
# 5 0.0000 0.0000 0.0000 0.0000 59.8353 0.0000
# 6 0.0000 0.0000 0.0000 0.0000 0.0000 11.2851
#
#
#
# Elastic Compliance Matrix: (Units=1/GPa)
#
#
# Indices 1 2 3 4 5 6 
#
# 1 0.013569 -0.001998 -0.003169 0.000000 0.000000 0.000000
# 2 -0.001998 0.049610 0.001026 0.000000 0.000000 0.000000
# 3 -0.003169 0.001026 0.010037 0.000000 0.000000 0.000000
# 4 0.000000 0.000000 0.000000 0.046783 0.000000 0.000000
# 5 0.000000 0.000000 0.000000 0.000000 0.016713 0.000000
# 6 0.000000 0.000000 0.000000 0.000000 0.000000 0.088613
#
#
# Mechanical properties :
#
#
# Convention : Reuss Voigt Hill
#
# Bulk Modulus (GPa) = 15.40061 28.97048 22.18555
# Shear Modulus (GPa) = 19.58858 30.59312 25.09085
#
# Velocity S-wave (km/s) = 2.97351 3.71603 3.36531
# Velocity P-wave (km/s) = 4.32902 5.61144 5.01142
#
# Compressibility (1/GPa) = 0.06493248
#
# Stress axis : x y z
#
# Youngs Moduli (GPa) = 73.69977 20.15740 99.62805
#
# Poissons Ratio (x) = 0.04028 0.31572
# Poissons Ratio (y) = 0.14728 -0.10221
# Poissons Ratio (z) = 0.23355 -0.02068
#
# Static dielectric constant tensor:
#      x y z
#    x 1.862900 0.000000 0.000000 
#    y 0.000000 1.887370 0.000000 
#    z 0.000000 0.000000 1.854370 
# 
# From -- ./inp_files/5843.got.cif
#   From: 2010.05.17/outbox.cif.g08.bks.cpg/sg54_3_cif.got.tgz:5843.got - 2010.06.03 13:09:01.
