data_PCOD9423236
_publ_section_title
;
Structure prediction by ZEFSAII (Michael W. Deem and Ramdas Pophale) SiO2 
 PCOD9423236
Probable space group: P C C A
;
_chemical_formula_sum "Si O2"
_cell_formula_units_Z 32
_cell_length_a 12.991192
_cell_length_b 7.068877
_cell_length_c 17.632831
_cell_angle_alpha 90.000000
_cell_angle_beta 90.000000
_cell_angle_gamma 90.000000
_cell_volume 1619.278208
_symmetry_space_group_name_H-M "P C C A"
_symmetry_group_IT_number 54
_symmetry_cell_setting 'orthorhombic'
loop_
_space_group_symop_operation_xyz
x,y,z
1/2-x,-y,z
1/2+x,-y,1/2-z
-x,y,1/2-z
-x,-y,-z
1/2+x,y,-z
1/2-x,y,1/2+z
x,-y,1/2+z
loop_
_atom_site_type_symbol
_atom_site_label
_atom_site_fract_x
_atom_site_fract_y
_atom_site_fract_z
Si Si1 0.934277 0.598752 0.853745
Si Si2 0.670817 0.341728 0.608867
Si Si3 0.000000 0.736411 0.250000
Si Si4 0.352639 0.069917 0.756080
Si Si5 0.250000 0.500000 0.536032
O O1 0.941051 0.405259 0.805775
O O2 0.909579 0.776740 0.798166
O O3 0.843253 0.577404 0.913883
O O4 0.048941 0.612741 0.888721
O O5 0.750000 0.500000 0.641364
O O6 0.679495 0.170929 0.666405
O O7 0.707465 0.338670 0.521785
O O8 0.082765 0.886136 0.279954
O O9 0.250000 0.000000 0.714490
#
# Coordination Sequence:
#
# PCOD9423236 Si02
#       5
#     8   8   4   8   4
#     4  12  22  47  68 103 134 180 230 283 343 395
#     4  10  22  44  66  97 137 182 217 277 345 404
#     4  12  22  40  74 100 128 174 228 298 322 392
#     4  12  24  41  72 104 134 173 237 283 339 400
#     4  10  26  38  74  92 140 192 212 276 350 418
#
# _framework density 19.761890999999999
#
# number of rings (size 3 to 8) (size 9 to 14) (size 15 to 20)
#    0.750    0.000    5.000    3.750    1.750    0.000 
#    0.000    5.000    0.000    0.000    0.000    0.000 
#    0.000    0.000    0.000    0.000    0.000    0.000 
#
# Total GULP energy -178235.483120 kJ/mol
# GULP energy per Si atom -5569.858847 kJ/mol
# Density = 1.971691 g / cm^3
# Si number density = 19.761891 Si / 1000 Ang^3
#
#
#
# Elastic Constant Matrix: (Units=GPa)
#
#
# Indices 1 2 3 4 5 6 
#
# 1 165.8110 66.7142 64.2477 0.0000 0.0000 0.0000
# 2 66.7142 120.2911 56.6280 0.0000 0.0000 0.0000
# 3 64.2477 56.6280 118.7422 0.0000 0.0000 0.0000
# 4 0.0000 0.0000 0.0000 -3.1595 0.0000 0.0000
# 5 0.0000 0.0000 0.0000 0.0000 163.4806 0.0000
# 6 0.0000 0.0000 0.0000 0.0000 0.0000 44.8484
#
#
#
# Elastic Compliance Matrix: (Units=1/GPa)
#
#
# Indices 1 2 3 4 5 6 
#
# 1 0.008540 -0.003302 -0.003046 0.000000 0.000000 0.000000
# 2 -0.003302 0.011997 -0.003934 0.000000 0.000000 0.000000
# 3 -0.003046 -0.003934 0.011946 0.000000 0.000000 0.000000
# 4 0.000000 0.000000 0.000000 -0.316510 0.000000 0.000000
# 5 0.000000 0.000000 0.000000 0.000000 0.006117 0.000000
# 6 0.000000 0.000000 0.000000 0.000000 0.000000 0.022297
#
#
# Mechanical properties :
#
#
# Convention : Reuss Voigt Hill
#
# Bulk Modulus (GPa) = 83.91096 86.66935 85.29015
# Shear Modulus (GPa) = -21.63799 55.51755 16.93978
#
# Velocity S-wave (km/s) = -3.31257 5.30606 2.93096
# Velocity P-wave (km/s) = 5.28416 9.02724 7.39640
#
# Compressibility (1/GPa) = 0.01191739
#
# Stress axis : x y z
#
# Youngs Moduli (GPa) = 117.09804 83.35489 83.71094
#
# Poissons Ratio (x) = 0.27528 0.25496
# Poissons Ratio (y) = 0.38671 0.32936
# Poissons Ratio (z) = 0.35665 0.32795
#
# Static dielectric constant tensor:
#      x y z
#    x 1.788180 0.000000 0.000000 
#    y 0.000000 1.700660 0.000000 
#    z 0.000000 0.000000 1.688670 
# 
# From -- ./inp_files/17639.got.cif
#   From: 2010.05.17/outbox.cif.g08.bks.cpg/sg54_9_cif.got.tgz:17639.got - 2010.06.03 13:09:01.
