data_PCOD9423625
_publ_section_title
;
Structure prediction by ZEFSAII (Michael W. Deem and Ramdas Pophale) SiO2 
 PCOD9423625
Probable space group: P C C A
;
_chemical_formula_sum "Si O2"
_cell_formula_units_Z 56
_cell_length_a 13.367925
_cell_length_b 15.137224
_cell_length_c 12.318045
_cell_angle_alpha 90.000000
_cell_angle_beta 90.000000
_cell_angle_gamma 90.000000
_cell_volume 2492.596749
_symmetry_space_group_name_H-M "P C C A"
_symmetry_group_IT_number 54
_symmetry_cell_setting 'orthorhombic'
loop_
_space_group_symop_operation_xyz
x,y,z
1/2-x,-y,z
1/2+x,-y,1/2-z
-x,y,1/2-z
-x,-y,-z
1/2+x,y,-z
1/2-x,y,1/2+z
x,-y,1/2+z
loop_
_atom_site_type_symbol
_atom_site_label
_atom_site_fract_x
_atom_site_fract_y
_atom_site_fract_z
Si Si1 0.609186 0.775555 0.578764
Si Si2 0.303562 0.857210 0.721250
Si Si3 0.000000 0.715972 0.750000
Si Si4 0.382630 0.409721 0.911473
Si Si5 0.151880 0.398464 0.863989
Si Si6 0.597597 0.877472 0.367440
Si Si7 0.604414 0.695161 0.865557
Si Si8 0.000000 0.978014 0.250000
O O1 0.693495 0.805561 0.664368
O O2 0.637582 0.676748 0.543994
O O3 0.602624 0.851833 0.491995
O O4 0.499468 0.751312 0.626704
O O5 0.202868 0.905564 0.685937
O O6 0.317967 0.776773 0.635993
O O7 0.401832 0.917981 0.737205
O O8 0.050907 0.653974 0.838373
O O9 0.073600 0.784916 0.691580
O O10 0.270613 0.408922 0.862905
O O11 0.406921 0.513674 0.898694
O O12 0.384721 0.369907 0.032662
O O13 0.117272 0.360986 0.746079
O O14 0.512731 0.951013 0.347448
#
# Coordination Sequence:
#
# PCOD9423625 Si02
#       8
#     8   8   4   8   8   8   8   4
#     4  11  22  44  69  97 133 189 231 279 351 429
#     4  11  22  46  72  98 138 182 226 288 349 430
#     4  11  22  40  61 100 142 180 229 296 340 411
#     4  11  24  40  64 100 140 186 238 297 347 406
#     4  10  24  40  64  99 138 187 245 292 346 411
#     4  11  25  42  69 102 139 177 230 284 360 423
#     4  11  22  43  70  94 139 189 235 287 356 425
#     4  11  24  46  69 104 138 168 225 300 350 421
#
# _framework density 22.466531
#
# number of rings (size 3 to 8) (size 9 to 14) (size 15 to 20)
#    0.000    1.143    2.857    4.286    2.000    4.571 
#    0.000    1.429    0.000    0.000    0.000    0.000 
#    0.000    0.000    0.000    0.000    0.000    0.000 
#
# Total GULP energy -312216.547078 kJ/mol
# GULP energy per Si atom -5575.295484 kJ/mol
# Density = 2.241540 g / cm^3
# Si number density = 22.466531 Si / 1000 Ang^3
#
#
#
# Elastic Constant Matrix: (Units=GPa)
#
#
# Indices 1 2 3 4 5 6 
#
# 1 92.8047 29.9658 26.2096 0.0000 0.0000 0.0000
# 2 29.9658 147.5776 41.6083 0.0000 0.0000 0.0000
# 3 26.2096 41.6083 111.6175 0.0000 0.0000 0.0000
# 4 0.0000 0.0000 0.0000 -12.0851 0.0000 0.0000
# 5 0.0000 0.0000 0.0000 0.0000 23.9785 0.0000
# 6 0.0000 0.0000 0.0000 0.0000 0.0000 36.0900
#
#
#
# Elastic Compliance Matrix: (Units=1/GPa)
#
#
# Indices 1 2 3 4 5 6 
#
# 1 0.011967 -0.001830 -0.002128 0.000000 0.000000 0.000000
# 2 -0.001830 0.007852 -0.002497 0.000000 0.000000 0.000000
# 3 -0.002128 -0.002497 0.010390 0.000000 0.000000 0.000000
# 4 0.000000 0.000000 0.000000 -0.082746 0.000000 0.000000
# 5 0.000000 0.000000 0.000000 0.000000 0.041704 0.000000
# 6 0.000000 0.000000 0.000000 0.000000 0.000000 0.027708
#
#
# Mechanical properties :
#
#
# Convention : Reuss Voigt Hill
#
# Bulk Modulus (GPa) = 57.80883 60.84077 59.32480
# Shear Modulus (GPa) = 140.64175 26.54442 83.59308
#
# Velocity S-wave (km/s) = 7.92064 3.44104 6.10644
# Velocity P-wave (km/s) = 10.46115 6.55188 8.72819
#
# Compressibility (1/GPa) = 0.01729840
#
# Stress axis : x y z
#
# Youngs Moduli (GPa) = 83.56202 127.36005 96.24878
#
# Poissons Ratio (x) = 0.23307 0.20481
# Poissons Ratio (y) = 0.15292 0.24036
# Poissons Ratio (z) = 0.17781 0.31805
#
# Static dielectric constant tensor:
#      x y z
#    x 1.946080 0.000000 0.000000 
#    y 0.000000 1.943210 0.000000 
#    z 0.000000 0.000000 1.869310 
# 
# From -- ./inp_files/8489.got.cif
#   From: 2010.05.17/outbox.cif.g08.bks.cpg/sg54_5_cif.got.tgz:8489.got - 2010.06.03 13:09:01.
