data_PCOD9423737
_publ_section_title
;
Structure prediction by ZEFSAII (Michael W. Deem and Ramdas Pophale) SiO2 
 PCOD9423737
Probable space group: P C C A
;
_chemical_formula_sum "Si O2"
_cell_formula_units_Z 32
_cell_length_a 12.258243
_cell_length_b 9.381194
_cell_length_c 11.429952
_cell_angle_alpha 90.000000
_cell_angle_beta 90.000000
_cell_angle_gamma 90.000000
_cell_volume 1314.409684
_symmetry_space_group_name_H-M "P C C A"
_symmetry_group_IT_number 54
_symmetry_cell_setting 'orthorhombic'
loop_
_space_group_symop_operation_xyz
x,y,z
1/2-x,-y,z
1/2+x,-y,1/2-z
-x,y,1/2-z
-x,-y,-z
1/2+x,y,-z
1/2-x,y,1/2+z
x,-y,1/2+z
loop_
_atom_site_type_symbol
_atom_site_label
_atom_site_fract_x
_atom_site_fract_y
_atom_site_fract_z
Si Si1 0.322354 0.637188 0.706802
Si Si2 0.048863 0.632457 0.431442
Si Si3 0.989377 0.154390 0.381231
Si Si4 0.341855 0.894257 0.568901
O O1 0.250000 0.500000 0.668519
O O2 0.440778 0.661360 0.645591
O O3 0.351745 0.614661 0.842342
O O4 0.282014 0.791673 0.664109
O O5 0.078244 0.748830 0.528262
O O6 0.000000 0.500000 0.500000
O O7 0.000000 0.211388 0.250000
O O8 0.104965 0.164842 0.449121
O O9 0.938917 0.995074 0.377882
O O10 0.250000 0.000000 0.527413
#
# Coordination Sequence:
#
# PCOD9423737 Si02
#       4
#     8   8   8   8
#     4  10  24  46  73 102 139 182 234 293 351 423
#     4  10  24  44  70 101 142 185 233 291 355 420
#     4  10  24  44  71 100 144 189 233 291 354 421
#     4  10  24  44  72 106 141 184 236 290 353 421
#
# _framework density 24.345531000000001
#
# number of rings (size 3 to 8) (size 9 to 14) (size 15 to 20)
#    0.000    2.000    0.000    0.000   17.500    2.000 
#    4.500    0.000    0.000    1.500    0.000    0.000 
#    0.000    0.000    0.000    0.000    0.000    0.000 
#
# Total GULP energy -178214.335132 kJ/mol
# GULP energy per Si atom -5569.197973 kJ/mol
# Density = 2.429012 g / cm^3
# Si number density = 24.345531 Si / 1000 Ang^3
#
#
#
# Elastic Constant Matrix: (Units=GPa)
#
#
# Indices 1 2 3 4 5 6 
#
# 1 61.6315 19.9973 36.2679 0.0000 0.0000 0.0000
# 2 19.9973 128.0608 59.7458 0.0000 0.0000 0.0000
# 3 36.2679 59.7458 168.4057 0.0000 0.0000 0.0000
# 4 0.0000 0.0000 0.0000 22.7947 0.0000 0.0000
# 5 0.0000 0.0000 0.0000 0.0000 29.8964 0.0000
# 6 0.0000 0.0000 0.0000 0.0000 0.0000 37.7826
#
#
#
# Elastic Compliance Matrix: (Units=1/GPa)
#
#
# Indices 1 2 3 4 5 6 
#
# 1 0.018746 -0.001251 -0.003593 0.000000 0.000000 0.000000
# 2 -0.001251 0.009441 -0.003080 0.000000 0.000000 0.000000
# 3 -0.003593 -0.003080 0.007805 0.000000 0.000000 0.000000
# 4 0.000000 0.000000 0.000000 0.043870 0.000000 0.000000
# 5 0.000000 0.000000 0.000000 0.000000 0.033449 0.000000
# 6 0.000000 0.000000 0.000000 0.000000 0.000000 0.026467
#
#
# Mechanical properties :
#
#
# Convention : Reuss Voigt Hill
#
# Bulk Modulus (GPa) = 49.64472 65.56890 57.60681
# Shear Modulus (GPa) = 30.79948 34.23388 32.51668
#
# Velocity S-wave (km/s) = 3.56068 3.75396 3.65860
# Velocity P-wave (km/s) = 6.11069 6.76614 6.44675
#
# Compressibility (1/GPa) = 0.02014313
#
# Stress axis : x y z
#
# Youngs Moduli (GPa) = 53.34503 105.92000 128.12900
#
# Poissons Ratio (x) = 0.13248 0.46042
# Poissons Ratio (y) = 0.06672 0.39465
# Poissons Ratio (z) = 0.19169 0.32624
#
# Static dielectric constant tensor:
#      x y z
#    x 1.840120 0.000000 0.000000 
#    y 0.000000 5.705740 0.000000 
#    z 0.000000 0.000000 2.034740 
# 
# From -- ./inp_files/7956.got.cif
#   From: 2010.05.17/outbox.cif.g08.bks.cpg/sg54_4_cif.got.tgz:7956.got - 2010.06.03 13:09:01.
