data_PCOD9423131
_publ_section_title
;
Structure prediction by ZEFSAII (Michael W. Deem and Ramdas Pophale) SiO2 
 PCOD9423131
Probable space group: P C C A
;
_chemical_formula_sum "Si O2"
_cell_formula_units_Z 32
_cell_length_a 15.042738
_cell_length_b 8.243424
_cell_length_c 11.029947
_cell_angle_alpha 90.000000
_cell_angle_beta 90.000000
_cell_angle_gamma 90.000000
_cell_volume 1367.753880
_symmetry_space_group_name_H-M "P C C A"
_symmetry_group_IT_number 54
_symmetry_cell_setting 'orthorhombic'
loop_
_space_group_symop_operation_xyz
x,y,z
1/2-x,-y,z
1/2+x,-y,1/2-z
-x,y,1/2-z
-x,-y,-z
1/2+x,y,-z
1/2-x,y,1/2+z
x,-y,1/2+z
loop_
_atom_site_type_symbol
_atom_site_label
_atom_site_fract_x
_atom_site_fract_y
_atom_site_fract_z
Si Si1 0.605678 0.613302 0.421998
Si Si2 0.904159 0.290203 0.790829
Si Si3 0.407608 0.293326 0.943180
Si Si4 0.224036 0.183933 0.237443
O O1 0.590947 0.482288 0.314678
O O2 0.613604 0.486623 0.534096
O O3 0.514485 0.712617 0.431067
O O4 0.688456 0.720543 0.381306
O O5 0.816980 0.256529 0.714435
O O6 0.000000 0.231187 0.750000
O O7 0.886403 0.218287 0.925183
O O8 0.352704 0.211463 0.836926
O O9 0.250000 0.000000 0.214076
#
# Coordination Sequence:
#
# PCOD9423131 Si02
#       4
#     8   8   8   8
#     4   9  21  44  70 100 131 179 246 293 342 410
#     4  10  22  42  67 102 133 184 243 292 340 421
#     4   9  22  43  73  97 134 186 236 299 348 415
#     4  12  25  42  67 106 147 180 223 295 372 430
#
# _framework density 23.396024000000001
#
# number of rings (size 3 to 8) (size 9 to 14) (size 15 to 20)
#    1.500    0.500    0.000    3.000    0.000    5.000 
#    9.000    2.500    0.000    0.000    0.000    1.750 
#    0.000    0.000    0.000    0.000    0.000    0.000 
#
# Total GULP energy -178491.726081 kJ/mol
# GULP energy per Si atom -5577.866440 kJ/mol
# Density = 2.334277 g / cm^3
# Si number density = 23.396024 Si / 1000 Ang^3
#
#
#
# Elastic Constant Matrix: (Units=GPa)
#
#
# Indices 1 2 3 4 5 6 
#
# 1 138.2554 31.9733 12.7508 0.0000 0.0000 0.0000
# 2 31.9733 51.5756 11.6915 0.0000 0.0000 0.0000
# 3 12.7508 11.6915 50.9523 0.0000 0.0000 0.0000
# 4 0.0000 0.0000 0.0000 8.8581 0.0000 0.0000
# 5 0.0000 0.0000 0.0000 0.0000 32.5559 0.0000
# 6 0.0000 0.0000 0.0000 0.0000 0.0000 -28.2823
#
#
#
# Elastic Compliance Matrix: (Units=1/GPa)
#
#
# Indices 1 2 3 4 5 6 
#
# 1 0.008488 -0.005043 -0.000967 0.000000 0.000000 0.000000
# 2 -0.005043 0.023449 -0.004119 0.000000 0.000000 0.000000
# 3 -0.000967 -0.004119 0.020813 0.000000 0.000000 0.000000
# 4 0.000000 0.000000 0.000000 0.112891 0.000000 0.000000
# 5 0.000000 0.000000 0.000000 0.000000 0.030716 0.000000
# 6 0.000000 0.000000 0.000000 0.000000 0.000000 -0.035358
#
#
# Mechanical properties :
#
#
# Convention : Reuss Voigt Hill
#
# Bulk Modulus (GPa) = 30.77554 39.29051 35.03302
# Shear Modulus (GPa) = 26.02968 14.91753 20.47360
#
# Velocity S-wave (km/s) = 3.33914 2.52783 2.96140
# Velocity P-wave (km/s) = 5.29615 5.03488 5.16717
#
# Compressibility (1/GPa) = 0.03249334
#
# Stress axis : x y z
#
# Youngs Moduli (GPa) = 117.80726 42.64581 48.04629
#
# Poissons Ratio (x) = 0.21506 0.04646
# Poissons Ratio (y) = 0.59410 0.19788
# Poissons Ratio (z) = 0.11393 0.17564
#
# Static dielectric constant tensor:
#      x y z
#    x 1.894530 0.000000 0.000000 
#    y 0.000000 1.879910 0.000000 
#    z 0.000000 0.000000 1.965440 
# 
# From -- ./inp_files/13009.got.cif
#   From: 2010.05.17/outbox.cif.g08.bks.cpg/sg54_7_cif.got.tgz:13009.got - 2010.06.03 13:09:01.
