data_PCOD9423630
_publ_section_title
;
Structure prediction by ZEFSAII (Michael W. Deem and Ramdas Pophale) SiO2 
 PCOD9423630
Probable space group: P C C A
;
_chemical_formula_sum "Si O2"
_cell_formula_units_Z 44
_cell_length_a 15.216888
_cell_length_b 5.154778
_cell_length_c 26.528088
_cell_angle_alpha 90.000000
_cell_angle_beta 90.000000
_cell_angle_gamma 90.000000
_cell_volume 2080.854720
_symmetry_space_group_name_H-M "P C C A"
_symmetry_group_IT_number 54
_symmetry_cell_setting 'orthorhombic'
loop_
_space_group_symop_operation_xyz
x,y,z
1/2-x,-y,z
1/2+x,-y,1/2-z
-x,y,1/2-z
-x,-y,-z
1/2+x,y,-z
1/2-x,y,1/2+z
x,-y,1/2+z
loop_
_atom_site_type_symbol
_atom_site_label
_atom_site_fract_x
_atom_site_fract_y
_atom_site_fract_z
Si Si1 0.604687 0.483127 0.494107
Si Si2 0.943658 0.502843 0.199934
Si Si3 0.678987 0.812411 0.579953
Si Si4 0.350178 0.014199 0.569580
Si Si5 0.250000 0.500000 0.827423
Si Si6 0.983729 0.993281 0.636358
O O1 0.500000 0.500000 0.500000
O O2 0.651631 0.568557 0.545938
O O3 0.631299 0.206625 0.472105
O O4 0.632361 0.705684 0.454700
O O5 0.838383 0.458563 0.204573
O O6 0.962704 0.789436 0.178315
O O7 0.000000 0.462326 0.250000
O O8 0.973095 0.292281 0.158652
O O9 0.722484 0.723100 0.632749
O O10 0.588939 0.960786 0.592981
O O11 0.750000 0.000000 0.554922
O O12 0.420444 0.968608 0.613481
O O13 0.250000 0.000000 0.586727
#
# Coordination Sequence:
#
# PCOD9423630 Si02
#       6
#     8   8   8   8   4   8
#     4  12  26  41  66  97 137 186 232 284 331 394
#     4  11  24  46  72 103 135 167 225 286 355 416
#     4  11  23  39  68  98 141 169 232 277 346 386
#     4  12  27  46  62  96 142 186 237 270 333 407
#     4  10  24  40  68 102 132 172 218 282 344 412
#     4  11  24  45  69  96 134 183 217 284 339 407
#
# _framework density 21.145156
#
# number of rings (size 3 to 8) (size 9 to 14) (size 15 to 20)
#    0.000    0.727    3.636    3.273    7.636    0.000 
#    3.273    0.000    0.000    0.000    0.000    0.000 
#    0.000    0.000    0.000    0.000    0.000    0.000 
#
# Total GULP energy -246356.568634 kJ/mol
# GULP energy per Si atom -5599.012923 kJ/mol
# Density = 2.109703 g / cm^3
# Si number density = 21.145156 Si / 1000 Ang^3
#
#
#
# Elastic Constant Matrix: (Units=GPa)
#
#
# Indices 1 2 3 4 5 6 
#
# 1 217.7155 -0.3736 43.7532 0.0000 0.0000 0.0000
# 2 -0.3736 28.9475 -15.4916 0.0000 0.0000 0.0000
# 3 43.7532 -15.4916 46.6089 0.0000 0.0000 0.0000
# 4 0.0000 0.0000 0.0000 17.2649 0.0000 0.0000
# 5 0.0000 0.0000 0.0000 0.0000 36.2292 0.0000
# 6 0.0000 0.0000 0.0000 0.0000 0.0000 33.4433
#
#
#
# Elastic Compliance Matrix: (Units=1/GPa)
#
#
# Indices 1 2 3 4 5 6 
#
# 1 0.005945 -0.003539 -0.006757 0.000000 0.000000 0.000000
# 2 -0.003539 0.044127 0.017989 0.000000 0.000000 0.000000
# 3 -0.006757 0.017989 0.033777 0.000000 0.000000 0.000000
# 4 0.000000 0.000000 0.000000 0.057921 0.000000 0.000000
# 5 0.000000 0.000000 0.000000 0.000000 0.027602 0.000000
# 6 0.000000 0.000000 0.000000 0.000000 0.000000 0.029901
#
#
# Mechanical properties :
#
#
# Convention : Reuss Voigt Hill
#
# Bulk Modulus (GPa) = 10.07717 38.78311 24.43014
# Shear Modulus (GPa) = 23.04501 35.07975 29.06238
#
# Velocity S-wave (km/s) = 3.30487 4.07750 3.71134
# Velocity P-wave (km/s) = 4.39760 6.36782 5.47211
#
# Compressibility (1/GPa) = 0.09923419
#
# Stress axis : x y z
#
# Youngs Moduli (GPa) = 168.20736 22.66202 29.60552
#
# Poissons Ratio (x) = 0.08021 0.20005
# Poissons Ratio (y) = 0.59537 -0.53258
# Poissons Ratio (z) = 1.13662 -0.40767
#
# Static dielectric constant tensor:
#      x y z
#    x 1.768780 0.000000 0.000000 
#    y 0.000000 1.759250 0.000000 
#    z 0.000000 0.000000 1.763180 
# 
# From -- ./inp_files/26390.got.cif
#   From: 2010.05.17/outbox.cif.g08.bks.cpg/sg54_14_cif.got.tgz:26390.got - 2010.06.03 13:09:01.
