data_PCOD9423068
_publ_section_title
;
Structure prediction by ZEFSAII (Michael W. Deem and Ramdas Pophale) SiO2 
 PCOD9423068
Probable space group: P C C A
;
_chemical_formula_sum "Si O2"
_cell_formula_units_Z 36
_cell_length_a 17.706970
_cell_length_b 6.565718
_cell_length_c 14.168344
_cell_angle_alpha 90.000000
_cell_angle_beta 90.000000
_cell_angle_gamma 90.000000
_cell_volume 1647.197103
_symmetry_space_group_name_H-M "P C C A"
_symmetry_group_IT_number 54
_symmetry_cell_setting 'orthorhombic'
loop_
_space_group_symop_operation_xyz
x,y,z
1/2-x,-y,z
1/2+x,-y,1/2-z
-x,y,1/2-z
-x,-y,-z
1/2+x,y,-z
1/2-x,y,1/2+z
x,-y,1/2+z
loop_
_atom_site_type_symbol
_atom_site_label
_atom_site_fract_x
_atom_site_fract_y
_atom_site_fract_z
Si Si1 0.571458 0.468605 0.633300
Si Si2 0.579921 0.845680 0.780189
Si Si3 0.693788 0.848101 0.197603
Si Si4 0.911302 0.509670 0.416282
Si Si5 0.250000 0.500000 0.676998
O O1 0.586883 0.650122 0.708070
O O2 0.632261 0.290464 0.645858
O O3 0.581553 0.541259 0.525653
O O4 0.482720 0.404846 0.636647
O O5 0.500000 0.938214 0.750000
O O6 0.576496 0.745805 0.884040
O O7 0.644379 0.010084 0.766373
O O8 0.746761 0.694726 0.255358
O O9 0.750000 0.000000 0.141844
O O10 0.826250 0.474124 0.382460
#
# Coordination Sequence:
#
# PCOD9423068 Si02
#       5
#     8   8   8   8   4
#     4  10  23  45  68  94 135 178 222 276 341 404
#     4  10  22  41  66  97 131 175 221 270 334 406
#     4  12  23  41  65  99 133 178 227 274 334 404
#     4  10  22  45  66  97 133 176 221 276 342 397
#     4  12  24  40  66  94 134 180 218 282 342 388
#
# _framework density 21.855308000000001
#
# number of rings (size 3 to 8) (size 9 to 14) (size 15 to 20)
#    0.000    1.333    4.444    0.000    3.111    2.667 
#    8.000    3.333    0.000    0.000    0.000    0.000 
#    0.000    0.000    0.000    0.000    0.000    0.000 
#
# Total GULP energy -200698.858973 kJ/mol
# GULP energy per Si atom -5574.968305 kJ/mol
# Density = 2.180556 g / cm^3
# Si number density = 21.855308 Si / 1000 Ang^3
#
#
#
# Elastic Constant Matrix: (Units=GPa)
#
#
# Indices 1 2 3 4 5 6 
#
# 1 185.6672 46.9616 22.1116 0.0000 0.0000 0.0000
# 2 46.9616 83.0076 18.8976 0.0000 0.0000 0.0000
# 3 22.1116 18.8976 78.5019 0.0000 0.0000 0.0000
# 4 0.0000 0.0000 0.0000 8.5509 0.0000 0.0000
# 5 0.0000 0.0000 0.0000 0.0000 25.7031 0.0000
# 6 0.0000 0.0000 0.0000 0.0000 0.0000 51.2883
#
#
#
# Elastic Compliance Matrix: (Units=1/GPa)
#
#
# Indices 1 2 3 4 5 6 
#
# 1 0.006356 -0.003373 -0.000978 0.000000 0.000000 0.000000
# 2 -0.003373 0.014536 -0.002549 0.000000 0.000000 0.000000
# 3 -0.000978 -0.002549 0.013628 0.000000 0.000000 0.000000
# 4 0.000000 0.000000 0.000000 0.116946 0.000000 0.000000
# 5 0.000000 0.000000 0.000000 0.000000 0.038906 0.000000
# 6 0.000000 0.000000 0.000000 0.000000 0.000000 0.019498
#
#
# Mechanical properties :
#
#
# Convention : Reuss Voigt Hill
#
# Bulk Modulus (GPa) = 48.26613 58.12424 53.19519
# Shear Modulus (GPa) = 21.68490 34.38887 28.03688
#
# Velocity S-wave (km/s) = 3.15334 3.97101 3.58556
# Velocity P-wave (km/s) = 5.94899 6.90493 6.44471
#
# Compressibility (1/GPa) = 0.02071846
#
# Stress axis : x y z
#
# Youngs Moduli (GPa) = 157.34090 68.79622 73.37988
#
# Poissons Ratio (x) = 0.23205 0.07178
# Poissons Ratio (y) = 0.53071 0.18705
# Poissons Ratio (z) = 0.15391 0.17537
#
# Static dielectric constant tensor:
#      x y z
#    x 1.900230 0.000000 0.000000 
#    y 0.000000 1.826250 0.000000 
#    z 0.000000 0.000000 1.775640 
# 
# From -- ./inp_files/14457.got.cif
#   From: 2010.05.17/outbox.cif.g08.bks.cpg/sg54_8_cif.got.tgz:14457.got - 2010.06.03 13:09:01.
