data_PCOD9423469
_publ_section_title
;
Structure prediction by ZEFSAII (Michael W. Deem and Ramdas Pophale) SiO2 
 PCOD9423469
Probable space group: P C C A
;
_chemical_formula_sum "Si O2"
_cell_formula_units_Z 40
_cell_length_a 13.349634
_cell_length_b 10.966406
_cell_length_c 10.740092
_cell_angle_alpha 90.000000
_cell_angle_beta 90.000000
_cell_angle_gamma 90.000000
_cell_volume 1572.322687
_symmetry_space_group_name_H-M "P C C A"
_symmetry_group_IT_number 54
_symmetry_cell_setting 'orthorhombic'
loop_
_space_group_symop_operation_xyz
x,y,z
1/2-x,-y,z
1/2+x,-y,1/2-z
-x,y,1/2-z
-x,-y,-z
1/2+x,y,-z
1/2-x,y,1/2+z
x,-y,1/2+z
loop_
_atom_site_type_symbol
_atom_site_label
_atom_site_fract_x
_atom_site_fract_y
_atom_site_fract_z
Si Si1 0.351082 0.355181 0.548679
Si Si2 0.500000 0.500000 0.500000
Si Si3 0.369907 0.713338 0.622625
Si Si4 0.630805 0.876435 0.108891
Si Si5 0.365846 0.853783 0.870467
Si Si6 0.500000 0.682190 0.250000
O O1 0.379893 0.457256 0.449467
O O2 0.242000 0.346261 0.607951
O O3 0.376311 0.220375 0.499010
O O4 0.446125 0.393589 0.640349
O O5 0.450229 0.620645 0.569671
O O6 0.373049 0.831859 0.532866
O O7 0.391110 0.765202 0.758067
O O8 0.746982 0.874251 0.144285
O O9 0.580448 0.771141 0.190068
O O10 0.587811 0.011673 0.127517
#
# Coordination Sequence:
#
# PCOD9423469 Si02
#       6
#     8   4   8   8   8   4
#     4  11  26  45  70 108 144 200 251 311 389 446
#     4  12  26  48  70 104 144 200 252 300 364 452
#     4  11  24  48  72 107 150 195 255 314 380 456
#     4  10  23  42  73 106 143 191 241 310 391 449
#     4  10  24  44  73 107 145 193 246 317 386 464
#     4  12  22  44  68 102 148 184 244 314 370 464
#
# _framework density 25.440069000000001
#
# number of rings (size 3 to 8) (size 9 to 14) (size 15 to 20)
#    0.000    1.200    4.000    0.600    2.800    6.400 
#    0.000    2.000    0.000    0.000    0.000    0.000 
#    0.000    0.000    0.000    0.000    0.000    0.000 
#
# Total GULP energy -223011.779258 kJ/mol
# GULP energy per Si atom -5575.294481 kJ/mol
# Density = 2.538217 g / cm^3
# Si number density = 25.440069 Si / 1000 Ang^3
#
#
#
# Elastic Constant Matrix: (Units=GPa)
#
#
# Indices 1 2 3 4 5 6 
#
# 1 147.7364 46.3283 26.6727 0.0000 0.0000 0.0000
# 2 46.3283 138.4001 34.9818 0.0000 0.0000 0.0000
# 3 26.6727 34.9818 95.5895 0.0000 0.0000 0.0000
# 4 0.0000 0.0000 0.0000 -49.3893 0.0000 0.0000
# 5 0.0000 0.0000 0.0000 0.0000 28.4642 0.0000
# 6 0.0000 0.0000 0.0000 0.0000 0.0000 37.9354
#
#
#
# Elastic Compliance Matrix: (Units=1/GPa)
#
#
# Indices 1 2 3 4 5 6 
#
# 1 0.007713 -0.002246 -0.001330 0.000000 0.000000 0.000000
# 2 -0.002246 0.008616 -0.002526 0.000000 0.000000 0.000000
# 3 -0.001330 -0.002526 0.011757 0.000000 0.000000 0.000000
# 4 0.000000 0.000000 0.000000 -0.020247 0.000000 0.000000
# 5 0.000000 0.000000 0.000000 0.000000 0.035132 0.000000
# 6 0.000000 0.000000 0.000000 0.000000 0.000000 0.026361
#
#
# Mechanical properties :
#
#
# Convention : Reuss Voigt Hill
#
# Bulk Modulus (GPa) = 62.96759 66.41015 64.68887
# Shear Modulus (GPa) = 57.58381 21.65160 39.61770
#
# Velocity S-wave (km/s) = 4.76280 2.92050 3.95054
# Velocity P-wave (km/s) = 7.41962 6.12647 6.80383
#
# Compressibility (1/GPa) = 0.01588119
#
# Stress axis : x y z
#
# Youngs Moduli (GPa) = 129.64748 116.06710 85.05437
#
# Poissons Ratio (x) = 0.26065 0.11316
# Poissons Ratio (y) = 0.29114 0.21488
# Poissons Ratio (z) = 0.17249 0.29323
#
# Static dielectric constant tensor:
#      x y z
#    x 1.932170 0.000000 0.000000 
#    y 0.000000 2.348260 0.000000 
#    z 0.000000 0.000000 -0.388550 
# 
# From -- ./inp_files/8283.got.cif
#   From: 2010.05.17/outbox.cif.g08.bks.cpg/sg54_5_cif.got.tgz:8283.got - 2010.06.03 13:09:01.
