data_PCOD9423920
_publ_section_title
;
Structure prediction by ZEFSAII (Michael W. Deem and Ramdas Pophale) SiO2 
 PCOD9423920
Probable space group: P C C A
;
_chemical_formula_sum "Si O2"
_cell_formula_units_Z 48
_cell_length_a 14.057171
_cell_length_b 13.449628
_cell_length_c 12.498764
_cell_angle_alpha 90.000000
_cell_angle_beta 90.000000
_cell_angle_gamma 90.000000
_cell_volume 2363.062826
_symmetry_space_group_name_H-M "P C C A"
_symmetry_group_IT_number 54
_symmetry_cell_setting 'orthorhombic'
loop_
_space_group_symop_operation_xyz
x,y,z
1/2-x,-y,z
1/2+x,-y,1/2-z
-x,y,1/2-z
-x,-y,-z
1/2+x,y,-z
1/2-x,y,1/2+z
x,-y,1/2+z
loop_
_atom_site_type_symbol
_atom_site_label
_atom_site_fract_x
_atom_site_fract_y
_atom_site_fract_z
Si Si1 0.833985 0.807133 0.595419
Si Si2 0.111994 0.648369 0.730693
Si Si3 0.750000 0.500000 0.648368
Si Si4 0.470899 0.849744 0.972587
Si Si5 0.933146 0.016475 0.337776
Si Si6 0.333123 0.679705 0.985515
Si Si7 0.250000 0.000000 0.796932
O O1 0.855555 0.745508 0.703167
O O2 0.931541 0.822908 0.532714
O O3 0.763701 0.742615 0.522417
O O4 0.782826 0.908607 0.629792
O O5 0.175445 0.560360 0.779695
O O6 0.134033 0.660053 0.605969
O O7 0.000000 0.632819 0.750000
O O8 0.809542 0.421715 0.576641
O O9 0.413529 0.752966 0.936330
O O10 0.412164 0.911372 0.062571
O O11 0.501677 0.926971 0.881806
O O12 0.000000 0.069992 0.250000
O O13 0.838880 0.978443 0.280586
#
# Coordination Sequence:
#
# PCOD9423920 Si02
#       7
#     8   8   4   8   8   8   4
#     4  11  25  42  65 100 135 179 229 274 329 408
#     4  11  23  47  73  97 132 179 220 284 355 411
#     4  10  26  48  70 106 132 162 236 288 354 424
#     4  11  24  42  64  95 138 179 226 276 336 400
#     4  11  24  41  61  96 138 183 227 269 327 397
#     4  11  24  45  70  99 132 175 226 287 348 410
#     4  12  24  40  68  94 144 186 228 276 326 388
#
# _framework density 20.312621
#
# number of rings (size 3 to 8) (size 9 to 14) (size 15 to 20)
#    0.000    1.000    3.333    2.500    7.000    0.667 
#    3.000    0.000    0.000    0.000    0.000    0.000 
#    0.000    0.000    0.000    0.000    0.000    0.000 
#
# Total GULP energy -268501.094249 kJ/mol
# GULP energy per Si atom -5593.772797 kJ/mol
# Density = 2.026639 g / cm^3
# Si number density = 20.312621 Si / 1000 Ang^3
#
#
#
# Elastic Constant Matrix: (Units=GPa)
#
#
# Indices 1 2 3 4 5 6 
#
# 1 106.3002 43.6430 24.5925 0.0000 0.0000 0.0000
# 2 43.6430 125.1528 22.2843 0.0000 0.0000 0.0000
# 3 24.5925 22.2843 58.3321 0.0000 0.0000 0.0000
# 4 0.0000 0.0000 0.0000 15.8972 0.0000 0.0000
# 5 0.0000 0.0000 0.0000 0.0000 37.7917 0.0000
# 6 0.0000 0.0000 0.0000 0.0000 0.0000 41.3734
#
#
#
# Elastic Compliance Matrix: (Units=1/GPa)
#
#
# Indices 1 2 3 4 5 6 
#
# 1 0.011645 -0.003419 -0.003603 0.000000 0.000000 0.000000
# 2 -0.003419 0.009577 -0.002217 0.000000 0.000000 0.000000
# 3 -0.003603 -0.002217 0.019509 0.000000 0.000000 0.000000
# 4 0.000000 0.000000 0.000000 0.062904 0.000000 0.000000
# 5 0.000000 0.000000 0.000000 0.000000 0.026461 0.000000
# 6 0.000000 0.000000 0.000000 0.000000 0.000000 0.024170
#
#
# Mechanical properties :
#
#
# Convention : Reuss Voigt Hill
#
# Bulk Modulus (GPa) = 44.93931 52.31385 48.62658
# Shear Modulus (GPa) = 27.75261 32.29681 30.02471
#
# Velocity S-wave (km/s) = 3.70032 3.99179 3.84882
# Velocity P-wave (km/s) = 6.35833 6.85975 6.61379
#
# Compressibility (1/GPa) = 0.02225223
#
# Stress axis : x y z
#
# Youngs Moduli (GPa) = 85.87619 104.41297 51.25747
#
# Poissons Ratio (x) = 0.35700 0.18469
# Poissons Ratio (y) = 0.29362 0.11365
# Poissons Ratio (z) = 0.30942 0.23152
#
# Static dielectric constant tensor:
#      x y z
#    x 1.709280 0.000000 0.000000 
#    y 0.000000 1.731190 0.000000 
#    z 0.000000 0.000000 1.715100 
# 
# From -- ./inp_files/8388.got.cif
#   From: 2010.05.17/outbox.cif.g08.bks.cpg/sg54_5_cif.got.tgz:8388.got - 2010.06.03 13:09:01.
