data_PCOD9423111
_publ_section_title
;
Structure prediction by ZEFSAII (Michael W. Deem and Ramdas Pophale) SiO2 
 PCOD9423111
Probable space group: P C C A
;
_chemical_formula_sum "Si O2"
_cell_formula_units_Z 28
_cell_length_a 12.419929
_cell_length_b 8.301273
_cell_length_c 12.594995
_cell_angle_alpha 90.000000
_cell_angle_beta 90.000000
_cell_angle_gamma 90.000000
_cell_volume 1298.559366
_symmetry_space_group_name_H-M "P C C A"
_symmetry_group_IT_number 54
_symmetry_cell_setting 'orthorhombic'
loop_
_space_group_symop_operation_xyz
x,y,z
1/2-x,-y,z
1/2+x,-y,1/2-z
-x,y,1/2-z
-x,-y,-z
1/2+x,y,-z
1/2-x,y,1/2+z
x,-y,1/2+z
loop_
_atom_site_type_symbol
_atom_site_label
_atom_site_fract_x
_atom_site_fract_y
_atom_site_fract_z
Si Si1 0.250000 0.500000 0.774932
Si Si2 0.068047 0.376831 0.927885
Si Si3 0.429012 0.922355 0.594114
Si Si4 0.198893 0.786332 0.614895
O O1 0.144735 0.466127 0.845350
O O2 0.226801 0.654828 0.702499
O O3 0.997493 0.234791 0.873266
O O4 0.142110 0.291608 0.014743
O O5 0.000000 0.500000 0.000000
O O6 0.311694 0.851064 0.567826
O O7 0.500000 0.000000 0.500000
O O8 0.383613 0.076523 0.660543
#
# Coordination Sequence:
#
# PCOD9423111 Si02
#       4
#     4   8   8   8
#     4  12  24  40  66  96 134 176 222 284 334 398
#     4  11  23  42  66  93 129 173 218 271 335 399
#     4   9  20  42  67  90 128 170 211 270 333 395
#     4  10  22  42  64  96 130 165 221 274 328 402
#
# _framework density 21.562356999999999
#
# number of rings (size 3 to 8) (size 9 to 14) (size 15 to 20)
#    0.000    1.714    0.000    4.286    0.000    4.571 
#    0.000   40.000    0.000    0.000    0.000    0.000 
#    0.000    0.000    0.000    0.000    0.000    0.000 
#
# Total GULP energy -156026.827009 kJ/mol
# GULP energy per Si atom -5572.386679 kJ/mol
# Density = 2.151328 g / cm^3
# Si number density = 21.562357 Si / 1000 Ang^3
#
#
#
# Elastic Constant Matrix: (Units=GPa)
#
#
# Indices 1 2 3 4 5 6 
#
# 1 163.0907 91.1387 64.6314 0.0000 0.0000 0.0000
# 2 91.1387 145.7712 53.9590 0.0000 0.0000 0.0000
# 3 64.6314 53.9590 72.5945 0.0000 0.0000 0.0000
# 4 0.0000 0.0000 0.0000 75.0453 0.0000 0.0000
# 5 0.0000 0.0000 0.0000 0.0000-1130.7642 0.0000
# 6 0.0000 0.0000 0.0000 0.0000 0.0000 63.6056
#
#
#
# Elastic Compliance Matrix: (Units=1/GPa)
#
#
# Indices 1 2 3 4 5 6 
#
# 1 0.011368 -0.004637 -0.006674 0.000000 0.000000 0.000000
# 2 -0.004637 0.011355 -0.004312 0.000000 0.000000 0.000000
# 3 -0.006674 -0.004312 0.022923 0.000000 0.000000 0.000000
# 4 0.000000 0.000000 0.000000 0.013325 0.000000 0.000000
# 5 0.000000 0.000000 0.000000 0.000000 -0.000884 0.000000
# 6 0.000000 0.000000 0.000000 0.000000 0.000000 0.015722
#
#
# Mechanical properties :
#
#
# Convention : Reuss Voigt Hill
#
# Bulk Modulus (GPa) = 69.44879 88.99050 79.21964
# Shear Modulus (GPa) = 45.51498 -186.97416 -70.72959
#
# Velocity S-wave (km/s) = 4.59939 -9.32210 -5.73355
# Velocity P-wave (km/s) = 7.77715 8.63179 2.64799
#
# Compressibility (1/GPa) = 0.01439910
#
# Stress axis : x y z
#
# Youngs Moduli (GPa) = 87.96957 88.06557 43.62522
#
# Poissons Ratio (x) = 0.40833 0.29117
# Poissons Ratio (y) = 0.40788 0.18812
# Poissons Ratio (z) = 0.58713 0.37975
#
# Static dielectric constant tensor:
#      x y z
#    x 1.762400 0.000000 0.000000 
#    y 0.000000 1.773810 0.000000 
#    z 0.000000 0.000000 1.753090 
# 
# From -- ./inp_files/12101.got.cif
#   From: 2010.05.17/outbox.cif.g08.bks.cpg/sg54_7_cif.got.tgz:12101.got - 2010.06.03 13:09:01.
