data_PCOD9423133
_publ_section_title
;
Structure prediction by ZEFSAII (Michael W. Deem and Ramdas Pophale) SiO2 
 PCOD9423133
Probable space group: P C C A
;
_chemical_formula_sum "Si O2"
_cell_formula_units_Z 56
_cell_length_a 21.646432
_cell_length_b 9.123468
_cell_length_c 12.460945
_cell_angle_alpha 90.000000
_cell_angle_beta 90.000000
_cell_angle_gamma 90.000000
_cell_volume 2460.918628
_symmetry_space_group_name_H-M "P C C A"
_symmetry_group_IT_number 54
_symmetry_cell_setting 'orthorhombic'
loop_
_space_group_symop_operation_xyz
x,y,z
1/2-x,-y,z
1/2+x,-y,1/2-z
-x,y,1/2-z
-x,-y,-z
1/2+x,y,-z
1/2-x,y,1/2+z
x,-y,1/2+z
loop_
_atom_site_type_symbol
_atom_site_label
_atom_site_fract_x
_atom_site_fract_y
_atom_site_fract_z
Si Si1 0.314762 0.419187 0.409947
Si Si2 0.464636 0.733442 0.595348
Si Si3 0.136619 0.076401 0.256738
Si Si4 0.667716 0.235990 0.292137
Si Si5 0.904223 0.327956 0.115759
Si Si6 0.779068 0.154337 0.442502
Si Si7 0.500000 0.520884 0.250000
Si Si8 0.500000 0.029212 0.250000
O O1 0.250000 0.500000 0.419554
O O2 0.325971 0.370541 0.287669
O O3 0.368094 0.535851 0.437405
O O4 0.308554 0.271411 0.477916
O O5 0.396663 0.757199 0.645360
O O6 0.454649 0.730178 0.468903
O O7 0.489718 0.584330 0.647458
O O8 0.504672 0.864310 0.646025
O O9 0.143043 0.200594 0.347556
O O10 0.169163 0.119197 0.146337
O O11 0.063081 0.058646 0.243127
O O12 0.164847 0.915308 0.276570
O O13 0.723109 0.227856 0.375922
O O14 0.940294 0.385158 0.220317
O O15 0.750000 0.000000 0.484388
#
# Coordination Sequence:
#
# PCOD9423133 Si02
#       8
#     8   8   8   8   8   8   4   4
#     4  12  26  41  69 102 137 177 222 281 358 421
#     4  10  22  42  67  95 136 182 238 282 351 404
#     4  10  23  43  66  99 133 178 233 281 339 401
#     4  10  22  45  68  94 138 179 222 292 342 415
#     4  12  25  40  69 104 135 186 227 291 347 421
#     4  10  24  44  70  98 135 180 230 287 347 418
#     4  11  23  44  62  96 144 180 232 284 342 406
#     4   9  21  44  68  92 134 188 228 292 326 408
#
# _framework density 22.755728999999999
#
# number of rings (size 3 to 8) (size 9 to 14) (size 15 to 20)
#    0.000    1.429    1.429    2.571    2.000    9.714 
#    2.571    0.000    0.000    0.000    0.000    0.000 
#    0.000    0.000    0.000    0.000    0.000    0.000 
#
# Total GULP energy -313212.632262 kJ/mol
# GULP energy per Si atom -5593.082719 kJ/mol
# Density = 2.270394 g / cm^3
# Si number density = 22.755729 Si / 1000 Ang^3
#
#
#
# Elastic Constant Matrix: (Units=GPa)
#
#
# Indices 1 2 3 4 5 6 
#
# 1 71.4925 0.3014 -2.2664 0.0000 0.0000 0.0000
# 2 0.3014 87.9999 27.0191 0.0000 0.0000 0.0000
# 3 -2.2664 27.0191 39.9984 0.0000 0.0000 0.0000
# 4 0.0000 0.0000 0.0000 160.9730 0.0000 0.0000
# 5 0.0000 0.0000 0.0000 0.0000 25.1406 0.0000
# 6 0.0000 0.0000 0.0000 0.0000 0.0000 26.6852
#
#
#
# Elastic Compliance Matrix: (Units=1/GPa)
#
#
# Indices 1 2 3 4 5 6 
#
# 1 0.014022 -0.000368 0.001043 0.000000 0.000000 0.000000
# 2 -0.000368 0.014347 -0.009712 0.000000 0.000000 0.000000
# 3 0.001043 -0.009712 0.031621 0.000000 0.000000 0.000000
# 4 0.000000 0.000000 0.000000 0.006212 0.000000 0.000000
# 5 0.000000 0.000000 0.000000 0.000000 0.039776 0.000000
# 6 0.000000 0.000000 0.000000 0.000000 0.000000 0.037474
#
#
# Mechanical properties :
#
#
# Convention : Reuss Voigt Hill
#
# Bulk Modulus (GPa) = 23.85767 27.73324 25.79546
# Shear Modulus (GPa) = 28.49024 54.18888 41.33956
#
# Velocity S-wave (km/s) = 3.54220 4.88518 4.26686
# Velocity P-wave (km/s) = 5.21887 6.63580 5.96952
#
# Compressibility (1/GPa) = 0.04191524
#
# Stress axis : x y z
#
# Youngs Moduli (GPa) = 71.31594 69.70127 31.62470
#
# Poissons Ratio (x) = 0.02568 -0.03300
# Poissons Ratio (y) = 0.02627 0.30715
# Poissons Ratio (z) = -0.07441 0.67696
#
# Static dielectric constant tensor:
#      x y z
#    x 1.826310 0.000000 0.000000 
#    y 0.000000 1.885980 0.000000 
#    z 0.000000 0.000000 1.869060 
# 
# From -- ./inp_files/14710.got.cif
#   From: 2010.05.17/outbox.cif.g08.bks.cpg/sg54_8_cif.got.tgz:14710.got - 2010.06.03 13:09:01.
