data_PCOD9423116
_publ_section_title
;
Structure prediction by ZEFSAII (Michael W. Deem and Ramdas Pophale) SiO2 
 PCOD9423116
Probable space group: P C C A
;
_chemical_formula_sum "Si O2"
_cell_formula_units_Z 28
_cell_length_a 19.566651
_cell_length_b 5.207147
_cell_length_c 14.087538
_cell_angle_alpha 90.000000
_cell_angle_beta 90.000000
_cell_angle_gamma 90.000000
_cell_volume 1435.328927
_symmetry_space_group_name_H-M "P C C A"
_symmetry_group_IT_number 54
_symmetry_cell_setting 'orthorhombic'
loop_
_space_group_symop_operation_xyz
x,y,z
1/2-x,-y,z
1/2+x,-y,1/2-z
-x,y,1/2-z
-x,-y,-z
1/2+x,y,-z
1/2-x,y,1/2+z
x,-y,1/2+z
loop_
_atom_site_type_symbol
_atom_site_label
_atom_site_fract_x
_atom_site_fract_y
_atom_site_fract_z
Si Si1 0.044127 0.250635 0.523881
Si Si2 0.750000 0.000000 0.240646
Si Si3 0.389641 0.209371 0.227043
Si Si4 0.627961 0.273117 0.657482
O O1 0.068086 0.249141 0.632318
O O2 0.107785 0.260678 0.451607
O O3 0.000000 0.500000 0.500000
O O4 0.000000 0.000000 0.500000
O O5 0.690225 0.145593 0.297066
O O6 0.793162 0.199529 0.177175
O O7 0.390314 0.457287 0.294391
O O8 0.411026 0.957184 0.286540
#
# Coordination Sequence:
#
# PCOD9423116 Si02
#       4
#     8   4   8   8
#     4  12  26  41  63  97 127 170 213 245 319 379
#     4   8  22  42  68  88 128 156 226 236 346 332
#     4  10  22  42  65  93 126 163 207 267 306 368
#     4  10  22  42  65  93 126 163 207 267 306 368
#
# _framework density 19.507725000000001
#
# number of rings (size 3 to 8) (size 9 to 14) (size 15 to 20)
#    1.714    0.000    0.000    4.286    0.000    8.000 
#    0.000    2.857    0.000    0.000    0.000    0.000 
#    0.000    0.000    0.000    0.000    0.000    0.000 
#
# Total GULP energy -156111.654119 kJ/mol
# GULP energy per Si atom -5575.416219 kJ/mol
# Density = 1.946332 g / cm^3
# Si number density = 19.507725 Si / 1000 Ang^3
#
#
#
# Elastic Constant Matrix: (Units=GPa)
#
#
# Indices 1 2 3 4 5 6 
#
# 1 47.3336 -1.4887 -14.7286 0.0000 0.0000 0.0000
# 2 -1.4887 129.0126 -6.3130 0.0000 0.0000 0.0000
# 3 -14.7286 -6.3130 32.0065 0.0000 0.0000 0.0000
# 4 0.0000 0.0000 0.0000 24.1203 0.0000 0.0000
# 5 0.0000 0.0000 0.0000 0.0000 39.3090 0.0000
# 6 0.0000 0.0000 0.0000 0.0000 0.0000 12.7556
#
#
#
# Elastic Compliance Matrix: (Units=1/GPa)
#
#
# Indices 1 2 3 4 5 6 
#
# 1 0.024750 0.000851 0.011557 0.000000 0.000000 0.000000
# 2 0.000851 0.007856 0.001941 0.000000 0.000000 0.000000
# 3 0.011557 0.001941 0.036945 0.000000 0.000000 0.000000
# 4 0.000000 0.000000 0.000000 0.041459 0.000000 0.000000
# 5 0.000000 0.000000 0.000000 0.000000 0.025439 0.000000
# 6 0.000000 0.000000 0.000000 0.000000 0.000000 0.078397
#
#
# Mechanical properties :
#
#
# Convention : Reuss Voigt Hill
#
# Bulk Modulus (GPa) = 10.17823 18.14357 14.16090
# Shear Modulus (GPa) = 22.84184 30.62919 26.73551
#
# Velocity S-wave (km/s) = 3.42557 3.96675 3.70605
# Velocity P-wave (km/s) = 4.56891 5.50464 5.05846
#
# Compressibility (1/GPa) = 0.09824896
#
# Stress axis : x y z
#
# Youngs Moduli (GPa) = 40.40475 127.29143 27.06741
#
# Poissons Ratio (x) = -0.10834 -0.31282
# Poissons Ratio (y) = -0.03439 -0.05254
# Poissons Ratio (z) = -0.46696 -0.24710
#
# Static dielectric constant tensor:
#      x y z
#    x 1.719580 0.000000 0.000000 
#    y 0.000000 1.675840 0.000000 
#    z 0.000000 0.000000 1.634200 
# 
# From -- ./inp_files/14375.got.cif
#   From: 2010.05.17/outbox.cif.g08.bks.cpg/sg54_8_cif.got.tgz:14375.got - 2010.06.03 13:09:01.
