data_PCOD9423081
_publ_section_title
;
Structure prediction by ZEFSAII (Michael W. Deem and Ramdas Pophale) SiO2 
 PCOD9423081
Probable space group: P C C A
;
_chemical_formula_sum "Si O2"
_cell_formula_units_Z 40
_cell_length_a 16.482531
_cell_length_b 11.841087
_cell_length_c 8.650404
_cell_angle_alpha 90.000000
_cell_angle_beta 90.000000
_cell_angle_gamma 90.000000
_cell_volume 1688.308722
_symmetry_space_group_name_H-M "P C C A"
_symmetry_group_IT_number 54
_symmetry_cell_setting 'orthorhombic'
loop_
_space_group_symop_operation_xyz
x,y,z
1/2-x,-y,z
1/2+x,-y,1/2-z
-x,y,1/2-z
-x,-y,-z
1/2+x,y,-z
1/2-x,y,1/2+z
x,-y,1/2+z
loop_
_atom_site_type_symbol
_atom_site_label
_atom_site_fract_x
_atom_site_fract_y
_atom_site_fract_z
Si Si1 0.888493 0.083349 0.626461
Si Si2 0.441252 0.437400 0.381065
Si Si3 0.069026 0.859474 0.023713
Si Si4 0.348386 0.660796 0.366723
Si Si5 0.690146 0.724158 0.471161
O O1 0.893276 0.116883 0.806587
O O2 0.816656 0.150870 0.542719
O O3 0.973251 0.121042 0.544938
O O4 0.891592 0.950007 0.594254
O O5 0.500000 0.389340 0.250000
O O6 0.500000 0.500000 0.500000
O O7 0.383091 0.538698 0.322177
O O8 0.384383 0.344245 0.454509
O O9 0.085694 0.736782 0.954736
O O10 0.271761 0.660208 0.480259
O O11 0.320286 0.721751 0.211082
#
# Coordination Sequence:
#
# PCOD9423081 Si02
#       5
#     8   8   8   8   8
#     4  10  22  41  69 102 135 181 221 282 326 403
#     4  12  27  46  73 100 130 175 226 281 338 407
#     4  10  22  41  70 100 139 175 230 272 336 393
#     4  12  27  45  67 101 137 181 223 284 338 407
#     4  12  27  44  69  98 141 176 227 279 343 402
#
# _framework density 23.692350000000001
#
# number of rings (size 3 to 8) (size 9 to 14) (size 15 to 20)
#    0.000    0.800    2.000    4.200    8.400    4.000 
#    0.000    4.000    0.000    0.000    0.000    0.000 
#    0.000    0.000    0.000    0.000    0.000    0.000 
#
# Total GULP energy -224154.826165 kJ/mol
# GULP energy per Si atom -5603.870654 kJ/mol
# Density = 2.363842 g / cm^3
# Si number density = 23.692350 Si / 1000 Ang^3
#
#
#
# Elastic Constant Matrix: (Units=GPa)
#
#
# Indices 1 2 3 4 5 6 
#
# 1 62.7040 3.7047 2.2798 0.0000 0.0000 0.0000
# 2 3.7047 91.7244 4.6092 0.0000 0.0000 0.0000
# 3 2.2798 4.6092 87.3387 0.0000 0.0000 0.0000
# 4 0.0000 0.0000 0.0000 34.1599 0.0000 0.0000
# 5 0.0000 0.0000 0.0000 0.0000 33.4815 0.0000
# 6 0.0000 0.0000 0.0000 0.0000 0.0000 13.6687
#
#
#
# Elastic Compliance Matrix: (Units=1/GPa)
#
#
# Indices 1 2 3 4 5 6 
#
# 1 0.015999 -0.000627 -0.000385 0.000000 0.000000 0.000000
# 2 -0.000627 0.010956 -0.000562 0.000000 0.000000 0.000000
# 3 -0.000385 -0.000562 0.011489 0.000000 0.000000 0.000000
# 4 0.000000 0.000000 0.000000 0.029274 0.000000 0.000000
# 5 0.000000 0.000000 0.000000 0.000000 0.029867 0.000000
# 6 0.000000 0.000000 0.000000 0.000000 0.000000 0.073160
#
#
# Mechanical properties :
#
#
# Convention : Reuss Voigt Hill
#
# Bulk Modulus (GPa) = 28.33048 29.21716 28.77382
# Shear Modulus (GPa) = 26.93132 31.67359 29.30245
#
# Velocity S-wave (km/s) = 3.37517 3.66029 3.52062
# Velocity P-wave (km/s) = 5.21274 5.49748 5.35700
#
# Compressibility (1/GPa) = 0.03529767
#
# Stress axis : x y z
#
# Youngs Moduli (GPa) = 62.50410 91.27610 87.03701
#
# Poissons Ratio (x) = 0.05722 0.03347
# Poissons Ratio (y) = 0.03918 0.04890
# Poissons Ratio (z) = 0.02403 0.05128
#
# Static dielectric constant tensor:
#      x y z
#    x 1.893110 0.000000 0.000000 
#    y 0.000000 1.911150 0.000000 
#    z 0.000000 0.000000 1.856390 
# 
# From -- ./inp_files/3989.got.cif
#   From: 2010.05.17/outbox.cif.g08.bks.cpg/sg54_2_cif.got.tgz:3989.got - 2010.06.03 13:09:01.
