data_PCOD9423557
_publ_section_title
;
Structure prediction by ZEFSAII (Michael W. Deem and Ramdas Pophale) SiO2 
 PCOD9423557
Probable space group: P C C A
;
_chemical_formula_sum "Si O2"
_cell_formula_units_Z 36
_cell_length_a 11.107809
_cell_length_b 5.246180
_cell_length_c 25.390324
_cell_angle_alpha 90.000000
_cell_angle_beta 90.000000
_cell_angle_gamma 90.000000
_cell_volume 1479.584707
_symmetry_space_group_name_H-M "P C C A"
_symmetry_group_IT_number 54
_symmetry_cell_setting 'orthorhombic'
loop_
_space_group_symop_operation_xyz
x,y,z
1/2-x,-y,z
1/2+x,-y,1/2-z
-x,y,1/2-z
-x,-y,-z
1/2+x,y,-z
1/2-x,y,1/2+z
x,-y,1/2+z
loop_
_atom_site_type_symbol
_atom_site_label
_atom_site_fract_x
_atom_site_fract_y
_atom_site_fract_z
Si Si1 0.621333 0.141843 0.849005
Si Si2 0.418094 0.746448 0.494385
Si Si3 0.127911 0.845279 0.877485
Si Si4 0.672415 0.741413 0.235137
Si Si5 0.750000 0.500000 0.925210
O O1 0.500729 0.008968 0.871038
O O2 0.596369 0.203027 0.787737
O O3 0.648189 0.380616 0.887199
O O4 0.750000 0.000000 0.850206
O O5 0.500000 0.500000 0.500000
O O6 0.370557 0.727815 0.434966
O O7 0.311326 0.711081 0.536923
O O8 0.500000 0.000000 0.500000
O O9 0.129073 0.677207 0.824180
O O10 0.250000 0.000000 0.875997
O O11 0.750000 0.500000 0.252237
O O12 0.750000 0.000000 0.229812
#
# Coordination Sequence:
#
# PCOD9423557 Si02
#       5
#     8   8   8   8   4
#     4  11  23  49  77 109 154 206 267 319 400 485
#     4  12  29  49  76 112 157 208 268 324 399 474
#     4  11  26  47  77 114 160 198 262 333 398 463
#     4  10  23  45  74 112 151 201 254 321 393 469
#     4  12  26  46  78 110 152 218 260 332 392 494
#
# _framework density 24.331150000000001
#
# number of rings (size 3 to 8) (size 9 to 14) (size 15 to 20)
#    0.000    0.889    3.333    2.000    4.667    1.778 
#    8.000    4.444    0.000    0.000    0.000    0.000 
#    0.000    0.000    0.000    0.000    0.000    0.000 
#
# Total GULP energy -200958.162468 kJ/mol
# GULP energy per Si atom -5582.171180 kJ/mol
# Density = 2.427577 g / cm^3
# Si number density = 24.331150 Si / 1000 Ang^3
#
#
#
# Elastic Constant Matrix: (Units=GPa)
#
#
# Indices 1 2 3 4 5 6 
#
# 1 140.6136 31.3551 58.3890 0.0000 0.0000 0.0000
# 2 31.3551 97.8501 28.0847 0.0000 0.0000 0.0000
# 3 58.3890 28.0847 251.3997 0.0000 0.0000 0.0000
# 4 0.0000 0.0000 0.0000 33.8409 0.0000 0.0000
# 5 0.0000 0.0000 0.0000 0.0000 -14.9959 0.0000
# 6 0.0000 0.0000 0.0000 0.0000 0.0000 29.4733
#
#
#
# Elastic Compliance Matrix: (Units=1/GPa)
#
#
# Indices 1 2 3 4 5 6 
#
# 1 0.008296 -0.002175 -0.001684 0.000000 0.000000 0.000000
# 2 -0.002175 0.011129 -0.000738 0.000000 0.000000 0.000000
# 3 -0.001684 -0.000738 0.004451 0.000000 0.000000 0.000000
# 4 0.000000 0.000000 0.000000 0.029550 0.000000 0.000000
# 5 0.000000 0.000000 0.000000 0.000000 -0.066685 0.000000
# 6 0.000000 0.000000 0.000000 0.000000 0.000000 0.033929
#
#
# Mechanical properties :
#
#
# Convention : Reuss Voigt Hill
#
# Bulk Modulus (GPa) = 68.11109 80.61344 74.36227
# Shear Modulus (GPa) = 143.85367 34.46596 89.15981
#
# Velocity S-wave (km/s) = 7.69751 3.76777 6.06002
# Velocity P-wave (km/s) = 10.34680 7.22024 8.92155
#
# Compressibility (1/GPa) = 0.01468190
#
# Stress axis : x y z
#
# Youngs Moduli (GPa) = 120.54181 89.85925 224.65623
#
# Poissons Ratio (x) = 0.19545 0.37827
# Poissons Ratio (y) = 0.26219 0.16580
# Poissons Ratio (z) = 0.20297 0.06632
#
# Static dielectric constant tensor:
#      x y z
#    x 1.987840 0.000000 0.000000 
#    y 0.000000 1.916580 0.000000 
#    z 0.000000 0.000000 1.963910 
# 
# From -- ./inp_files/23857.got.cif
#   From: 2010.05.17/outbox.cif.g08.bks.cpg/sg54_12_cif.got.tgz:23857.got - 2010.06.03 13:09:01.
