data_PCOD9423919
_publ_section_title
;
Structure prediction by ZEFSAII (Michael W. Deem and Ramdas Pophale) SiO2 
 PCOD9423919
Probable space group: P C C A
;
_chemical_formula_sum "Si O2"
_cell_formula_units_Z 32
_cell_length_a 10.522159
_cell_length_b 10.156962
_cell_length_c 13.253549
_cell_angle_alpha 90.000000
_cell_angle_beta 90.000000
_cell_angle_gamma 90.000000
_cell_volume 1416.448784
_symmetry_space_group_name_H-M "P C C A"
_symmetry_group_IT_number 54
_symmetry_cell_setting 'orthorhombic'
loop_
_space_group_symop_operation_xyz
x,y,z
1/2-x,-y,z
1/2+x,-y,1/2-z
-x,y,1/2-z
-x,-y,-z
1/2+x,y,-z
1/2-x,y,1/2+z
x,-y,1/2+z
loop_
_atom_site_type_symbol
_atom_site_label
_atom_site_fract_x
_atom_site_fract_y
_atom_site_fract_z
Si Si1 0.265004 0.349780 0.427249
Si Si2 0.435151 0.870698 0.920344
Si Si3 0.367078 0.134369 0.797850
Si Si4 0.732110 0.177206 0.409297
O O1 0.250000 0.500000 0.399354
O O2 0.394836 0.278600 0.390876
O O3 0.166275 0.246570 0.378359
O O4 0.245786 0.325929 0.547481
O O5 0.345528 0.883951 0.020256
O O6 0.413350 0.867456 0.573862
O O7 0.388665 0.990892 0.849490
O O8 0.500000 0.169488 0.750000
O O9 0.269273 0.147642 0.705003
#
# Coordination Sequence:
#
# PCOD9423919 Si02
#       4
#     8   8   8   8
#     4  10  26  51  71 112 152 198 262 305 376 464
#     4  10  26  47  78 111 150 196 255 316 377 448
#     4  12  27  46  74 113 151 197 257 316 377 449
#     4  10  26  48  77 107 154 199 247 314 388 443
#
# _framework density 22.591709999999999
#
# number of rings (size 3 to 8) (size 9 to 14) (size 15 to 20)
#    1.500    0.000    0.000    2.250    7.000    8.000 
#    4.500    0.000    0.000    0.000    0.000    0.000 
#    0.000    0.000    0.000    0.000    0.000    0.000 
#
# Total GULP energy -178171.180259 kJ/mol
# GULP energy per Si atom -5567.849383 kJ/mol
# Density = 2.254029 g / cm^3
# Si number density = 22.591710 Si / 1000 Ang^3
#
#
#
# Elastic Constant Matrix: (Units=GPa)
#
#
# Indices 1 2 3 4 5 6 
#
# 1 151.9774 54.1903 45.7149 0.0000 0.0000 0.0000
# 2 54.1903 189.2755 54.0829 0.0000 0.0000 0.0000
# 3 45.7149 54.0829 121.3806 0.0000 0.0000 0.0000
# 4 0.0000 0.0000 0.0000 21.1264 0.0000 0.0000
# 5 0.0000 0.0000 0.0000 0.0000 33.5844 0.0000
# 6 0.0000 0.0000 0.0000 0.0000 0.0000 17.0643
#
#
#
# Elastic Compliance Matrix: (Units=1/GPa)
#
#
# Indices 1 2 3 4 5 6 
#
# 1 0.007823 -0.001602 -0.002232 0.000000 0.000000 0.000000
# 2 -0.001602 0.006382 -0.002240 0.000000 0.000000 0.000000
# 3 -0.002232 -0.002240 0.010078 0.000000 0.000000 0.000000
# 4 0.000000 0.000000 0.000000 0.047334 0.000000 0.000000
# 5 0.000000 0.000000 0.000000 0.000000 0.029776 0.000000
# 6 0.000000 0.000000 0.000000 0.000000 0.000000 0.058602
#
#
# Mechanical properties :
#
#
# Convention : Reuss Voigt Hill
#
# Bulk Modulus (GPa) = 82.41965 85.62331 84.02148
# Shear Modulus (GPa) = 28.37886 34.93138 31.65512
#
# Velocity S-wave (km/s) = 3.54808 3.93645 3.74730
# Velocity P-wave (km/s) = 7.30388 7.65790 7.48298
#
# Compressibility (1/GPa) = 0.01213303
#
# Stress axis : x y z
#
# Youngs Moduli (GPa) = 127.83487 156.68970 99.23011
#
# Poissons Ratio (x) = 0.25098 0.22153
# Poissons Ratio (y) = 0.20476 0.22231
# Poissons Ratio (z) = 0.28539 0.35104
#
# Static dielectric constant tensor:
#      x y z
#    x 1.903340 0.000000 0.000000 
#    y 0.000000 1.839410 0.000000 
#    z 0.000000 0.000000 1.944510 
# 
# From -- ./inp_files/7933.got.cif
#   From: 2010.05.17/outbox.cif.g08.bks.cpg/sg54_4_cif.got.tgz:7933.got - 2010.06.03 13:09:01.
