data_PCOD9423302
_publ_section_title
;
Structure prediction by ZEFSAII (Michael W. Deem and Ramdas Pophale) SiO2 
 PCOD9423302
Probable space group: P C C A
;
_chemical_formula_sum "Si O2"
_cell_formula_units_Z 40
_cell_length_a 18.630622
_cell_length_b 7.710414
_cell_length_c 12.418163
_cell_angle_alpha 90.000000
_cell_angle_beta 90.000000
_cell_angle_gamma 90.000000
_cell_volume 1783.866739
_symmetry_space_group_name_H-M "P C C A"
_symmetry_group_IT_number 54
_symmetry_cell_setting 'orthorhombic'
loop_
_space_group_symop_operation_xyz
x,y,z
1/2-x,-y,z
1/2+x,-y,1/2-z
-x,y,1/2-z
-x,-y,-z
1/2+x,y,-z
1/2-x,y,1/2+z
x,-y,1/2+z
loop_
_atom_site_type_symbol
_atom_site_label
_atom_site_fract_x
_atom_site_fract_y
_atom_site_fract_z
Si Si1 0.967637 0.694783 0.020960
Si Si2 0.883647 0.265140 0.891282
Si Si3 0.159520 0.820856 0.334794
Si Si4 0.318698 0.783242 0.384047
Si Si5 0.921967 0.634710 0.798075
O O1 0.903741 0.713790 0.106863
O O2 0.037441 0.791286 0.067055
O O3 0.936522 0.749611 0.904961
O O4 0.000000 0.500000 0.000000
O O5 0.856380 0.153038 0.791550
O O6 0.888751 0.456356 0.840190
O O7 0.834640 0.278282 0.995809
O O8 0.237815 0.738950 0.350018
O O9 0.167011 0.010349 0.386681
O O10 0.373229 0.710872 0.295387
O O11 0.000000 0.596354 0.750000
#
# Coordination Sequence:
#
# PCOD9423302 Si02
#       5
#     8   8   8   8   8
#     4  10  22  45  73  98 139 186 240 302 357 423
#     4  11  24  46  71 100 140 187 237 298 359 429
#     4  11  27  46  71  99 153 186 239 301 370 439
#     4  11  28  46  67 110 142 194 238 295 374 441
#     4  11  23  45  72 104 141 181 239 299 354 434
#
# _framework density 22.423200000000001
#
# number of rings (size 3 to 8) (size 9 to 14) (size 15 to 20)
#    0.000    1.200    2.000    3.000    8.400    4.800 
#    3.600    0.000    0.000    0.000    0.000    0.000 
#    0.000    0.000    0.000    0.000    0.000    0.000 
#
# Total GULP energy -223718.153705 kJ/mol
# GULP energy per Si atom -5592.953843 kJ/mol
# Density = 2.237216 g / cm^3
# Si number density = 22.423200 Si / 1000 Ang^3
#
#
#
# Elastic Constant Matrix: (Units=GPa)
#
#
# Indices 1 2 3 4 5 6 
#
# 1 88.8037 6.8626 38.4452 0.0000 0.0000 0.0000
# 2 6.8626 36.4311 7.0602 0.0000 0.0000 0.0000
# 3 38.4452 7.0602 174.3433 0.0000 0.0000 0.0000
# 4 0.0000 0.0000 0.0000 22.8777 0.0000 0.0000
# 5 0.0000 0.0000 0.0000 0.0000 26.3109 0.0000
# 6 0.0000 0.0000 0.0000 0.0000 0.0000 23.3763
#
#
#
# Elastic Compliance Matrix: (Units=1/GPa)
#
#
# Indices 1 2 3 4 5 6 
#
# 1 0.012571 -0.001845 -0.002697 0.000000 0.000000 0.000000
# 2 -0.001845 0.027937 -0.000724 0.000000 0.000000 0.000000
# 3 -0.002697 -0.000724 0.006360 0.000000 0.000000 0.000000
# 4 0.000000 0.000000 0.000000 0.043711 0.000000 0.000000
# 5 0.000000 0.000000 0.000000 0.000000 0.038007 0.000000
# 6 0.000000 0.000000 0.000000 0.000000 0.000000 0.042778
#
#
# Mechanical properties :
#
#
# Convention : Reuss Voigt Hill
#
# Bulk Modulus (GPa) = 27.52245 44.92376 36.22311
# Shear Modulus (GPa) = 25.77189 30.99366 28.38278
#
# Velocity S-wave (km/s) = 3.39387 3.72185 3.56164
# Velocity P-wave (km/s) = 5.25914 6.20867 5.75352
#
# Compressibility (1/GPa) = 0.03633397
#
# Stress axis : x y z
#
# Youngs Moduli (GPa) = 79.54720 35.79473 157.23376
#
# Poissons Ratio (x) = 0.06605 0.42412
# Poissons Ratio (y) = 0.14679 0.11390
# Poissons Ratio (z) = 0.21457 0.02593
#
# Static dielectric constant tensor:
#      x y z
#    x 1.815730 0.000000 0.000000 
#    y 0.000000 1.884970 0.000000 
#    z 0.000000 0.000000 1.862750 
# 
# From -- ./inp_files/8755.got.cif
#   From: 2010.05.17/outbox.cif.g08.bks.cpg/sg54_5_cif.got.tgz:8755.got - 2010.06.03 13:09:01.
