data_PCOD9423792
_publ_section_title
;
Structure prediction by ZEFSAII (Michael W. Deem and Ramdas Pophale) SiO2 
 PCOD9423792
Probable space group: P C C A
;
_chemical_formula_sum "Si O2"
_cell_formula_units_Z 28
_cell_length_a 15.227465
_cell_length_b 8.778621
_cell_length_c 7.942904
_cell_angle_alpha 90.000000
_cell_angle_beta 90.000000
_cell_angle_gamma 90.000000
_cell_volume 1061.776779
_symmetry_space_group_name_H-M "P C C A"
_symmetry_group_IT_number 54
_symmetry_cell_setting 'orthorhombic'
loop_
_space_group_symop_operation_xyz
x,y,z
1/2-x,-y,z
1/2+x,-y,1/2-z
-x,y,1/2-z
-x,-y,-z
1/2+x,y,-z
1/2-x,y,1/2+z
x,-y,1/2+z
loop_
_atom_site_type_symbol
_atom_site_label
_atom_site_fract_x
_atom_site_fract_y
_atom_site_fract_z
Si Si1 0.825427 0.116558 0.861036
Si Si2 0.000000 0.118178 0.750000
Si Si3 0.459077 0.659913 0.065542
Si Si4 0.268404 0.331325 0.438301
O O1 0.914072 0.030785 0.811903
O O2 0.820644 0.252135 0.995511
O O3 0.800667 0.212871 0.698520
O O4 0.750000 0.000000 0.906630
O O5 0.981131 0.221763 0.585773
O O6 0.500000 0.690383 0.250000
O O7 0.351670 0.653778 0.066432
O O8 0.500000 0.500000 0.000000
O O9 0.250000 0.500000 0.375276
#
# Coordination Sequence:
#
# PCOD9423792 Si02
#       4
#     8   4   8   8
#     4  11  25  48  71 105 143 190 241 299 369 439
#     4  10  24  46  70 100 146 188 246 298 362 446
#     4  11  23  40  67 107 144 187 238 303 365 429
#     4  11  25  42  71 104 142 187 239 302 359 433
#
# _framework density 26.370889999999999
#
# number of rings (size 3 to 8) (size 9 to 14) (size 15 to 20)
#    0.000    1.143    1.429    3.429   12.000    0.000 
#    2.571    4.286    0.000    0.000    0.000    0.000 
#    0.000    0.000    0.000    0.000    0.000    0.000 
#
# Total GULP energy -156628.188750 kJ/mol
# GULP energy per Si atom -5593.863884 kJ/mol
# Density = 2.631087 g / cm^3
# Si number density = 26.370890 Si / 1000 Ang^3
#
#
#
# Elastic Constant Matrix: (Units=GPa)
#
#
# Indices 1 2 3 4 5 6 
#
# 1 93.9973 23.4104 2.3957 0.0000 0.0000 0.0000
# 2 23.4104 109.2361 22.9849 0.0000 0.0000 0.0000
# 3 2.3957 22.9849 133.0490 0.0000 0.0000 0.0000
# 4 0.0000 0.0000 0.0000 24.9539 0.0000 0.0000
# 5 0.0000 0.0000 0.0000 0.0000 31.1936 0.0000
# 6 0.0000 0.0000 0.0000 0.0000 0.0000 29.0788
#
#
#
# Elastic Compliance Matrix: (Units=1/GPa)
#
#
# Indices 1 2 3 4 5 6 
#
# 1 0.011245 -0.002457 0.000222 0.000000 0.000000 0.000000
# 2 -0.002457 0.010036 -0.001690 0.000000 0.000000 0.000000
# 3 0.000222 -0.001690 0.007804 0.000000 0.000000 0.000000
# 4 0.000000 0.000000 0.000000 0.040074 0.000000 0.000000
# 5 0.000000 0.000000 0.000000 0.000000 0.032058 0.000000
# 6 0.000000 0.000000 0.000000 0.000000 0.000000 0.034389
#
#
# Mechanical properties :
#
#
# Convention : Reuss Voigt Hill
#
# Bulk Modulus (GPa) = 47.08846 48.20713 47.64779
# Shear Modulus (GPa) = 33.21520 36.21138 34.71329
#
# Velocity S-wave (km/s) = 3.55285 3.70963 3.63209
# Velocity P-wave (km/s) = 5.89282 6.05546 5.97469
#
# Compressibility (1/GPa) = 0.02123663
#
# Stress axis : x y z
#
# Youngs Moduli (GPa) = 88.93033 99.63662 128.14071
#
# Poissons Ratio (x) = 0.24476 -0.02844
# Poissons Ratio (y) = 0.21846 0.21651
# Poissons Ratio (z) = -0.01973 0.16835
#
# Static dielectric constant tensor:
#      x y z
#    x 2.240120 0.000000 0.000000 
#    y 0.000000 1.827220 0.000000 
#    z 0.000000 0.000000 2.106810 
# 
# From -- ./inp_files/3858.got.cif
#   From: 2010.05.17/outbox.cif.g08.bks.cpg/sg54_2_cif.got.tgz:3858.got - 2010.06.03 13:09:01.
