data_PCOD9423758
_publ_section_title
;
Structure prediction by ZEFSAII (Michael W. Deem and Ramdas Pophale) SiO2 
 PCOD9423758
Probable space group: P C C A
;
_chemical_formula_sum "Si O2"
_cell_formula_units_Z 40
_cell_length_a 14.284795
_cell_length_b 13.337511
_cell_length_c 9.122291
_cell_angle_alpha 90.000000
_cell_angle_beta 90.000000
_cell_angle_gamma 90.000000
_cell_volume 1738.011817
_symmetry_space_group_name_H-M "P C C A"
_symmetry_group_IT_number 54
_symmetry_cell_setting 'orthorhombic'
loop_
_space_group_symop_operation_xyz
x,y,z
1/2-x,-y,z
1/2+x,-y,1/2-z
-x,y,1/2-z
-x,-y,-z
1/2+x,y,-z
1/2-x,y,1/2+z
x,-y,1/2+z
loop_
_atom_site_type_symbol
_atom_site_label
_atom_site_fract_x
_atom_site_fract_y
_atom_site_fract_z
Si Si1 0.250000 0.000000 0.045953
Si Si2 0.568530 0.783601 0.613971
Si Si3 0.908149 0.902601 0.841644
Si Si4 0.425529 0.635297 0.497440
Si Si5 0.718852 0.791169 0.126071
Si Si6 0.000000 0.494025 0.750000
O O1 0.160514 0.004337 0.151722
O O2 0.267375 0.101249 0.954752
O O3 0.500000 0.795439 0.750000
O O4 0.568294 0.879952 0.509614
O O5 0.520455 0.700620 0.510498
O O6 0.674808 0.758090 0.656600
O O7 0.844625 0.815003 0.768586
O O8 0.000000 0.915148 0.750000
O O9 0.339485 0.710662 0.469144
O O10 0.431070 0.572815 0.648643
O O11 0.439453 0.560954 0.361275
#
# Coordination Sequence:
#
# PCOD9423758 Si02
#       6
#     4   8   8   8   8   4
#     4  10  26  44  66 116 152 194 258 312 368 472
#     4  11  25  44  75 107 146 193 251 309 384 453
#     4  11  23  45  70 103 149 197 250 314 369 455
#     4  11  22  47  73 105 145 195 237 323 375 451
#     4  11  25  47  73 108 152 204 252 305 394 456
#     4  10  24  44  74 110 150 178 268 314 376 454
#
# _framework density 23.014804999999999
#
# number of rings (size 3 to 8) (size 9 to 14) (size 15 to 20)
#    0.000    1.200    3.000    1.800    5.600    0.800 
#    5.400    6.000    0.000    1.200    0.000    0.000 
#    0.000    0.000    0.000    0.000    0.000    0.000 
#
# Total GULP energy -223680.865065 kJ/mol
# GULP energy per Si atom -5592.021627 kJ/mol
# Density = 2.296242 g / cm^3
# Si number density = 23.014805 Si / 1000 Ang^3
#
#
#
# Elastic Constant Matrix: (Units=GPa)
#
#
# Indices 1 2 3 4 5 6 
#
# 1 194.2807 70.9224 76.7295 0.0000 0.0000 0.0000
# 2 70.9224 91.9124 51.7185 0.0000 0.0000 0.0000
# 3 76.7295 51.7185 133.6384 0.0000 0.0000 0.0000
# 4 0.0000 0.0000 0.0000 32.8999 0.0000 0.0000
# 5 0.0000 0.0000 0.0000 0.0000 32.6119 0.0000
# 6 0.0000 0.0000 0.0000 0.0000 0.0000 41.1501
#
#
#
# Elastic Compliance Matrix: (Units=1/GPa)
#
#
# Indices 1 2 3 4 5 6 
#
# 1 0.007900 -0.004530 -0.002783 0.000000 0.000000 0.000000
# 2 -0.004530 0.016506 -0.003787 0.000000 0.000000 0.000000
# 3 -0.002783 -0.003787 0.010546 0.000000 0.000000 0.000000
# 4 0.000000 0.000000 0.000000 0.030395 0.000000 0.000000
# 5 0.000000 0.000000 0.000000 0.000000 0.030664 0.000000
# 6 0.000000 0.000000 0.000000 0.000000 0.000000 0.024301
#
#
# Mechanical properties :
#
#
# Convention : Reuss Voigt Hill
#
# Bulk Modulus (GPa) = 78.41326 90.95248 84.68287
# Shear Modulus (GPa) = 34.06855 36.02981 35.04918
#
# Velocity S-wave (km/s) = 3.85163 3.96094 3.90667
# Velocity P-wave (km/s) = 7.34335 7.77969 7.56467
#
# Compressibility (1/GPa) = 0.01275295
#
# Stress axis : x y z
#
# Youngs Moduli (GPa) = 126.58477 60.58267 94.82122
#
# Poissons Ratio (x) = 0.27444 0.26385
# Poissons Ratio (y) = 0.57343 0.35910
# Poissons Ratio (z) = 0.35224 0.22943
#
# Static dielectric constant tensor:
#      x y z
#    x 1.930570 0.000000 0.000000 
#    y 0.000000 1.940560 0.000000 
#    z 0.000000 0.000000 1.929110 
# 
# From -- ./inp_files/3480.got.cif
#   From: 2010.05.17/outbox.cif.g08.bks.cpg/sg54_2_cif.got.tgz:3480.got - 2010.06.03 13:09:01.
