data_PCOD9423360
_publ_section_title
;
Structure prediction by ZEFSAII (Michael W. Deem and Ramdas Pophale) SiO2 
 PCOD9423360
Probable space group: P C C A
;
_chemical_formula_sum "Si O2"
_cell_formula_units_Z 56
_cell_length_a 9.253734
_cell_length_b 16.176198
_cell_length_c 18.739839
_cell_angle_alpha 90.000000
_cell_angle_beta 90.000000
_cell_angle_gamma 90.000000
_cell_volume 2805.170874
_symmetry_space_group_name_H-M "P C C A"
_symmetry_group_IT_number 54
_symmetry_cell_setting 'orthorhombic'
loop_
_space_group_symop_operation_xyz
x,y,z
1/2-x,-y,z
1/2+x,-y,1/2-z
-x,y,1/2-z
-x,-y,-z
1/2+x,y,-z
1/2-x,y,1/2+z
x,-y,1/2+z
loop_
_atom_site_type_symbol
_atom_site_label
_atom_site_fract_x
_atom_site_fract_y
_atom_site_fract_z
Si Si1 0.377547 0.333415 0.943603
Si Si2 0.835419 0.073134 0.457115
Si Si3 0.134011 0.559368 0.524602
Si Si4 0.897137 0.142500 0.685088
Si Si5 0.038821 0.037133 0.334126
Si Si6 0.617476 0.781566 0.189404
Si Si7 0.560173 0.181542 0.452154
O O1 0.536025 0.375072 0.934736
O O2 0.354027 0.287634 0.869141
O O3 0.241745 0.392356 0.968076
O O4 0.404472 0.265036 0.005102
O O5 0.714250 0.139687 0.437030
O O6 0.959746 0.119332 0.501356
O O7 0.904677 0.029308 0.387996
O O8 0.750000 0.000000 0.498102
O O9 0.250000 0.500000 0.563305
O O10 0.000000 0.500000 0.500000
O O11 0.769501 0.193171 0.721681
O O12 0.969060 0.191907 0.620167
O O13 0.000000 0.127535 0.750000
O O14 0.872093 0.048123 0.658365
O O15 0.087261 0.131142 0.351394
O O16 0.000000 0.044888 0.250000
O O17 0.500000 0.763650 0.250000
#
# Coordination Sequence:
#
# PCOD9423360 Si02
#       7
#     8   8   8   8   8   8   8
#     4  11  21  40  64  98 129 155 201 254 318 387
#     4  12  24  40  57  85 120 170 216 277 327 380
#     4   9  20  39  68  98 126 157 188 235 303 392
#     4  11  25  40  56  82 120 173 230 276 316 372
#     4  10  23  39  59  77 118 173 233 268 319 364
#     4  11  24  39  62  89 125 169 217 268 325 371
#     4  12  25  38  62  89 126 161 213 275 334 374
#
# _framework density 19.963132999999999
#
# number of rings (size 3 to 8) (size 9 to 14) (size 15 to 20)
#    0.000    1.143    2.857    3.429    4.000    0.000 
#    0.000    0.000    0.000    2.571    0.000    5.000 
#    0.000    0.000    0.000    0.000    0.000    0.000 
#
# Total GULP energy -311745.959506 kJ/mol
# GULP energy per Si atom -5566.892134 kJ/mol
# Density = 1.991770 g / cm^3
# Si number density = 19.963133 Si / 1000 Ang^3
#
#
#
# Elastic Constant Matrix: (Units=GPa)
#
#
# Indices 1 2 3 4 5 6 
#
# 1 119.9587 37.6755 33.3349 0.0000 0.0000 0.0000
# 2 37.6755 79.6936 18.0110 0.0000 0.0000 0.0000
# 3 33.3349 18.0110 68.3217 0.0000 0.0000 0.0000
# 4 0.0000 0.0000 0.0000 1.6517 0.0000 0.0000
# 5 0.0000 0.0000 0.0000 0.0000 24.7642 0.0000
# 6 0.0000 0.0000 0.0000 0.0000 0.0000 42.0875
#
#
#
# Elastic Compliance Matrix: (Units=1/GPa)
#
#
# Indices 1 2 3 4 5 6 
#
# 1 0.010804 -0.004164 -0.004174 0.000000 0.000000 0.000000
# 2 -0.004164 0.014948 -0.001909 0.000000 0.000000 0.000000
# 3 -0.004174 -0.001909 0.017176 0.000000 0.000000 0.000000
# 4 0.000000 0.000000 0.000000 0.605426 0.000000 0.000000
# 5 0.000000 0.000000 0.000000 0.000000 0.040381 0.000000
# 6 0.000000 0.000000 0.000000 0.000000 0.000000 0.023760
#
#
# Mechanical properties :
#
#
# Convention : Reuss Voigt Hill
#
# Bulk Modulus (GPa) = 44.57357 49.55742 47.06549
# Shear Modulus (GPa) = 6.75250 25.63087 16.19169
#
# Velocity S-wave (km/s) = 1.84115 3.58706 2.85104
# Velocity P-wave (km/s) = 5.18615 6.48339 5.87071
#
# Compressibility (1/GPa) = 0.02243482
#
# Stress axis : x y z
#
# Youngs Moduli (GPa) = 92.55946 66.89782 58.22029
#
# Poissons Ratio (x) = 0.27859 0.24298
# Poissons Ratio (y) = 0.38545 0.11113
# Poissons Ratio (z) = 0.38630 0.12770
#
# Static dielectric constant tensor:
#      x y z
#    x 1.856930 0.000000 0.000000 
#    y 0.000000 1.802100 0.000000 
#    z 0.000000 0.000000 1.766110 
# 
# From -- ./inp_files/20636.got.cif
#   From: 2010.05.17/outbox.cif.g08.bks.cpg/sg54_11_cif.got.tgz:20636.got - 2010.06.03 13:09:01.
