data_PCOD9423971
_publ_section_title
;
Structure prediction by ZEFSAII (Michael W. Deem and Ramdas Pophale) SiO2 
 PCOD9423971
Probable space group: P C C A
;
_chemical_formula_sum "Si O2"
_cell_formula_units_Z 56
_cell_length_a 20.010561
_cell_length_b 5.131836
_cell_length_c 28.132147
_cell_angle_alpha 90.000000
_cell_angle_beta 90.000000
_cell_angle_gamma 90.000000
_cell_volume 2888.915982
_symmetry_space_group_name_H-M "P C C A"
_symmetry_group_IT_number 54
_symmetry_cell_setting 'orthorhombic'
loop_
_space_group_symop_operation_xyz
x,y,z
1/2-x,-y,z
1/2+x,-y,1/2-z
-x,y,1/2-z
-x,-y,-z
1/2+x,y,-z
1/2-x,y,1/2+z
x,-y,1/2+z
loop_
_atom_site_type_symbol
_atom_site_label
_atom_site_fract_x
_atom_site_fract_y
_atom_site_fract_z
Si Si1 0.913232 0.261214 0.484204
Si Si2 0.942440 0.228251 0.709545
Si Si3 0.890382 0.102721 0.380737
Si Si4 0.707901 0.742581 0.746456
Si Si5 0.072098 0.244865 0.459112
Si Si6 0.817772 0.586781 0.353229
Si Si7 0.960556 0.736973 0.646643
O O1 0.878193 0.199557 0.434485
O O2 0.895539 0.532103 0.508600
O O3 0.992443 0.263016 0.470763
O O4 0.904239 0.033639 0.522467
O O5 0.868829 0.277828 0.730364
O O6 0.962975 0.458633 0.672938
O O7 0.000000 0.213835 0.750000
O O8 0.934908 0.952349 0.683176
O O9 0.855203 0.312750 0.346511
O O10 0.967783 0.142239 0.368492
O O11 0.864428 0.807997 0.376233
O O12 0.750000 0.500000 0.727261
O O13 0.704154 0.712963 0.803561
O O14 0.750000 0.000000 0.734541
O O15 0.079343 0.285057 0.402891
O O16 0.750000 0.500000 0.379838
#
# Coordination Sequence:
#
# PCOD9423971 Si02
#       7
#     8   8   8   8   8   8   8
#     4   9  17  29  50  75 107 142 173 214 267 338
#     4  12  24  38  58  88 119 149 188 245 303 344
#     4  11  20  34  54  83 115 147 180 225 291 345
#     4  11  23  41  60  80 112 155 197 232 276 343
#     4   9  17  31  48  76 109 140 177 214 268 340
#     4  11  22  36  54  78 110 150 193 231 271 338
#     4  11  22  35  56  84 117 147 181 235 296 346
#
# _framework density 19.384432
#
# number of rings (size 3 to 8) (size 9 to 14) (size 15 to 20)
#    0.000    1.429    0.000    7.714    0.000    4.571 
#    0.000    0.000    0.000    0.000    0.000   35.000 
#    0.000    0.000    0.000    0.000    0.000    0.000 
#
# Total GULP energy -312424.164671 kJ/mol
# GULP energy per Si atom -5579.002941 kJ/mol
# Density = 1.934031 g / cm^3
# Si number density = 19.384432 Si / 1000 Ang^3
#
#
#
# Elastic Constant Matrix: (Units=GPa)
#
#
# Indices 1 2 3 4 5 6 
#
# 1 71.7976 -8.2139 2.7005 0.0000 0.0000 0.0000
# 2 -8.2139 65.6646 6.1584 0.0000 0.0000 0.0000
# 3 2.7005 6.1584 69.9353 0.0000 0.0000 0.0000
# 4 0.0000 0.0000 0.0000 7.5409 0.0000 0.0000
# 5 0.0000 0.0000 0.0000 0.0000 6.4050 0.0000
# 6 0.0000 0.0000 0.0000 0.0000 0.0000 32.2703
#
#
#
# Elastic Compliance Matrix: (Units=1/GPa)
#
#
# Indices 1 2 3 4 5 6 
#
# 1 0.014165 0.001838 -0.000709 0.000000 0.000000 0.000000
# 2 0.001838 0.015594 -0.001444 0.000000 0.000000 0.000000
# 3 -0.000709 -0.001444 0.014453 0.000000 0.000000 0.000000
# 4 0.000000 0.000000 0.000000 0.132610 0.000000 0.000000
# 5 0.000000 0.000000 0.000000 0.000000 0.156127 0.000000
# 6 0.000000 0.000000 0.000000 0.000000 0.000000 0.030988
#
#
# Mechanical properties :
#
#
# Convention : Reuss Voigt Hill
#
# Bulk Modulus (GPa) = 22.94448 23.18748 23.06598
# Shear Modulus (GPa) = 13.18929 23.02675 18.10802
#
# Velocity S-wave (km/s) = 2.61129 3.45033 3.05971
# Velocity P-wave (km/s) = 4.57756 5.27834 4.94039
#
# Compressibility (1/GPa) = 0.04358346
#
# Stress axis : x y z
#
# Youngs Moduli (GPa) = 70.59644 64.12595 69.18749
#
# Poissons Ratio (x) = -0.11789 0.04904
# Poissons Ratio (y) = -0.12978 0.09992
# Poissons Ratio (z) = 0.05004 0.09261
#
# Static dielectric constant tensor:
#      x y z
#    x 1.760480 0.000000 0.000000 
#    y 0.000000 1.672420 0.000000 
#    z 0.000000 0.000000 1.691620 
# 
# From -- ./inp_files/24742.got.cif
#   From: 2010.05.17/outbox.cif.g08.bks.cpg/sg54_13_cif.got.tgz:24742.got - 2010.06.03 13:09:01.
