data_PCOD9423856
_publ_section_title
;
Structure prediction by ZEFSAII (Michael W. Deem and Ramdas Pophale) SiO2 
 PCOD9423856
Probable space group: P C C A
;
_chemical_formula_sum "Si O2"
_cell_formula_units_Z 32
_cell_length_a 8.543740
_cell_length_b 12.104370
_cell_length_c 13.237817
_cell_angle_alpha 90.000000
_cell_angle_beta 90.000000
_cell_angle_gamma 90.000000
_cell_volume 1369.009895
_symmetry_space_group_name_H-M "P C C A"
_symmetry_group_IT_number 54
_symmetry_cell_setting 'orthorhombic'
loop_
_space_group_symop_operation_xyz
x,y,z
1/2-x,-y,z
1/2+x,-y,1/2-z
-x,y,1/2-z
-x,-y,-z
1/2+x,y,-z
1/2-x,y,1/2+z
x,-y,1/2+z
loop_
_atom_site_type_symbol
_atom_site_label
_atom_site_fract_x
_atom_site_fract_y
_atom_site_fract_z
Si Si1 0.304422 0.811345 0.621966
Si Si2 0.534438 0.108872 0.569748
Si Si3 0.750000 0.000000 0.235263
Si Si4 0.987570 0.595345 0.357556
Si Si5 0.750000 0.500000 0.521758
O O1 0.370800 0.817740 0.509064
O O2 0.391207 0.706833 0.668447
O O3 0.117820 0.825641 0.608093
O O4 0.342395 0.917933 0.690545
O O5 0.500000 0.000000 0.500000
O O6 0.641087 0.071745 0.662468
O O7 0.877634 0.546782 0.444683
O O8 0.000000 0.533094 0.250000
O O9 0.160361 0.589557 0.407661
#
# Coordination Sequence:
#
# PCOD9423856 Si02
#       5
#     8   8   4   8   4
#     4  12  26  40  68 101 137 189 244 291 346 430
#     4  12  23  43  61  93 144 199 239 287 340 403
#     4  12  24  40  66  92 148 198 242 284 346 410
#     4  11  25  45  78 106 139 183 243 305 379 449
#     4  10  24  52  74 104 142 180 232 320 392 442
#
# _framework density 23.374558
#
# number of rings (size 3 to 8) (size 9 to 14) (size 15 to 20)
#    0.000    0.500    5.000    3.000    3.500    2.000 
#    0.000    7.500    0.000    0.000    0.000    0.000 
#    0.000    0.000    0.000    0.000    0.000    0.000 
#
# Total GULP energy -178669.315442 kJ/mol
# GULP energy per Si atom -5583.416108 kJ/mol
# Density = 2.332136 g / cm^3
# Si number density = 23.374558 Si / 1000 Ang^3
#
#
#
# Elastic Constant Matrix: (Units=GPa)
#
#
# Indices 1 2 3 4 5 6 
#
# 1 149.3641 19.0519 57.5967 0.0000 0.0000 0.0000
# 2 19.0519 43.1842 -0.9742 0.0000 0.0000 0.0000
# 3 57.5967 -0.9742 143.9680 0.0000 0.0000 0.0000
# 4 0.0000 0.0000 0.0000 26.2209 0.0000 0.0000
# 5 0.0000 0.0000 0.0000 0.0000 57.7712 0.0000
# 6 0.0000 0.0000 0.0000 0.0000 0.0000 4.8176
#
#
#
# Elastic Compliance Matrix: (Units=1/GPa)
#
#
# Indices 1 2 3 4 5 6 
#
# 1 0.008506 -0.003830 -0.003429 0.000000 0.000000 0.000000
# 2 -0.003830 0.024885 0.001701 0.000000 0.000000 0.000000
# 3 -0.003429 0.001701 0.008329 0.000000 0.000000 0.000000
# 4 0.000000 0.000000 0.000000 0.038137 0.000000 0.000000
# 5 0.000000 0.000000 0.000000 0.000000 0.017310 0.000000
# 6 0.000000 0.000000 0.000000 0.000000 0.000000 0.207573
#
#
# Mechanical properties :
#
#
# Convention : Reuss Voigt Hill
#
# Bulk Modulus (GPa) = 32.67603 54.20723 43.44163
# Shear Modulus (GPa) = 15.33475 35.15141 25.24308
#
# Velocity S-wave (km/s) = 2.56412 3.88213 3.28981
# Velocity P-wave (km/s) = 4.77241 6.58298 5.74942
#
# Compressibility (1/GPa) = 0.03060347
#
# Stress axis : x y z
#
# Youngs Moduli (GPa) = 117.56763 40.18547 120.05909
#
# Poissons Ratio (x) = 0.15391 0.41166
# Poissons Ratio (y) = 0.45027 -0.20417
# Poissons Ratio (z) = 0.40311 -0.06834
#
# Static dielectric constant tensor:
#      x y z
#    x 2.550010 0.000000 0.000000 
#    y 0.000000 1.927660 0.000000 
#    z 0.000000 0.000000 1.873660 
# 
# From -- ./inp_files/6813.got.cif
#   From: 2010.05.17/outbox.cif.g08.bks.cpg/sg54_4_cif.got.tgz:6813.got - 2010.06.03 13:09:01.
