data_PCOD9423742
_publ_section_title
;
Structure prediction by ZEFSAII (Michael W. Deem and Ramdas Pophale) SiO2 
 PCOD9423742
Probable space group: P C C A
;
_chemical_formula_sum "Si O2"
_cell_formula_units_Z 56
_cell_length_a 9.158806
_cell_length_b 13.520473
_cell_length_c 18.857633
_cell_angle_alpha 90.000000
_cell_angle_beta 90.000000
_cell_angle_gamma 90.000000
_cell_volume 2335.166892
_symmetry_space_group_name_H-M "P C C A"
_symmetry_group_IT_number 54
_symmetry_cell_setting 'orthorhombic'
loop_
_space_group_symop_operation_xyz
x,y,z
1/2-x,-y,z
1/2+x,-y,1/2-z
-x,y,1/2-z
-x,-y,-z
1/2+x,y,-z
1/2-x,y,1/2+z
x,-y,1/2+z
loop_
_atom_site_type_symbol
_atom_site_label
_atom_site_fract_x
_atom_site_fract_y
_atom_site_fract_z
Si Si1 0.363504 0.570929 0.523594
Si Si2 0.261814 0.118010 0.051255
Si Si3 0.750000 0.500000 0.700005
Si Si4 0.534363 0.059243 0.328864
Si Si5 0.764339 0.856872 0.109899
Si Si6 0.045009 0.836869 0.655872
Si Si7 0.500000 0.650482 0.250000
Si Si8 0.374627 0.352597 0.407882
O O1 0.250000 0.500000 0.565175
O O2 0.500000 0.500000 0.500000
O O3 0.256624 0.617718 0.463843
O O4 0.460492 0.651237 0.562665
O O5 0.366110 0.126328 0.119732
O O6 0.112395 0.168123 0.077256
O O7 0.250000 0.000000 0.043839
O O8 0.290757 0.148508 0.971179
O O9 0.639497 0.420470 0.735128
O O10 0.640813 0.563253 0.650631
O O11 0.500000 0.096842 0.250000
O O12 0.383629 0.059754 0.374162
O O13 0.598062 0.947216 0.319678
O O14 0.626525 0.855895 0.159848
O O15 0.840693 0.752825 0.123675
O O16 0.059081 0.730206 0.691715
#
# Coordination Sequence:
#
# PCOD9423742 Si02
#       8
#     8   8   4   8   8   8   4   8
#     4   9  18  38  67  96 134 180 241 297 367 438
#     4  10  24  44  70 112 157 195 247 308 366 445
#     4  12  26  54  68 100 144 180 266 320 378 448
#     4  11  25  44  73 110 154 199 256 312 360 460
#     4  12  25  42  72 110 157 196 245 313 382 445
#     4  11  24  46  78 102 143 200 254 287 385 452
#     4  12  28  52  76 102 136 202 240 322 372 458
#     4  11  23  41  69 104 145 192 240 309 374 461
#
# _framework density 23.981155000000001
#
# number of rings (size 3 to 8) (size 9 to 14) (size 15 to 20)
#    0.000    1.143    4.286    2.143    6.000    3.429 
#    5.143    0.000    0.000    0.000    0.000    0.000 
#    0.000    0.000    0.000    0.000    0.000    0.000 
#
# Total GULP energy -311977.194322 kJ/mol
# GULP energy per Si atom -5571.021327 kJ/mol
# Density = 2.392657 g / cm^3
# Si number density = 23.981155 Si / 1000 Ang^3
#
#
#
# Elastic Constant Matrix: (Units=GPa)
#
#
# Indices 1 2 3 4 5 6 
#
# 1 133.4441 30.9590 22.5304 0.0000 0.0000 0.0000
# 2 30.9590 144.4325 31.2095 0.0000 0.0000 0.0000
# 3 22.5304 31.2095 80.0230 0.0000 0.0000 0.0000
# 4 0.0000 0.0000 0.0000 11.6013 0.0000 0.0000
# 5 0.0000 0.0000 0.0000 0.0000 23.8813 0.0000
# 6 0.0000 0.0000 0.0000 0.0000 0.0000 27.0688
#
#
#
# Elastic Compliance Matrix: (Units=1/GPa)
#
#
# Indices 1 2 3 4 5 6 
#
# 1 0.008105 -0.001359 -0.001752 0.000000 0.000000 0.000000
# 2 -0.001359 0.007789 -0.002655 0.000000 0.000000 0.000000
# 3 -0.001752 -0.002655 0.014025 0.000000 0.000000 0.000000
# 4 0.000000 0.000000 0.000000 0.086197 0.000000 0.000000
# 5 0.000000 0.000000 0.000000 0.000000 0.041874 0.000000
# 6 0.000000 0.000000 0.000000 0.000000 0.000000 0.036943
#
#
# Mechanical properties :
#
#
# Convention : Reuss Voigt Hill
#
# Bulk Modulus (GPa) = 54.38604 58.58859 56.48732
# Shear Modulus (GPa) = 23.51914 30.72367 27.12140
#
# Velocity S-wave (km/s) = 3.13506 3.58321 3.36660
# Velocity P-wave (km/s) = 5.98604 6.45006 6.22238
#
# Compressibility (1/GPa) = 0.01838707
#
# Stress axis : x y z
#
# Youngs Moduli (GPa) = 123.38382 128.39281 71.30036
#
# Poissons Ratio (x) = 0.17444 0.12492
# Poissons Ratio (y) = 0.16764 0.18931
# Poissons Ratio (z) = 0.21617 0.34089
#
# Static dielectric constant tensor:
#      x y z
#    x 1.983820 0.000000 0.000000 
#    y 0.000000 1.972490 0.000000 
#    z 0.000000 0.000000 1.971240 
# 
# From -- ./inp_files/20606.got.cif
#   From: 2010.05.17/outbox.cif.g08.bks.cpg/sg54_11_cif.got.tgz:20606.got - 2010.06.03 13:09:01.
