data_PCOD9423788
_publ_section_title
;
Structure prediction by ZEFSAII (Michael W. Deem and Ramdas Pophale) SiO2 
 PCOD9423788
Probable space group: P C C A
;
_chemical_formula_sum "Si O2"
_cell_formula_units_Z 32
_cell_length_a 9.172890
_cell_length_b 11.839810
_cell_length_c 11.466065
_cell_angle_alpha 90.000000
_cell_angle_beta 90.000000
_cell_angle_gamma 90.000000
_cell_volume 1245.275140
_symmetry_space_group_name_H-M "P C C A"
_symmetry_group_IT_number 54
_symmetry_cell_setting 'orthorhombic'
loop_
_space_group_symop_operation_xyz
x,y,z
1/2-x,-y,z
1/2+x,-y,1/2-z
-x,y,1/2-z
-x,-y,-z
1/2+x,y,-z
1/2-x,y,1/2+z
x,-y,1/2+z
loop_
_atom_site_type_symbol
_atom_site_label
_atom_site_fract_x
_atom_site_fract_y
_atom_site_fract_z
Si Si1 0.790451 0.112890 0.339609
Si Si2 0.349353 0.297357 0.311221
Si Si3 0.028553 0.827462 0.008390
Si Si4 0.644451 0.573420 0.017078
O O1 0.755831 0.231863 0.277501
O O2 0.663807 0.105774 0.439124
O O3 0.950422 0.123003 0.395124
O O4 0.750000 0.000000 0.268171
O O5 0.500000 0.338631 0.250000
O O6 0.404185 0.196162 0.395488
O O7 0.265233 0.393922 0.381400
O O8 0.086343 0.700239 0.994095
O O9 0.750000 0.500000 0.931982
O O10 0.500000 0.500000 0.000000
#
# Coordination Sequence:
#
# PCOD9423788 Si02
#       4
#     8   8   8   8
#     4  11  24  45  73 104 148 202 251 315 387 447
#     4  10  24  46  68 110 155 186 258 321 369 471
#     4  11  22  47  71 104 146 189 259 311 365 472
#     4  12  23  46  78 104 148 200 247 316 388 450
#
# _framework density 25.697133999999998
#
# number of rings (size 3 to 8) (size 9 to 14) (size 15 to 20)
#    0.000    1.000    5.000    0.750    0.000    2.000 
#   18.000    2.500    0.000    0.000    0.000    0.000 
#    0.000    0.000    0.000    0.000    0.000    0.000 
#
# Total GULP energy -178232.454705 kJ/mol
# GULP energy per Si atom -5569.764210 kJ/mol
# Density = 2.563865 g / cm^3
# Si number density = 25.697134 Si / 1000 Ang^3
#
#
#
# Elastic Constant Matrix: (Units=GPa)
#
#
# Indices 1 2 3 4 5 6 
#
# 1 114.7813 46.6008 31.2020 0.0000 0.0000 0.0000
# 2 46.6008 146.4447 -0.8135 0.0000 0.0000 0.0000
# 3 31.2020 -0.8135 52.9027 0.0000 0.0000 0.0000
# 4 0.0000 0.0000 0.0000 7.0597 0.0000 0.0000
# 5 0.0000 0.0000 0.0000 0.0000 33.7712 0.0000
# 6 0.0000 0.0000 0.0000 0.0000 0.0000 54.8798
#
#
#
# Elastic Compliance Matrix: (Units=1/GPa)
#
#
# Indices 1 2 3 4 5 6 
#
# 1 0.012309 -0.003958 -0.007321 0.000000 0.000000 0.000000
# 2 -0.003958 0.008102 0.002459 0.000000 0.000000 0.000000
# 3 -0.007321 0.002459 0.023258 0.000000 0.000000 0.000000
# 4 0.000000 0.000000 0.000000 0.141650 0.000000 0.000000
# 5 0.000000 0.000000 0.000000 0.000000 0.029611 0.000000
# 6 0.000000 0.000000 0.000000 0.000000 0.000000 0.018222
#
#
# Mechanical properties :
#
#
# Convention : Reuss Voigt Hill
#
# Bulk Modulus (GPa) = 38.41768 52.01191 45.21479
# Shear Modulus (GPa) = 19.27030 34.95143 27.11087
#
# Velocity S-wave (km/s) = 2.74140 3.69199 3.25162
# Velocity P-wave (km/s) = 5.00030 6.20151 5.63302
#
# Compressibility (1/GPa) = 0.02602968
#
# Stress axis : x y z
#
# Youngs Moduli (GPa) = 81.24117 123.43346 42.99563
#
# Poissons Ratio (x) = 0.48850 0.31476
# Poissons Ratio (y) = 0.32152 -0.10572
# Poissons Ratio (z) = 0.59474 -0.30349
#
# Static dielectric constant tensor:
#      x y z
#    x 2.191400 0.000000 0.000000 
#    y 0.000000 2.150920 0.000000 
#    z 0.000000 0.000000 2.258910 
# 
# From -- ./inp_files/11233.got.cif
#   From: 2010.05.17/outbox.cif.g08.bks.cpg/sg54_6_cif.got.tgz:11233.got - 2010.06.03 13:09:01.
