data_PCOD9423949
_publ_section_title
;
Structure prediction by ZEFSAII (Michael W. Deem and Ramdas Pophale) SiO2 
 PCOD9423949
Probable space group: P C C A
;
_chemical_formula_sum "Si O2"
_cell_formula_units_Z 28
_cell_length_a 22.768353
_cell_length_b 4.729069
_cell_length_c 9.698317
_cell_angle_alpha 90.000000
_cell_angle_beta 90.000000
_cell_angle_gamma 90.000000
_cell_volume 1044.247976
_symmetry_space_group_name_H-M "P C C A"
_symmetry_group_IT_number 54
_symmetry_cell_setting 'orthorhombic'
loop_
_space_group_symop_operation_xyz
x,y,z
1/2-x,-y,z
1/2+x,-y,1/2-z
-x,y,1/2-z
-x,-y,-z
1/2+x,y,-z
1/2-x,y,1/2+z
x,-y,1/2+z
loop_
_atom_site_type_symbol
_atom_site_label
_atom_site_fract_x
_atom_site_fract_y
_atom_site_fract_z
Si Si1 0.573542 0.161479 0.836542
Si Si2 0.250000 0.000000 0.570173
Si Si3 0.149328 0.867818 0.400299
Si Si4 0.250000 0.500000 0.268637
Si Si5 0.000000 0.685107 0.250000
O O1 0.551717 0.450618 0.764308
O O2 0.615739 0.007384 0.726518
O O3 0.522531 0.922964 0.859105
O O4 0.603862 0.226704 0.982078
O O5 0.194511 0.080172 0.477358
O O6 0.229923 0.748119 0.666931
O O7 0.195035 0.632548 0.348388
#
# Coordination Sequence:
#
# PCOD9423949 Si02
#       5
#     8   4   8   4   4
#     4  11  28  50  84 115 164 216 272 342 412 472
#     4  12  28  50  76 124 162 214 266 328 392 522
#     4  12  28  52  83 120 165 218 266 334 416 485
#     4  12  28  50  80 122 164 214 270 326 398 520
#     4  10  28  52  78 122 156 212 286 342 398 488
#
# _framework density 26.813552999999999
#
# number of rings (size 3 to 8) (size 9 to 14) (size 15 to 20)
#    0.000    0.571    2.857    1.714    4.000   16.000 
#    0.000    0.000    0.000    0.000    0.000    0.000 
#    0.000    0.000    0.000    0.000    0.000    0.000 
#
# Total GULP energy -156643.207464 kJ/mol
# GULP energy per Si atom -5594.400267 kJ/mol
# Density = 2.675252 g / cm^3
# Si number density = 26.813553 Si / 1000 Ang^3
#
#
#
# Elastic Constant Matrix: (Units=GPa)
#
#
# Indices 1 2 3 4 5 6 
#
# 1 117.7095 56.3010 77.8968 0.0000 0.0000 0.0000
# 2 56.3010 188.4521 70.3436 0.0000 0.0000 0.0000
# 3 77.8968 70.3436 185.1920 0.0000 0.0000 0.0000
# 4 0.0000 0.0000 0.0000 19.5336 0.0000 0.0000
# 5 0.0000 0.0000 0.0000 0.0000 34.5103 0.0000
# 6 0.0000 0.0000 0.0000 0.0000 0.0000 65.9107
#
#
#
# Elastic Compliance Matrix: (Units=1/GPa)
#
#
# Indices 1 2 3 4 5 6 
#
# 1 0.012417 -0.002051 -0.004444 0.000000 0.000000 0.000000
# 2 -0.002051 0.006522 -0.001615 0.000000 0.000000 0.000000
# 3 -0.004444 -0.001615 0.007882 0.000000 0.000000 0.000000
# 4 0.000000 0.000000 0.000000 0.051194 0.000000 0.000000
# 5 0.000000 0.000000 0.000000 0.000000 0.028977 0.000000
# 6 0.000000 0.000000 0.000000 0.000000 0.000000 0.015172
#
#
# Mechanical properties :
#
#
# Convention : Reuss Voigt Hill
#
# Bulk Modulus (GPa) = 94.31788 100.04849 97.18319
# Shear Modulus (GPa) = 35.23167 43.11172 39.17169
#
# Velocity S-wave (km/s) = 3.62878 4.01413 3.82631
# Velocity P-wave (km/s) = 7.26699 7.67320 7.47286
#
# Compressibility (1/GPa) = 0.01060244
#
# Stress axis : x y z
#
# Youngs Moduli (GPa) = 80.53193 153.33233 126.86515
#
# Poissons Ratio (x) = 0.31447 0.56380
# Poissons Ratio (y) = 0.16516 0.20483
# Poissons Ratio (z) = 0.35789 0.24757
#
# Static dielectric constant tensor:
#      x y z
#    x 2.238440 0.000000 0.000000 
#    y 0.000000 2.070190 0.000000 
#    z 0.000000 0.000000 2.093080 
# 
# From -- ./inp_files/5392.got.cif
#   From: 2010.05.17/outbox.cif.g08.bks.cpg/sg54_3_cif.got.tgz:5392.got - 2010.06.03 13:09:01.
