data_PCOD9423219
_publ_section_title
;
Structure prediction by ZEFSAII (Michael W. Deem and Ramdas Pophale) SiO2 
 PCOD9423219
Probable space group: P C C A
;
_chemical_formula_sum "Si O2"
_cell_formula_units_Z 60
_cell_length_a 23.395482
_cell_length_b 11.688206
_cell_length_c 9.755535
_cell_angle_alpha 90.000000
_cell_angle_beta 90.000000
_cell_angle_gamma 90.000000
_cell_volume 2667.662880
_symmetry_space_group_name_H-M "P C C A"
_symmetry_group_IT_number 54
_symmetry_cell_setting 'orthorhombic'
loop_
_space_group_symop_operation_xyz
x,y,z
1/2-x,-y,z
1/2+x,-y,1/2-z
-x,y,1/2-z
-x,-y,-z
1/2+x,y,-z
1/2-x,y,1/2+z
x,-y,1/2+z
loop_
_atom_site_type_symbol
_atom_site_label
_atom_site_fract_x
_atom_site_fract_y
_atom_site_fract_z
Si Si1 0.461582 0.431082 0.886458
Si Si2 0.775617 0.619904 0.331476
Si Si3 0.000000 0.223498 0.750000
Si Si4 0.646475 0.187629 0.972084
Si Si5 0.557694 0.974977 0.579675
Si Si6 0.111236 0.209511 0.337154
Si Si7 0.737414 0.239599 0.580565
Si Si8 0.394020 0.361672 0.288150
O O1 0.500000 0.419175 0.750000
O O2 0.430867 0.306760 0.898684
O O3 0.411061 0.518912 0.854037
O O4 0.500000 0.500000 0.000000
O O5 0.750000 0.500000 0.287010
O O6 0.758873 0.648041 0.485637
O O7 0.754101 0.721757 0.232942
O O8 0.843197 0.619858 0.316262
O O9 0.037584 0.134199 0.834637
O O10 0.050759 0.310209 0.710438
O O11 0.630004 0.233635 0.820962
O O12 0.609896 0.072332 0.990096
O O13 0.712659 0.163481 0.011903
O O14 0.626905 0.280215 0.087032
O O15 0.500000 0.000000 0.500000
O O16 0.578291 0.088557 0.656211
O O17 0.171810 0.199277 0.417416
#
# Coordination Sequence:
#
# PCOD9423219 Si02
#       8
#     8   8   4   8   8   8   8   8
#     4  12  28  44  71 110 153 199 242 303 374 454
#     4  11  23  42  69 104 142 193 243 295 362 439
#     4  10  22  44  64 102 138 184 242 284 358 424
#     4  10  24  50  72 108 145 189 250 307 370 441
#     4  11  26  43  74 102 142 193 240 302 364 447
#     4  12  27  48  74 107 151 195 249 314 381 441
#     4  11  24  45  72 103 144 191 246 307 370 441
#     4  10  23  42  74 103 149 191 237 300 355 446
#
# _framework density 22.491596999999999
#
# number of rings (size 3 to 8) (size 9 to 14) (size 15 to 20)
#    0.000    1.067    2.000    2.800   10.267    1.600 
#    2.400    1.333    0.000    0.000    0.000    0.000 
#    0.000    0.000    0.000    0.000    0.000    0.000 
#
# Total GULP energy -334709.893327 kJ/mol
# GULP energy per Si atom -5578.498222 kJ/mol
# Density = 2.244041 g / cm^3
# Si number density = 22.491597 Si / 1000 Ang^3
#
#
#
# Elastic Constant Matrix: (Units=GPa)
#
#
# Indices 1 2 3 4 5 6 
#
# 1 163.0141 39.3399 32.8286 0.0000 0.0000 0.0000
# 2 39.3399 69.2442 10.2010 0.0000 0.0000 0.0000
# 3 32.8286 10.2010 86.3117 0.0000 0.0000 0.0000
# 4 0.0000 0.0000 0.0000 -1.0279 0.0000 0.0000
# 5 0.0000 0.0000 0.0000 0.0000 19.9109 0.0000
# 6 0.0000 0.0000 0.0000 0.0000 0.0000 35.3665
#
#
#
# Elastic Compliance Matrix: (Units=1/GPa)
#
#
# Indices 1 2 3 4 5 6 
#
# 1 0.007573 -0.003947 -0.002414 0.000000 0.000000 0.000000
# 2 -0.003947 0.016755 -0.000479 0.000000 0.000000 0.000000
# 3 -0.002414 -0.000479 0.012561 0.000000 0.000000 0.000000
# 4 0.000000 0.000000 0.000000 -0.972898 0.000000 0.000000
# 5 0.000000 0.000000 0.000000 0.000000 0.050224 0.000000
# 6 0.000000 0.000000 0.000000 0.000000 0.000000 0.028275
#
#
# Mechanical properties :
#
#
# Convention : Reuss Voigt Hill
#
# Bulk Modulus (GPa) = 43.08736 53.70100 48.39418
# Shear Modulus (GPa) = -5.98018 26.59660 10.30821
#
# Velocity S-wave (km/s) = -1.63237 3.44250 2.14315
# Velocity P-wave (km/s) = 3.95548 6.30309 5.26188
#
# Compressibility (1/GPa) = 0.02320866
#
# Stress axis : x y z
#
# Youngs Moduli (GPa) = 132.04690 59.68525 79.61362
#
# Poissons Ratio (x) = 0.23557 0.19218
# Poissons Ratio (y) = 0.52117 0.03813
# Poissons Ratio (z) = 0.31875 0.02859
#
# Static dielectric constant tensor:
#      x y z
#    x 1.881900 0.000000 0.000000 
#    y 0.000000 1.693530 0.000000 
#    z 0.000000 0.000000 1.880410 
# 
# From -- ./inp_files/9607.got.cif
#   From: 2010.05.17/outbox.cif.g08.bks.cpg/sg54_5_cif.got.tgz:9607.got - 2010.06.03 13:09:01.
