data_PCOD9423711
_publ_section_title
;
Structure prediction by ZEFSAII (Michael W. Deem and Ramdas Pophale) SiO2 
 PCOD9423711
Probable space group: P C C A
;
_chemical_formula_sum "Si O2"
_cell_formula_units_Z 24
_cell_length_a 5.341999
_cell_length_b 10.339263
_cell_length_c 17.449541
_cell_angle_alpha 90.000000
_cell_angle_beta 90.000000
_cell_angle_gamma 90.000000
_cell_volume 963.778852
_symmetry_space_group_name_H-M "P C C A"
_symmetry_group_IT_number 54
_symmetry_cell_setting 'orthorhombic'
loop_
_space_group_symop_operation_xyz
x,y,z
1/2-x,-y,z
1/2+x,-y,1/2-z
-x,y,1/2-z
-x,-y,-z
1/2+x,y,-z
1/2-x,y,1/2+z
x,-y,1/2+z
loop_
_atom_site_type_symbol
_atom_site_label
_atom_site_fract_x
_atom_site_fract_y
_atom_site_fract_z
Si Si1 0.000000 0.414791 0.250000
Si Si2 0.151880 0.237245 0.828831
Si Si3 0.250000 0.000000 0.445206
Si Si4 0.527486 0.353769 0.468755
O O1 0.250000 0.500000 0.238535
O O2 0.410050 0.685796 0.314852
O O3 0.202875 0.116171 0.883362
O O4 0.993752 0.340029 0.878760
O O5 0.000000 0.208657 0.750000
O O6 0.500000 0.000000 0.500000
O O7 0.500000 0.500000 0.500000
O O8 0.781492 0.290889 0.495506
#
# Coordination Sequence:
#
# PCOD9423711 Si02
#       4
#     4   8   4   8
#     4  12  30  48  78 128 180 218 282 362 450 512
#     4  12  30  51  88 124 173 225 301 361 439 520
#     4  12  32  58  90 124 176 234 302 372 454 538
#     4  10  24  43  71 107 160 212 263 333 420 500
#
# _framework density 24.901976000000001
#
# number of rings (size 3 to 8) (size 9 to 14) (size 15 to 20)
#    0.000    0.667    1.667    2.000   16.333    2.667 
#    0.000    0.000    0.000    0.000    0.000    0.000 
#    0.000    0.000    0.000    0.000    0.000    0.000 
#
# Total GULP energy -134057.150723 kJ/mol
# GULP energy per Si atom -5585.714613 kJ/mol
# Density = 2.484530 g / cm^3
# Si number density = 24.901976 Si / 1000 Ang^3
#
#
#
# Elastic Constant Matrix: (Units=GPa)
#
#
# Indices 1 2 3 4 5 6 
#
# 1 243.0175 55.2740 94.1381 0.0000 0.0000 0.0000
# 2 55.2740 164.2856 99.6538 0.0000 0.0000 0.0000
# 3 94.1381 99.6538 203.9351 0.0000 0.0000 0.0000
# 4 0.0000 0.0000 0.0000 61.2415 0.0000 0.0000
# 5 0.0000 0.0000 0.0000 0.0000 69.1366 0.0000
# 6 0.0000 0.0000 0.0000 0.0000 0.0000 29.5521
#
#
#
# Elastic Compliance Matrix: (Units=1/GPa)
#
#
# Indices 1 2 3 4 5 6 
#
# 1 0.005030 -0.000404 -0.002125 0.000000 0.000000 0.000000
# 2 -0.000404 0.008684 -0.004057 0.000000 0.000000 0.000000
# 3 -0.002125 -0.004057 0.007867 0.000000 0.000000 0.000000
# 4 0.000000 0.000000 0.000000 0.016329 0.000000 0.000000
# 5 0.000000 0.000000 0.000000 0.000000 0.014464 0.000000
# 6 0.000000 0.000000 0.000000 0.000000 0.000000 0.033839
#
#
# Mechanical properties :
#
#
# Convention : Reuss Voigt Hill
#
# Bulk Modulus (GPa) = 118.90819 123.26334 121.08577
# Shear Modulus (GPa) = 48.93075 56.13085 52.53080
#
# Velocity S-wave (km/s) = 4.43757 4.75286 4.59792
# Velocity P-wave (km/s) = 8.60873 8.92897 8.77031
#
# Compressibility (1/GPa) = 0.00840985
#
# Stress axis : x y z
#
# Youngs Moduli (GPa) = 198.81858 115.15847 127.11729
#
# Poissons Ratio (x) = 0.04647 0.27007
# Poissons Ratio (y) = 0.08022 0.51572
# Poissons Ratio (z) = 0.42241 0.46721
#
# Static dielectric constant tensor:
#      x y z
#    x 2.118820 0.000000 0.000000 
#    y 0.000000 1.702390 0.000000 
#    z 0.000000 0.000000 2.035320 
# 
# From -- ./inp_files/15587.got.cif
#   From: 2010.05.17/outbox.cif.g08.bks.cpg/sg54_8_cif.got.tgz:15587.got - 2010.06.03 13:09:01.
