data_PCOD9423345
_publ_section_title
;
Structure prediction by ZEFSAII (Michael W. Deem and Ramdas Pophale) SiO2 
 PCOD9423345
Probable space group: P C C A
;
_chemical_formula_sum "Si O2"
_cell_formula_units_Z 36
_cell_length_a 18.192803
_cell_length_b 8.424928
_cell_length_c 9.368906
_cell_angle_alpha 90.000000
_cell_angle_beta 90.000000
_cell_angle_gamma 90.000000
_cell_volume 1436.000848
_symmetry_space_group_name_H-M "P C C A"
_symmetry_group_IT_number 54
_symmetry_cell_setting 'orthorhombic'
loop_
_space_group_symop_operation_xyz
x,y,z
1/2-x,-y,z
1/2+x,-y,1/2-z
-x,y,1/2-z
-x,-y,-z
1/2+x,y,-z
1/2-x,y,1/2+z
x,-y,1/2+z
loop_
_atom_site_type_symbol
_atom_site_label
_atom_site_fract_x
_atom_site_fract_y
_atom_site_fract_z
Si Si1 0.250000 0.500000 0.929718
Si Si2 0.175055 0.309459 0.180899
Si Si3 0.000000 0.051073 0.250000
Si Si4 0.946655 0.531505 0.372494
Si Si5 0.901008 0.145138 0.978460
Si Si6 0.750000 0.000000 0.407470
O O1 0.300305 0.403594 0.820394
O O2 0.207503 0.382312 0.034094
O O3 0.091125 0.364706 0.164850
O O4 0.209970 0.136752 0.183549
O O5 0.052770 0.131249 0.373488
O O6 0.945617 0.948971 0.353735
O O7 0.893659 0.674863 0.418714
O O8 0.000000 0.591445 0.250000
O O9 0.000000 0.500000 0.500000
O O10 0.819573 0.072360 0.991881
#
# Coordination Sequence:
#
# PCOD9423345 Si02
#       6
#     4   8   4   8   8   4
#     4  10  22  48  76 106 154 206 254 334 382 484
#     4  11  26  47  75 117 158 201 269 327 410 471
#     4  10  26  48  80 114 168 216 270 338 412 500
#     4  12  28  49  78 111 159 218 272 330 403 504
#     4  11  26  50  77 119 162 212 274 335 415 483
#     4  12  30  48  86 124 164 208 266 352 412 486
#
# _framework density 25.069621999999999
#
# number of rings (size 3 to 8) (size 9 to 14) (size 15 to 20)
#    0.000    0.889    1.111    4.000    7.778    8.889 
#    0.000    0.000    0.000    0.000    0.000    0.000 
#    0.000    0.000    0.000    0.000    0.000    0.000 
#
# Total GULP energy -201410.022189 kJ/mol
# GULP energy per Si atom -5594.722839 kJ/mol
# Density = 2.501256 g / cm^3
# Si number density = 25.069622 Si / 1000 Ang^3
#
#
#
# Elastic Constant Matrix: (Units=GPa)
#
#
# Indices 1 2 3 4 5 6 
#
# 1 173.1518 66.2751 65.2798 0.0000 0.0000 0.0000
# 2 66.2751 129.7622 54.3206 0.0000 0.0000 0.0000
# 3 65.2798 54.3206 205.3230 0.0000 0.0000 0.0000
# 4 0.0000 0.0000 0.0000 36.9257 0.0000 0.0000
# 5 0.0000 0.0000 0.0000 0.0000 38.2952 0.0000
# 6 0.0000 0.0000 0.0000 0.0000 0.0000 55.5629
#
#
#
# Elastic Compliance Matrix: (Units=1/GPa)
#
#
# Indices 1 2 3 4 5 6 
#
# 1 0.007600 -0.003227 -0.001562 0.000000 0.000000 0.000000
# 2 -0.003227 0.010037 -0.001629 0.000000 0.000000 0.000000
# 3 -0.001562 -0.001629 0.005798 0.000000 0.000000 0.000000
# 4 0.000000 0.000000 0.000000 0.027081 0.000000 0.000000
# 5 0.000000 0.000000 0.000000 0.000000 0.026113 0.000000
# 6 0.000000 0.000000 0.000000 0.000000 0.000000 0.017998
#
#
# Mechanical properties :
#
#
# Convention : Reuss Voigt Hill
#
# Bulk Modulus (GPa) = 94.37033 97.77643 96.07338
# Shear Modulus (GPa) = 45.04636 47.64753 46.34694
#
# Velocity S-wave (km/s) = 4.24353 4.36433 4.30435
# Velocity P-wave (km/s) = 7.85716 8.03014 7.94412
#
# Compressibility (1/GPa) = 0.01059655
#
# Stress axis : x y z
#
# Youngs Moduli (GPa) = 131.58557 99.63320 172.46915
#
# Poissons Ratio (x) = 0.32156 0.26946
# Poissons Ratio (y) = 0.42468 0.28099
# Poissons Ratio (z) = 0.20558 0.16233
#
# Static dielectric constant tensor:
#      x y z
#    x 1.996740 0.000000 0.000000 
#    y 0.000000 2.060560 0.000000 
#    z 0.000000 0.000000 1.902210 
# 
# From -- ./inp_files/4578.got.cif
#   From: 2010.05.17/outbox.cif.g08.bks.cpg/sg54_3_cif.got.tgz:4578.got - 2010.06.03 13:09:01.
