data_PCOD9423195
_publ_section_title
;
Structure prediction by ZEFSAII (Michael W. Deem and Ramdas Pophale) SiO2 
 PCOD9423195
Probable space group: P C C A
;
_chemical_formula_sum "Si O2"
_cell_formula_units_Z 32
_cell_length_a 9.960912
_cell_length_b 14.177381
_cell_length_c 8.717055
_cell_angle_alpha 90.000000
_cell_angle_beta 90.000000
_cell_angle_gamma 90.000000
_cell_volume 1231.019408
_symmetry_space_group_name_H-M "P C C A"
_symmetry_group_IT_number 54
_symmetry_cell_setting 'orthorhombic'
loop_
_space_group_symop_operation_xyz
x,y,z
1/2-x,-y,z
1/2+x,-y,1/2-z
-x,y,1/2-z
-x,-y,-z
1/2+x,y,-z
1/2-x,y,1/2+z
x,-y,1/2+z
loop_
_atom_site_type_symbol
_atom_site_label
_atom_site_fract_x
_atom_site_fract_y
_atom_site_fract_z
Si Si1 0.956401 0.868011 0.069308
Si Si2 0.750000 0.000000 0.157685
Si Si3 0.309269 0.802189 0.345050
Si Si4 0.250000 0.500000 0.990625
Si Si5 0.350407 0.363444 0.243346
O O1 0.826296 0.801563 0.054411
O O2 0.000000 0.872979 0.250000
O O3 0.878057 0.969262 0.056001
O O4 0.065270 0.823437 0.954803
O O5 0.791497 0.096481 0.242103
O O6 0.278311 0.707460 0.253426
O O7 0.168136 0.573340 0.093373
O O8 0.158578 0.436340 0.882491
O O9 0.500000 0.320010 0.250000
#
# Coordination Sequence:
#
# PCOD9423195 Si02
#       5
#     8   4   8   4   8
#     4  10  22  43  67 105 148 199 252 315 381 466
#     4   8  22  40  68  98 152 192 258 314 378 466
#     4  10  23  41  73 101 152 194 257 315 386 465
#     4  10  26  46  76 112 154 194 268 328 400 468
#     4  11  24  46  78 110 155 204 261 326 398 474
#
# _framework density 25.994717000000001
#
# number of rings (size 3 to 8) (size 9 to 14) (size 15 to 20)
#    1.500    0.500    0.000    2.250    7.000    1.000 
#    0.000    1.250    0.000    0.000    0.000    0.000 
#    0.000    0.000    0.000    0.000    0.000    0.000 
#
# Total GULP energy -178233.043428 kJ/mol
# GULP energy per Si atom -5569.782607 kJ/mol
# Density = 2.593555 g / cm^3
# Si number density = 25.994717 Si / 1000 Ang^3
#
#
#
# Elastic Constant Matrix: (Units=GPa)
#
#
# Indices 1 2 3 4 5 6 
#
# 1 151.6362 34.5910 38.7165 0.0000 0.0000 0.0000
# 2 34.5910 155.3956 59.4389 0.0000 0.0000 0.0000
# 3 38.7165 59.4389 113.4042 0.0000 0.0000 0.0000
# 4 0.0000 0.0000 0.0000 -21.5723 0.0000 0.0000
# 5 0.0000 0.0000 0.0000 0.0000 1.6187 0.0000
# 6 0.0000 0.0000 0.0000 0.0000 0.0000 35.3220
#
#
#
# Elastic Compliance Matrix: (Units=1/GPa)
#
#
# Indices 1 2 3 4 5 6 
#
# 1 0.007311 -0.000841 -0.002055 0.000000 0.000000 0.000000
# 2 -0.000841 0.008146 -0.003982 0.000000 0.000000 0.000000
# 3 -0.002055 -0.003982 0.011607 0.000000 0.000000 0.000000
# 4 0.000000 0.000000 0.000000 -0.046356 0.000000 0.000000
# 5 0.000000 0.000000 0.000000 0.000000 0.617787 0.000000
# 6 0.000000 0.000000 0.000000 0.000000 0.000000 0.028311
#
#
# Mechanical properties :
#
#
# Convention : Reuss Voigt Hill
#
# Bulk Modulus (GPa) = 75.15125 76.21431 75.68278
# Shear Modulus (GPa) = 7.75196 22.25299 15.00247
#
# Velocity S-wave (km/s) = 1.72876 2.92902 2.40497
# Velocity P-wave (km/s) = 5.74089 6.38919 6.07369
#
# Compressibility (1/GPa) = 0.01330650
#
# Stress axis : x y z
#
# Youngs Moduli (GPa) = 136.77271 122.76464 86.15630
#
# Poissons Ratio (x) = 0.10330 0.17706
# Poissons Ratio (y) = 0.11509 0.34309
# Poissons Ratio (z) = 0.28108 0.48887
#
# Static dielectric constant tensor:
#      x y z
#    x 2.083680 0.000000 0.000000 
#    y 0.000000 2.152120 0.000000 
#    z 0.000000 0.000000 2.095500 
# 
# From -- ./inp_files/7293.got.cif
#   From: 2010.05.17/outbox.cif.g08.bks.cpg/sg54_4_cif.got.tgz:7293.got - 2010.06.03 13:09:01.
