data_PCOD9423092
_publ_section_title
;
Structure prediction by ZEFSAII (Michael W. Deem and Ramdas Pophale) SiO2 
 PCOD9423092
Probable space group: P C C A
;
_chemical_formula_sum "Si O2"
_cell_formula_units_Z 56
_cell_length_a 8.345552
_cell_length_b 13.598531
_cell_length_c 22.320425
_cell_angle_alpha 90.000000
_cell_angle_beta 90.000000
_cell_angle_gamma 90.000000
_cell_volume 2533.083598
_symmetry_space_group_name_H-M "P C C A"
_symmetry_group_IT_number 54
_symmetry_cell_setting 'orthorhombic'
loop_
_space_group_symop_operation_xyz
x,y,z
1/2-x,-y,z
1/2+x,-y,1/2-z
-x,y,1/2-z
-x,-y,-z
1/2+x,y,-z
1/2-x,y,1/2+z
x,-y,1/2+z
loop_
_atom_site_type_symbol
_atom_site_label
_atom_site_fract_x
_atom_site_fract_y
_atom_site_fract_z
Si Si1 0.257346 0.603197 0.196377
Si Si2 0.954168 0.398792 0.422645
Si Si3 0.959429 0.110554 0.455107
Si Si4 0.500000 0.755605 0.250000
Si Si5 0.490190 0.757795 0.820363
Si Si6 0.858267 0.785140 0.629561
Si Si7 0.892768 0.119736 0.927181
Si Si8 0.250000 0.500000 0.482791
O O1 0.250000 0.500000 0.231256
O O2 0.366480 0.576870 0.139349
O O3 0.352570 0.684645 0.233796
O O4 0.094186 0.657230 0.176139
O O5 0.818427 0.413418 0.473726
O O6 0.042454 0.297272 0.406471
O O7 0.099657 0.468132 0.443068
O O8 0.789787 0.154182 0.434395
O O9 0.121064 0.125586 0.416207
O O10 0.996306 0.159630 0.519329
O O11 0.918631 0.995039 0.444172
O O12 0.453606 0.812830 0.309706
O O13 0.500000 0.784234 0.750000
O O14 0.313255 0.748292 0.848565
O O15 0.561067 0.844344 0.861643
#
# Coordination Sequence:
#
# PCOD9423092 Si02
#       8
#     8   8   8   4   8   8   8   4
#     4  11  24  42  65  92 128 179 237 289 349 416
#     4  10  23  40  64  89 131 173 216 290 340 418
#     4  10  22  43  73 107 136 187 223 291 348 427
#     4  10  22  42  60  88 128 166 228 282 340 406
#     4  12  26  45  67 102 140 186 238 291 348 421
#     4  11  24  41  67  95 133 178 228 286 344 416
#     4  10  22  44  71 104 147 175 237 278 353 422
#     4  10  22  42  60  96 132 168 232 278 360 418
#
# _framework density 22.107443
#
# number of rings (size 3 to 8) (size 9 to 14) (size 15 to 20)
#    0.000    1.429    2.143    2.571    3.000    5.143 
#    3.857    0.000    0.000    0.000    0.000    0.000 
#    0.000    0.000    0.000    0.000    0.000    0.000 
#
# Total GULP energy -311985.812749 kJ/mol
# GULP energy per Si atom -5571.175228 kJ/mol
# Density = 2.205713 g / cm^3
# Si number density = 22.107443 Si / 1000 Ang^3
#
#
#
# Elastic Constant Matrix: (Units=GPa)
#
#
# Indices 1 2 3 4 5 6 
#
# 1 137.2481 26.7132 42.1555 0.0000 0.0000 0.0000
# 2 26.7132 21.3375 18.3629 0.0000 0.0000 0.0000
# 3 42.1555 18.3629 132.4664 0.0000 0.0000 0.0000
# 4 0.0000 0.0000 0.0000 9.5669 0.0000 0.0000
# 5 0.0000 0.0000 0.0000 0.0000 28.1012 0.0000
# 6 0.0000 0.0000 0.0000 0.0000 0.0000 23.1212
#
#
#
# Elastic Compliance Matrix: (Units=1/GPa)
#
#
# Indices 1 2 3 4 5 6 
#
# 1 0.009935 -0.011033 -0.001632 0.000000 0.000000 0.000000
# 2 -0.011033 0.065467 -0.005564 0.000000 0.000000 0.000000
# 3 -0.001632 -0.005564 0.008840 0.000000 0.000000 0.000000
# 4 0.000000 0.000000 0.000000 0.104527 0.000000 0.000000
# 5 0.000000 0.000000 0.000000 0.000000 0.035586 0.000000
# 6 0.000000 0.000000 0.000000 0.000000 0.000000 0.043250
#
#
# Mechanical properties :
#
#
# Convention : Reuss Voigt Hill
#
# Bulk Modulus (GPa) = 20.92805 51.72391 36.32598
# Shear Modulus (GPa) = 15.62547 25.74590 20.68568
#
# Velocity S-wave (km/s) = 2.66145 3.41630 3.06222
# Velocity P-wave (km/s) = 4.35103 6.24571 5.38239
#
# Compressibility (1/GPa) = 0.04778276
#
# Stress axis : x y z
#
# Youngs Moduli (GPa) = 100.65621 15.27491 113.12461
#
# Poissons Ratio (x) = 0.16853 0.18464
# Poissons Ratio (y) = 1.11055 0.62943
# Poissons Ratio (z) = 0.16429 0.08499
#
# Static dielectric constant tensor:
#      x y z
#    x 1.909090 0.000000 0.000000 
#    y 0.000000 2.018030 0.000000 
#    z 0.000000 0.000000 1.816800 
# 
# From -- ./inp_files/20583.got.cif
#   From: 2010.05.17/outbox.cif.g08.bks.cpg/sg54_11_cif.got.tgz:20583.got - 2010.06.03 13:09:01.
