data_PCOD9423315
_publ_section_title
;
Structure prediction by ZEFSAII (Michael W. Deem and Ramdas Pophale) SiO2 
 PCOD9423315
Probable space group: P C C A
;
_chemical_formula_sum "Si O2"
_cell_formula_units_Z 36
_cell_length_a 23.428247
_cell_length_b 5.175154
_cell_length_c 11.686628
_cell_angle_alpha 90.000000
_cell_angle_beta 90.000000
_cell_angle_gamma 90.000000
_cell_volume 1416.942713
_symmetry_space_group_name_H-M "P C C A"
_symmetry_group_IT_number 54
_symmetry_cell_setting 'orthorhombic'
loop_
_space_group_symop_operation_xyz
x,y,z
1/2-x,-y,z
1/2+x,-y,1/2-z
-x,y,1/2-z
-x,-y,-z
1/2+x,y,-z
1/2-x,y,1/2+z
x,-y,1/2+z
loop_
_atom_site_type_symbol
_atom_site_label
_atom_site_fract_x
_atom_site_fract_y
_atom_site_fract_z
Si Si1 0.000000 0.760851 0.750000
Si Si2 0.937416 0.041932 0.447259
Si Si3 0.189378 0.371431 0.758066
Si Si4 0.250000 0.500000 0.045390
Si Si5 0.750000 0.000000 0.112655
Si Si6 0.090137 0.553528 0.920842
O O1 0.967878 0.591917 0.654225
O O2 0.951090 0.931962 0.812513
O O3 0.902390 0.806802 0.500799
O O4 0.914955 0.308689 0.497109
O O5 0.000000 0.000000 0.500000
O O6 0.250000 0.500000 0.791318
O O7 0.198595 0.073694 0.797751
O O8 0.139245 0.497536 0.829155
O O9 0.194503 0.443690 0.625277
O O10 0.244750 0.237457 0.975232
#
# Coordination Sequence:
#
# PCOD9423315 Si02
#       6
#     4   8   8   4   4   8
#     4  10  22  46  70 102 144 188 234 306 352 430
#     4  10  23  42  69  99 138 178 234 285 356 424
#     4  10  26  47  70 106 149 186 245 304 355 449
#     4  10  24  42  72 100 140 196 240 288 364 440
#     4  12  22  46  70  96 144 194 232 304 364 428
#     4  11  25  43  69 105 139 188 235 299 360 430
#
# _framework density 25.406814000000001
#
# number of rings (size 3 to 8) (size 9 to 14) (size 15 to 20)
#    0.667    0.889    1.111    3.333    3.111    9.778 
#    0.000    4.444    0.000    0.000    0.000    0.000 
#    0.000    0.000    0.000    0.000    0.000    0.000 
#
# Total GULP energy -200948.977114 kJ/mol
# GULP energy per Si atom -5581.916031 kJ/mol
# Density = 2.534899 g / cm^3
# Si number density = 25.406814 Si / 1000 Ang^3
#
#
#
# Elastic Constant Matrix: (Units=GPa)
#
#
# Indices 1 2 3 4 5 6 
#
# 1 94.0813 23.6275 22.4548 0.0000 0.0000 0.0000
# 2 23.6275 180.3840 82.2008 0.0000 0.0000 0.0000
# 3 22.4548 82.2008 99.3144 0.0000 0.0000 0.0000
# 4 0.0000 0.0000 0.0000 12.0980 0.0000 0.0000
# 5 0.0000 0.0000 0.0000 0.0000 68.8638 0.0000
# 6 0.0000 0.0000 0.0000 0.0000 0.0000 36.9487
#
#
#
# Elastic Compliance Matrix: (Units=1/GPa)
#
#
# Indices 1 2 3 4 5 6 
#
# 1 0.011264 -0.000506 -0.002128 0.000000 0.000000 0.000000
# 2 -0.000506 0.008924 -0.007272 0.000000 0.000000 0.000000
# 3 -0.002128 -0.007272 0.016569 0.000000 0.000000 0.000000
# 4 0.000000 0.000000 0.000000 0.082659 0.000000 0.000000
# 5 0.000000 0.000000 0.000000 0.000000 0.014521 0.000000
# 6 0.000000 0.000000 0.000000 0.000000 0.000000 0.027065
#
#
# Mechanical properties :
#
#
# Convention : Reuss Voigt Hill
#
# Bulk Modulus (GPa) = 59.01275 70.03843 64.52559
# Shear Modulus (GPa) = 26.81531 39.94853 33.38192
#
# Velocity S-wave (km/s) = 3.25227 3.96959 3.62870
# Velocity P-wave (km/s) = 6.11397 6.97401 6.55811
#
# Compressibility (1/GPa) = 0.01694549
#
# Stress axis : x y z
#
# Youngs Moduli (GPa) = 88.77804 112.06214 60.35422
#
# Poissons Ratio (x) = 0.05665 0.12846
# Poissons Ratio (y) = 0.04488 0.43887
# Poissons Ratio (z) = 0.18895 0.81487
#
# Static dielectric constant tensor:
#      x y z
#    x 2.052640 0.000000 0.000000 
#    y 0.000000 2.595160 0.000000 
#    z 0.000000 0.000000 2.140160 
# 
# From -- ./inp_files/14795.got.cif
#   From: 2010.05.17/outbox.cif.g08.bks.cpg/sg54_8_cif.got.tgz:14795.got - 2010.06.03 13:09:01.
