data_PCOD9423334
_publ_section_title
;
Structure prediction by ZEFSAII (Michael W. Deem and Ramdas Pophale) SiO2 
 PCOD9423334
Probable space group: P C C A
;
_chemical_formula_sum "Si O2"
_cell_formula_units_Z 40
_cell_length_a 9.625816
_cell_length_b 15.906480
_cell_length_c 12.808477
_cell_angle_alpha 90.000000
_cell_angle_beta 90.000000
_cell_angle_gamma 90.000000
_cell_volume 1961.142414
_symmetry_space_group_name_H-M "P C C A"
_symmetry_group_IT_number 54
_symmetry_cell_setting 'orthorhombic'
loop_
_space_group_symop_operation_xyz
x,y,z
1/2-x,-y,z
1/2+x,-y,1/2-z
-x,y,1/2-z
-x,-y,-z
1/2+x,y,-z
1/2-x,y,1/2+z
x,-y,1/2+z
loop_
_atom_site_type_symbol
_atom_site_label
_atom_site_fract_x
_atom_site_fract_y
_atom_site_fract_z
Si Si1 0.593843 0.771869 0.350038
Si Si2 0.250000 0.500000 0.496394
Si Si3 0.128577 0.158062 0.680145
Si Si4 0.499331 0.590010 0.123028
Si Si5 0.750000 0.000000 0.701998
Si Si6 0.551016 0.088656 0.539766
O O1 0.500000 0.785373 0.250000
O O2 0.751672 0.772259 0.313523
O O3 0.533724 0.687969 0.401075
O O4 0.573770 0.856126 0.415783
O O5 0.352488 0.558570 0.424385
O O6 0.132849 0.543421 0.570046
O O7 0.167163 0.066019 0.727131
O O8 0.102904 0.141691 0.558470
O O9 0.000000 0.186532 0.750000
O O10 0.500000 0.580826 0.250000
O O11 0.839473 0.937769 0.628410
O O12 0.500000 0.000000 0.500000
#
# Coordination Sequence:
#
# PCOD9423334 Si02
#       6
#     8   4   8   8   4   8
#     4  11  25  45  66  96 138 174 226 287 338 401
#     4  10  22  46  78 106 138 176 220 270 350 442
#     4  12  26  41  62  92 129 180 237 287 347 398
#     4  10  23  45  74 108 140 177 219 279 346 421
#     4  12  22  42  62  90 126 180 238 290 350 398
#     4  12  24  41  63  89 129 184 234 288 336 394
#
# _framework density 20.396274999999999
#
# number of rings (size 3 to 8) (size 9 to 14) (size 15 to 20)
#    0.000    0.800    4.000    3.600    2.800    0.000 
#    3.600    1.000    0.000    0.000    0.000    0.000 
#    0.000    0.000    0.000    0.000    0.000    0.000 
#
# Total GULP energy -223142.178325 kJ/mol
# GULP energy per Si atom -5578.554458 kJ/mol
# Density = 2.034985 g / cm^3
# Si number density = 20.396275 Si / 1000 Ang^3
#
#
#
# Elastic Constant Matrix: (Units=GPa)
#
#
# Indices 1 2 3 4 5 6 
#
# 1 137.0806 46.0478 21.8750 0.0000 0.0000 0.0000
# 2 46.0478 96.7936 16.3990 0.0000 0.0000 0.0000
# 3 21.8750 16.3990 47.7782 0.0000 0.0000 0.0000
# 4 0.0000 0.0000 0.0000 89.3870 0.0000 0.0000
# 5 0.0000 0.0000 0.0000 0.0000 32.3151 0.0000
# 6 0.0000 0.0000 0.0000 0.0000 0.0000 16.1743
#
#
#
# Elastic Compliance Matrix: (Units=1/GPa)
#
#
# Indices 1 2 3 4 5 6 
#
# 1 0.009027 -0.003816 -0.002823 0.000000 0.000000 0.000000
# 2 -0.003816 0.012582 -0.002571 0.000000 0.000000 0.000000
# 3 -0.002823 -0.002571 0.023105 0.000000 0.000000 0.000000
# 4 0.000000 0.000000 0.000000 0.011187 0.000000 0.000000
# 5 0.000000 0.000000 0.000000 0.000000 0.030945 0.000000
# 6 0.000000 0.000000 0.000000 0.000000 0.000000 0.061826
#
#
# Mechanical properties :
#
#
# Convention : Reuss Voigt Hill
#
# Bulk Modulus (GPa) = 38.03275 50.03290 44.03282
# Shear Modulus (GPa) = 28.43160 40.73065 34.58112
#
# Velocity S-wave (km/s) = 3.73763 4.47359 4.12207
# Velocity P-wave (km/s) = 6.10851 7.16014 6.65513
#
# Compressibility (1/GPa) = 0.02629313
#
# Stress axis : x y z
#
# Youngs Moduli (GPa) = 110.77281 79.47562 43.28016
#
# Poissons Ratio (x) = 0.30331 0.12219
# Poissons Ratio (y) = 0.42275 0.11129
# Poissons Ratio (z) = 0.31274 0.20436
#
# Static dielectric constant tensor:
#      x y z
#    x 1.740300 0.000000 0.000000 
#    y 0.000000 1.720660 0.000000 
#    z 0.000000 0.000000 1.409620 
# 
# From -- ./inp_files/6898.got.cif
#   From: 2010.05.17/outbox.cif.g08.bks.cpg/sg54_4_cif.got.tgz:6898.got - 2010.06.03 13:09:01.
