data_PCOD9423900
_publ_section_title
;
Structure prediction by ZEFSAII (Michael W. Deem and Ramdas Pophale) SiO2 
 PCOD9423900
Probable space group: P C C A
;
_chemical_formula_sum "Si O2"
_cell_formula_units_Z 60
_cell_length_a 22.067843
_cell_length_b 11.580813
_cell_length_c 10.864086
_cell_angle_alpha 90.000000
_cell_angle_beta 90.000000
_cell_angle_gamma 90.000000
_cell_volume 2776.464528
_symmetry_space_group_name_H-M "P C C A"
_symmetry_group_IT_number 54
_symmetry_cell_setting 'orthorhombic'
loop_
_space_group_symop_operation_xyz
x,y,z
1/2-x,-y,z
1/2+x,-y,1/2-z
-x,y,1/2-z
-x,-y,-z
1/2+x,y,-z
1/2-x,y,1/2+z
x,-y,1/2+z
loop_
_atom_site_type_symbol
_atom_site_label
_atom_site_fract_x
_atom_site_fract_y
_atom_site_fract_z
Si Si1 0.065272 0.823999 0.899066
Si Si2 0.851605 0.645953 0.494472
Si Si3 0.250000 0.500000 0.902208
Si Si4 0.812733 0.935435 0.236580
Si Si5 0.934714 0.443322 0.526120
Si Si6 0.624554 0.017936 0.986606
Si Si7 0.849864 0.668749 0.212224
Si Si8 0.932233 0.238802 0.386011
O O1 0.068017 0.808544 0.752597
O O2 0.001556 0.766033 0.934995
O O3 0.126616 0.766151 0.950342
O O4 0.066835 0.950393 0.957698
O O5 0.785117 0.596743 0.517966
O O6 0.895095 0.553749 0.557602
O O7 0.866948 0.646244 0.352228
O O8 0.201301 0.424442 0.826994
O O9 0.819457 0.797083 0.214745
O O10 0.750000 0.000000 0.268245
O O11 0.854317 0.964934 0.355999
O O12 0.831007 0.987275 0.103668
O O13 0.910956 0.352639 0.630674
O O14 0.914518 0.371975 0.403968
O O15 0.000000 0.500000 0.500000
O O16 0.609324 0.150670 0.959672
#
# Coordination Sequence:
#
# PCOD9423900 Si02
#       8
#     8   8   4   8   8   8   8   8
#     4  11  24  42  70 101 136 182 231 294 364 431
#     4  11  24  44  66  99 136 180 235 292 354 428
#     4  10  26  42  66 100 134 182 234 296 354 420
#     4  12  27  45  71 103 142 189 246 304 362 433
#     4  11  24  44  69 104 140 180 232 292 365 436
#     4  12  24  48  67 102 141 186 241 297 364 437
#     4  11  25  46  70  98 136 186 239 292 359 433
#     4  11  24  43  70 101 139 182 230 294 370 434
#
# _framework density 21.610218
#
# number of rings (size 3 to 8) (size 9 to 14) (size 15 to 20)
#    0.000    0.800    5.333    1.200    5.600    1.600 
#    0.000    1.333    0.000    0.000    0.000    0.000 
#    0.000    0.000    0.000    0.000    0.000    0.000 
#
# Total GULP energy -334109.385541 kJ/mol
# GULP energy per Si atom -5568.489759 kJ/mol
# Density = 2.156103 g / cm^3
# Si number density = 21.610218 Si / 1000 Ang^3
#
#
#
# Elastic Constant Matrix: (Units=GPa)
#
#
# Indices 1 2 3 4 5 6 
#
# 1 57.5070 19.9155 26.7316 0.0000 0.0000 0.0000
# 2 19.9155 112.3061 26.2210 0.0000 0.0000 0.0000
# 3 26.7316 26.2210 109.3506 0.0000 0.0000 0.0000
# 4 0.0000 0.0000 0.0000 24.6471 0.0000 0.0000
# 5 0.0000 0.0000 0.0000 0.0000 13.5690 0.0000
# 6 0.0000 0.0000 0.0000 0.0000 0.0000 35.0908
#
#
#
# Elastic Compliance Matrix: (Units=1/GPa)
#
#
# Indices 1 2 3 4 5 6 
#
# 1 0.020304 -0.002586 -0.004343 0.000000 0.000000 0.000000
# 2 -0.002586 0.009762 -0.001708 0.000000 0.000000 0.000000
# 3 -0.004343 -0.001708 0.010616 0.000000 0.000000 0.000000
# 4 0.000000 0.000000 0.000000 0.040573 0.000000 0.000000
# 5 0.000000 0.000000 0.000000 0.000000 0.073698 0.000000
# 6 0.000000 0.000000 0.000000 0.000000 0.000000 0.028497
#
#
# Mechanical properties :
#
#
# Convention : Reuss Voigt Hill
#
# Bulk Modulus (GPa) = 42.72487 47.21109 44.96798
# Shear Modulus (GPa) = 23.97761 28.41442 26.19601
#
# Velocity S-wave (km/s) = 3.33460 3.63003 3.48545
# Velocity P-wave (km/s) = 5.88555 6.28201 6.08701
#
# Compressibility (1/GPa) = 0.02340557
#
# Stress axis : x y z
#
# Youngs Moduli (GPa) = 49.25176 102.44018 94.19473
#
# Poissons Ratio (x) = 0.26496 0.40911
# Poissons Ratio (y) = 0.12739 0.16093
# Poissons Ratio (z) = 0.21391 0.17502
#
# Static dielectric constant tensor:
#      x y z
#    x 1.838390 0.000000 0.000000 
#    y 0.000000 1.865680 0.000000 
#    z 0.000000 0.000000 1.785350 
# 
# From -- ./inp_files/9611.got.cif
#   From: 2010.05.17/outbox.cif.g08.bks.cpg/sg54_5_cif.got.tgz:9611.got - 2010.06.03 13:09:01.
