data_PCOD9423852
_publ_section_title
;
Structure prediction by ZEFSAII (Michael W. Deem and Ramdas Pophale) SiO2 
 PCOD9423852
Probable space group: P C C A
;
_chemical_formula_sum "Si O2"
_cell_formula_units_Z 40
_cell_length_a 16.907548
_cell_length_b 7.163416
_cell_length_c 12.961003
_cell_angle_alpha 90.000000
_cell_angle_beta 90.000000
_cell_angle_gamma 90.000000
_cell_volume 1569.782245
_symmetry_space_group_name_H-M "P C C A"
_symmetry_group_IT_number 54
_symmetry_cell_setting 'orthorhombic'
loop_
_space_group_symop_operation_xyz
x,y,z
1/2-x,-y,z
1/2+x,-y,1/2-z
-x,y,1/2-z
-x,-y,-z
1/2+x,y,-z
1/2-x,y,1/2+z
x,-y,1/2+z
loop_
_atom_site_type_symbol
_atom_site_label
_atom_site_fract_x
_atom_site_fract_y
_atom_site_fract_z
Si Si1 0.727527 0.782549 0.081336
Si Si2 0.040692 0.699477 0.508447
Si Si3 0.167166 0.534712 0.112520
Si Si4 0.565239 0.170886 0.680238
Si Si5 0.387853 0.768238 0.793077
O O1 0.650566 0.750868 0.152969
O O2 0.803663 0.735066 0.150037
O O3 0.750000 0.000000 0.053822
O O4 0.698907 0.667985 0.980866
O O5 0.122916 0.648157 0.567508
O O6 0.055461 0.748637 0.390814
O O7 0.000000 0.500000 0.500000
O O8 0.982629 0.833601 0.572082
O O9 0.250000 0.500000 0.168281
O O10 0.111118 0.640075 0.193145
O O11 0.500000 0.273357 0.750000
O O12 0.590927 0.980491 0.737438
#
# Coordination Sequence:
#
# PCOD9423852 Si02
#       5
#     8   8   8   8   8
#     4  10  24  50  72 104 150 198 249 309 378 466
#     4  12  27  45  74 105 155 189 246 323 380 442
#     4  12  27  45  78 110 149 198 254 315 384 451
#     4  11  27  47  77 108 147 197 256 310 380 450
#     4  11  28  48  72 105 152 199 252 301 383 469
#
# _framework density 25.481242000000002
#
# number of rings (size 3 to 8) (size 9 to 14) (size 15 to 20)
#    0.000    0.800    4.000    0.600   11.200    5.600 
#    0.000    0.000    0.000    0.000    0.000    0.000 
#    0.000    0.000    0.000    0.000    0.000    0.000 
#
# Total GULP energy -223298.414855 kJ/mol
# GULP energy per Si atom -5582.460371 kJ/mol
# Density = 2.542325 g / cm^3
# Si number density = 25.481242 Si / 1000 Ang^3
#
#
#
# Elastic Constant Matrix: (Units=GPa)
#
#
# Indices 1 2 3 4 5 6 
#
# 1 157.8798 5.7868 38.2743 0.0000 0.0000 0.0000
# 2 5.7868 66.0944 25.6610 0.0000 0.0000 0.0000
# 3 38.2743 25.6610 87.8809 0.0000 0.0000 0.0000
# 4 0.0000 0.0000 0.0000 39.9799 0.0000 0.0000
# 5 0.0000 0.0000 0.0000 0.0000 52.2444 0.0000
# 6 0.0000 0.0000 0.0000 0.0000 0.0000 17.0912
#
#
#
# Elastic Compliance Matrix: (Units=1/GPa)
#
#
# Indices 1 2 3 4 5 6 
#
# 1 0.007107 0.000654 -0.003286 0.000000 0.000000 0.000000
# 2 0.000654 0.017125 -0.005285 0.000000 0.000000 0.000000
# 3 -0.003286 -0.005285 0.014353 0.000000 0.000000 0.000000
# 4 0.000000 0.000000 0.000000 0.025013 0.000000 0.000000
# 5 0.000000 0.000000 0.000000 0.000000 0.019141 0.000000
# 6 0.000000 0.000000 0.000000 0.000000 0.000000 0.058510
#
#
# Mechanical properties :
#
#
# Convention : Reuss Voigt Hill
#
# Bulk Modulus (GPa) = 43.95649 50.14437 47.05043
# Shear Modulus (GPa) = 30.36458 38.00529 34.18493
#
# Velocity S-wave (km/s) = 3.45577 3.86618 3.66672
# Velocity P-wave (km/s) = 5.76290 6.29694 6.03583
#
# Compressibility (1/GPa) = 0.02274977
#
# Stress axis : x y z
#
# Youngs Moduli (GPa) = 140.71485 58.39572 69.67021
#
# Poissons Ratio (x) = -0.03816 0.22893
# Poissons Ratio (y) = -0.09196 0.36820
# Poissons Ratio (z) = 0.46238 0.30862
#
# Static dielectric constant tensor:
#      x y z
#    x 2.105210 0.000000 0.000000 
#    y 0.000000 2.102360 0.000000 
#    z 0.000000 0.000000 2.013460 
# 
# From -- ./inp_files/8746.got.cif
#   From: 2010.05.17/outbox.cif.g08.bks.cpg/sg54_5_cif.got.tgz:8746.got - 2010.06.03 13:09:01.
