data_PCOD9423902
_publ_section_title
;
Structure prediction by ZEFSAII (Michael W. Deem and Ramdas Pophale) SiO2 
 PCOD9423902
Probable space group: P C C A
;
_chemical_formula_sum "Si O2"
_cell_formula_units_Z 40
_cell_length_a 14.740566
_cell_length_b 11.608617
_cell_length_c 12.121638
_cell_angle_alpha 90.000000
_cell_angle_beta 90.000000
_cell_angle_gamma 90.000000
_cell_volume 2074.225421
_symmetry_space_group_name_H-M "P C C A"
_symmetry_group_IT_number 54
_symmetry_cell_setting 'orthorhombic'
loop_
_space_group_symop_operation_xyz
x,y,z
1/2-x,-y,z
1/2+x,-y,1/2-z
-x,y,1/2-z
-x,-y,-z
1/2+x,y,-z
1/2-x,y,1/2+z
x,-y,1/2+z
loop_
_atom_site_type_symbol
_atom_site_label
_atom_site_fract_x
_atom_site_fract_y
_atom_site_fract_z
Si Si1 0.896086 0.652595 0.739458
Si Si2 0.311467 0.145876 0.642542
Si Si3 0.327613 0.715931 0.504485
Si Si4 0.900702 0.950275 0.489873
Si Si5 0.250000 0.500000 0.635649
Si Si6 0.250000 0.000000 0.826429
O O1 0.887147 0.768261 0.812256
O O2 0.858368 0.682130 0.618102
O O3 0.824969 0.564026 0.791551
O O4 0.000000 0.612613 0.750000
O O5 0.260949 0.207353 0.539878
O O6 0.248100 0.113003 0.747172
O O7 0.353108 0.026652 0.603306
O O8 0.401387 0.814058 0.536564
O O9 0.304637 0.596767 0.566078
O O10 0.838153 0.976646 0.597544
O O11 0.000000 0.000000 0.500000
#
# Coordination Sequence:
#
# PCOD9423902 Si02
#       6
#     8   8   8   8   4   4
#     4  11  23  42  68  92 126 174 219 273 332 392
#     4  11  21  39  63  94 128 169 209 263 335 401
#     4  11  21  43  62  92 132 167 224 273 328 395
#     4  12  23  37  64  98 131 168 213 268 333 407
#     4  10  26  42  68  90 128 180 230 276 328 386
#     4  12  20  40  62  92 138 172 204 262 340 396
#
# _framework density 19.284307999999999
#
# number of rings (size 3 to 8) (size 9 to 14) (size 15 to 20)
#    0.000    0.800    6.000    1.800    0.000    0.800 
#    0.000    6.000    0.000    0.000    0.000    0.000 
#    0.000    0.000    0.000    0.000    0.000    0.000 
#
# Total GULP energy -222674.179121 kJ/mol
# GULP energy per Si atom -5566.854478 kJ/mol
# Density = 1.924042 g / cm^3
# Si number density = 19.284308 Si / 1000 Ang^3
#
#
#
# Elastic Constant Matrix: (Units=GPa)
#
#
# Indices 1 2 3 4 5 6 
#
# 1 122.9791 43.0202 65.8174 0.0000 0.0000 0.0000
# 2 43.0202 147.7298 55.0646 0.0000 0.0000 0.0000
# 3 65.8174 55.0646 100.1557 0.0000 0.0000 0.0000
# 4 0.0000 0.0000 0.0000 22.5052 0.0000 0.0000
# 5 0.0000 0.0000 0.0000 0.0000 8.0621 0.0000
# 6 0.0000 0.0000 0.0000 0.0000 0.0000 31.1889
#
#
#
# Elastic Compliance Matrix: (Units=1/GPa)
#
#
# Indices 1 2 3 4 5 6 
#
# 1 0.012606 -0.000733 -0.007881 0.000000 0.000000 0.000000
# 2 -0.000733 0.008557 -0.004222 0.000000 0.000000 0.000000
# 3 -0.007881 -0.004222 0.017485 0.000000 0.000000 0.000000
# 4 0.000000 0.000000 0.000000 0.044434 0.000000 0.000000
# 5 0.000000 0.000000 0.000000 0.000000 0.124037 0.000000
# 6 0.000000 0.000000 0.000000 0.000000 0.000000 0.032063
#
#
# Mechanical properties :
#
#
# Convention : Reuss Voigt Hill
#
# Bulk Modulus (GPa) = 77.07680 77.62988 77.35334
# Shear Modulus (GPa) = 18.57511 26.14874 22.36192
#
# Velocity S-wave (km/s) = 3.10695 3.68633 3.40897
# Velocity P-wave (km/s) = 7.27505 7.64602 7.46284
#
# Compressibility (1/GPa) = 0.01297407
#
# Stress axis : x y z
#
# Youngs Moduli (GPa) = 79.32945 116.86996 57.19341
#
# Poissons Ratio (x) = 0.08572 0.45072
# Poissons Ratio (y) = 0.05819 0.24149
# Poissons Ratio (z) = 0.62516 0.49346
#
# Static dielectric constant tensor:
#      x y z
#    x 1.701180 0.000000 0.000000 
#    y 0.000000 1.742680 0.000000 
#    z 0.000000 0.000000 1.735740 
# 
# From -- ./inp_files/8266.got.cif
#   From: 2010.05.17/outbox.cif.g08.bks.cpg/sg54_5_cif.got.tgz:8266.got - 2010.06.03 13:09:01.
