data_PCOD9423678
_publ_section_title
;
Structure prediction by ZEFSAII (Michael W. Deem and Ramdas Pophale) SiO2 
 PCOD9423678
Probable space group: P C C A
;
_chemical_formula_sum "Si O2"
_cell_formula_units_Z 60
_cell_length_a 26.136274
_cell_length_b 11.258486
_cell_length_c 9.052018
_cell_angle_alpha 90.000000
_cell_angle_beta 90.000000
_cell_angle_gamma 90.000000
_cell_volume 2663.600424
_symmetry_space_group_name_H-M "P C C A"
_symmetry_group_IT_number 54
_symmetry_cell_setting 'orthorhombic'
loop_
_space_group_symop_operation_xyz
x,y,z
1/2-x,-y,z
1/2+x,-y,1/2-z
-x,y,1/2-z
-x,-y,-z
1/2+x,y,-z
1/2-x,y,1/2+z
x,-y,1/2+z
loop_
_atom_site_type_symbol
_atom_site_label
_atom_site_fract_x
_atom_site_fract_y
_atom_site_fract_z
Si Si1 0.250000 0.500000 0.583790
Si Si2 0.056499 0.576605 0.206373
Si Si3 0.346369 0.797329 0.200627
Si Si4 0.146291 0.278880 0.864454
Si Si5 0.390976 0.952903 0.699602
Si Si6 0.040918 0.086850 0.428474
Si Si7 0.735683 0.337483 0.673275
Si Si8 0.936633 0.665817 0.627831
O O1 0.216462 0.575137 0.696794
O O2 0.276915 0.595384 0.478312
O O3 0.101784 0.636376 0.301741
O O4 0.054563 0.438272 0.253282
O O5 0.000000 0.626111 0.250000
O O6 0.066399 0.602767 0.033102
O O7 0.292795 0.781177 0.285156
O O8 0.386931 0.735366 0.310678
O O9 0.354646 0.935933 0.172716
O O10 0.353299 0.736980 0.040744
O O11 0.134569 0.151371 0.792051
O O12 0.203272 0.323141 0.822903
O O13 0.413893 0.902374 0.549181
O O14 0.436960 0.015556 0.789757
O O15 0.024634 0.222104 0.394398
O O16 0.000000 0.000000 0.500000
#
# Coordination Sequence:
#
# PCOD9423678 Si02
#       8
#     4   8   8   8   8   8   8   8
#     4  10  24  42  68 104 146 174 258 286 368 444
#     4  12  28  46  70 106 154 199 245 310 377 443
#     4  11  26  48  73 110 149 190 248 314 371 452
#     4  12  26  47  74 103 148 198 247 304 375 454
#     4  11  24  45  69 107 146 187 252 307 372 444
#     4  11  24  44  75 105 142 202 257 313 364 442
#     4  11  25  43  72 107 141 196 240 304 369 447
#     4  11  27  45  73 108 150 198 248 307 378 451
#
# _framework density 22.525901000000001
#
# number of rings (size 3 to 8) (size 9 to 14) (size 15 to 20)
#    0.000    0.800    4.000    1.600    7.467    2.667 
#    0.000    1.333    0.000    0.000    0.000    0.000 
#    0.000    0.000    0.000    0.000    0.000    0.000 
#
# Total GULP energy -335187.487550 kJ/mol
# GULP energy per Si atom -5586.458126 kJ/mol
# Density = 2.247463 g / cm^3
# Si number density = 22.525901 Si / 1000 Ang^3
#
#
#
# Elastic Constant Matrix: (Units=GPa)
#
#
# Indices 1 2 3 4 5 6 
#
# 1 91.1232 36.8446 26.3763 0.0000 0.0000 0.0000
# 2 36.8446 146.9351 54.4880 0.0000 0.0000 0.0000
# 3 26.3763 54.4880 161.8332 0.0000 0.0000 0.0000
# 4 0.0000 0.0000 0.0000 44.3024 0.0000 0.0000
# 5 0.0000 0.0000 0.0000 0.0000 23.1283 0.0000
# 6 0.0000 0.0000 0.0000 0.0000 0.0000 26.1790
#
#
#
# Elastic Compliance Matrix: (Units=1/GPa)
#
#
# Indices 1 2 3 4 5 6 
#
# 1 0.012385 -0.002693 -0.001112 0.000000 0.000000 0.000000
# 2 -0.002693 0.008362 -0.002377 0.000000 0.000000 0.000000
# 3 -0.001112 -0.002377 0.007161 0.000000 0.000000 0.000000
# 4 0.000000 0.000000 0.000000 0.022572 0.000000 0.000000
# 5 0.000000 0.000000 0.000000 0.000000 0.043237 0.000000
# 6 0.000000 0.000000 0.000000 0.000000 0.000000 0.038199
#
#
# Mechanical properties :
#
#
# Convention : Reuss Voigt Hill
#
# Bulk Modulus (GPa) = 64.33076 70.58990 67.46033
# Shear Modulus (GPa) = 33.45366 37.53413 35.49389
#
# Velocity S-wave (km/s) = 3.85791 4.08642 3.97381
# Velocity P-wave (km/s) = 6.96169 7.32600 7.14617
#
# Compressibility (1/GPa) = 0.01554466
#
# Stress axis : x y z
#
# Youngs Moduli (GPa) = 80.74302 119.58300 139.65363
#
# Poissons Ratio (x) = 0.32208 0.15526
# Poissons Ratio (y) = 0.21747 0.33190
# Poissons Ratio (z) = 0.08976 0.28420
#
# Static dielectric constant tensor:
#      x y z
#    x 1.909200 0.000000 0.000000 
#    y 0.000000 1.875350 0.000000 
#    z 0.000000 0.000000 1.833410 
# 
# From -- ./inp_files/5595.got.cif
#   From: 2010.05.17/outbox.cif.g08.bks.cpg/sg54_3_cif.got.tgz:5595.got - 2010.06.03 13:09:01.
