data_PCOD9423488
_publ_section_title
;
Structure prediction by ZEFSAII (Michael W. Deem and Ramdas Pophale) SiO2 
 PCOD9423488
Probable space group: P C C A
;
_chemical_formula_sum "Si O2"
_cell_formula_units_Z 40
_cell_length_a 8.826306
_cell_length_b 13.611249
_cell_length_c 12.756887
_cell_angle_alpha 90.000000
_cell_angle_beta 90.000000
_cell_angle_gamma 90.000000
_cell_volume 1532.574755
_symmetry_space_group_name_H-M "P C C A"
_symmetry_group_IT_number 54
_symmetry_cell_setting 'orthorhombic'
loop_
_space_group_symop_operation_xyz
x,y,z
1/2-x,-y,z
1/2+x,-y,1/2-z
-x,y,1/2-z
-x,-y,-z
1/2+x,y,-z
1/2-x,y,1/2+z
x,-y,1/2+z
loop_
_atom_site_type_symbol
_atom_site_label
_atom_site_fract_x
_atom_site_fract_y
_atom_site_fract_z
Si Si1 0.891889 0.867495 0.829450
Si Si2 0.057903 0.668907 0.862283
Si Si3 0.722815 0.386028 0.983836
Si Si4 0.599441 0.768469 0.836922
Si Si5 0.379136 0.071020 0.446311
O O1 0.738761 0.825590 0.778715
O O2 0.000000 0.931679 0.750000
O O3 0.015444 0.783810 0.857807
O O4 0.815331 0.889280 0.942719
O O5 0.000000 0.630096 0.750000
O O6 0.950678 0.628801 0.953752
O O7 0.224828 0.642364 0.898990
O O8 0.750000 0.500000 0.964812
O O9 0.814848 0.309605 0.910330
O O10 0.500000 0.714679 0.750000
O O11 0.480117 0.845821 0.889219
O O12 0.250000 0.000000 0.396383
O O13 0.500000 0.000000 0.500000
#
# Coordination Sequence:
#
# PCOD9423488 Si02
#       5
#     8   8   8   8   8
#     4  10  23  44  69 100 143 197 256 317 391 470
#     4  10  23  43  69 103 145 195 251 321 392 467
#     4  11  24  44  73 106 145 197 254 324 399 479
#     4  11  26  46  72 109 152 205 263 332 408 472
#     4  12  25  45  70 104 147 199 260 329 391 481
#
# _framework density 26.099869999999999
#
# number of rings (size 3 to 8) (size 9 to 14) (size 15 to 20)
#    0.000    1.200    4.000    0.600    2.800    7.200 
#    0.000    0.000    0.000    0.000    0.000    0.000 
#    0.000    0.000    0.000    0.000    0.000    0.000 
#
# Total GULP energy -222974.991443 kJ/mol
# GULP energy per Si atom -5574.374786 kJ/mol
# Density = 2.604047 g / cm^3
# Si number density = 26.099870 Si / 1000 Ang^3
#
#
#
# Elastic Constant Matrix: (Units=GPa)
#
#
# Indices 1 2 3 4 5 6 
#
# 1 136.7733 34.3614 63.4578 0.0000 0.0000 0.0000
# 2 34.3614 108.4073 12.3527 0.0000 0.0000 0.0000
# 3 63.4578 12.3527 79.8942 0.0000 0.0000 0.0000
# 4 0.0000 0.0000 0.0000-7798.4944 0.0000 0.0000
# 5 0.0000 0.0000 0.0000 0.0000 56.1470 0.0000
# 6 0.0000 0.0000 0.0000 0.0000 0.0000 35.9603
#
#
#
# Elastic Compliance Matrix: (Units=1/GPa)
#
#
# Indices 1 2 3 4 5 6 
#
# 1 0.012390 -0.002856 -0.009399 0.000000 0.000000 0.000000
# 2 -0.002856 0.010048 0.000715 0.000000 0.000000 0.000000
# 3 -0.009399 0.000715 0.019872 0.000000 0.000000 0.000000
# 4 0.000000 0.000000 0.000000 -0.000128 0.000000 0.000000
# 5 0.000000 0.000000 0.000000 0.000000 0.017810 0.000000
# 6 0.000000 0.000000 0.000000 0.000000 0.000000 0.027808
#
#
# Mechanical properties :
#
#
# Convention : Reuss Voigt Hill
#
# Bulk Modulus (GPa) = 52.00540 60.60206 56.30373
# Shear Modulus (GPa) = 42.62903 -1526.95056 -742.16077
#
# Velocity S-wave (km/s) = 4.04580 -24.21387 -16.88110
# Velocity P-wave (km/s) = 6.46479 27.54050 18.92994
#
# Compressibility (1/GPa) = 0.01922877
#
# Stress axis : x y z
#
# Youngs Moduli (GPa) = 80.71125 99.51927 50.32303
#
# Poissons Ratio (x) = 0.28424 0.47300
# Poissons Ratio (y) = 0.23052 -0.03598
# Poissons Ratio (z) = 0.75863 -0.07115
#
# Static dielectric constant tensor:
#      x y z
#    x 2.051270 0.000000 0.000000 
#    y 0.000000 1.721100 0.000000 
#    z 0.000000 0.000000 1.804200 
# 
# From -- ./inp_files/11483.got.cif
#   From: 2010.05.17/outbox.cif.g08.bks.cpg/sg54_6_cif.got.tgz:11483.got - 2010.06.03 13:09:01.
