data_PCOD9423750
_publ_section_title
;
Structure prediction by ZEFSAII (Michael W. Deem and Ramdas Pophale) SiO2 
 PCOD9423750
Probable space group: P C C A
;
_chemical_formula_sum "Si O2"
_cell_formula_units_Z 36
_cell_length_a 8.762539
_cell_length_b 18.092508
_cell_length_c 8.716086
_cell_angle_alpha 90.000000
_cell_angle_beta 90.000000
_cell_angle_gamma 90.000000
_cell_volume 1381.816086
_symmetry_space_group_name_H-M "P C C A"
_symmetry_group_IT_number 54
_symmetry_cell_setting 'orthorhombic'
loop_
_space_group_symop_operation_xyz
x,y,z
1/2-x,-y,z
1/2+x,-y,1/2-z
-x,y,1/2-z
-x,-y,-z
1/2+x,y,-z
1/2-x,y,1/2+z
x,-y,1/2+z
loop_
_atom_site_type_symbol
_atom_site_label
_atom_site_fract_x
_atom_site_fract_y
_atom_site_fract_z
Si Si1 0.602381 0.701722 0.402452
Si Si2 0.250000 0.500000 0.825998
Si Si3 0.084838 0.155043 0.900378
Si Si4 0.614685 0.394676 0.419695
Si Si5 0.123560 0.935123 0.885737
O O1 0.500000 0.695874 0.250000
O O2 0.593712 0.783507 0.469153
O O3 0.772662 0.673280 0.380872
O O4 0.539380 0.645132 0.531133
O O5 0.354517 0.548184 0.715190
O O6 0.157446 0.556215 0.931894
O O7 0.256840 0.131566 0.857187
O O8 0.000000 0.182864 0.750000
O O9 0.978650 0.088232 0.967594
O O10 0.000000 0.946384 0.750000
O O11 0.250000 0.000000 0.906419
#
# Coordination Sequence:
#
# PCOD9423750 Si02
#       5
#     8   4   8   8   8
#     4  12  27  49  72 105 150 204 256 314 383 463
#     4  10  24  44  72 110 142 198 254 322 400 466
#     4  12  28  47  77 116 158 209 264 326 388 459
#     4  11  25  44  72 105 148 195 257 320 389 468
#     4  12  27  53  84 119 163 207 260 315 385 461
#
# _framework density 26.052671
#
# number of rings (size 3 to 8) (size 9 to 14) (size 15 to 20)
#    0.000    0.444    2.222    4.667    3.111   10.667 
#    0.000    1.111    0.000    0.000    0.000    0.000 
#    0.000    0.000    0.000    0.000    0.000    0.000 
#
# Total GULP energy -201870.792952 kJ/mol
# GULP energy per Si atom -5607.522026 kJ/mol
# Density = 2.599337 g / cm^3
# Si number density = 26.052671 Si / 1000 Ang^3
#
#
#
# Elastic Constant Matrix: (Units=GPa)
#
#
# Indices 1 2 3 4 5 6 
#
# 1 149.7578 47.9138 45.0714 0.0000 0.0000 0.0000
# 2 47.9138 118.7353 56.0942 0.0000 0.0000 0.0000
# 3 45.0714 56.0942 135.1901 0.0000 0.0000 0.0000
# 4 0.0000 0.0000 0.0000 24.3277 0.0000 0.0000
# 5 0.0000 0.0000 0.0000 0.0000 18.7062 0.0000
# 6 0.0000 0.0000 0.0000 0.0000 0.0000 11.0302
#
#
#
# Elastic Compliance Matrix: (Units=1/GPa)
#
#
# Indices 1 2 3 4 5 6 
#
# 1 0.007950 -0.002433 -0.001641 0.000000 0.000000 0.000000
# 2 -0.002433 0.011220 -0.003844 0.000000 0.000000 0.000000
# 3 -0.001641 -0.003844 0.009539 0.000000 0.000000 0.000000
# 4 0.000000 0.000000 0.000000 0.041105 0.000000 0.000000
# 5 0.000000 0.000000 0.000000 0.000000 0.053458 0.000000
# 6 0.000000 0.000000 0.000000 0.000000 0.000000 0.090660
#
#
# Mechanical properties :
#
#
# Convention : Reuss Voigt Hill
#
# Bulk Modulus (GPa) = 77.68403 77.98246 77.83324
# Shear Modulus (GPa) = 21.36209 27.78643 24.57426
#
# Velocity S-wave (km/s) = 2.86660 3.26935 3.07457
# Velocity P-wave (km/s) = 6.39056 6.65200 6.52259
#
# Compressibility (1/GPa) = 0.01287266
#
# Stress axis : x y z
#
# Youngs Moduli (GPa) = 125.79179 89.12647 104.83018
#
# Poissons Ratio (x) = 0.21682 0.17202
# Poissons Ratio (y) = 0.30602 0.40301
# Poissons Ratio (z) = 0.20642 0.34264
#
# Static dielectric constant tensor:
#      x y z
#    x 2.107190 0.000000 0.000000 
#    y 0.000000 2.073020 0.000000 
#    z 0.000000 0.000000 2.021350 
# 
# From -- ./inp_files/2492.got.cif
#   From: 2010.05.17/outbox.cif.g08.bks.cpg/sg54_2_cif.got.tgz:2492.got - 2010.06.03 13:09:01.
