data_PCOD9423192
_publ_section_title
;
Structure prediction by ZEFSAII (Michael W. Deem and Ramdas Pophale) SiO2 
 PCOD9423192
Probable space group: P C C A
;
_chemical_formula_sum "Si O2"
_cell_formula_units_Z 40
_cell_length_a 9.235733
_cell_length_b 8.628028
_cell_length_c 22.295069
_cell_angle_alpha 90.000000
_cell_angle_beta 90.000000
_cell_angle_gamma 90.000000
_cell_volume 1776.608501
_symmetry_space_group_name_H-M "P C C A"
_symmetry_group_IT_number 54
_symmetry_cell_setting 'orthorhombic'
loop_
_space_group_symop_operation_xyz
x,y,z
1/2-x,-y,z
1/2+x,-y,1/2-z
-x,y,1/2-z
-x,-y,-z
1/2+x,y,-z
1/2-x,y,1/2+z
x,-y,1/2+z
loop_
_atom_site_type_symbol
_atom_site_label
_atom_site_fract_x
_atom_site_fract_y
_atom_site_fract_z
Si Si1 0.486601 0.499961 0.571029
Si Si2 0.750000 0.000000 0.325127
Si Si3 0.660028 0.272520 0.254559
Si Si4 0.250000 0.000000 0.976050
Si Si5 0.250000 0.500000 0.349341
Si Si6 0.250000 0.500000 0.147909
Si Si7 0.541744 0.863713 0.923804
O O1 0.500000 0.500000 0.500000
O O2 0.625834 0.443951 0.606058
O O3 0.353395 0.409447 0.601631
O O4 0.463124 0.680693 0.586360
O O5 0.769539 0.146805 0.281350
O O6 0.616333 0.044934 0.368737
O O7 0.500000 0.202282 0.250000
O O8 0.704743 0.358836 0.193998
O O9 0.653425 0.405158 0.305386
O O10 0.376760 0.915772 0.938217
O O11 0.150418 0.893928 0.019936
#
# Coordination Sequence:
#
# PCOD9423192 Si02
#       7
#     8   4   8   4   4   4   8
#     4  12  26  43  73 107 143 187 242 297 362 438
#     4  11  22  46  75  98 142 187 235 312 358 422
#     4  11  23  48  73 101 142 186 241 302 358 429
#     4   9  22  40  69  94 152 197 223 306 364 426
#     4  11  25  48  70 104 143 181 238 302 354 433
#     4  11  23  44  72  98 147 183 232 304 354 421
#     4  10  22  43  66 106 145 186 248 293 361 440
#
# _framework density 22.514809
#
# number of rings (size 3 to 8) (size 9 to 14) (size 15 to 20)
#    0.000    1.200    4.000    0.600    5.600    1.600 
#    3.600    2.000    0.000    0.000    0.000    0.000 
#    0.000    0.000    0.000    0.000    0.000    0.000 
#
# Total GULP energy -223259.169121 kJ/mol
# GULP energy per Si atom -5581.479228 kJ/mol
# Density = 2.246356 g / cm^3
# Si number density = 22.514809 Si / 1000 Ang^3
#
#
#
# Elastic Constant Matrix: (Units=GPa)
#
#
# Indices 1 2 3 4 5 6 
#
# 1 138.3643 4.9644 63.4533 0.0000 0.0000 0.0000
# 2 4.9644 46.3144 17.2060 0.0000 0.0000 0.0000
# 3 63.4533 17.2060 177.5568 0.0000 0.0000 0.0000
# 4 0.0000 0.0000 0.0000 18.7893 0.0000 0.0000
# 5 0.0000 0.0000 0.0000 0.0000 32.7376 0.0000
# 6 0.0000 0.0000 0.0000 0.0000 0.0000 23.8007
#
#
#
# Elastic Compliance Matrix: (Units=1/GPa)
#
#
# Indices 1 2 3 4 5 6 
#
# 1 0.008646 0.000229 -0.003112 0.000000 0.000000 0.000000
# 2 0.000229 0.022404 -0.002253 0.000000 0.000000 0.000000
# 3 -0.003112 -0.002253 0.006963 0.000000 0.000000 0.000000
# 4 0.000000 0.000000 0.000000 0.053222 0.000000 0.000000
# 5 0.000000 0.000000 0.000000 0.000000 0.030546 0.000000
# 6 0.000000 0.000000 0.000000 0.000000 0.000000 0.042016
#
#
# Mechanical properties :
#
#
# Convention : Reuss Voigt Hill
#
# Bulk Modulus (GPa) = 36.04746 59.27590 47.66168
# Shear Modulus (GPa) = 27.27552 33.50631 30.39091
#
# Velocity S-wave (km/s) = 3.48436 3.86189 3.67797
# Velocity P-wave (km/s) = 5.67741 6.80223 6.26511
#
# Compressibility (1/GPa) = 0.02774121
#
# Stress axis : x y z
#
# Youngs Moduli (GPa) = 115.65663 44.63497 143.62629
#
# Poissons Ratio (x) = -0.01024 0.44699
# Poissons Ratio (y) = -0.02653 0.32359
# Poissons Ratio (z) = 0.35994 0.10056
#
# Static dielectric constant tensor:
#      x y z
#    x 1.921200 0.000000 0.000000 
#    y 0.000000 1.892580 0.000000 
#    z 0.000000 0.000000 1.829200 
# 
# From -- ./inp_files/23354.got.cif
#   From: 2010.05.17/outbox.cif.g08.bks.cpg/sg54_12_cif.got.tgz:23354.got - 2010.06.03 13:09:01.
