data_PCOD9423098
_publ_section_title
;
Structure prediction by ZEFSAII (Michael W. Deem and Ramdas Pophale) SiO2 
 PCOD9423098
Probable space group: P C C A
;
_chemical_formula_sum "Si O2"
_cell_formula_units_Z 60
_cell_length_a 10.534220
_cell_length_b 14.762978
_cell_length_c 17.600092
_cell_angle_alpha 90.000000
_cell_angle_beta 90.000000
_cell_angle_gamma 90.000000
_cell_volume 2737.103970
_symmetry_space_group_name_H-M "P C C A"
_symmetry_group_IT_number 54
_symmetry_cell_setting 'orthorhombic'
loop_
_space_group_symop_operation_xyz
x,y,z
1/2-x,-y,z
1/2+x,-y,1/2-z
-x,y,1/2-z
-x,-y,-z
1/2+x,y,-z
1/2-x,y,1/2+z
x,-y,1/2+z
loop_
_atom_site_type_symbol
_atom_site_label
_atom_site_fract_x
_atom_site_fract_y
_atom_site_fract_z
Si Si1 0.756185 0.605467 0.041647
Si Si2 0.537115 0.668710 0.938074
Si Si3 0.874361 0.866519 0.707099
Si Si4 0.250000 0.000000 0.184692
Si Si5 0.741746 0.690997 0.193784
Si Si6 0.509980 0.011978 0.590475
Si Si7 0.456234 0.175258 0.337728
Si Si8 0.880639 0.444290 0.798951
O O1 0.750000 0.500000 0.019938
O O2 0.720221 0.615278 0.130741
O O3 0.896908 0.646777 0.029161
O O4 0.649138 0.660972 0.997892
O O5 0.545427 0.763126 0.891909
O O6 0.560931 0.587837 0.877815
O O7 0.762898 0.914891 0.756692
O O8 0.869746 0.757745 0.716753
O O9 0.904378 0.904700 0.622513
O O10 0.000000 0.900570 0.750000
O O11 0.130110 0.009593 0.128806
O O12 0.828317 0.767720 0.155846
O O13 0.828733 0.645533 0.257011
O O14 0.500000 0.000000 0.500000
O O15 0.567376 0.921536 0.626791
O O16 0.500000 0.171679 0.250000
O O17 0.750000 0.500000 0.807195
O O18 0.000000 0.482938 0.750000
#
# Coordination Sequence:
#
# PCOD9423098 Si02
#       8
#     8   8   8   4   8   8   8   8
#     4  11  24  44  66  95 142 182 227 283 354 418
#     4  11  24  45  69 103 133 186 232 279 353 425
#     4  10  22  42  62  98 134 177 233 283 357 418
#     4  10  22  42  68  88 132 182 214 280 346 420
#     4  11  22  41  68  95 131 178 230 280 342 414
#     4  11  25  41  66 102 134 173 229 287 350 412
#     4  11  20  42  72  92 131 179 232 271 343 417
#     4  12  24  45  71 104 137 179 242 298 351 424
#
# _framework density 21.920978999999999
#
# number of rings (size 3 to 8) (size 9 to 14) (size 15 to 20)
#    0.000    1.067    4.000    4.000    1.867    2.133 
#    4.800    0.000    0.000    0.000    0.000    0.000 
#    0.000    0.000    0.000    0.000    0.000    0.000 
#
# Total GULP energy -334530.703760 kJ/mol
# GULP energy per Si atom -5575.511729 kJ/mol
# Density = 2.187109 g / cm^3
# Si number density = 21.920979 Si / 1000 Ang^3
#
#
#
# Elastic Constant Matrix: (Units=GPa)
#
#
# Indices 1 2 3 4 5 6 
#
# 1 123.4215 16.7543 43.9579 0.0000 0.0000 0.0000
# 2 16.7543 49.1636 -2.7226 0.0000 0.0000 0.0000
# 3 43.9579 -2.7226 100.1254 0.0000 0.0000 0.0000
# 4 0.0000 0.0000 0.0000 64.8955 0.0000 0.0000
# 5 0.0000 0.0000 0.0000 0.0000 32.4843 0.0000
# 6 0.0000 0.0000 0.0000 0.0000 0.0000 36.9152
#
#
#
# Elastic Compliance Matrix: (Units=1/GPa)
#
#
# Indices 1 2 3 4 5 6 
#
# 1 0.010250 -0.003748 -0.004602 0.000000 0.000000 0.000000
# 2 -0.003748 0.021741 0.002237 0.000000 0.000000 0.000000
# 3 -0.004602 0.002237 0.012069 0.000000 0.000000 0.000000
# 4 0.000000 0.000000 0.000000 0.015409 0.000000 0.000000
# 5 0.000000 0.000000 0.000000 0.000000 0.030784 0.000000
# 6 0.000000 0.000000 0.000000 0.000000 0.000000 0.027089
#
#
# Mechanical properties :
#
#
# Convention : Reuss Voigt Hill
#
# Bulk Modulus (GPa) = 31.41340 43.18775 37.30058
# Shear Modulus (GPa) = 35.66824 41.17372 38.42098
#
# Velocity S-wave (km/s) = 4.03814 4.33861 4.19107
# Velocity P-wave (km/s) = 6.00862 6.69645 6.36184
#
# Compressibility (1/GPa) = 0.03183355
#
# Stress axis : x y z
#
# Youngs Moduli (GPa) = 97.55943 45.99526 82.85889
#
# Poissons Ratio (x) = 0.17239 0.38132
# Poissons Ratio (y) = 0.36565 -0.18533
# Poissons Ratio (z) = 0.44897 -0.10288
#
# Static dielectric constant tensor:
#      x y z
#    x 1.923560 0.000000 0.000000 
#    y 0.000000 2.041490 0.000000 
#    z 0.000000 0.000000 1.857790 
# 
# From -- ./inp_files/17425.got.cif
#   From: 2010.05.17/outbox.cif.g08.bks.cpg/sg54_9_cif.got.tgz:17425.got - 2010.06.03 13:09:01.
