data_PCOD9423704
_publ_section_title
;
Structure prediction by ZEFSAII (Michael W. Deem and Ramdas Pophale) SiO2 
 PCOD9423704
Probable space group: P C C A
;
_chemical_formula_sum "Si O2"
_cell_formula_units_Z 20
_cell_length_a 12.449939
_cell_length_b 10.632224
_cell_length_c 5.661701
_cell_angle_alpha 90.000000
_cell_angle_beta 90.000000
_cell_angle_gamma 90.000000
_cell_volume 749.442420
_symmetry_space_group_name_H-M "P C C A"
_symmetry_group_IT_number 54
_symmetry_cell_setting 'orthorhombic'
loop_
_space_group_symop_operation_xyz
x,y,z
1/2-x,-y,z
1/2+x,-y,1/2-z
-x,y,1/2-z
-x,-y,-z
1/2+x,y,-z
1/2-x,y,1/2+z
x,-y,1/2+z
loop_
_atom_site_type_symbol
_atom_site_label
_atom_site_fract_x
_atom_site_fract_y
_atom_site_fract_z
Si Si1 0.373813 0.551121 0.109356
Si Si2 0.500000 0.780860 0.250000
Si Si3 0.791519 0.857571 0.512677
O O1 0.250000 0.500000 0.116111
O O2 0.410372 0.513611 0.370659
O O3 0.419018 0.693210 0.098709
O O4 0.417533 0.853824 0.419939
O O5 0.767907 0.802391 0.249905
O O6 0.750000 0.000000 0.492162
#
# Coordination Sequence:
#
# PCOD9423704 Si02
#       3
#     8   4   8
#     4  10  24  43  67 104 141 176 239 283 331 426
#     4  12  26  44  82  96 142 200 214 290 376 378
#     4  10  26  47  71 106 141 176 243 289 337 428
#
# _framework density 26.686506999999999
#
# number of rings (size 3 to 8) (size 9 to 14) (size 15 to 20)
#    0.000    1.600    0.000    1.200   11.200   11.200 
#    0.000    0.000    0.000    0.000    0.000    0.000 
#    0.000    0.000    0.000    0.000    0.000    0.000 
#
# Total GULP energy -111447.258565 kJ/mol
# GULP energy per Si atom -5572.362928 kJ/mol
# Density = 2.662577 g / cm^3
# Si number density = 26.686507 Si / 1000 Ang^3
#
#
#
# Elastic Constant Matrix: (Units=GPa)
#
#
# Indices 1 2 3 4 5 6 
#
# 1 177.2705 64.3943 90.2496 0.0000 0.0000 0.0000
# 2 64.3943 65.2648 4.7147 0.0000 0.0000 0.0000
# 3 90.2496 4.7147 258.9536 0.0000 0.0000 0.0000
# 4 0.0000 0.0000 0.0000 -41.0340 0.0000 0.0000
# 5 0.0000 0.0000 0.0000 0.0000 58.0407 0.0000
# 6 0.0000 0.0000 0.0000 0.0000 0.0000 56.4915
#
#
#
# Elastic Compliance Matrix: (Units=1/GPa)
#
#
# Indices 1 2 3 4 5 6 
#
# 1 0.011709 -0.011273 -0.003876 0.000000 0.000000 0.000000
# 2 -0.011273 0.026195 0.003452 0.000000 0.000000 0.000000
# 3 -0.003876 0.003452 0.005150 0.000000 0.000000 0.000000
# 4 0.000000 0.000000 0.000000 -0.024370 0.000000 0.000000
# 5 0.000000 0.000000 0.000000 0.000000 0.017229 0.000000
# 6 0.000000 0.000000 0.000000 0.000000 0.000000 0.017702
#
#
# Mechanical properties :
#
#
# Convention : Reuss Voigt Hill
#
# Bulk Modulus (GPa) = 50.86263 91.13400 70.99832
# Shear Modulus (GPa) = 59.83565 37.50834 48.67200
#
# Velocity S-wave (km/s) = 4.74029 3.75309 4.27528
# Velocity P-wave (km/s) = 7.00437 7.28045 7.14374
#
# Compressibility (1/GPa) = 0.01966080
#
# Stress axis : x y z
#
# Youngs Moduli (GPa) = 85.40326 38.17450 194.19159
#
# Poissons Ratio (x) = 0.43034 0.75261
# Poissons Ratio (y) = 0.96275 -0.67033
# Poissons Ratio (z) = 0.33099 -0.13177
#
# Static dielectric constant tensor:
#      x y z
#    x 2.092500 0.000000 0.000000 
#    y 0.000000 1.622050 0.000000 
#    z 0.000000 0.000000 2.017140 
# 
# From -- ./inp_files/88.got.cif
#   From: 2010.05.17/outbox.cif.g08.bks.cpg/sg54_1_cif.got.tgz:88.got - 2010.06.03 13:09:01.
