data_PCOD9423289
_publ_section_title
;
Structure prediction by ZEFSAII (Michael W. Deem and Ramdas Pophale) SiO2 
 PCOD9423289
Probable space group: P C C A
;
_chemical_formula_sum "Si O2"
_cell_formula_units_Z 32
_cell_length_a 12.134852
_cell_length_b 11.944549
_cell_length_c 8.840555
_cell_angle_alpha 90.000000
_cell_angle_beta 90.000000
_cell_angle_gamma 90.000000
_cell_volume 1281.397200
_symmetry_space_group_name_H-M "P C C A"
_symmetry_group_IT_number 54
_symmetry_cell_setting 'orthorhombic'
loop_
_space_group_symop_operation_xyz
x,y,z
1/2-x,-y,z
1/2+x,-y,1/2-z
-x,y,1/2-z
-x,-y,-z
1/2+x,y,-z
1/2-x,y,1/2+z
x,-y,1/2+z
loop_
_atom_site_type_symbol
_atom_site_label
_atom_site_fract_x
_atom_site_fract_y
_atom_site_fract_z
Si Si1 0.376404 0.599046 0.742466
Si Si2 0.465127 0.853487 0.002845
Si Si3 0.157979 0.633445 0.584378
Si Si4 0.869341 0.944984 0.313580
O O1 0.500000 0.648308 0.750000
O O2 0.279043 0.658436 0.649604
O O3 0.385430 0.474110 0.675060
O O4 0.333887 0.595440 0.912063
O O5 0.422628 0.739156 0.075569
O O6 0.397531 0.886795 0.847536
O O7 0.591701 0.858839 0.945952
O O8 0.439360 0.949118 0.123935
O O9 0.750000 0.000000 0.309094
#
# Coordination Sequence:
#
# PCOD9423289 Si02
#       4
#     8   8   8   8
#     4  11  25  48  73 112 155 206 273 336 392 496
#     4  10  24  43  71 109 150 202 254 324 401 464
#     4  11  25  47  74 113 159 206 267 334 411 477
#     4  10  22  45  67 106 149 192 262 321 377 485
#
# _framework density 24.972740999999999
#
# number of rings (size 3 to 8) (size 9 to 14) (size 15 to 20)
#    0.000    1.500    0.000    4.500    7.000    0.000 
#    9.000    0.000    0.000    0.000    0.000    0.000 
#    0.000    0.000    0.000    0.000    0.000    0.000 
#
# Total GULP energy -178804.926648 kJ/mol
# GULP energy per Si atom -5587.653958 kJ/mol
# Density = 2.491590 g / cm^3
# Si number density = 24.972741 Si / 1000 Ang^3
#
#
#
# Elastic Constant Matrix: (Units=GPa)
#
#
# Indices 1 2 3 4 5 6 
#
# 1 140.9844 7.5855 42.7027 0.0000 0.0000 0.0000
# 2 7.5855 131.6367 21.0387 0.0000 0.0000 0.0000
# 3 42.7027 21.0387 142.4124 0.0000 0.0000 0.0000
# 4 0.0000 0.0000 0.0000 82.2968 0.0000 0.0000
# 5 0.0000 0.0000 0.0000 0.0000 18.1245 0.0000
# 6 0.0000 0.0000 0.0000 0.0000 0.0000 61.9041
#
#
#
# Elastic Compliance Matrix: (Units=1/GPa)
#
#
# Indices 1 2 3 4 5 6 
#
# 1 0.007802 -0.000078 -0.002328 0.000000 0.000000 0.000000
# 2 -0.000078 0.007781 -0.001126 0.000000 0.000000 0.000000
# 3 -0.002328 -0.001126 0.007886 0.000000 0.000000 0.000000
# 4 0.000000 0.000000 0.000000 0.012151 0.000000 0.000000
# 5 0.000000 0.000000 0.000000 0.000000 0.055174 0.000000
# 6 0.000000 0.000000 0.000000 0.000000 0.000000 0.016154
#
#
# Mechanical properties :
#
#
# Convention : Reuss Voigt Hill
#
# Bulk Modulus (GPa) = 60.95325 61.96526 61.45926
# Shear Modulus (GPa) = 41.84757 55.37886 48.61322
#
# Velocity S-wave (km/s) = 4.09801 4.71422 4.41687
# Velocity P-wave (km/s) = 6.84489 7.38233 7.11868
#
# Compressibility (1/GPa) = 0.01640602
#
# Stress axis : x y z
#
# Youngs Moduli (GPa) = 128.16723 128.51587 126.80169
#
# Poissons Ratio (x) = 0.00996 0.29521
# Poissons Ratio (y) = 0.00994 0.14281
# Poissons Ratio (z) = 0.29838 0.14474
#
# Static dielectric constant tensor:
#      x y z
#    x 2.093310 0.000000 0.000000 
#    y 0.000000 2.110010 0.000000 
#    z 0.000000 0.000000 1.926660 
# 
# From -- ./inp_files/3308.got.cif
#   From: 2010.05.17/outbox.cif.g08.bks.cpg/sg54_2_cif.got.tgz:3308.got - 2010.06.03 13:09:01.
