data_PCOD9423411
_publ_section_title
;
Structure prediction by ZEFSAII (Michael W. Deem and Ramdas Pophale) SiO2 
 PCOD9423411
Probable space group: P C C A
;
_chemical_formula_sum "Si O2"
_cell_formula_units_Z 32
_cell_length_a 8.551336
_cell_length_b 5.105961
_cell_length_c 31.289095
_cell_angle_alpha 90.000000
_cell_angle_beta 90.000000
_cell_angle_gamma 90.000000
_cell_volume 1366.169125
_symmetry_space_group_name_H-M "P C C A"
_symmetry_group_IT_number 54
_symmetry_cell_setting 'orthorhombic'
loop_
_space_group_symop_operation_xyz
x,y,z
1/2-x,-y,z
1/2+x,-y,1/2-z
-x,y,1/2-z
-x,-y,-z
1/2+x,y,-z
1/2-x,y,1/2+z
x,-y,1/2+z
loop_
_atom_site_type_symbol
_atom_site_label
_atom_site_fract_x
_atom_site_fract_y
_atom_site_fract_z
Si Si1 0.930645 0.917548 0.340971
Si Si2 0.924975 0.929623 0.070564
Si Si3 0.432156 0.415886 0.796291
Si Si4 0.642565 0.741503 0.480404
O O1 0.975543 0.839802 0.389295
O O2 0.971582 0.669050 0.312015
O O3 0.750000 0.000000 0.337907
O O4 0.034310 0.168121 0.326829
O O5 0.750000 0.000000 0.084110
O O6 0.916467 0.738767 0.029416
O O7 0.004299 0.191107 0.051655
O O8 0.250000 0.500000 0.794983
O O9 0.500000 0.340529 0.750000
O O10 0.750000 0.500000 0.469789
O O11 0.750000 0.000000 0.478649
#
# Coordination Sequence:
#
# PCOD9423411 Si02
#       4
#     8   8   8   8
#     4  12  26  45  70 102 139 180 226 279 338 404
#     4  10  23  41  65  96 132 175 228 282 337 397
#     4  12  26  48  74 103 137 176 222 275 340 410
#     4  10  23  42  64  91 130 179 227 278 337 401
#
# _framework density 23.423162999999999
#
# number of rings (size 3 to 8) (size 9 to 14) (size 15 to 20)
#    0.000    1.000    0.000    6.000    0.000   19.000 
#    0.000    0.000    0.000    0.000    0.000    0.000 
#    0.000    0.000    0.000    0.000    0.000    0.000 
#
# Total GULP energy -179378.436937 kJ/mol
# GULP energy per Si atom -5605.576154 kJ/mol
# Density = 2.336985 g / cm^3
# Si number density = 23.423163 Si / 1000 Ang^3
#
#
#
# Elastic Constant Matrix: (Units=GPa)
#
#
# Indices 1 2 3 4 5 6 
#
# 1 126.4922 21.7208 35.8122 0.0000 0.0000 0.0000
# 2 21.7208 91.5260 4.2205 0.0000 0.0000 0.0000
# 3 35.8122 4.2205 94.0833 0.0000 0.0000 0.0000
# 4 0.0000 0.0000 0.0000 5.0771 0.0000 0.0000
# 5 0.0000 0.0000 0.0000 0.0000 23.6793 0.0000
# 6 0.0000 0.0000 0.0000 0.0000 0.0000 40.1124
#
#
#
# Elastic Compliance Matrix: (Units=1/GPa)
#
#
# Indices 1 2 3 4 5 6 
#
# 1 0.009222 -0.002031 -0.003419 0.000000 0.000000 0.000000
# 2 -0.002031 0.011396 0.000262 0.000000 0.000000 0.000000
# 3 -0.003419 0.000262 0.011919 0.000000 0.000000 0.000000
# 4 0.000000 0.000000 0.000000 0.196963 0.000000 0.000000
# 5 0.000000 0.000000 0.000000 0.000000 0.042231 0.000000
# 6 0.000000 0.000000 0.000000 0.000000 0.000000 0.024930
#
#
# Mechanical properties :
#
#
# Convention : Reuss Voigt Hill
#
# Bulk Modulus (GPa) = 45.12640 48.40095 46.76367
# Shear Modulus (GPa) = 15.90207 30.46362 23.18285
#
# Velocity S-wave (km/s) = 2.60840 3.61026 3.14943
# Velocity P-wave (km/s) = 5.32722 6.17149 5.76483
#
# Compressibility (1/GPa) = 0.02215998
#
# Stress axis : x y z
#
# Youngs Moduli (GPa) = 108.43095 87.75187 83.90186
#
# Poissons Ratio (x) = 0.17822 0.28689
# Poissons Ratio (y) = 0.22022 -0.02197
# Poissons Ratio (z) = 0.37076 -0.02298
#
# Static dielectric constant tensor:
#      x y z
#    x 1.925050 0.000000 0.000000 
#    y 0.000000 1.866280 0.000000 
#    z 0.000000 0.000000 1.850880 
# 
# From -- ./inp_files/27383.got.cif
#   From: 2010.05.17/outbox.cif.g08.bks.cpg/sg54_14_cif.got.tgz:27383.got - 2010.06.03 13:09:01.
