data_PCOD9423461
_publ_section_title
;
Structure prediction by ZEFSAII (Michael W. Deem and Ramdas Pophale) SiO2 
 PCOD9423461
Probable space group: P C C A
;
_chemical_formula_sum "Si O2"
_cell_formula_units_Z 64
_cell_length_a 15.759630
_cell_length_b 16.319568
_cell_length_c 10.345871
_cell_angle_alpha 90.000000
_cell_angle_beta 90.000000
_cell_angle_gamma 90.000000
_cell_volume 2660.858219
_symmetry_space_group_name_H-M "P C C A"
_symmetry_group_IT_number 54
_symmetry_cell_setting 'orthorhombic'
loop_
_space_group_symop_operation_xyz
x,y,z
1/2-x,-y,z
1/2+x,-y,1/2-z
-x,y,1/2-z
-x,-y,-z
1/2+x,y,-z
1/2-x,y,1/2+z
x,-y,1/2+z
loop_
_atom_site_type_symbol
_atom_site_label
_atom_site_fract_x
_atom_site_fract_y
_atom_site_fract_z
Si Si1 0.554067 0.896852 0.551327
Si Si2 0.708181 0.911477 0.351053
Si Si3 0.066198 0.561390 0.372286
Si Si4 0.575043 0.063024 0.656180
Si Si5 0.015431 0.726842 0.049677
Si Si6 0.570977 0.618436 0.143065
Si Si7 0.757029 0.650956 0.123881
Si Si8 0.300050 0.254551 0.134243
O O1 0.629116 0.907750 0.448961
O O2 0.574677 0.963505 0.659929
O O3 0.544773 0.801544 0.580173
O O4 0.461967 0.916482 0.485328
O O5 0.771101 0.838348 0.387062
O O6 0.750000 0.000000 0.361144
O O7 0.663868 0.904791 0.209078
O O8 0.066432 0.469935 0.430791
O O9 0.164885 0.588261 0.355615
O O10 0.000000 0.560521 0.250000
O O11 0.033196 0.641152 0.447445
O O12 0.500000 0.093273 0.750000
O O13 0.098884 0.731672 0.135445
O O14 0.058290 0.711711 0.910107
O O15 0.500000 0.611191 0.250000
O O16 0.669397 0.614711 0.178617
O O17 0.772423 0.724893 0.221415
O O18 0.740008 0.685332 0.977493
#
# Coordination Sequence:
#
# PCOD9423461 Si02
#       8
#     8   8   8   8   8   8   8   8
#     4  10  23  42  69  94 135 181 236 292 357 431
#     4  11  26  42  65  98 137 184 233 300 363 426
#     4  11  22  45  68 103 143 189 243 303 367 440
#     4   9  22  42  64  94 127 178 234 288 353 429
#     4  11  24  43  71 102 141 189 241 300 359 438
#     4  10  25  42  72 104 142 189 244 300 369 441
#     4  11  25  48  71 107 146 192 243 301 368 435
#     4  11  27  45  70 108 144 190 244 299 363 441
#
# _framework density 24.052391
#
# number of rings (size 3 to 8) (size 9 to 14) (size 15 to 20)
#    0.000    1.500    1.250    1.500   12.250    3.500 
#    0.000    1.250    0.000    0.000    0.000    0.000 
#    0.000    0.000    0.000    0.000    0.000    0.000 
#
# Total GULP energy -356809.125626 kJ/mol
# GULP energy per Si atom -5575.142588 kJ/mol
# Density = 2.399765 g / cm^3
# Si number density = 24.052391 Si / 1000 Ang^3
#
#
#
# Elastic Constant Matrix: (Units=GPa)
#
#
# Indices 1 2 3 4 5 6 
#
# 1 136.8404 29.5580 7.1595 0.0000 0.0000 0.0000
# 2 29.5580 95.6479 -3.2162 0.0000 0.0000 0.0000
# 3 7.1595 -3.2162 37.4716 0.0000 0.0000 0.0000
# 4 0.0000 0.0000 0.0000 27.1938 0.0000 0.0000
# 5 0.0000 0.0000 0.0000 0.0000 19.0412 0.0000
# 6 0.0000 0.0000 0.0000 0.0000 0.0000-1472.1798
#
#
#
# Elastic Compliance Matrix: (Units=1/GPa)
#
#
# Indices 1 2 3 4 5 6 
#
# 1 0.007941 -0.002512 -0.001733 0.000000 0.000000 0.000000
# 2 -0.002512 0.011280 0.001448 0.000000 0.000000 0.000000
# 3 -0.001733 0.001448 0.027142 0.000000 0.000000 0.000000
# 4 0.000000 0.000000 0.000000 0.036773 0.000000 0.000000
# 5 0.000000 0.000000 0.000000 0.000000 0.052518 0.000000
# 6 0.000000 0.000000 0.000000 0.000000 0.000000 -0.000679
#
#
# Mechanical properties :
#
#
# Convention : Reuss Voigt Hill
#
# Bulk Modulus (GPa) = 24.52820 37.44030 30.98425
# Shear Modulus (GPa) = 32.43410 -269.42504 -118.49547
#
# Velocity S-wave (km/s) = 3.67615 -10.59524 -7.02656
# Velocity P-wave (km/s) = 5.31401 11.57924 7.27462
#
# Compressibility (1/GPa) = 0.04076940
#
# Stress axis : x y z
#
# Youngs Moduli (GPa) = 125.92693 88.65182 36.84293
#
# Poissons Ratio (x) = 0.22272 0.06384
# Poissons Ratio (y) = 0.31637 -0.05336
# Poissons Ratio (z) = 0.21822 -0.12838
#
# Static dielectric constant tensor:
#      x y z
#    x 2.269210 0.000000 0.000000 
#    y 0.000000 1.971850 0.000000 
#    z 0.000000 0.000000 2.021250 
# 
# From -- ./inp_files/8551.got.cif
#   From: 2010.05.17/outbox.cif.g08.bks.cpg/sg54_5_cif.got.tgz:8551.got - 2010.06.03 13:09:01.
