data_PCOD9423250
_publ_section_title
;
Structure prediction by ZEFSAII (Michael W. Deem and Ramdas Pophale) SiO2 
 PCOD9423250
Probable space group: P C C A
;
_chemical_formula_sum "Si O2"
_cell_formula_units_Z 32
_cell_length_a 14.012793
_cell_length_b 6.899307
_cell_length_c 12.801740
_cell_angle_alpha 90.000000
_cell_angle_beta 90.000000
_cell_angle_gamma 90.000000
_cell_volume 1237.653799
_symmetry_space_group_name_H-M "P C C A"
_symmetry_group_IT_number 54
_symmetry_cell_setting 'orthorhombic'
loop_
_space_group_symop_operation_xyz
x,y,z
1/2-x,-y,z
1/2+x,-y,1/2-z
-x,y,1/2-z
-x,-y,-z
1/2+x,y,-z
1/2-x,y,1/2+z
x,-y,1/2+z
loop_
_atom_site_type_symbol
_atom_site_label
_atom_site_fract_x
_atom_site_fract_y
_atom_site_fract_z
Si Si1 0.396060 0.158708 0.304241
Si Si2 0.500000 0.721198 0.250000
Si Si3 0.935595 0.315939 0.467660
Si Si4 0.812055 0.275418 0.189561
Si Si5 0.250000 0.500000 0.007764
O O1 0.500000 0.183614 0.250000
O O2 0.414661 0.200715 0.426557
O O3 0.296756 0.267675 0.269757
O O4 0.358935 0.936085 0.293311
O O5 0.522744 0.796693 0.368435
O O6 0.596198 0.600140 0.226030
O O7 0.832979 0.396093 0.431772
O O8 0.000000 0.500000 0.500000
O O9 0.796773 0.341178 0.069984
#
# Coordination Sequence:
#
# PCOD9423250 Si02
#       5
#     8   4   8   8   4
#     4  10  23  45  72 104 144 191 244 301 371 441
#     4  12  24  44  68 106 144 180 246 304 370 438
#     4  11  25  42  69 100 140 191 241 308 365 441
#     4  10  22  44  69 105 142 188 244 300 367 436
#     4  10  22  46  68 100 142 192 250 298 368 438
#
# _framework density 25.855374000000001
#
# number of rings (size 3 to 8) (size 9 to 14) (size 15 to 20)
#    0.000    1.500    3.750    0.000    1.750    4.000 
#    0.000    5.000    0.000    0.000    0.000    0.000 
#    0.000    0.000    0.000    0.000    0.000    0.000 
#
# Total GULP energy -178234.125339 kJ/mol
# GULP energy per Si atom -5569.816417 kJ/mol
# Density = 2.579653 g / cm^3
# Si number density = 25.855374 Si / 1000 Ang^3
#
#
#
# Elastic Constant Matrix: (Units=GPa)
#
#
# Indices 1 2 3 4 5 6 
#
# 1 305.8377 58.1561 80.9046 0.0000 0.0000 0.0000
# 2 58.1561 56.5113 8.8400 0.0000 0.0000 0.0000
# 3 80.9046 8.8400 145.4298 0.0000 0.0000 0.0000
# 4 0.0000 0.0000 0.0000 21.8469 0.0000 0.0000
# 5 0.0000 0.0000 0.0000 0.0000 53.6458 0.0000
# 6 0.0000 0.0000 0.0000 0.0000 0.0000 60.9328
#
#
#
# Elastic Compliance Matrix: (Units=1/GPa)
#
#
# Indices 1 2 3 4 5 6 
#
# 1 0.004758 -0.004525 -0.002372 0.000000 0.000000 0.000000
# 2 -0.004525 0.022169 0.001170 0.000000 0.000000 0.000000
# 3 -0.002372 0.001170 0.008124 0.000000 0.000000 0.000000
# 4 0.000000 0.000000 0.000000 0.045773 0.000000 0.000000
# 5 0.000000 0.000000 0.000000 0.000000 0.018641 0.000000
# 6 0.000000 0.000000 0.000000 0.000000 0.000000 0.016412
#
#
# Mechanical properties :
#
#
# Convention : Reuss Voigt Hill
#
# Bulk Modulus (GPa) = 42.37736 89.28669 65.83202
# Shear Modulus (GPa) = 36.98329 51.27698 44.13014
#
# Velocity S-wave (km/s) = 3.78615 4.45817 4.13583
# Velocity P-wave (km/s) = 5.96146 7.81719 6.95153
#
# Compressibility (1/GPa) = 0.02359751
#
# Stress axis : x y z
#
# Youngs Moduli (GPa) = 210.19301 45.10742 123.08555
#
# Poissons Ratio (x) = 0.20411 0.29191
# Poissons Ratio (y) = 0.95113 -0.14398
# Poissons Ratio (z) = 0.49850 -0.05276
#
# Static dielectric constant tensor:
#      x y z
#    x 2.475870 0.000000 0.000000 
#    y 0.000000 2.173710 0.000000 
#    z 0.000000 0.000000 1.979020 
# 
# From -- ./inp_files/7992.got.cif
#   From: 2010.05.17/outbox.cif.g08.bks.cpg/sg54_4_cif.got.tgz:7992.got - 2010.06.03 13:09:01.
