data_PCOD9423736
_publ_section_title
;
Structure prediction by ZEFSAII (Michael W. Deem and Ramdas Pophale) SiO2 
 PCOD9423736
Probable space group: P C C A
;
_chemical_formula_sum "Si O2"
_cell_formula_units_Z 40
_cell_length_a 9.749690
_cell_length_b 17.988754
_cell_length_c 10.264480
_cell_angle_alpha 90.000000
_cell_angle_beta 90.000000
_cell_angle_gamma 90.000000
_cell_volume 1800.233515
_symmetry_space_group_name_H-M "P C C A"
_symmetry_group_IT_number 54
_symmetry_cell_setting 'orthorhombic'
loop_
_space_group_symop_operation_xyz
x,y,z
1/2-x,-y,z
1/2+x,-y,1/2-z
-x,y,1/2-z
-x,-y,-z
1/2+x,y,-z
1/2-x,y,1/2+z
x,-y,1/2+z
loop_
_atom_site_type_symbol
_atom_site_label
_atom_site_fract_x
_atom_site_fract_y
_atom_site_fract_z
Si Si1 0.500000 0.843394 0.750000
Si Si2 0.154358 0.571549 0.602307
Si Si3 0.000000 0.876824 0.750000
Si Si4 0.246430 0.920505 0.388198
Si Si5 0.148939 0.375344 0.383526
Si Si6 0.586484 0.788727 0.017225
O O1 0.610641 0.897184 0.684817
O O2 0.545469 0.791118 0.868213
O O3 0.250000 0.500000 0.634610
O O4 0.221339 0.598646 0.467830
O O5 0.176005 0.623525 0.729220
O O6 0.987106 0.572478 0.592222
O O7 0.867494 0.924765 0.719143
O O8 0.017586 0.825048 0.622881
O O9 0.291059 0.848921 0.471291
O O10 0.250000 0.000000 0.457734
O O11 0.116747 0.292873 0.432425
#
# Coordination Sequence:
#
# PCOD9423736 Si02
#       6
#     4   8   4   8   8   8
#     4  12  27  40  74 106 137 192 252 290 375 426
#     4  11  25  46  72 108 143 188 237 291 363 438
#     4   8  21  42  66  90 145 184 238 308 361 414
#     4  10  24  44  70 100 144 191 248 302 367 428
#     4  11  26  44  76 103 149 190 237 297 363 422
#     4  10  26  43  70 102 147 184 249 297 365 426
#
# _framework density 22.219339999999999
#
# number of rings (size 3 to 8) (size 9 to 14) (size 15 to 20)
#    1.200    0.400    0.000    3.000    8.400    4.000 
#    0.000    0.000    0.000    0.000    0.000    0.000 
#    0.000    0.000    0.000    0.000    0.000    0.000 
#
# Total GULP energy -222950.134883 kJ/mol
# GULP energy per Si atom -5573.753372 kJ/mol
# Density = 2.216877 g / cm^3
# Si number density = 22.219340 Si / 1000 Ang^3
#
#
#
# Elastic Constant Matrix: (Units=GPa)
#
#
# Indices 1 2 3 4 5 6 
#
# 1 59.4622 -15.9511 0.0000 0.0000 0.0000 0.0000
# 2 -15.9511 90.5465 -12.0494 0.0000 0.0000 0.0000
# 3 0.0000 -12.0494 109.8422 0.0000 0.0000 0.0000
# 4 0.0000 0.0000 0.0000 4.4064 0.0000 0.0000
# 5 0.0000 0.0000 0.0000 0.0000 30.8504 0.0000
# 6 0.0000 0.0000 0.0000 0.0000 0.0000 176.6940
#
#
#
# Elastic Compliance Matrix: (Units=1/GPa)
#
#
# Indices 1 2 3 4 5 6 
#
# 1 0.017665 0.003158 0.000346 0.000000 0.000000 0.000000
# 2 0.003158 0.011772 0.001291 0.000000 0.000000 0.000000
# 3 0.000346 0.001291 0.009246 0.000000 0.000000 0.000000
# 4 0.000000 0.000000 0.000000 0.226942 0.000000 0.000000
# 5 0.000000 0.000000 0.000000 0.000000 0.032414 0.000000
# 6 0.000000 0.000000 0.000000 0.000000 0.000000 0.005660
#
#
# Mechanical properties :
#
#
# Convention : Reuss Voigt Hill
#
# Bulk Modulus (GPa) = 20.71510 22.64998 21.68254
# Shear Modulus (GPa) = 16.11873 61.58026 38.84949
#
# Velocity S-wave (km/s) = 2.69632 5.27019 4.18599
# Velocity P-wave (km/s) = 4.36311 6.87380 5.75699
#
# Compressibility (1/GPa) = 0.04827395
#
# Stress axis : x y z
#
# Youngs Moduli (GPa) = 56.61056 84.94576 108.15915
#
# Poissons Ratio (x) = -0.26826 -0.03747
# Poissons Ratio (y) = -0.17877 -0.13967
# Poissons Ratio (z) = -0.01961 -0.10970
#
# Static dielectric constant tensor:
#      x y z
#    x 1.859250 0.000000 0.000000 
#    y 0.000000 1.880060 0.000000 
#    z 0.000000 0.000000 1.774800 
# 
# From -- ./inp_files/6907.got.cif
#   From: 2010.05.17/outbox.cif.g08.bks.cpg/sg54_4_cif.got.tgz:6907.got - 2010.06.03 13:09:01.
