data_PCOD9423167
_publ_section_title
;
Structure prediction by ZEFSAII (Michael W. Deem and Ramdas Pophale) SiO2 
 PCOD9423167
Probable space group: P C C A
;
_chemical_formula_sum "Si O2"
_cell_formula_units_Z 40
_cell_length_a 18.631553
_cell_length_b 5.148329
_cell_length_c 17.603995
_cell_angle_alpha 90.000000
_cell_angle_beta 90.000000
_cell_angle_gamma 90.000000
_cell_volume 1688.599223
_symmetry_space_group_name_H-M "P C C A"
_symmetry_group_IT_number 54
_symmetry_cell_setting 'orthorhombic'
loop_
_space_group_symop_operation_xyz
x,y,z
1/2-x,-y,z
1/2+x,-y,1/2-z
-x,y,1/2-z
-x,-y,-z
1/2+x,y,-z
1/2-x,y,1/2+z
x,-y,1/2+z
loop_
_atom_site_type_symbol
_atom_site_label
_atom_site_fract_x
_atom_site_fract_y
_atom_site_fract_z
Si Si1 0.630361 0.898979 0.659431
Si Si2 0.824451 0.135201 0.012934
Si Si3 0.750000 0.500000 0.634206
Si Si4 0.500000 0.654851 0.750000
Si Si5 0.614570 0.366357 0.365604
Si Si6 0.325298 0.142896 0.700904
O O1 0.556519 0.804173 0.695728
O O2 0.547359 0.519277 0.816584
O O3 0.652495 0.148486 0.710632
O O4 0.631185 0.940818 0.568530
O O5 0.794615 0.327666 0.075595
O O6 0.750000 0.000000 0.981360
O O7 0.872142 0.297865 0.953745
O O8 0.805736 0.308635 0.676026
O O9 0.328275 0.414650 0.658271
O O10 0.621930 0.073355 0.334224
O O11 0.250000 0.000000 0.693239
#
# Coordination Sequence:
#
# PCOD9423167 Si02
#       6
#     8   8   4   4   8   8
#     4  10  24  44  71 105 146 203 243 311 368 453
#     4  10  23  42  73 106 148 187 252 314 377 434
#     4  10  22  42  72 106 142 184 254 312 382 428
#     4  10  26  48  70 104 156 200 256 292 378 446
#     4  11  26  43  68 106 148 194 239 307 364 445
#     4  11  24  40  71 104 142 189 245 305 369 427
#
# _framework density 23.688271
#
# number of rings (size 3 to 8) (size 9 to 14) (size 15 to 20)
#    0.000    1.600    0.000    3.000   19.600    4.000 
#    0.000    1.000    0.000    0.000    0.000    0.000 
#    0.000    0.000    0.000    0.000    0.000    0.000 
#
# Total GULP energy -222705.704499 kJ/mol
# GULP energy per Si atom -5567.642612 kJ/mol
# Density = 2.363436 g / cm^3
# Si number density = 23.688271 Si / 1000 Ang^3
#
#
#
# Elastic Constant Matrix: (Units=GPa)
#
#
# Indices 1 2 3 4 5 6 
#
# 1 113.7803 18.3884 51.1663 0.0000 0.0000 0.0000
# 2 18.3884 100.7527 42.5718 0.0000 0.0000 0.0000
# 3 51.1663 42.5718 134.2965 0.0000 0.0000 0.0000
# 4 0.0000 0.0000 0.0000 25.8462 0.0000 0.0000
# 5 0.0000 0.0000 0.0000 0.0000 11.8155 0.0000
# 6 0.0000 0.0000 0.0000 0.0000 0.0000 17.8316
#
#
#
# Elastic Compliance Matrix: (Units=1/GPa)
#
#
# Indices 1 2 3 4 5 6 
#
# 1 0.010612 -0.000264 -0.003960 0.000000 0.000000 0.000000
# 2 -0.000264 0.011467 -0.003534 0.000000 0.000000 0.000000
# 3 -0.003960 -0.003534 0.010075 0.000000 0.000000 0.000000
# 4 0.000000 0.000000 0.000000 0.038690 0.000000 0.000000
# 5 0.000000 0.000000 0.000000 0.000000 0.084635 0.000000
# 6 0.000000 0.000000 0.000000 0.000000 0.000000 0.056080
#
#
# Mechanical properties :
#
#
# Convention : Reuss Voigt Hill
#
# Bulk Modulus (GPa) = 60.10126 63.67582 61.88854
# Shear Modulus (GPa) = 21.49416 26.87886 24.18651
#
# Velocity S-wave (km/s) = 3.01554 3.37217 3.19883
# Velocity P-wave (km/s) = 6.12792 6.48854 6.31081
#
# Compressibility (1/GPa) = 0.01663859
#
# Stress axis : x y z
#
# Youngs Moduli (GPa) = 94.23229 87.20764 99.25362
#
# Poissons Ratio (x) = 0.02300 0.39300
# Poissons Ratio (y) = 0.02485 0.35081
# Poissons Ratio (z) = 0.37312 0.30823
#
# Static dielectric constant tensor:
#      x y z
#    x 2.095560 0.000000 0.000000 
#    y 0.000000 2.162340 0.000000 
#    z 0.000000 0.000000 1.965940 
# 
# From -- ./inp_files/14870.got.cif
#   From: 2010.05.17/outbox.cif.g08.bks.cpg/sg54_8_cif.got.tgz:14870.got - 2010.06.03 13:09:01.
