data_PCOD9423022
_publ_section_title
;
Structure prediction by ZEFSAII (Michael W. Deem and Ramdas Pophale) SiO2 
 PCOD9423022
Probable space group: P C C A
;
_chemical_formula_sum "Si O2"
_cell_formula_units_Z 48
_cell_length_a 12.755785
_cell_length_b 9.787618
_cell_length_c 18.519074
_cell_angle_alpha 90.000000
_cell_angle_beta 90.000000
_cell_angle_gamma 90.000000
_cell_volume 2312.083256
_symmetry_space_group_name_H-M "P C C A"
_symmetry_group_IT_number 54
_symmetry_cell_setting 'orthorhombic'
loop_
_space_group_symop_operation_xyz
x,y,z
1/2-x,-y,z
1/2+x,-y,1/2-z
-x,y,1/2-z
-x,-y,-z
1/2+x,y,-z
1/2-x,y,1/2+z
x,-y,1/2+z
loop_
_atom_site_type_symbol
_atom_site_label
_atom_site_fract_x
_atom_site_fract_y
_atom_site_fract_z
Si Si1 0.423922 0.250614 0.683336
Si Si2 0.402627 0.399917 0.995558
Si Si3 0.363962 0.450391 0.156719
Si Si4 0.250000 0.500000 0.371541
Si Si5 0.202378 0.745445 0.261237
Si Si6 0.250000 0.000000 0.856249
Si Si7 0.454993 0.106366 0.942179
O O1 0.500000 0.224111 0.750000
O O2 0.434157 0.413237 0.663799
O O3 0.306013 0.230594 0.711682
O O4 0.460764 0.152800 0.618807
O O5 0.337883 0.447499 0.926390
O O6 0.433555 0.245063 0.984734
O O7 0.500000 0.500000 0.000000
O O8 0.349970 0.410978 0.073762
O O9 0.250000 0.500000 0.182803
O O10 0.384973 0.318893 0.207117
O O11 0.218592 0.627511 0.321618
O O12 0.194824 0.885088 0.306074
O O13 0.154488 0.939415 0.904429
O O14 0.500000 0.000000 0.000000
#
# Coordination Sequence:
#
# PCOD9423022 Si02
#       7
#     8   8   8   4   8   4   8
#     4  11  20  44  70  98 138 183 238 302 356 418
#     4  12  25  42  72 104 140 188 236 301 358 428
#     4  10  22  40  69 104 132 173 241 297 352 415
#     4  12  22  44  72 108 134 182 248 294 356 426
#     4  11  24  42  75 101 135 194 239 298 366 432
#     4  12  26  48  70 104 154 196 238 300 380 442
#     4  12  29  46  70 106 150 199 236 295 373 450
#
# _framework density 20.760497000000001
#
# number of rings (size 3 to 8) (size 9 to 14) (size 15 to 20)
#    0.000    0.667    8.333    0.000    2.333    4.000 
#    0.000    0.000    0.000    0.000    0.000    0.000 
#    0.000    0.000    0.000    0.000    0.000    0.000 
#
# Total GULP energy -267880.428668 kJ/mol
# GULP energy per Si atom -5580.842264 kJ/mol
# Density = 2.071324 g / cm^3
# Si number density = 20.760497 Si / 1000 Ang^3
#
#
#
# Elastic Constant Matrix: (Units=GPa)
#
#
# Indices 1 2 3 4 5 6 
#
# 1 47.4726 33.3068 28.9960 0.0000 0.0000 0.0000
# 2 33.3068 158.8255 71.3499 0.0000 0.0000 0.0000
# 3 28.9960 71.3499 158.3160 0.0000 0.0000 0.0000
# 4 0.0000 0.0000 0.0000 57.8184 0.0000 0.0000
# 5 0.0000 0.0000 0.0000 0.0000 13.8626 0.0000
# 6 0.0000 0.0000 0.0000 0.0000 0.0000 28.8157
#
#
#
# Elastic Compliance Matrix: (Units=1/GPa)
#
#
# Indices 1 2 3 4 5 6 
#
# 1 0.025688 -0.004104 -0.002855 0.000000 0.000000 0.000000
# 2 -0.004104 0.008550 -0.003102 0.000000 0.000000 0.000000
# 3 -0.002855 -0.003102 0.008237 0.000000 0.000000 0.000000
# 4 0.000000 0.000000 0.000000 0.017296 0.000000 0.000000
# 5 0.000000 0.000000 0.000000 0.000000 0.072137 0.000000
# 6 0.000000 0.000000 0.000000 0.000000 0.000000 0.034703
#
#
# Mechanical properties :
#
#
# Convention : Reuss Voigt Hill
#
# Bulk Modulus (GPa) = 44.73579 70.21329 57.47454
# Shear Modulus (GPa) = 25.74862 35.49676 30.62269
#
# Velocity S-wave (km/s) = 3.52557 4.13949 3.84480
# Velocity P-wave (km/s) = 6.17804 7.53267 6.88873
#
# Compressibility (1/GPa) = 0.02235347
#
# Stress axis : x y z
#
# Youngs Moduli (GPa) = 38.92816 116.95433 121.39902
#
# Poissons Ratio (x) = 0.48003 0.34661
# Poissons Ratio (y) = 0.15978 0.37655
# Poissons Ratio (z) = 0.11114 0.36276
#
# Static dielectric constant tensor:
#      x y z
#    x 1.791990 0.000000 0.000000 
#    y 0.000000 1.742830 0.000000 
#    z 0.000000 0.000000 1.746710 
# 
# From -- ./inp_files/18092.got.cif
#   From: 2010.05.17/outbox.cif.g08.bks.cpg/sg54_10_cif.got.tgz:18092.got - 2010.06.03 13:09:01.
