data_PCOD9423959
_publ_section_title
;
Structure prediction by ZEFSAII (Michael W. Deem and Ramdas Pophale) SiO2 
 PCOD9423959
Probable space group: P C C A
;
_chemical_formula_sum "Si O2"
_cell_formula_units_Z 48
_cell_length_a 7.291159
_cell_length_b 15.197161
_cell_length_c 19.446274
_cell_angle_alpha 90.000000
_cell_angle_beta 90.000000
_cell_angle_gamma 90.000000
_cell_volume 2154.742780
_symmetry_space_group_name_H-M "P C C A"
_symmetry_group_IT_number 54
_symmetry_cell_setting 'orthorhombic'
loop_
_space_group_symop_operation_xyz
x,y,z
1/2-x,-y,z
1/2+x,-y,1/2-z
-x,y,1/2-z
-x,-y,-z
1/2+x,y,-z
1/2-x,y,1/2+z
x,-y,1/2+z
loop_
_atom_site_type_symbol
_atom_site_label
_atom_site_fract_x
_atom_site_fract_y
_atom_site_fract_z
Si Si1 0.405926 0.775710 0.372987
Si Si2 0.753508 0.308090 0.007440
Si Si3 0.032000 0.565000 0.064584
Si Si4 0.750000 0.500000 0.813448
Si Si5 0.877827 0.080686 0.583013
Si Si6 0.500000 0.646061 0.250000
Si Si7 0.780740 0.124778 0.430618
O O1 0.422532 0.712880 0.440317
O O2 0.217770 0.830399 0.387408
O O3 0.430476 0.712122 0.309441
O O4 0.563079 0.850593 0.376432
O O5 0.612621 0.354887 0.060253
O O6 0.782550 0.384672 0.953334
O O7 0.767753 0.219082 0.963686
O O8 0.074069 0.523715 0.137939
O O9 0.000000 0.500000 0.000000
O O10 0.670331 0.417067 0.771525
O O11 0.865408 0.080920 0.499275
O O12 0.750000 0.000000 0.606372
O O13 0.095423 0.080667 0.597398
#
# Coordination Sequence:
#
# PCOD9423959 Si02
#       7
#     8   8   8   4   8   4   8
#     4  11  24  43  65  91 142 181 229 272 336 425
#     4  11  19  36  61  94 128 162 218 277 355 417
#     4  12  21  36  63  95 125 163 223 304 363 417
#     4  12  28  46  64  98 134 180 250 300 370 416
#     4  11  22  38  70 111 143 168 218 286 363 418
#     4  12  30  50  62  92 134 194 240 288 336 426
#     4  11  20  37  64 107 137 176 208 278 353 422
#
# _framework density 22.276440000000001
#
# number of rings (size 3 to 8) (size 9 to 14) (size 15 to 20)
#    0.000    0.667    6.667    3.500    2.333    0.000 
#    0.000    0.000    3.667    0.000    0.000    0.000 
#    0.000    0.000    0.000    0.000    0.000    0.000 
#
# Total GULP energy -267314.074145 kJ/mol
# GULP energy per Si atom -5569.043211 kJ/mol
# Density = 2.222574 g / cm^3
# Si number density = 22.276440 Si / 1000 Ang^3
#
#
#
# Elastic Constant Matrix: (Units=GPa)
#
#
# Indices 1 2 3 4 5 6 
#
# 1 102.5877 24.8148 -3.9601 0.0000 0.0000 0.0000
# 2 24.8148 109.9945 26.9432 0.0000 0.0000 0.0000
# 3 -3.9601 26.9432 56.7868 0.0000 0.0000 0.0000
# 4 0.0000 0.0000 0.0000 36.8122 0.0000 0.0000
# 5 0.0000 0.0000 0.0000 0.0000 20.9850 0.0000
# 6 0.0000 0.0000 0.0000 0.0000 0.0000 52.7877
#
#
#
# Elastic Compliance Matrix: (Units=1/GPa)
#
#
# Indices 1 2 3 4 5 6 
#
# 1 0.010528 -0.002891 0.002106 0.000000 0.000000 0.000000
# 2 -0.002891 0.011081 -0.005459 0.000000 0.000000 0.000000
# 3 0.002106 -0.005459 0.020347 0.000000 0.000000 0.000000
# 4 0.000000 0.000000 0.000000 0.027165 0.000000 0.000000
# 5 0.000000 0.000000 0.000000 0.000000 0.047653 0.000000
# 6 0.000000 0.000000 0.000000 0.000000 0.000000 0.018944
#
#
# Mechanical properties :
#
#
# Convention : Reuss Voigt Hill
#
# Bulk Modulus (GPa) = 33.93570 40.55164 37.24367
# Shear Modulus (GPa) = 31.63989 36.88840 34.26415
#
# Velocity S-wave (km/s) = 3.77281 4.07374 3.92616
# Velocity P-wave (km/s) = 5.85199 6.35377 6.10804
#
# Compressibility (1/GPa) = 0.02946749
#
# Stress axis : x y z
#
# Youngs Moduli (GPa) = 94.98157 90.24642 49.14809
#
# Poissons Ratio (x) = 0.26091 -0.10350
# Poissons Ratio (y) = 0.27460 0.26830
# Poissons Ratio (z) = -0.20002 0.49266
#
# Static dielectric constant tensor:
#      x y z
#    x 2.218160 0.000000 0.000000 
#    y 0.000000 1.908230 0.000000 
#    z 0.000000 0.000000 1.854380 
# 
# From -- ./inp_files/16681.got.cif
#   From: 2010.05.17/outbox.cif.g08.bks.cpg/sg54_9_cif.got.tgz:16681.got - 2010.06.03 13:09:01.
