data_PCOD9423307
_publ_section_title
;
Structure prediction by ZEFSAII (Michael W. Deem and Ramdas Pophale) SiO2 
 PCOD9423307
Probable space group: P C C A
;
_chemical_formula_sum "Si O2"
_cell_formula_units_Z 60
_cell_length_a 27.042548
_cell_length_b 8.794582
_cell_length_c 10.469596
_cell_angle_alpha 90.000000
_cell_angle_beta 90.000000
_cell_angle_gamma 90.000000
_cell_volume 2489.962092
_symmetry_space_group_name_H-M "P C C A"
_symmetry_group_IT_number 54
_symmetry_cell_setting 'orthorhombic'
loop_
_space_group_symop_operation_xyz
x,y,z
1/2-x,-y,z
1/2+x,-y,1/2-z
-x,y,1/2-z
-x,-y,-z
1/2+x,y,-z
1/2-x,y,1/2+z
x,-y,1/2+z
loop_
_atom_site_type_symbol
_atom_site_label
_atom_site_fract_x
_atom_site_fract_y
_atom_site_fract_z
Si Si1 0.500000 0.143618 0.750000
Si Si2 0.560816 0.899418 0.581545
Si Si3 0.397882 0.644264 0.743679
Si Si4 0.267970 0.824483 0.929391
Si Si5 0.645612 0.908876 0.387528
Si Si6 0.697491 0.228783 0.346773
Si Si7 0.024281 0.660299 0.035797
Si Si8 0.408517 0.303380 0.799651
O O1 0.456695 0.263587 0.712233
O O2 0.533387 0.027308 0.665658
O O3 0.596244 0.789397 0.664481
O O4 0.595122 0.953796 0.463719
O O5 0.516224 0.791238 0.539683
O O6 0.350830 0.668763 0.654975
O O7 0.449392 0.643059 0.670212
O O8 0.391786 0.477043 0.799234
O O9 0.274296 0.754744 0.788634
O O10 0.250000 0.000000 0.913327
O O11 0.319011 0.824900 0.010458
O O12 0.270692 0.251506 0.026525
O O13 0.631925 0.808686 0.262738
O O14 0.676575 0.056218 0.347984
O O15 0.067666 0.709685 0.939286
O O16 0.000000 0.500000 0.000000
#
# Coordination Sequence:
#
# PCOD9423307 Si02
#       8
#     4   8   8   8   8   8   8   8
#     4  12  26  44  64 108 152 198 260 308 358 440
#     4  12  24  44  73 103 153 199 256 313 370 445
#     4  12  25  46  70 106 146 207 250 312 382 460
#     4  10  22  45  79 111 145 184 240 323 397 460
#     4  11  25  45  72 109 149 189 250 311 384 465
#     4  11  25  47  81 109 146 188 251 318 396 465
#     4  12  25  43  70 101 152 208 256 306 371 447
#     4  12  28  42  67 103 152 202 257 305 377 443
#
# _framework density 24.096753
#
# number of rings (size 3 to 8) (size 9 to 14) (size 15 to 20)
#    0.000    0.533    4.000    4.400    1.867    3.200 
#    0.000    0.667    0.000    4.800    0.000    0.000 
#    0.000    0.000    0.000    0.000    0.000    0.000 
#
# Total GULP energy -335466.201185 kJ/mol
# GULP energy per Si atom -5591.103353 kJ/mol
# Density = 2.404191 g / cm^3
# Si number density = 24.096753 Si / 1000 Ang^3
#
#
#
# Elastic Constant Matrix: (Units=GPa)
#
#
# Indices 1 2 3 4 5 6 
#
# 1 105.0488 11.4907 32.9194 0.0000 0.0000 0.0000
# 2 11.4907 78.5381 15.1328 0.0000 0.0000 0.0000
# 3 32.9194 15.1328 90.0444 0.0000 0.0000 0.0000
# 4 0.0000 0.0000 0.0000 26.9349 0.0000 0.0000
# 5 0.0000 0.0000 0.0000 0.0000 66.1849 0.0000
# 6 0.0000 0.0000 0.0000 0.0000 0.0000 18.2627
#
#
#
# Elastic Compliance Matrix: (Units=1/GPa)
#
#
# Indices 1 2 3 4 5 6 
#
# 1 0.010805 -0.000847 -0.003808 0.000000 0.000000 0.000000
# 2 -0.000847 0.013225 -0.001913 0.000000 0.000000 0.000000
# 3 -0.003808 -0.001913 0.012819 0.000000 0.000000 0.000000
# 4 0.000000 0.000000 0.000000 0.037127 0.000000 0.000000
# 5 0.000000 0.000000 0.000000 0.000000 0.015109 0.000000
# 6 0.000000 0.000000 0.000000 0.000000 0.000000 0.054756
#
#
# Mechanical properties :
#
#
# Convention : Reuss Voigt Hill
#
# Bulk Modulus (GPa) = 42.16965 43.63526 42.90246
# Shear Modulus (GPa) = 30.32458 36.54906 33.43682
#
# Velocity S-wave (km/s) = 3.55131 3.89879 3.72910
# Velocity P-wave (km/s) = 5.86122 6.19799 6.03196
#
# Compressibility (1/GPa) = 0.02371374
#
# Stress axis : x y z
#
# Youngs Moduli (GPa) = 92.54663 75.61325 78.00754
#
# Poissons Ratio (x) = 0.06406 0.29705
# Poissons Ratio (y) = 0.07840 0.14922
# Poissons Ratio (z) = 0.35241 0.14464
#
# Static dielectric constant tensor:
#      x y z
#    x 1.924300 0.000000 0.000000 
#    y 0.000000 1.904960 0.000000 
#    z 0.000000 0.000000 2.066230 
# 
# From -- ./inp_files/10367.got.cif
#   From: 2010.05.17/outbox.cif.g08.bks.cpg/sg54_6_cif.got.tgz:10367.got - 2010.06.03 13:09:01.
