data_PCOD9423476
_publ_section_title
;
Structure prediction by ZEFSAII (Michael W. Deem and Ramdas Pophale) SiO2 
 PCOD9423476
Probable space group: P C C A
;
_chemical_formula_sum "Si O2"
_cell_formula_units_Z 64
_cell_length_a 23.626187
_cell_length_b 14.273879
_cell_length_c 8.537478
_cell_angle_alpha 90.000000
_cell_angle_beta 90.000000
_cell_angle_gamma 90.000000
_cell_volume 2879.156324
_symmetry_space_group_name_H-M "P C C A"
_symmetry_group_IT_number 54
_symmetry_cell_setting 'orthorhombic'
loop_
_space_group_symop_operation_xyz
x,y,z
1/2-x,-y,z
1/2+x,-y,1/2-z
-x,y,1/2-z
-x,-y,-z
1/2+x,y,-z
1/2-x,y,1/2+z
x,-y,1/2+z
loop_
_atom_site_type_symbol
_atom_site_label
_atom_site_fract_x
_atom_site_fract_y
_atom_site_fract_z
Si Si1 0.337444 0.368983 0.668125
Si Si2 0.910543 0.114217 0.684845
Si Si3 0.872744 0.726192 0.387232
Si Si4 0.944742 0.943568 0.858541
Si Si5 0.685742 0.539448 0.996061
Si Si6 0.066892 0.241397 0.289123
Si Si7 0.712691 0.088704 0.069619
Si Si8 0.247111 0.792723 0.166257
O O1 0.347206 0.443673 0.532830
O O2 0.319723 0.422560 0.828241
O O3 0.395105 0.314228 0.694915
O O4 0.286332 0.296488 0.640837
O O5 0.902638 0.221987 0.739082
O O6 0.951913 0.091904 0.537516
O O7 0.851584 0.077671 0.615296
O O8 0.921283 0.047954 0.834997
O O9 0.844406 0.621446 0.390572
O O10 0.915633 0.739209 0.531541
O O11 0.815049 0.785807 0.409952
O O12 0.911706 0.860318 0.769812
O O13 0.000000 0.945821 0.750000
O O14 0.750000 0.500000 0.963606
O O15 0.000000 0.250041 0.250000
O O16 0.733319 0.184562 0.154036
O O17 0.750000 0.000000 0.105481
O O18 0.720745 0.115452 0.890895
#
# Coordination Sequence:
#
# PCOD9423476 Si02
#       8
#     8   8   8   8   8   8   8   8
#     4  11  24  40  68  98 137 179 238 289 355 417
#     4  11  25  39  67  98 135 179 229 291 349 410
#     4  10  23  43  65  99 139 177 233 291 354 425
#     4  11  24  44  68  96 131 183 242 294 345 413
#     4  11  22  40  67 101 139 182 228 283 354 427
#     4  10  23  45  69  94 135 187 235 294 354 418
#     4  11  25  36  60  91 139 183 225 265 347 423
#     4  11  23  40  59  95 137 182 223 293 342 417
#
# _framework density 22.228732999999998
#
# number of rings (size 3 to 8) (size 9 to 14) (size 15 to 20)
#    0.000    1.250    1.250    4.125    8.750    3.000 
#    0.000    2.500    0.000    0.750    0.000    0.000 
#    0.000    0.000    0.000    0.000    0.000    0.000 
#
# Total GULP energy -356821.000352 kJ/mol
# GULP energy per Si atom -5575.328130 kJ/mol
# Density = 2.217814 g / cm^3
# Si number density = 22.228733 Si / 1000 Ang^3
#
#
#
# Elastic Constant Matrix: (Units=GPa)
#
#
# Indices 1 2 3 4 5 6 
#
# 1 104.9974 37.0832 39.2017 0.0000 0.0000 0.0000
# 2 37.0832 118.6314 39.5311 0.0000 0.0000 0.0000
# 3 39.2017 39.5311 74.7187 0.0000 0.0000 0.0000
# 4 0.0000 0.0000 0.0000 6.9333 0.0000 0.0000
# 5 0.0000 0.0000 0.0000 0.0000 27.0285 0.0000
# 6 0.0000 0.0000 0.0000 0.0000 0.0000 29.5436
#
#
#
# Elastic Compliance Matrix: (Units=1/GPa)
#
#
# Indices 1 2 3 4 5 6 
#
# 1 0.012240 -0.002047 -0.005339 0.000000 0.000000 0.000000
# 2 -0.002047 0.010576 -0.004521 0.000000 0.000000 0.000000
# 3 -0.005339 -0.004521 0.018577 0.000000 0.000000 0.000000
# 4 0.000000 0.000000 0.000000 0.144231 0.000000 0.000000
# 5 0.000000 0.000000 0.000000 0.000000 0.036998 0.000000
# 6 0.000000 0.000000 0.000000 0.000000 0.000000 0.033848
#
#
# Mechanical properties :
#
#
# Convention : Reuss Voigt Hill
#
# Bulk Modulus (GPa) = 56.88848 58.88663 57.88755
# Shear Modulus (GPa) = 17.47366 24.86984 21.17175
#
# Velocity S-wave (km/s) = 2.80676 3.34850 3.08953
# Velocity P-wave (km/s) = 6.01263 6.44194 6.23099
#
# Compressibility (1/GPa) = 0.01757825
#
# Stress axis : x y z
#
# Youngs Moduli (GPa) = 81.69663 94.55345 53.83080
#
# Poissons Ratio (x) = 0.19357 0.28740
# Poissons Ratio (y) = 0.16725 0.24339
# Poissons Ratio (z) = 0.43617 0.42751
#
# Static dielectric constant tensor:
#      x y z
#    x 1.870280 0.000000 0.000000 
#    y 0.000000 1.867600 0.000000 
#    z 0.000000 0.000000 1.895980 
# 
# From -- ./inp_files/5306.got.cif
#   From: 2010.05.17/outbox.cif.g08.bks.cpg/sg54_3_cif.got.tgz:5306.got - 2010.06.03 13:09:01.
