data_PCOD9423718
_publ_section_title
;
Structure prediction by ZEFSAII (Michael W. Deem and Ramdas Pophale) SiO2 
 PCOD9423718
Probable space group: P C C A
;
_chemical_formula_sum "Si O2"
_cell_formula_units_Z 48
_cell_length_a 8.268027
_cell_length_b 18.034715
_cell_length_c 14.555923
_cell_angle_alpha 90.000000
_cell_angle_beta 90.000000
_cell_angle_gamma 90.000000
_cell_volume 2170.455666
_symmetry_space_group_name_H-M "P C C A"
_symmetry_group_IT_number 54
_symmetry_cell_setting 'orthorhombic'
loop_
_space_group_symop_operation_xyz
x,y,z
1/2-x,-y,z
1/2+x,-y,1/2-z
-x,y,1/2-z
-x,-y,-z
1/2+x,y,-z
1/2-x,y,1/2+z
x,-y,1/2+z
loop_
_atom_site_type_symbol
_atom_site_label
_atom_site_fract_x
_atom_site_fract_y
_atom_site_fract_z
Si Si1 0.322009 0.076726 0.705214
Si Si2 0.169597 0.419740 0.450343
Si Si3 0.345604 0.350839 0.603291
Si Si4 0.331714 0.668560 0.788396
Si Si5 0.186368 0.168992 0.864796
Si Si6 0.453589 0.814500 0.054632
O O1 0.500000 0.066080 0.750000
O O2 0.206996 0.107255 0.786712
O O3 0.346411 0.137053 0.625084
O O4 0.250000 0.000000 0.669671
O O5 0.250000 0.500000 0.453544
O O6 0.190155 0.379721 0.548119
O O7 0.274062 0.373187 0.378177
O O8 0.986412 0.410604 0.416040
O O9 0.302114 0.340053 0.709131
O O10 0.401328 0.271371 0.563560
O O11 0.500000 0.638724 0.750000
O O12 0.352702 0.754185 0.814750
O O13 0.362852 0.178795 0.911375
O O14 0.067272 0.157771 0.950363
#
# Coordination Sequence:
#
# PCOD9423718 Si02
#       6
#     8   8   8   8   8   8
#     4  10  24  44  67 101 143 179 226 284 354 409
#     4  12  27  45  69 102 140 181 229 293 361 411
#     4  12  23  45  71  96 140 183 233 291 340 421
#     4  12  26  41  69 102 134 184 241 281 348 418
#     4  11  24  42  68 101 134 178 235 285 340 409
#     4  11  22  41  71  98 131 184 233 280 341 413
#
# _framework density 22.115172999999999
#
# number of rings (size 3 to 8) (size 9 to 14) (size 15 to 20)
#    0.000    0.667    5.000    2.000    2.333    4.667 
#    0.000    3.333    0.000    0.000    0.000    0.000 
#    0.000    0.000    0.000    0.000    0.000    0.000 
#
# Total GULP energy -268781.041519 kJ/mol
# GULP energy per Si atom -5599.605032 kJ/mol
# Density = 2.206484 g / cm^3
# Si number density = 22.115173 Si / 1000 Ang^3
#
#
#
# Elastic Constant Matrix: (Units=GPa)
#
#
# Indices 1 2 3 4 5 6 
#
# 1 61.8458 7.9457 23.0578 0.0000 0.0000 0.0000
# 2 7.9457 72.3457 23.6188 0.0000 0.0000 0.0000
# 3 23.0578 23.6188 104.7510 0.0000 0.0000 0.0000
# 4 0.0000 0.0000 0.0000 38.6440 0.0000 0.0000
# 5 0.0000 0.0000 0.0000 0.0000 41.9670 0.0000
# 6 0.0000 0.0000 0.0000 0.0000 0.0000 19.1003
#
#
#
# Elastic Compliance Matrix: (Units=1/GPa)
#
#
# Indices 1 2 3 4 5 6 
#
# 1 0.017650 -0.000723 -0.003722 0.000000 0.000000 0.000000
# 2 -0.000723 0.014951 -0.003212 0.000000 0.000000 0.000000
# 3 -0.003722 -0.003212 0.011090 0.000000 0.000000 0.000000
# 4 0.000000 0.000000 0.000000 0.025877 0.000000 0.000000
# 5 0.000000 0.000000 0.000000 0.000000 0.023828 0.000000
# 6 0.000000 0.000000 0.000000 0.000000 0.000000 0.052355
#
#
# Mechanical properties :
#
#
# Convention : Reuss Voigt Hill
#
# Bulk Modulus (GPa) = 35.24097 38.68747 36.96422
# Shear Modulus (GPa) = 29.32140 32.23026 30.77583
#
# Velocity S-wave (km/s) = 3.64517 3.82171 3.73448
# Velocity P-wave (km/s) = 5.80398 6.08322 5.94524
#
# Compressibility (1/GPa) = 0.02837606
#
# Stress axis : x y z
#
# Youngs Moduli (GPa) = 56.65768 66.88732 90.17209
#
# Poissons Ratio (x) = 0.04838 0.33562
# Poissons Ratio (y) = 0.04098 0.28961
# Poissons Ratio (z) = 0.21088 0.21483
#
# Static dielectric constant tensor:
#      x y z
#    x 1.847970 0.000000 0.000000 
#    y 0.000000 1.774940 0.000000 
#    z 0.000000 0.000000 1.786400 
# 
# From -- ./inp_files/11693.got.cif
#   From: 2010.05.17/outbox.cif.g08.bks.cpg/sg54_6_cif.got.tgz:11693.got - 2010.06.03 13:09:01.
