data_PCOD9423292
_publ_section_title
;
Structure prediction by ZEFSAII (Michael W. Deem and Ramdas Pophale) SiO2 
 PCOD9423292
Probable space group: P C C A
;
_chemical_formula_sum "Si O2"
_cell_formula_units_Z 32
_cell_length_a 17.340207
_cell_length_b 4.534225
_cell_length_c 12.638607
_cell_angle_alpha 90.000000
_cell_angle_beta 90.000000
_cell_angle_gamma 90.000000
_cell_volume 993.702893
_symmetry_space_group_name_H-M "P C C A"
_symmetry_group_IT_number 54
_symmetry_cell_setting 'orthorhombic'
loop_
_space_group_symop_operation_xyz
x,y,z
1/2-x,-y,z
1/2+x,-y,1/2-z
-x,y,1/2-z
-x,-y,-z
1/2+x,y,-z
1/2-x,y,1/2+z
x,-y,1/2+z
loop_
_atom_site_type_symbol
_atom_site_label
_atom_site_fract_x
_atom_site_fract_y
_atom_site_fract_z
Si Si1 0.448009 0.245116 0.670405
Si Si2 0.671735 0.861131 0.944118
Si Si3 0.330295 0.364666 0.294114
Si Si4 0.562260 0.308835 0.028318
O O1 0.500000 0.060525 0.750000
O O2 0.392755 0.403658 0.751613
O O3 0.493323 0.482720 0.594670
O O4 0.389568 0.125159 0.581176
O O5 0.689188 0.776401 0.821154
O O6 0.750000 0.000000 0.987851
O O7 0.629825 0.598267 0.004434
O O8 0.250000 0.500000 0.332083
O O9 0.379802 0.177404 0.377736
O O10 0.500000 0.000000 0.000000
#
# Coordination Sequence:
#
# PCOD9423292 Si02
#       4
#     8   8   8   8
#     4  10  22  45  70 100 150 184 249 305 380 449
#     4  10  23  43  66 106 145 189 249 310 369 461
#     4  12  22  43  75 100 141 198 239 313 384 451
#     4  10  23  45  71 103 146 196 249 306 389 460
#
# _framework density 32.202787000000001
#
# number of rings (size 3 to 8) (size 9 to 14) (size 15 to 20)
#    1.500    0.000    5.000    0.000    0.000    5.000 
#    4.500    2.500    0.000    0.000    0.000    0.000 
#    0.000    0.000    0.000    0.000    0.000    0.000 
#
# Total GULP energy -178244.909454 kJ/mol
# GULP energy per Si atom -5570.153420 kJ/mol
# Density = 3.212949 g / cm^3
# Si number density = 32.202787 Si / 1000 Ang^3
#
#
#
# Elastic Constant Matrix: (Units=GPa)
#
#
# Indices 1 2 3 4 5 6 
#
# 1 306.5315 107.5314 126.1871 0.0000 0.0000 0.0000
# 2 107.5314 204.5299 60.1069 0.0000 0.0000 0.0000
# 3 126.1871 60.1069 186.0484 0.0000 0.0000 0.0000
# 4 0.0000 0.0000 0.0000 46.8323 0.0000 0.0000
# 5 0.0000 0.0000 0.0000 0.0000 89.6213 0.0000
# 6 0.0000 0.0000 0.0000 0.0000 0.0000 87.7043
#
#
#
# Elastic Compliance Matrix: (Units=1/GPa)
#
#
# Indices 1 2 3 4 5 6 
#
# 1 0.005080 -0.001832 -0.002853 0.000000 0.000000 0.000000
# 2 -0.001832 0.006063 -0.000716 0.000000 0.000000 0.000000
# 3 -0.002853 -0.000716 0.007542 0.000000 0.000000 0.000000
# 4 0.000000 0.000000 0.000000 0.021353 0.000000 0.000000
# 5 0.000000 0.000000 0.000000 0.000000 0.011158 0.000000
# 6 0.000000 0.000000 0.000000 0.000000 0.000000 0.011402
#
#
# Mechanical properties :
#
#
# Convention : Reuss Voigt Hill
#
# Bulk Modulus (GPa) = 126.88776 142.75119 134.81947
# Shear Modulus (GPa) = 65.76603 71.71721 68.74162
#
# Velocity S-wave (km/s) = 4.52402 4.72428 4.62524
# Velocity P-wave (km/s) = 8.17174 8.61299 8.39526
#
# Compressibility (1/GPa) = 0.00788098
#
# Stress axis : x y z
#
# Youngs Moduli (GPa) = 196.86551 164.93677 132.59778
#
# Poissons Ratio (x) = 0.30217 0.37835
# Poissons Ratio (y) = 0.36067 0.09496
# Poissons Ratio (z) = 0.56173 0.11812
#
# Static dielectric constant tensor:
#      x y z
#    x 2.624040 0.000000 0.000000 
#    y 0.000000 4.211320 0.000000 
#    z 0.000000 0.000000 3.383920 
# 
# From -- ./inp_files/13796.got.cif
#   From: 2010.05.17/outbox.cif.g08.bks.cpg/sg54_7_cif.got.tgz:13796.got - 2010.06.03 13:09:01.
