data_PCOD9423078
_publ_section_title
;
Structure prediction by ZEFSAII (Michael W. Deem and Ramdas Pophale) SiO2 
 PCOD9423078
Probable space group: P C C A
;
_chemical_formula_sum "Si O2"
_cell_formula_units_Z 52
_cell_length_a 21.059733
_cell_length_b 8.055341
_cell_length_c 15.460304
_cell_angle_alpha 90.000000
_cell_angle_beta 90.000000
_cell_angle_gamma 90.000000
_cell_volume 2622.737464
_symmetry_space_group_name_H-M "P C C A"
_symmetry_group_IT_number 54
_symmetry_cell_setting 'orthorhombic'
loop_
_space_group_symop_operation_xyz
x,y,z
1/2-x,-y,z
1/2+x,-y,1/2-z
-x,y,1/2-z
-x,-y,-z
1/2+x,y,-z
1/2-x,y,1/2+z
x,-y,1/2+z
loop_
_atom_site_type_symbol
_atom_site_label
_atom_site_fract_x
_atom_site_fract_y
_atom_site_fract_z
Si Si1 0.571916 0.442952 0.252559
Si Si2 0.750000 0.500000 0.991896
Si Si3 0.930944 0.166715 0.283211
Si Si4 0.073453 0.032349 0.023097
Si Si5 0.317695 0.054155 0.262684
Si Si6 0.345959 0.752122 0.601544
Si Si7 0.359644 0.690789 0.902844
O O1 0.500000 0.377894 0.250000
O O2 0.573311 0.636053 0.277059
O O3 0.608577 0.346295 0.330100
O O4 0.595667 0.432397 0.152525
O O5 0.793239 0.370981 0.937238
O O6 0.697356 0.399653 0.047287
O O7 0.000000 0.112378 0.250000
O O8 0.925012 0.107976 0.381116
O O9 0.873810 0.079469 0.231774
O O10 0.113426 0.859123 0.031610
O O11 0.104132 0.173293 0.961623
O O12 0.000000 0.000000 0.000000
O O13 0.312650 0.113717 0.163765
O O14 0.333492 0.207355 0.322288
O O15 0.250000 0.000000 0.294096
#
# Coordination Sequence:
#
# PCOD9423078 Si02
#       7
#     8   4   8   8   8   8   8
#     4  10  22  44  68  95 129 170 224 271 332 395
#     4  12  28  42  62  98 144 172 218 264 338 400
#     4  10  22  41  68  95 128 173 219 267 328 405
#     4  11  23  42  69 100 131 167 221 281 336 382
#     4  10  24  40  65  89 122 173 219 262 313 397
#     4  10  25  41  65  90 130 179 209 264 325 403
#     4  11  26  40  63  97 130 172 213 279 324 386
#
# _framework density 19.826612000000001
#
# number of rings (size 3 to 8) (size 9 to 14) (size 15 to 20)
#    0.000    1.538    0.000    2.769   10.769    8.000 
#    0.000    5.385    0.000    0.000    0.000    0.000 
#    0.000    0.000    0.000    0.000    0.000    0.000 
#
# Total GULP energy -289972.475024 kJ/mol
# GULP energy per Si atom -5576.393750 kJ/mol
# Density = 1.978149 g / cm^3
# Si number density = 19.826612 Si / 1000 Ang^3
#
#
#
# Elastic Constant Matrix: (Units=GPa)
#
#
# Indices 1 2 3 4 5 6 
#
# 1 129.1900 46.0706 45.6442 0.0000 0.0000 0.0000
# 2 46.0706 74.5920 29.0853 0.0000 0.0000 0.0000
# 3 45.6442 29.0853 76.8582 0.0000 0.0000 0.0000
# 4 0.0000 0.0000 0.0000 18.8283 0.0000 0.0000
# 5 0.0000 0.0000 0.0000 0.0000 89.8226 0.0000
# 6 0.0000 0.0000 0.0000 0.0000 0.0000 -7.0367
#
#
#
# Elastic Compliance Matrix: (Units=1/GPa)
#
#
# Indices 1 2 3 4 5 6 
#
# 1 0.011231 -0.005086 -0.004745 0.000000 0.000000 0.000000
# 2 -0.005086 0.018031 -0.003803 0.000000 0.000000 0.000000
# 3 -0.004745 -0.003803 0.017268 0.000000 0.000000 0.000000
# 4 0.000000 0.000000 0.000000 0.053112 0.000000 0.000000
# 5 0.000000 0.000000 0.000000 0.000000 0.011133 0.000000
# 6 0.000000 0.000000 0.000000 0.000000 0.000000 -0.142113
#
#
# Mechanical properties :
#
#
# Convention : Reuss Voigt Hill
#
# Bulk Modulus (GPa) = 51.91708 58.02674 54.97191
# Shear Modulus (GPa) = 2128.67276 30.97885 1079.82581
#
# Velocity S-wave (km/s) = 32.80206 3.95712 23.36272
# Velocity P-wave (km/s) = 38.22140 7.08583 27.48713
#
# Compressibility (1/GPa) = 0.01926148
#
# Stress axis : x y z
#
# Youngs Moduli (GPa) = 89.04074 55.46152 57.91114
#
# Poissons Ratio (x) = 0.28210 0.27478
# Poissons Ratio (y) = 0.45290 0.22021
# Poissons Ratio (z) = 0.42249 0.21090
#
# Static dielectric constant tensor:
#      x y z
#    x 1.881720 0.000000 0.000000 
#    y 0.000000 1.739740 0.000000 
#    z 0.000000 0.000000 1.716170 
# 
# From -- ./inp_files/14627.got.cif
#   From: 2010.05.17/outbox.cif.g08.bks.cpg/sg54_8_cif.got.tgz:14627.got - 2010.06.03 13:09:01.
