data_PCOD9423801
_publ_section_title
;
Structure prediction by ZEFSAII (Michael W. Deem and Ramdas Pophale) SiO2 
 PCOD9423801
Probable space group: P C C A
;
_chemical_formula_sum "Si O2"
_cell_formula_units_Z 56
_cell_length_a 20.941923
_cell_length_b 8.433680
_cell_length_c 14.246608
_cell_angle_alpha 90.000000
_cell_angle_beta 90.000000
_cell_angle_gamma 90.000000
_cell_volume 2516.199963
_symmetry_space_group_name_H-M "P C C A"
_symmetry_group_IT_number 54
_symmetry_cell_setting 'orthorhombic'
loop_
_space_group_symop_operation_xyz
x,y,z
1/2-x,-y,z
1/2+x,-y,1/2-z
-x,y,1/2-z
-x,-y,-z
1/2+x,y,-z
1/2-x,y,1/2+z
x,-y,1/2+z
loop_
_atom_site_type_symbol
_atom_site_label
_atom_site_fract_x
_atom_site_fract_y
_atom_site_fract_z
Si Si1 0.750000 0.500000 0.672478
Si Si2 0.391379 0.719403 0.705263
Si Si3 0.423400 0.482144 0.017666
Si Si4 0.389230 0.568150 0.311589
Si Si5 0.530784 0.960641 0.882953
Si Si6 0.500000 0.221325 0.750000
Si Si7 0.206536 0.158287 0.835872
Si Si8 0.592554 0.160511 0.022436
O O1 0.683867 0.447325 0.722115
O O2 0.733834 0.671388 0.625164
O O3 0.402479 0.618770 0.609297
O O4 0.413983 0.608364 0.790574
O O5 0.437430 0.867400 0.700665
O O6 0.322000 0.787538 0.734313
O O7 0.394544 0.404681 0.922505
O O8 0.398778 0.664160 0.020010
O O9 0.500000 0.500000 0.000000
O O10 0.435392 0.679251 0.253411
O O11 0.479140 0.855680 0.935938
O O12 0.498300 0.116807 0.842895
O O13 0.589242 0.020486 0.946467
O O14 0.145968 0.122982 0.901376
O O15 0.250000 0.000000 0.831861
#
# Coordination Sequence:
#
# PCOD9423801 Si02
#       8
#     4   8   8   8   8   4   8   8
#     4  10  24  46  72 102 140 198 250 298 374 456
#     4  11  24  45  70 104 144 189 248 308 380 463
#     4  12  22  41  73 104 146 183 243 312 379 467
#     4  11  25  45  69 102 137 198 244 305 384 449
#     4  11  25  39  70 113 144 180 237 316 386 464
#     4  12  26  38  72 110 146 196 240 316 392 460
#     4  11  26  49  77  98 147 208 253 310 376 457
#     4  11  23  45  68 108 145 186 243 311 387 455
#
# _framework density 22.255783000000001
#
# number of rings (size 3 to 8) (size 9 to 14) (size 15 to 20)
#    0.000    0.857    4.286    3.429    6.000    1.143 
#    0.000    5.000    6.286    0.000    0.000    0.000 
#    0.000    0.000    0.000    0.000    0.000    0.000 
#
# Total GULP energy -312224.653103 kJ/mol
# GULP energy per Si atom -5575.440234 kJ/mol
# Density = 2.220513 g / cm^3
# Si number density = 22.255783 Si / 1000 Ang^3
#
#
#
# Elastic Constant Matrix: (Units=GPa)
#
#
# Indices 1 2 3 4 5 6 
#
# 1 108.3451 59.4355 41.2077 0.0000 0.0000 0.0000
# 2 59.4355 121.4053 33.5636 0.0000 0.0000 0.0000
# 3 41.2077 33.5636 89.4148 0.0000 0.0000 0.0000
# 4 0.0000 0.0000 0.0000 36.3106 0.0000 0.0000
# 5 0.0000 0.0000 0.0000 0.0000 22.9587 0.0000
# 6 0.0000 0.0000 0.0000 0.0000 0.0000 40.2645
#
#
#
# Elastic Compliance Matrix: (Units=1/GPa)
#
#
# Indices 1 2 3 4 5 6 
#
# 1 0.013969 -0.005645 -0.004319 0.000000 0.000000 0.000000
# 2 -0.005645 0.011472 -0.001705 0.000000 0.000000 0.000000
# 3 -0.004319 -0.001705 0.013814 0.000000 0.000000 0.000000
# 4 0.000000 0.000000 0.000000 0.027540 0.000000 0.000000
# 5 0.000000 0.000000 0.000000 0.000000 0.043557 0.000000
# 6 0.000000 0.000000 0.000000 0.000000 0.000000 0.024836
#
#
# Mechanical properties :
#
#
# Convention : Reuss Voigt Hill
#
# Bulk Modulus (GPa) = 62.82137 65.28654 64.05396
# Shear Modulus (GPa) = 30.51952 32.23731 31.37841
#
# Velocity S-wave (km/s) = 3.70713 3.81003 3.75894
# Velocity P-wave (km/s) = 6.82730 6.98237 6.90527
#
# Compressibility (1/GPa) = 0.01591815
#
# Stress axis : x y z
#
# Youngs Moduli (GPa) = 71.58751 87.17203 72.38978
#
# Poissons Ratio (x) = 0.49206 0.31264
# Poissons Ratio (y) = 0.40409 0.12340
# Poissons Ratio (z) = 0.30918 0.14860
#
# Static dielectric constant tensor:
#      x y z
#    x -0.477410 0.000000 0.000000 
#    y 0.000000 1.859710 0.000000 
#    z 0.000000 0.000000 1.875590 
# 
# From -- ./inp_files/14731.got.cif
#   From: 2010.05.17/outbox.cif.g08.bks.cpg/sg54_8_cif.got.tgz:14731.got - 2010.06.03 13:09:01.
