data_PCOD9423475
_publ_section_title
;
Structure prediction by ZEFSAII (Michael W. Deem and Ramdas Pophale) SiO2 
 PCOD9423475
Probable space group: P C C A
;
_chemical_formula_sum "Si O2"
_cell_formula_units_Z 24
_cell_length_a 4.991575
_cell_length_b 8.038852
_cell_length_c 28.305884
_cell_angle_alpha 90.000000
_cell_angle_beta 90.000000
_cell_angle_gamma 90.000000
_cell_volume 1135.816979
_symmetry_space_group_name_H-M "P C C A"
_symmetry_group_IT_number 54
_symmetry_cell_setting 'orthorhombic'
loop_
_space_group_symop_operation_xyz
x,y,z
1/2-x,-y,z
1/2+x,-y,1/2-z
-x,y,1/2-z
-x,-y,-z
1/2+x,y,-z
1/2-x,y,1/2+z
x,-y,1/2+z
loop_
_atom_site_type_symbol
_atom_site_label
_atom_site_fract_x
_atom_site_fract_y
_atom_site_fract_z
Si Si1 0.250000 0.500000 0.034583
Si Si2 0.284679 0.192632 0.605163
Si Si3 0.218828 0.189720 0.830804
Si Si4 0.500000 0.402592 0.750000
O O1 0.263028 0.335360 0.067106
O O2 0.500000 0.500000 0.000000
O O3 0.584304 0.210949 0.624711
O O4 0.078787 0.214898 0.649187
O O5 0.250000 0.000000 0.588818
O O6 0.334706 0.302339 0.789422
O O7 0.250000 0.000000 0.814259
O O8 0.250000 0.500000 0.726380
#
# Coordination Sequence:
#
# PCOD9423475 Si02
#       4
#     4   8   8   4
#     4  12  26  42  68 100 128 166 210 274 342 400
#     4  10  23  43  68  94 128 174 216 265 326 393
#     4  10  23  43  65  90 131 179 217 262 320 383
#     4  12  26  38  62 104 134 172 224 278 322 376
#
# _framework density 21.130165999999999
#
# number of rings (size 3 to 8) (size 9 to 14) (size 15 to 20)
#    0.000    1.333    0.000    4.000    7.000    6.667 
#    0.000    0.000    0.000    0.000    0.000    0.000 
#    0.000    0.000    0.000    0.000    0.000    0.000 
#
# Total GULP energy -134122.500896 kJ/mol
# GULP energy per Si atom -5588.437537 kJ/mol
# Density = 2.108207 g / cm^3
# Si number density = 21.130166 Si / 1000 Ang^3
#
#
#
# Elastic Constant Matrix: (Units=GPa)
#
#
# Indices 1 2 3 4 5 6 
#
# 1 101.7955 31.6800 -3.0836 0.0000 0.0000 0.0000
# 2 31.6800 150.6055 81.2131 0.0000 0.0000 0.0000
# 3 -3.0836 81.2131 52.4841 0.0000 0.0000 0.0000
# 4 0.0000 0.0000 0.0000 83.6958 0.0000 0.0000
# 5 0.0000 0.0000 0.0000 0.0000 26.8562 0.0000
# 6 0.0000 0.0000 0.0000 0.0000 0.0000 32.7482
#
#
#
# Elastic Compliance Matrix: (Units=1/GPa)
#
#
# Indices 1 2 3 4 5 6 
#
# 1 0.020690 -0.030243 0.048013 0.000000 0.000000 0.000000
# 2 -0.030243 0.084306 -0.132231 0.000000 0.000000 0.000000
# 3 0.048013 -0.132231 0.226486 0.000000 0.000000 0.000000
# 4 0.000000 0.000000 0.000000 0.011948 0.000000 0.000000
# 5 0.000000 0.000000 0.000000 0.000000 0.037235 0.000000
# 6 0.000000 0.000000 0.000000 0.000000 0.000000 0.030536
#
#
# Mechanical properties :
#
#
# Convention : Reuss Voigt Hill
#
# Bulk Modulus (GPa) = 9.75033 58.27823 34.01428
# Shear Modulus (GPa) = 7.41499 41.66506 24.54002
#
# Velocity S-wave (km/s) = 1.87532 4.44534 3.41159
# Velocity P-wave (km/s) = 3.05181 7.34769 5.62593
#
# Compressibility (1/GPa) = 0.10256058
#
# Stress axis : x y z
#
# Youngs Moduli (GPa) = 48.33278 11.86155 4.41528
#
# Poissons Ratio (x) = 0.35872 -0.21199
# Poissons Ratio (y) = 1.46171 0.58384
# Poissons Ratio (z) = -2.32058 1.56846
#
# Static dielectric constant tensor:
#      x y z
#    x 1.719910 0.000000 0.000000 
#    y 0.000000 1.832690 0.000000 
#    z 0.000000 0.000000 1.712080 
# 
# From -- ./inp_files/24997.got.cif
#   From: 2010.05.17/outbox.cif.g08.bks.cpg/sg54_13_cif.got.tgz:24997.got - 2010.06.03 13:09:01.
