data_PCOD9423459
_publ_section_title
;
Structure prediction by ZEFSAII (Michael W. Deem and Ramdas Pophale) SiO2 
 PCOD9423459
Probable space group: P C C A
;
_chemical_formula_sum "Si O2"
_cell_formula_units_Z 40
_cell_length_a 13.109061
_cell_length_b 13.406245
_cell_length_c 10.760388
_cell_angle_alpha 90.000000
_cell_angle_beta 90.000000
_cell_angle_gamma 90.000000
_cell_volume 1891.065919
_symmetry_space_group_name_H-M "P C C A"
_symmetry_group_IT_number 54
_symmetry_cell_setting 'orthorhombic'
loop_
_space_group_symop_operation_xyz
x,y,z
1/2-x,-y,z
1/2+x,-y,1/2-z
-x,y,1/2-z
-x,-y,-z
1/2+x,y,-z
1/2-x,y,1/2+z
x,-y,1/2+z
loop_
_atom_site_type_symbol
_atom_site_label
_atom_site_fract_x
_atom_site_fract_y
_atom_site_fract_z
Si Si1 0.013720 0.300787 0.608849
Si Si2 0.508952 0.892323 0.062052
Si Si3 0.266496 0.692280 0.685671
Si Si4 0.182563 0.900365 0.748927
Si Si5 0.684425 0.599394 0.549266
O O1 0.130258 0.333562 0.611200
O O2 0.000000 0.264643 0.750000
O O3 0.995774 0.205245 0.522640
O O4 0.935569 0.391044 0.583898
O O5 0.622513 0.885745 0.121333
O O6 0.414065 0.895993 0.156778
O O7 0.500000 0.000000 0.000000
O O8 0.254624 0.809276 0.710731
O O9 0.266159 0.646397 0.824137
O O10 0.185883 0.655420 0.584144
O O11 0.250000 0.000000 0.747211
O O12 0.750000 0.500000 0.531395
#
# Coordination Sequence:
#
# PCOD9423459 Si02
#       5
#     8   8   8   8   8
#     4  10  23  42  68  96 135 180 229 293 353 420
#     4  11  24  40  65 101 141 184 239 283 345 427
#     4  11  23  44  70  98 141 182 235 294 363 426
#     4  11  25  41  67 101 138 192 232 290 352 428
#     4  11  24  44  69 100 134 180 237 296 362 425
#
# _framework density 21.152092
#
# number of rings (size 3 to 8) (size 9 to 14) (size 15 to 20)
#    0.000    1.200    2.000    3.000    8.400    3.200 
#    0.000    2.000    0.000    0.000    0.000    0.000 
#    0.000    0.000    0.000    0.000    0.000    0.000 
#
# Total GULP energy -222903.752381 kJ/mol
# GULP energy per Si atom -5572.593810 kJ/mol
# Density = 2.110395 g / cm^3
# Si number density = 21.152092 Si / 1000 Ang^3
#
#
#
# Elastic Constant Matrix: (Units=GPa)
#
#
# Indices 1 2 3 4 5 6 
#
# 1 90.9212 34.7715 13.3989 0.0000 0.0000 0.0000
# 2 34.7715 124.3977 24.6751 0.0000 0.0000 0.0000
# 3 13.3989 24.6751 51.0740 0.0000 0.0000 0.0000
# 4 0.0000 0.0000 0.0000 23.9762 0.0000 0.0000
# 5 0.0000 0.0000 0.0000 0.0000 25.0295 0.0000
# 6 0.0000 0.0000 0.0000 0.0000 0.0000 31.4225
#
#
#
# Elastic Compliance Matrix: (Units=1/GPa)
#
#
# Indices 1 2 3 4 5 6 
#
# 1 0.012455 -0.003134 -0.001754 0.000000 0.000000 0.000000
# 2 -0.003134 0.009679 -0.003854 0.000000 0.000000 0.000000
# 3 -0.001754 -0.003854 0.021902 0.000000 0.000000 0.000000
# 4 0.000000 0.000000 0.000000 0.041708 0.000000 0.000000
# 5 0.000000 0.000000 0.000000 0.000000 0.039953 0.000000
# 6 0.000000 0.000000 0.000000 0.000000 0.000000 0.031824
#
#
# Mechanical properties :
#
#
# Convention : Reuss Voigt Hill
#
# Bulk Modulus (GPa) = 37.66029 45.78712 41.72370
# Shear Modulus (GPa) = 27.19531 28.98879 28.09205
#
# Velocity S-wave (km/s) = 3.58956 3.70603 3.64826
# Velocity P-wave (km/s) = 5.91803 6.32507 6.12493
#
# Compressibility (1/GPa) = 0.02655317
#
# Stress axis : x y z
#
# Youngs Moduli (GPa) = 80.28646 103.31490 45.65896
#
# Poissons Ratio (x) = 0.32376 0.08007
# Poissons Ratio (y) = 0.25159 0.17598
# Poissons Ratio (z) = 0.14079 0.39819
#
# Static dielectric constant tensor:
#      x y z
#    x 1.925240 0.000000 0.000000 
#    y 0.000000 1.742200 0.000000 
#    z 0.000000 0.000000 1.788810 
# 
# From -- ./inp_files/8206.got.cif
#   From: 2010.05.17/outbox.cif.g08.bks.cpg/sg54_5_cif.got.tgz:8206.got - 2010.06.03 13:09:01.
