data_PCOD9423090
_publ_section_title
;
Structure prediction by ZEFSAII (Michael W. Deem and Ramdas Pophale) SiO2 
 PCOD9423090
Probable space group: P C C A
;
_chemical_formula_sum "Si O2"
_cell_formula_units_Z 56
_cell_length_a 25.224440
_cell_length_b 8.800688
_cell_length_c 9.207907
_cell_angle_alpha 90.000000
_cell_angle_beta 90.000000
_cell_angle_gamma 90.000000
_cell_volume 2044.085617
_symmetry_space_group_name_H-M "P C C A"
_symmetry_group_IT_number 54
_symmetry_cell_setting 'orthorhombic'
loop_
_space_group_symop_operation_xyz
x,y,z
1/2-x,-y,z
1/2+x,-y,1/2-z
-x,y,1/2-z
-x,-y,-z
1/2+x,y,-z
1/2-x,y,1/2+z
x,-y,1/2+z
loop_
_atom_site_type_symbol
_atom_site_label
_atom_site_fract_x
_atom_site_fract_y
_atom_site_fract_z
Si Si1 0.678586 0.756417 0.325139
Si Si2 0.750000 0.000000 0.876983
Si Si3 0.511956 0.686300 0.908075
Si Si4 0.803989 0.580287 0.560514
Si Si5 0.651274 0.170886 0.338490
Si Si6 0.404114 0.445901 0.503870
Si Si7 0.000000 0.984023 0.250000
Si Si8 0.893088 0.029080 0.128000
O O1 0.713740 0.859725 0.435989
O O2 0.635435 0.646016 0.392788
O O3 0.615670 0.143310 0.193617
O O4 0.645377 0.865790 0.220342
O O5 0.706737 0.904642 0.792629
O O6 0.500000 0.612253 0.750000
O O7 0.357273 0.487205 0.389278
O O8 0.457340 0.655758 0.990572
O O9 0.517546 0.863535 0.873905
O O10 0.750000 0.500000 0.508852
O O11 0.828623 0.682596 0.429319
O O12 0.786974 0.667819 0.705903
O O13 0.564896 0.394271 0.463677
O O14 0.623373 0.064852 0.463783
O O15 0.048133 0.073288 0.319680
#
# Coordination Sequence:
#
# PCOD9423090 Si02
#       8
#     8   4   8   8   8   8   4   8
#     4  10  24  43  63 101 132 183 228 284 347 416
#     4  10  22  42  68  92 134 176 228 276 344 412
#     4   9  22  38  65  96 127 178 222 286 346 409
#     4  11  24  42  65  99 132 178 229 288 347 414
#     4  10  23  43  66 100 129 182 223 284 340 413
#     4  11  21  43  64  93 135 176 234 283 347 422
#     4  10  22  42  60 102 122 186 218 292 348 412
#     4  10  23  42  66  96 139 170 233 281 342 414
#
# _framework density 27.396111000000001
#
# number of rings (size 3 to 8) (size 9 to 14) (size 15 to 20)
#    0.429    1.429    0.000    2.571    4.000    7.429 
#   16.714    0.000    0.000    0.000    0.000    1.000 
#    0.000    0.000    0.000    0.000    0.000    0.000 
#
# Total GULP energy -311853.023662 kJ/mol
# GULP energy per Si atom -5568.803994 kJ/mol
# Density = 2.733376 g / cm^3
# Si number density = 27.396111 Si / 1000 Ang^3
#
#
#
# Elastic Constant Matrix: (Units=GPa)
#
#
# Indices 1 2 3 4 5 6 
#
# 1 210.5715 39.4779 41.3408 0.0000 0.0000 0.0000
# 2 39.4779 78.0242 38.2014 0.0000 0.0000 0.0000
# 3 41.3408 38.2014 97.6470 0.0000 0.0000 0.0000
# 4 0.0000 0.0000 0.0000 18.9763 0.0000 0.0000
# 5 0.0000 0.0000 0.0000 0.0000 29.5155 0.0000
# 6 0.0000 0.0000 0.0000 0.0000 0.0000 49.2564
#
#
#
# Elastic Compliance Matrix: (Units=1/GPa)
#
#
# Indices 1 2 3 4 5 6 
#
# 1 0.005421 -0.002003 -0.001512 0.000000 0.000000 0.000000
# 2 -0.002003 0.016593 -0.005644 0.000000 0.000000 0.000000
# 3 -0.001512 -0.005644 0.013089 0.000000 0.000000 0.000000
# 4 0.000000 0.000000 0.000000 0.052697 0.000000 0.000000
# 5 0.000000 0.000000 0.000000 0.000000 0.033880 0.000000
# 6 0.000000 0.000000 0.000000 0.000000 0.000000 0.020302
#
#
# Mechanical properties :
#
#
# Convention : Reuss Voigt Hill
#
# Bulk Modulus (GPa) = 59.56995 69.36477 64.46736
# Shear Modulus (GPa) = 30.13956 37.36446 33.75201
#
# Velocity S-wave (km/s) = 3.32043 3.69705 3.51379
# Velocity P-wave (km/s) = 6.04082 6.60291 6.32811
#
# Compressibility (1/GPa) = 0.01678699
#
# Stress axis : x y z
#
# Youngs Moduli (GPa) = 184.45908 60.26599 76.40099
#
# Poissons Ratio (x) = 0.12071 0.11549
# Poissons Ratio (y) = 0.36945 0.43118
# Poissons Ratio (z) = 0.27883 0.34012
#
# Static dielectric constant tensor:
#      x y z
#    x 2.060390 0.000000 0.000000 
#    y 0.000000 2.441130 0.000000 
#    z 0.000000 0.000000 2.289910 
# 
# From -- ./inp_files/9572.got.cif
#   From: 2010.05.17/outbox.cif.g08.bks.cpg/sg54_5_cif.got.tgz:9572.got - 2010.06.03 13:09:01.
