data_PCOD9423659
_publ_section_title
;
Structure prediction by ZEFSAII (Michael W. Deem and Ramdas Pophale) SiO2 
 PCOD9423659
Probable space group: P C C A
;
_chemical_formula_sum "Si O2"
_cell_formula_units_Z 56
_cell_length_a 16.406720
_cell_length_b 14.867083
_cell_length_c 11.107915
_cell_angle_alpha 90.000000
_cell_angle_beta 90.000000
_cell_angle_gamma 90.000000
_cell_volume 2709.443382
_symmetry_space_group_name_H-M "P C C A"
_symmetry_group_IT_number 54
_symmetry_cell_setting 'orthorhombic'
loop_
_space_group_symop_operation_xyz
x,y,z
1/2-x,-y,z
1/2+x,-y,1/2-z
-x,y,1/2-z
-x,-y,-z
1/2+x,y,-z
1/2-x,y,1/2+z
x,-y,1/2+z
loop_
_atom_site_type_symbol
_atom_site_label
_atom_site_fract_x
_atom_site_fract_y
_atom_site_fract_z
Si Si1 0.287876 0.090303 0.780622
Si Si2 0.142242 0.301450 0.521235
Si Si3 0.693664 0.774880 0.601049
Si Si4 0.902901 0.372199 0.726806
Si Si5 0.452419 0.545506 0.380016
Si Si6 0.932498 0.123798 0.044075
Si Si7 0.109621 0.927598 0.555239
O O1 0.228607 0.175255 0.779966
O O2 0.366059 0.125351 0.851842
O O3 0.322767 0.061241 0.655130
O O4 0.250000 0.000000 0.838146
O O5 0.230962 0.269680 0.472285
O O6 0.142547 0.354802 0.647243
O O7 0.094024 0.366475 0.428051
O O8 0.088005 0.210651 0.535790
O O9 0.627924 0.701784 0.634586
O O10 0.650680 0.858414 0.536357
O O11 0.890527 0.468578 0.665297
O O12 0.000000 0.365038 0.750000
O O13 0.500000 0.564111 0.250000
O O14 0.500000 0.500000 0.500000
O O15 0.914788 0.027988 0.982534
O O16 0.024514 0.119651 0.090445
#
# Coordination Sequence:
#
# PCOD9423659 Si02
#       7
#     8   8   8   8   8   8   8
#     4  11  23  39  60  90 138 176 224 281 348 402
#     4  11  24  44  70 104 139 184 236 298 367 427
#     4  11  25  42  65 104 139 184 230 294 348 425
#     4  11  23  46  73 100 139 182 243 290 363 439
#     4  11  23  47  76 106 141 187 235 300 365 435
#     4  10  24  42  64  95 132 176 238 275 338 428
#     4  11  23  40  64  94 134 185 226 282 337 409
#
# _framework density 20.668451000000001
#
# number of rings (size 3 to 8) (size 9 to 14) (size 15 to 20)
#    0.000    1.143    4.286    2.143    6.000    2.857 
#    2.571    1.429    0.000    0.000    0.000    0.000 
#    0.000    0.000    0.000    0.000    0.000    0.000 
#
# Total GULP energy -312019.641502 kJ/mol
# GULP energy per Si atom -5571.779313 kJ/mol
# Density = 2.062141 g / cm^3
# Si number density = 20.668451 Si / 1000 Ang^3
#
#
#
# Elastic Constant Matrix: (Units=GPa)
#
#
# Indices 1 2 3 4 5 6 
#
# 1 75.9133 37.7491 12.0178 0.0000 0.0000 0.0000
# 2 37.7491 123.8063 30.4806 0.0000 0.0000 0.0000
# 3 12.0178 30.4806 70.8755 0.0000 0.0000 0.0000
# 4 0.0000 0.0000 0.0000 27.5123 0.0000 0.0000
# 5 0.0000 0.0000 0.0000 0.0000 -110.8275 0.0000
# 6 0.0000 0.0000 0.0000 0.0000 0.0000 173.7414
#
#
#
# Elastic Compliance Matrix: (Units=1/GPa)
#
#
# Indices 1 2 3 4 5 6 
#
# 1 0.015555 -0.004578 -0.000669 0.000000 0.000000 0.000000
# 2 -0.004578 0.010381 -0.003688 0.000000 0.000000 0.000000
# 3 -0.000669 -0.003688 0.015809 0.000000 0.000000 0.000000
# 4 0.000000 0.000000 0.000000 0.036347 0.000000 0.000000
# 5 0.000000 0.000000 0.000000 0.000000 -0.009023 0.000000
# 6 0.000000 0.000000 0.000000 0.000000 0.000000 0.005756
#
#
# Mechanical properties :
#
#
# Convention : Reuss Voigt Hill
#
# Bulk Modulus (GPa) = 41.88485 47.89890 44.89187
# Shear Modulus (GPa) = 49.67517 30.77507 40.22512
#
# Velocity S-wave (km/s) = 4.90780 3.86293 4.41637
# Velocity P-wave (km/s) = 7.24047 6.56669 6.91180
#
# Compressibility (1/GPa) = 0.02387498
#
# Stress axis : x y z
#
# Youngs Moduli (GPa) = 64.28637 96.32903 63.25606
#
# Poissons Ratio (x) = 0.44102 0.04230
# Poissons Ratio (y) = 0.29432 0.23330
# Poissons Ratio (z) = 0.04299 0.35528
#
# Static dielectric constant tensor:
#      x y z
#    x 1.742020 0.000000 0.000000 
#    y 0.000000 1.643300 0.000000 
#    z 0.000000 0.000000 1.849970 
# 
# From -- ./inp_files/8434.got.cif
#   From: 2010.05.17/outbox.cif.g08.bks.cpg/sg54_5_cif.got.tgz:8434.got - 2010.06.03 13:09:01.
