data_PCOD9423274
_publ_section_title
;
Structure prediction by ZEFSAII (Michael W. Deem and Ramdas Pophale) SiO2 
 PCOD9423274
Probable space group: P C C A
;
_chemical_formula_sum "Si O2"
_cell_formula_units_Z 24
_cell_length_a 9.038665
_cell_length_b 5.183149
_cell_length_c 19.269345
_cell_angle_alpha 90.000000
_cell_angle_beta 90.000000
_cell_angle_gamma 90.000000
_cell_volume 902.744678
_symmetry_space_group_name_H-M "P C C A"
_symmetry_group_IT_number 54
_symmetry_cell_setting 'orthorhombic'
loop_
_space_group_symop_operation_xyz
x,y,z
1/2-x,-y,z
1/2+x,-y,1/2-z
-x,y,1/2-z
-x,-y,-z
1/2+x,y,-z
1/2-x,y,1/2+z
x,-y,1/2+z
loop_
_atom_site_type_symbol
_atom_site_label
_atom_site_fract_x
_atom_site_fract_y
_atom_site_fract_z
Si Si1 0.352301 0.753521 0.041094
Si Si2 0.145967 0.245463 0.886021
Si Si3 0.076961 0.559434 0.683210
O O1 0.250000 0.500000 0.039059
O O2 0.441899 0.720556 0.111926
O O3 0.250000 0.000000 0.048188
O O4 0.421586 0.768861 0.964400
O O5 0.250000 0.500000 0.882300
O O6 0.014192 0.298567 0.833021
O O7 0.250000 0.000000 0.874573
O O8 0.250000 0.500000 0.694589
O O9 0.000000 0.680752 0.750000
#
# Coordination Sequence:
#
# PCOD9423274 Si02
#       3
#     8   8   8
#     4   9  20  41  70 102 135 179 238 301 359 423
#     4  10  22  44  74 104 136 179 239 304 363 425
#     4  11  24  45  68 102 147 194 240 295 364 440
#
# _framework density 26.585587
#
# number of rings (size 3 to 8) (size 9 to 14) (size 15 to 20)
#    0.000    2.000    0.000    2.000    0.000    5.333 
#    0.000   48.333    0.000    0.000    0.000    0.000 
#    0.000    0.000    0.000    0.000    0.000    1.000 
#
# Total GULP energy -134629.258268 kJ/mol
# GULP energy per Si atom -5609.552428 kJ/mol
# Density = 2.652508 g / cm^3
# Si number density = 26.585587 Si / 1000 Ang^3
#
#
#
# Elastic Constant Matrix: (Units=GPa)
#
#
# Indices 1 2 3 4 5 6 
#
# 1 190.7844 56.0579 75.1536 0.0000 0.0000 0.0000
# 2 56.0579 169.7991 34.3121 0.0000 0.0000 0.0000
# 3 75.1536 34.3121 186.0767 0.0000 0.0000 0.0000
# 4 0.0000 0.0000 0.0000 21.5314 0.0000 0.0000
# 5 0.0000 0.0000 0.0000 0.0000 41.6780 0.0000
# 6 0.0000 0.0000 0.0000 0.0000 0.0000 25.7303
#
#
#
# Elastic Compliance Matrix: (Units=1/GPa)
#
#
# Indices 1 2 3 4 5 6 
#
# 1 0.006687 -0.001726 -0.002383 0.000000 0.000000 0.000000
# 2 -0.001726 0.006563 -0.000513 0.000000 0.000000 0.000000
# 3 -0.002383 -0.000513 0.006431 0.000000 0.000000 0.000000
# 4 0.000000 0.000000 0.000000 0.046444 0.000000 0.000000
# 5 0.000000 0.000000 0.000000 0.000000 0.023993 0.000000
# 6 0.000000 0.000000 0.000000 0.000000 0.000000 0.038865
#
#
# Mechanical properties :
#
#
# Convention : Reuss Voigt Hill
#
# Bulk Modulus (GPa) = 95.80810 97.52304 96.66557
# Shear Modulus (GPa) = 35.28437 43.19707 39.24072
#
# Velocity S-wave (km/s) = 3.64703 4.03529 3.84606
# Velocity P-wave (km/s) = 7.33827 7.64681 7.49413
#
# Compressibility (1/GPa) = 0.01043753
#
# Stress axis : x y z
#
# Youngs Moduli (GPa) = 149.53731 152.37184 155.49683
#
# Poissons Ratio (x) = 0.26304 0.37048
# Poissons Ratio (y) = 0.25815 0.07976
# Poissons Ratio (z) = 0.35628 0.07816
#
# Static dielectric constant tensor:
#      x y z
#    x 2.079630 0.000000 0.000000 
#    y 0.000000 2.120520 0.000000 
#    z 0.000000 0.000000 2.110210 
# 
# From -- ./inp_files/16917.got.cif
#   From: 2010.05.17/outbox.cif.g08.bks.cpg/sg54_9_cif.got.tgz:16917.got - 2010.06.03 13:09:01.
