data_PCOD9423768
_publ_section_title
;
Structure prediction by ZEFSAII (Michael W. Deem and Ramdas Pophale) SiO2 
 PCOD9423768
Probable space group: P C C A
;
_chemical_formula_sum "Si O2"
_cell_formula_units_Z 60
_cell_length_a 15.322426
_cell_length_b 8.771712
_cell_length_c 17.613104
_cell_angle_alpha 90.000000
_cell_angle_beta 90.000000
_cell_angle_gamma 90.000000
_cell_volume 2367.270010
_symmetry_space_group_name_H-M "P C C A"
_symmetry_group_IT_number 54
_symmetry_cell_setting 'orthorhombic'
loop_
_space_group_symop_operation_xyz
x,y,z
1/2-x,-y,z
1/2+x,-y,1/2-z
-x,y,1/2-z
-x,-y,-z
1/2+x,y,-z
1/2-x,y,1/2+z
x,-y,1/2+z
loop_
_atom_site_type_symbol
_atom_site_label
_atom_site_fract_x
_atom_site_fract_y
_atom_site_fract_z
Si Si1 0.000000 0.386075 0.750000
Si Si2 0.624433 0.602531 0.348035
Si Si3 0.826000 0.308751 0.117314
Si Si4 0.051508 0.787565 0.518647
Si Si5 0.826943 0.875114 0.747441
Si Si6 0.132473 0.331096 0.545422
Si Si7 0.368977 0.658235 0.870418
Si Si8 0.355013 0.971416 0.608955
O O1 0.932070 0.496219 0.793466
O O2 0.942755 0.295548 0.689009
O O3 0.565984 0.710790 0.399970
O O4 0.684394 0.714689 0.296859
O O5 0.655859 0.489294 0.415432
O O6 0.869329 0.177937 0.168077
O O7 0.729579 0.309819 0.154056
O O8 0.871176 0.473613 0.122455
O O9 0.811126 0.287888 0.027967
O O10 0.114565 0.736869 0.450596
O O11 0.963191 0.705393 0.488898
O O12 0.083471 0.959279 0.542200
O O13 0.750000 0.000000 0.733198
O O14 0.882816 0.966106 0.809516
O O15 0.140023 0.208042 0.610433
O O16 0.250000 0.000000 0.596846
#
# Coordination Sequence:
#
# PCOD9423768 Si02
#       8
#     4   8   8   8   8   8   8   8
#     4  12  22  40  68 108 150 196 240 330 376 458
#     4  11  23  41  76 104 145 190 254 313 383 460
#     4  11  24  43  72 105 146 192 251 316 385 458
#     4  11  22  43  71 107 148 187 253 321 381 471
#     4  10  24  48  66  98 148 198 244 309 386 464
#     4  12  23  43  75 109 140 201 253 319 389 461
#     4  11  23  42  67 111 144 185 250 314 386 453
#     4  10  24  45  65  98 148 199 248 307 387 463
#
# _framework density 25.345652000000001
#
# number of rings (size 3 to 8) (size 9 to 14) (size 15 to 20)
#    0.000    1.067    4.000    2.400    0.000    3.733 
#    0.000    1.333    0.000    0.000    0.000    0.000 
#    0.000    0.000    0.000    0.000    0.000    0.000 
#
# Total GULP energy -334479.914502 kJ/mol
# GULP energy per Si atom -5574.665242 kJ/mol
# Density = 2.528796 g / cm^3
# Si number density = 25.345652 Si / 1000 Ang^3
#
#
#
# Elastic Constant Matrix: (Units=GPa)
#
#
# Indices 1 2 3 4 5 6 
#
# 1 68.8864 -11.5922 -1.5892 0.0000 0.0000 0.0000
# 2 -11.5922 86.8624 23.9860 0.0000 0.0000 0.0000
# 3 -1.5892 23.9860 129.9914 0.0000 0.0000 0.0000
# 4 0.0000 0.0000 0.0000 0.6056 0.0000 0.0000
# 5 0.0000 0.0000 0.0000 0.0000 29.5266 0.0000
# 6 0.0000 0.0000 0.0000 0.0000 0.0000 17.3592
#
#
#
# Elastic Compliance Matrix: (Units=1/GPa)
#
#
# Indices 1 2 3 4 5 6 
#
# 1 0.014855 0.002036 -0.000194 0.000000 0.000000 0.000000
# 2 0.002036 0.012410 -0.002265 0.000000 0.000000 0.000000
# 3 -0.000194 -0.002265 0.008108 0.000000 0.000000 0.000000
# 4 0.000000 0.000000 0.000000 1.651357 0.000000 0.000000
# 5 0.000000 0.000000 0.000000 0.000000 0.033868 0.000000
# 6 0.000000 0.000000 0.000000 0.000000 0.000000 0.057606
#
#
# Mechanical properties :
#
#
# Convention : Reuss Voigt Hill
#
# Bulk Modulus (GPa) = 28.96298 34.14994 31.55646
# Shear Modulus (GPa) = 2.79242 27.82731 15.30987
#
# Velocity S-wave (km/s) = 1.05078 3.31707 2.46040
# Velocity P-wave (km/s) = 3.59502 5.30788 4.53309
#
# Compressibility (1/GPa) = 0.03452683
#
# Stress axis : x y z
#
# Youngs Moduli (GPa) = 67.31833 80.58264 123.32940
#
# Poissons Ratio (x) = -0.16407 0.02394
# Poissons Ratio (y) = -0.13706 0.27933
# Poissons Ratio (z) = 0.01307 0.18251
#
# Static dielectric constant tensor:
#      x y z
#    x 2.131070 0.000000 0.000000 
#    y 0.000000 2.110890 0.000000 
#    z 0.000000 0.000000 2.054960 
# 
# From -- ./inp_files/18688.got.cif
#   From: 2010.05.17/outbox.cif.g08.bks.cpg/sg54_10_cif.got.tgz:18688.got - 2010.06.03 13:09:01.
