data_PCOD9423645
_publ_section_title
;
Structure prediction by ZEFSAII (Michael W. Deem and Ramdas Pophale) SiO2 
 PCOD9423645
Probable space group: P C C A
;
_chemical_formula_sum "Si O2"
_cell_formula_units_Z 60
_cell_length_a 30.532116
_cell_length_b 5.616844
_cell_length_c 16.873473
_cell_angle_alpha 90.000000
_cell_angle_beta 90.000000
_cell_angle_gamma 90.000000
_cell_volume 2893.701615
_symmetry_space_group_name_H-M "P C C A"
_symmetry_group_IT_number 54
_symmetry_cell_setting 'orthorhombic'
loop_
_space_group_symop_operation_xyz
x,y,z
1/2-x,-y,z
1/2+x,-y,1/2-z
-x,y,1/2-z
-x,-y,-z
1/2+x,y,-z
1/2-x,y,1/2+z
x,-y,1/2+z
loop_
_atom_site_type_symbol
_atom_site_label
_atom_site_fract_x
_atom_site_fract_y
_atom_site_fract_z
Si Si1 0.576516 0.312797 0.325077
Si Si2 0.930068 0.684455 0.636172
Si Si3 0.385646 0.699737 0.940591
Si Si4 0.658006 0.491567 0.417511
Si Si5 0.636433 0.013079 0.206947
Si Si6 0.802167 0.990774 0.854166
Si Si7 0.449288 0.038039 0.020361
Si Si8 0.500000 0.624989 0.250000
O O1 0.613866 0.474122 0.365287
O O2 0.601084 0.154003 0.260319
O O3 0.557081 0.148238 0.394030
O O4 0.537581 0.467056 0.289550
O O5 0.923063 0.410279 0.616578
O O6 0.932433 0.791277 0.549231
O O7 0.973352 0.760957 0.682666
O O8 0.887510 0.767831 0.683979
O O9 0.358127 0.858423 0.878477
O O10 0.354892 0.521514 0.989934
O O11 0.414942 0.825354 0.007897
O O12 0.680912 0.235029 0.398029
O O13 0.682375 0.738532 0.393149
O O14 0.677619 0.992863 0.265040
O O15 0.750000 0.000000 0.852726
O O16 0.500000 0.000000 0.000000
#
# Coordination Sequence:
#
# PCOD9423645 Si02
#       8
#     8   8   8   8   8   8   8   4
#     4  11  23  41  61  94 130 185 229 284 342 397
#     4  11  24  40  60  92 132 181 234 281 340 394
#     4  11  22  44  64  95 131 185 231 278 345 413
#     4  11  24  45  75 101 138 181 230 279 346 432
#     4  10  24  41  67  96 129 179 219 281 346 419
#     4  11  25  48  78 108 137 172 223 286 359 431
#     4  11  25  38  61  89 136 187 244 291 334 394
#     4  12  24  34  60  92 134 174 238 294 320 390
#
# _framework density 20.734688999999999
#
# number of rings (size 3 to 8) (size 9 to 14) (size 15 to 20)
#    0.000    1.067    2.667    3.600    9.333    1.067 
#    0.000    0.667    2.933    0.000    0.000    0.000 
#    0.000    0.000    0.000    0.000    0.000    0.000 
#
# Total GULP energy -334726.547551 kJ/mol
# GULP energy per Si atom -5578.775793 kJ/mol
# Density = 2.068750 g / cm^3
# Si number density = 20.734689 Si / 1000 Ang^3
#
#
#
# Elastic Constant Matrix: (Units=GPa)
#
#
# Indices 1 2 3 4 5 6 
#
# 1 119.4264 34.3103 36.1017 0.0000 0.0000 0.0000
# 2 34.3103 70.8945 23.8957 0.0000 0.0000 0.0000
# 3 36.1017 23.8957 95.2081 0.0000 0.0000 0.0000
# 4 0.0000 0.0000 0.0000 22.9735 0.0000 0.0000
# 5 0.0000 0.0000 0.0000 0.0000 20.4569 0.0000
# 6 0.0000 0.0000 0.0000 0.0000 0.0000 28.7106
#
#
#
# Elastic Compliance Matrix: (Units=1/GPa)
#
#
# Indices 1 2 3 4 5 6 
#
# 1 0.010426 -0.004056 -0.002935 0.000000 0.000000 0.000000
# 2 -0.004056 0.016987 -0.002725 0.000000 0.000000 0.000000
# 3 -0.002935 -0.002725 0.012300 0.000000 0.000000 0.000000
# 4 0.000000 0.000000 0.000000 0.043528 0.000000 0.000000
# 5 0.000000 0.000000 0.000000 0.000000 0.048883 0.000000
# 6 0.000000 0.000000 0.000000 0.000000 0.000000 0.034830
#
#
# Mechanical properties :
#
#
# Convention : Reuss Voigt Hill
#
# Bulk Modulus (GPa) = 49.31115 52.68271 50.99693
# Shear Modulus (GPa) = 25.88667 27.17631 26.53149
#
# Velocity S-wave (km/s) = 3.53720 3.62424 3.58099
# Velocity P-wave (km/s) = 6.36522 6.55566 6.46114
#
# Compressibility (1/GPa) = 0.02027939
#
# Stress axis : x y z
#
# Youngs Moduli (GPa) = 95.91342 58.86772 81.29836
#
# Poissons Ratio (x) = 0.23879 0.23864
# Poissons Ratio (y) = 0.38907 0.22157
# Poissons Ratio (z) = 0.28154 0.16044
#
# Static dielectric constant tensor:
#      x y z
#    x 1.669520 0.000000 0.000000 
#    y 0.000000 1.745540 0.000000 
#    z 0.000000 0.000000 1.634060 
# 
# From -- ./inp_files/19306.got.cif
#   From: 2010.05.17/outbox.cif.g08.bks.cpg/sg54_10_cif.got.tgz:19306.got - 2010.06.03 13:09:01.
