data_PCOD9423668
_publ_section_title
;
Structure prediction by ZEFSAII (Michael W. Deem and Ramdas Pophale) SiO2 
 PCOD9423668
Probable space group: P C C A
;
_chemical_formula_sum "Si O2"
_cell_formula_units_Z 40
_cell_length_a 9.034655
_cell_length_b 15.709478
_cell_length_c 11.953650
_cell_angle_alpha 90.000000
_cell_angle_beta 90.000000
_cell_angle_gamma 90.000000
_cell_volume 1696.578125
_symmetry_space_group_name_H-M "P C C A"
_symmetry_group_IT_number 54
_symmetry_cell_setting 'orthorhombic'
loop_
_space_group_symop_operation_xyz
x,y,z
1/2-x,-y,z
1/2+x,-y,1/2-z
-x,y,1/2-z
-x,-y,-z
1/2+x,y,-z
1/2-x,y,1/2+z
x,-y,1/2+z
loop_
_atom_site_type_symbol
_atom_site_label
_atom_site_fract_x
_atom_site_fract_y
_atom_site_fract_z
Si Si1 0.256194 0.738359 0.597360
Si Si2 0.246289 0.403912 0.406547
Si Si3 0.000000 0.668768 0.750000
Si Si4 0.250000 0.000000 0.333663
Si Si5 0.658566 0.915131 0.463211
Si Si6 0.000000 0.335728 0.750000
Si Si7 0.500000 0.893566 0.250000
O O1 0.239441 0.664412 0.505156
O O2 0.254848 0.829430 0.540240
O O3 0.405616 0.720513 0.664634
O O4 0.120568 0.727295 0.686650
O O5 0.250000 0.500000 0.450207
O O6 0.094718 0.385249 0.338474
O O7 0.381393 0.390561 0.319892
O O8 0.132421 0.945346 0.408482
O O9 0.337234 0.932155 0.262140
O O10 0.520965 0.885278 0.387717
O O11 0.750000 0.000000 0.430861
#
# Coordination Sequence:
#
# PCOD9423668 Si02
#       7
#     8   8   4   4   8   4   4
#     4  11  24  45  67 100 137 177 223 278 332 395
#     4  11  24  45  71  99 135 175 219 276 337 400
#     4  10  24  44  67  99 136 172 222 276 331 403
#     4  10  24  42  66  96 126 170 226 272 326 398
#     4  10  25  43  66  98 133 176 229 274 324 394
#     4  10  25  43  69 103 132 178 225 271 335 403
#     4  12  21  47  66  94 130 180 219 281 338 380
#
# _framework density 23.576868999999999
#
# number of rings (size 3 to 8) (size 9 to 14) (size 15 to 20)
#    0.600    0.800    1.000    3.000    0.000   13.600 
#    0.000    0.000    0.000    0.000    0.000    0.000 
#    0.000    0.000    0.000    0.000    0.000    0.000 
#
# Total GULP energy -222681.577853 kJ/mol
# GULP energy per Si atom -5567.039446 kJ/mol
# Density = 2.352321 g / cm^3
# Si number density = 23.576869 Si / 1000 Ang^3
#
#
#
# Elastic Constant Matrix: (Units=GPa)
#
#
# Indices 1 2 3 4 5 6 
#
# 1 81.7558 1.3302 8.5673 0.0000 0.0000 0.0000
# 2 1.3302 159.6727 15.4056 0.0000 0.0000 0.0000
# 3 8.5673 15.4056 59.8730 0.0000 0.0000 0.0000
# 4 0.0000 0.0000 0.0000 25.0467 0.0000 0.0000
# 5 0.0000 0.0000 0.0000 0.0000 43.8539 0.0000
# 6 0.0000 0.0000 0.0000 0.0000 0.0000 -8.5775
#
#
#
# Elastic Compliance Matrix: (Units=1/GPa)
#
#
# Indices 1 2 3 4 5 6 
#
# 1 0.012419 0.000070 -0.001795 0.000000 0.000000 0.000000
# 2 0.000070 0.006423 -0.001663 0.000000 0.000000 0.000000
# 3 -0.001795 -0.001663 0.017387 0.000000 0.000000 0.000000
# 4 0.000000 0.000000 0.000000 0.039925 0.000000 0.000000
# 5 0.000000 0.000000 0.000000 0.000000 0.022803 0.000000
# 6 0.000000 0.000000 0.000000 0.000000 0.000000 -0.116584
#
#
# Mechanical properties :
#
#
# Convention : Reuss Voigt Hill
#
# Bulk Modulus (GPa) = 33.95323 39.10087 36.52705
# Shear Modulus (GPa) = -4833.52466 30.46451 -2401.53008
#
# Velocity S-wave (km/s) = -45.32729 3.59853 -31.95007
# Velocity P-wave (km/s) = 52.20140 5.82119 36.68174
#
# Compressibility (1/GPa) = 0.02945228
#
# Stress axis : x y z
#
# Youngs Moduli (GPa) = 80.52493 155.69930 57.51539
#
# Poissons Ratio (x) = -0.01086 0.10324
# Poissons Ratio (y) = -0.00561 0.09562
# Poissons Ratio (z) = 0.14454 0.25886
#
# Static dielectric constant tensor:
#      x y z
#    x 1.885690 0.000000 0.000000 
#    y 0.000000 1.894870 0.000000 
#    z 0.000000 0.000000 2.015360 
# 
# From -- ./inp_files/6938.got.cif
#   From: 2010.05.17/outbox.cif.g08.bks.cpg/sg54_4_cif.got.tgz:6938.got - 2010.06.03 13:09:01.
