data_PCOD9423708
_publ_section_title
;
Structure prediction by ZEFSAII (Michael W. Deem and Ramdas Pophale) SiO2 
 PCOD9423708
Probable space group: P C C A
;
_chemical_formula_sum "Si O2"
_cell_formula_units_Z 28
_cell_length_a 10.322252
_cell_length_b 4.914681
_cell_length_c 21.703575
_cell_angle_alpha 90.000000
_cell_angle_beta 90.000000
_cell_angle_gamma 90.000000
_cell_volume 1101.034856
_symmetry_space_group_name_H-M "P C C A"
_symmetry_group_IT_number 54
_symmetry_cell_setting 'orthorhombic'
loop_
_space_group_symop_operation_xyz
x,y,z
1/2-x,-y,z
1/2+x,-y,1/2-z
-x,y,1/2-z
-x,-y,-z
1/2+x,y,-z
1/2-x,y,1/2+z
x,-y,1/2+z
loop_
_atom_site_type_symbol
_atom_site_label
_atom_site_fract_x
_atom_site_fract_y
_atom_site_fract_z
Si Si1 0.750000 0.000000 0.160316
Si Si2 0.106587 0.573849 0.049959
Si Si3 0.034687 0.922072 0.624513
Si Si4 0.633480 0.673991 0.770898
O O1 0.803356 0.776109 0.207372
O O2 0.878494 0.077089 0.123450
O O3 0.250000 0.500000 0.028318
O O4 0.090483 0.883465 0.071115
O O5 0.075995 0.382766 0.109048
O O6 0.000000 0.500000 0.000000
O O7 0.089947 0.069538 0.686330
O O8 0.750000 0.500000 0.798587
O O9 0.500000 0.527539 0.750000
#
# Coordination Sequence:
#
# PCOD9423708 Si02
#       4
#     4   8   8   8
#     4  10  26  42  74 110 150 202 234 294 358 456
#     4  12  29  51  79 107 142 191 252 314 374 433
#     4  11  27  47  77 108 151 191 245 306 368 436
#     4  10  24  43  69 110 151 197 243 290 358 445
#
# _framework density 25.430622
#
# number of rings (size 3 to 8) (size 9 to 14) (size 15 to 20)
#    0.000    1.143    0.000    2.571   20.000    1.143 
#    0.000    0.000    0.000    0.000    0.000    0.000 
#    0.000    0.000    0.000    0.000    0.000    0.000 
#
# Total GULP energy -156885.028937 kJ/mol
# GULP energy per Si atom -5603.036748 kJ/mol
# Density = 2.537274 g / cm^3
# Si number density = 25.430622 Si / 1000 Ang^3
#
#
#
# Elastic Constant Matrix: (Units=GPa)
#
#
# Indices 1 2 3 4 5 6 
#
# 1 271.2795 35.9240 46.3169 0.0000 0.0000 0.0000
# 2 35.9240 65.9225 -9.1947 0.0000 0.0000 0.0000
# 3 46.3169 -9.1947 59.0759 0.0000 0.0000 0.0000
# 4 0.0000 0.0000 0.0000 20.3977 0.0000 0.0000
# 5 0.0000 0.0000 0.0000 0.0000 41.8855 0.0000
# 6 0.0000 0.0000 0.0000 0.0000 0.0000 32.8978
#
#
#
# Elastic Compliance Matrix: (Units=1/GPa)
#
#
# Indices 1 2 3 4 5 6 
#
# 1 0.004852 -0.003245 -0.004309 0.000000 0.000000 0.000000
# 2 -0.003245 0.017676 0.005295 0.000000 0.000000 0.000000
# 3 -0.004309 0.005295 0.021130 0.000000 0.000000 0.000000
# 4 0.000000 0.000000 0.000000 0.049025 0.000000 0.000000
# 5 0.000000 0.000000 0.000000 0.000000 0.023875 0.000000
# 6 0.000000 0.000000 0.000000 0.000000 0.000000 0.030397
#
#
# Mechanical properties :
#
#
# Convention : Reuss Voigt Hill
#
# Bulk Modulus (GPa) = 25.54893 60.26336 42.90615
# Shear Modulus (GPa) = 30.39181 40.58498 35.48839
#
# Velocity S-wave (km/s) = 3.46075 3.99922 3.73969
# Velocity P-wave (km/s) = 5.10269 6.71369 5.96284
#
# Compressibility (1/GPa) = 0.03914058
#
# Stress axis : x y z
#
# Youngs Moduli (GPa) = 206.11794 56.57342 47.32670
#
# Poissons Ratio (x) = 0.18357 0.20392
# Poissons Ratio (y) = 0.66882 -0.25060
# Poissons Ratio (z) = 0.88812 -0.29957
#
# Static dielectric constant tensor:
#      x y z
#    x 2.013070 0.000000 0.000000 
#    y 0.000000 1.983540 0.000000 
#    z 0.000000 0.000000 2.039790 
# 
# From -- ./inp_files/25584.got.cif
#   From: 2010.05.17/outbox.cif.g08.bks.cpg/sg54_13_cif.got.tgz:25584.got - 2010.06.03 13:09:01.
