data_PCOD9423006
_publ_section_title
;
Structure prediction by ZEFSAII (Michael W. Deem and Ramdas Pophale) SiO2 
 PCOD9423006
Probable space group: P C C A
;
_chemical_formula_sum "Si O2"
_cell_formula_units_Z 64
_cell_length_a 23.367179
_cell_length_b 9.041548
_cell_length_c 14.336757
_cell_angle_alpha 90.000000
_cell_angle_beta 90.000000
_cell_angle_gamma 90.000000
_cell_volume 3029.005081
_symmetry_space_group_name_H-M "P C C A"
_symmetry_group_IT_number 54
_symmetry_cell_setting 'orthorhombic'
loop_
_space_group_symop_operation_xyz
x,y,z
1/2-x,-y,z
1/2+x,-y,1/2-z
-x,y,1/2-z
-x,-y,-z
1/2+x,y,-z
1/2-x,y,1/2+z
x,-y,1/2+z
loop_
_atom_site_type_symbol
_atom_site_label
_atom_site_fract_x
_atom_site_fract_y
_atom_site_fract_z
Si Si1 0.307954 0.457406 0.112649
Si Si2 0.980201 0.271600 0.521240
Si Si3 0.066024 0.574919 0.905599
Si Si4 0.550837 0.116650 0.316701
Si Si5 0.882199 0.948868 0.973627
Si Si6 0.885453 0.618867 0.226492
Si Si7 0.175485 0.242084 0.462677
Si Si8 0.304131 0.301224 0.449156
O O1 0.250000 0.500000 0.164976
O O2 0.357934 0.461674 0.185615
O O3 0.311853 0.294404 0.068900
O O4 0.306094 0.563610 0.022684
O O5 0.946388 0.427474 0.531914
O O6 0.937055 0.136191 0.514458
O O7 0.019897 0.302503 0.432097
O O8 0.022000 0.226162 0.605857
O O9 0.066444 0.495496 0.807193
O O10 0.127785 0.648572 0.920872
O O11 0.500000 0.053964 0.250000
O O12 0.588194 0.224642 0.253092
O O13 0.592867 0.007064 0.374230
O O14 0.832296 0.828508 0.988360
O O15 0.856592 0.086619 0.030632
O O16 0.840702 0.654927 0.142463
O O17 0.239126 0.256927 0.420144
#
# Coordination Sequence:
#
# PCOD9423006 Si02
#       8
#     8   8   8   8   8   8   8   8
#     4  10  22  40  68 101 135 181 236 290 346 415
#     4  11  23  43  70  99 135 181 236 289 350 423
#     4  11  22  40  71 104 129 180 237 285 350 415
#     4  12  24  42  67  99 140 186 232 292 356 418
#     4  12  23  45  71  96 143 188 236 286 365 430
#     4  12  23  43  71 102 140 184 239 294 362 412
#     4  11  22  42  73 102 139 187 232 291 358 420
#     4  11  25  45  70 103 143 191 237 291 358 433
#
# _framework density 21.129049999999999
#
# number of rings (size 3 to 8) (size 9 to 14) (size 15 to 20)
#    0.000    0.750    6.250    0.750    1.750    0.000 
#    2.250    0.000    5.500    0.000    0.000    0.000 
#    0.000    0.000    0.000    0.000    0.000    0.000 
#
# Total GULP energy -356584.233941 kJ/mol
# GULP energy per Si atom -5571.628655 kJ/mol
# Density = 2.108096 g / cm^3
# Si number density = 21.129050 Si / 1000 Ang^3
#
#
#
# Elastic Constant Matrix: (Units=GPa)
#
#
# Indices 1 2 3 4 5 6 
#
# 1 116.9606 46.0901 26.9511 0.0000 0.0000 0.0000
# 2 46.0901 101.2660 17.2995 0.0000 0.0000 0.0000
# 3 26.9511 17.2995 50.5721 0.0000 0.0000 0.0000
# 4 0.0000 0.0000 0.0000 22.1547 0.0000 0.0000
# 5 0.0000 0.0000 0.0000 0.0000 41.4085 0.0000
# 6 0.0000 0.0000 0.0000 0.0000 0.0000 38.9235
#
#
#
# Elastic Compliance Matrix: (Units=1/GPa)
#
#
# Indices 1 2 3 4 5 6 
#
# 1 0.011320 -0.004377 -0.004535 0.000000 0.000000 0.000000
# 2 -0.004377 0.012181 -0.001834 0.000000 0.000000 0.000000
# 3 -0.004535 -0.001834 0.022818 0.000000 0.000000 0.000000
# 4 0.000000 0.000000 0.000000 0.045137 0.000000 0.000000
# 5 0.000000 0.000000 0.000000 0.000000 0.024150 0.000000
# 6 0.000000 0.000000 0.000000 0.000000 0.000000 0.025691
#
#
# Mechanical properties :
#
#
# Convention : Reuss Voigt Hill
#
# Bulk Modulus (GPa) = 40.28116 49.94224 45.11170
# Shear Modulus (GPa) = 29.22866 32.39454 30.81160
#
# Velocity S-wave (km/s) = 3.72336 3.91983 3.82286
# Velocity P-wave (km/s) = 6.13109 6.64641 6.39395
#
# Compressibility (1/GPa) = 0.02482550
#
# Stress axis : x y z
#
# Youngs Moduli (GPa) = 88.33999 82.09793 43.82498
#
# Poissons Ratio (x) = 0.35937 0.19876
# Poissons Ratio (y) = 0.38670 0.08037
# Poissons Ratio (z) = 0.40064 0.15056
#
# Static dielectric constant tensor:
#      x y z
#    x 1.859960 0.000000 0.000000 
#    y 0.000000 1.795500 0.000000 
#    z 0.000000 0.000000 1.776740 
# 
# From -- ./inp_files/14986.got.cif
#   From: 2010.05.17/outbox.cif.g08.bks.cpg/sg54_8_cif.got.tgz:14986.got - 2010.06.03 13:09:01.
