data_PCOD9423305
_publ_section_title
;
Structure prediction by ZEFSAII (Michael W. Deem and Ramdas Pophale) SiO2 
 PCOD9423305
Probable space group: P C C A
;
_chemical_formula_sum "Si O2"
_cell_formula_units_Z 36
_cell_length_a 12.709583
_cell_length_b 10.047522
_cell_length_c 10.317082
_cell_angle_alpha 90.000000
_cell_angle_beta 90.000000
_cell_angle_gamma 90.000000
_cell_volume 1317.489461
_symmetry_space_group_name_H-M "P C C A"
_symmetry_group_IT_number 54
_symmetry_cell_setting 'orthorhombic'
loop_
_space_group_symop_operation_xyz
x,y,z
1/2-x,-y,z
1/2+x,-y,1/2-z
-x,y,1/2-z
-x,-y,-z
1/2+x,y,-z
1/2-x,y,1/2+z
x,-y,1/2+z
loop_
_atom_site_type_symbol
_atom_site_label
_atom_site_fract_x
_atom_site_fract_y
_atom_site_fract_z
Si Si1 0.104579 0.341457 0.838208
Si Si2 0.948036 0.137278 0.956245
Si Si3 0.873684 0.474856 0.400440
Si Si4 0.250000 0.000000 0.675308
Si Si5 0.657180 0.249753 0.695538
O O1 0.090991 0.405187 0.694744
O O2 0.228354 0.304274 0.844543
O O3 0.038960 0.210030 0.873820
O O4 0.089310 0.448199 0.953312
O O5 0.833924 0.094967 0.898157
O O6 0.918364 0.235483 0.073536
O O7 0.000000 0.000000 0.000000
O O8 0.750000 0.500000 0.414199
O O9 0.883421 0.343322 0.310848
O O10 0.177501 0.899701 0.755507
#
# Coordination Sequence:
#
# PCOD9423305 Si02
#       5
#     8   8   8   4   8
#     4  11  25  47  77 112 154 205 259 320 394 478
#     4  12  26  46  74 108 149 197 260 330 395 470
#     4  10  22  45  75 110 158 207 255 318 392 474
#     4  12  26  46  72 106 150 202 264 328 400 478
#     4  11  24  45  72 104 153 207 257 319 395 474
#
# _framework density 27.324695999999999
#
# number of rings (size 3 to 8) (size 9 to 14) (size 15 to 20)
#    0.000    0.889    0.000    8.000    0.000    8.889 
#    0.000   11.111    0.000    0.000    0.000    0.000 
#    0.000    0.000    0.000    0.000    0.000    0.000 
#
# Total GULP energy -202089.069948 kJ/mol
# GULP energy per Si atom -5613.585276 kJ/mol
# Density = 2.726250 g / cm^3
# Si number density = 27.324696 Si / 1000 Ang^3
#
#
#
# Elastic Constant Matrix: (Units=GPa)
#
#
# Indices 1 2 3 4 5 6 
#
# 1 144.9435 26.5701 64.3767 0.0000 0.0000 0.0000
# 2 26.5701 151.3390 58.9821 0.0000 0.0000 0.0000
# 3 64.3767 58.9821 178.9821 0.0000 0.0000 0.0000
# 4 0.0000 0.0000 0.0000 56.7981 0.0000 0.0000
# 5 0.0000 0.0000 0.0000 0.0000 52.9582 0.0000
# 6 0.0000 0.0000 0.0000 0.0000 0.0000 61.1629
#
#
#
# Elastic Compliance Matrix: (Units=1/GPa)
#
#
# Indices 1 2 3 4 5 6 
#
# 1 0.008226 -0.000334 -0.002849 0.000000 0.000000 0.000000
# 2 -0.000334 0.007595 -0.002383 0.000000 0.000000 0.000000
# 3 -0.002849 -0.002383 0.007397 0.000000 0.000000 0.000000
# 4 0.000000 0.000000 0.000000 0.017606 0.000000 0.000000
# 5 0.000000 0.000000 0.000000 0.000000 0.018883 0.000000
# 6 0.000000 0.000000 0.000000 0.000000 0.000000 0.016350
#
#
# Mechanical properties :
#
#
# Convention : Reuss Voigt Hill
#
# Bulk Modulus (GPa) = 82.73341 86.12471 84.42906
# Shear Modulus (GPa) = 54.81498 55.87286 55.34392
#
# Velocity S-wave (km/s) = 4.48377 4.52682 4.50535
# Velocity P-wave (km/s) = 7.55971 7.67530 7.61772
#
# Compressibility (1/GPa) = 0.01208701
#
# Stress axis : x y z
#
# Youngs Moduli (GPa) = 121.57085 131.66642 135.19098
#
# Poissons Ratio (x) = 0.04397 0.38510
# Poissons Ratio (y) = 0.04060 0.32212
# Poissons Ratio (z) = 0.34630 0.31373
#
# Static dielectric constant tensor:
#      x y z
#    x 2.272190 0.000000 0.000000 
#    y 0.000000 2.096350 0.000000 
#    z 0.000000 0.000000 2.125290 
# 
# From -- ./inp_files/7368.got.cif
#   From: 2010.05.17/outbox.cif.g08.bks.cpg/sg54_4_cif.got.tgz:7368.got - 2010.06.03 13:09:01.
