data_PCOD9423268
_publ_section_title
;
Structure prediction by ZEFSAII (Michael W. Deem and Ramdas Pophale) SiO2 
 PCOD9423268
Probable space group: P C C A
;
_chemical_formula_sum "Si O2"
_cell_formula_units_Z 40
_cell_length_a 10.592839
_cell_length_b 17.507202
_cell_length_c 8.698983
_cell_angle_alpha 90.000000
_cell_angle_beta 90.000000
_cell_angle_gamma 90.000000
_cell_volume 1613.234854
_symmetry_space_group_name_H-M "P C C A"
_symmetry_group_IT_number 54
_symmetry_cell_setting 'orthorhombic'
loop_
_space_group_symop_operation_xyz
x,y,z
1/2-x,-y,z
1/2+x,-y,1/2-z
-x,y,1/2-z
-x,-y,-z
1/2+x,y,-z
1/2-x,y,1/2+z
x,-y,1/2+z
loop_
_atom_site_type_symbol
_atom_site_label
_atom_site_fract_x
_atom_site_fract_y
_atom_site_fract_z
Si Si1 0.364154 0.353512 0.525644
Si Si2 0.000000 0.929436 0.750000
Si Si3 0.500000 0.446112 0.750000
Si Si4 0.250000 0.000000 0.643661
Si Si5 0.298672 0.252456 0.252617
Si Si6 0.641565 0.149666 0.512143
Si Si7 0.750000 0.500000 0.868630
O O1 0.488956 0.391457 0.600141
O O2 0.367300 0.312815 0.362946
O O3 0.307858 0.295305 0.651668
O O4 0.266060 0.424115 0.530916
O O5 0.875087 0.979653 0.761642
O O6 0.983762 0.877654 0.599338
O O7 0.623816 0.497268 0.766170
O O8 0.213708 0.075143 0.548788
O O9 0.380810 0.206192 0.129429
O O10 0.227388 0.192742 0.363020
#
# Coordination Sequence:
#
# PCOD9423268 Si02
#       7
#     8   4   4   4   8   8   4
#     4   9  20  41  71 109 157 211 264 336 394 487
#     4  12  26  49  86 117 164 208 288 342 412 495
#     4   8  18  41  74 105 160 208 278 326 406 473
#     4  12  26  52  80 120 164 220 280 342 404 504
#     4  10  22  44  72 110 162 208 271 328 421 476
#     4  11  24  47  77 112 164 212 267 341 411 495
#     4   8  18  40  72 110 150 218 270 334 392 486
#
# _framework density 24.794903999999999
#
# number of rings (size 3 to 8) (size 9 to 14) (size 15 to 20)
#    1.200    0.800    2.000    1.200    0.000    1.600 
#    0.000    4.000    8.800    0.000    0.000    0.000 
#    0.000    0.000    0.000    0.100    0.000    0.200 
#
# Total GULP energy -223854.953291 kJ/mol
# GULP energy per Si atom -5596.373832 kJ/mol
# Density = 2.473847 g / cm^3
# Si number density = 24.794904 Si / 1000 Ang^3
#
#
#
# Elastic Constant Matrix: (Units=GPa)
#
#
# Indices 1 2 3 4 5 6 
#
# 1 137.3092 54.8529 69.8690 0.0000 0.0000 0.0000
# 2 54.8529 146.2708 77.9796 0.0000 0.0000 0.0000
# 3 69.8690 77.9796 160.1159 0.0000 0.0000 0.0000
# 4 0.0000 0.0000 0.0000 9.8311 0.0000 0.0000
# 5 0.0000 0.0000 0.0000 0.0000 40.9994 0.0000
# 6 0.0000 0.0000 0.0000 0.0000 0.0000 30.4913
#
#
#
# Elastic Compliance Matrix: (Units=1/GPa)
#
#
# Indices 1 2 3 4 5 6 
#
# 1 0.009726 -0.001870 -0.003333 0.000000 0.000000 0.000000
# 2 -0.001870 0.009594 -0.003856 0.000000 0.000000 0.000000
# 3 -0.003333 -0.003856 0.009578 0.000000 0.000000 0.000000
# 4 0.000000 0.000000 0.000000 0.101718 0.000000 0.000000
# 5 0.000000 0.000000 0.000000 0.000000 0.024391 0.000000
# 6 0.000000 0.000000 0.000000 0.000000 0.000000 0.032796
#
#
# Mechanical properties :
#
#
# Convention : Reuss Voigt Hill
#
# Bulk Modulus (GPa) = 92.77861 94.34432 93.56146
# Shear Modulus (GPa) = 23.86456 32.33064 28.09760
#
# Velocity S-wave (km/s) = 3.10575 3.61490 3.36996
# Velocity P-wave (km/s) = 7.09652 7.45358 7.27724
#
# Compressibility (1/GPa) = 0.01077835
#
# Stress axis : x y z
#
# Youngs Moduli (GPa) = 102.81596 104.23319 104.40541
#
# Poissons Ratio (x) = 0.19496 0.34801
# Poissons Ratio (y) = 0.19230 0.40261
# Poissons Ratio (z) = 0.34271 0.40195
#
# Static dielectric constant tensor:
#      x y z
#    x 1.972220 0.000000 0.000000 
#    y 0.000000 1.964830 0.000000 
#    z 0.000000 0.000000 1.987460 
# 
# From -- ./inp_files/2989.got.cif
#   From: 2010.05.17/outbox.cif.g08.bks.cpg/sg54_2_cif.got.tgz:2989.got - 2010.06.03 13:09:01.
