data_PCOD9423291
_publ_section_title
;
Structure prediction by ZEFSAII (Michael W. Deem and Ramdas Pophale) SiO2 
 PCOD9423291
Probable space group: P C C A
;
_chemical_formula_sum "Si O2"
_cell_formula_units_Z 40
_cell_length_a 6.808701
_cell_length_b 13.322569
_cell_length_c 17.727740
_cell_angle_alpha 90.000000
_cell_angle_beta 90.000000
_cell_angle_gamma 90.000000
_cell_volume 1608.072461
_symmetry_space_group_name_H-M "P C C A"
_symmetry_group_IT_number 54
_symmetry_cell_setting 'orthorhombic'
loop_
_space_group_symop_operation_xyz
x,y,z
1/2-x,-y,z
1/2+x,-y,1/2-z
-x,y,1/2-z
-x,-y,-z
1/2+x,y,-z
1/2-x,y,1/2+z
x,-y,1/2+z
loop_
_atom_site_type_symbol
_atom_site_label
_atom_site_fract_x
_atom_site_fract_y
_atom_site_fract_z
Si Si1 0.769899 0.796075 0.317054
Si Si2 0.387104 0.291569 0.402542
Si Si3 0.000000 0.625550 0.750000
Si Si4 0.750000 0.000000 0.111999
Si Si5 0.750000 0.500000 0.633830
Si Si6 0.000000 0.036874 0.250000
Si Si7 0.476771 0.815458 0.445044
O O1 0.988981 0.758287 0.335090
O O2 0.665191 0.697529 0.284616
O O3 0.685525 0.888983 0.267852
O O4 0.674434 0.825656 0.397700
O O5 0.371241 0.411699 0.408111
O O6 0.163866 0.256107 0.396226
O O7 0.471752 0.240727 0.478202
O O8 0.904600 0.555566 0.687164
O O9 0.844375 0.084048 0.057691
O O10 0.933307 0.983922 0.171445
#
# Coordination Sequence:
#
# PCOD9423291 Si02
#       7
#     8   8   4   4   4   4   8
#     4  10  22  45  69  96 145 180 230 298 358 426
#     4  12  25  45  71  99 141 193 233 299 354 423
#     4  11  22  46  65 104 136 174 237 294 353 442
#     4  10  24  44  70 106 138 184 238 294 358 440
#     4  12  26  42  72 106 134 192 242 294 374 426
#     4   9  22  42  67 106 140 184 239 296 369 446
#     4  11  24  47  67 102 142 183 242 289 355 427
#
# _framework density 24.874499
#
# number of rings (size 3 to 8) (size 9 to 14) (size 15 to 20)
#    0.000    1.200    4.000    1.200    2.800    1.600 
#    0.000    0.000    0.000    0.000    0.000    0.000 
#    0.000    0.000    0.000    0.000    0.000    0.000 
#
# Total GULP energy -223412.996523 kJ/mol
# GULP energy per Si atom -5585.324913 kJ/mol
# Density = 2.481788 g / cm^3
# Si number density = 24.874499 Si / 1000 Ang^3
#
#
#
# Elastic Constant Matrix: (Units=GPa)
#
#
# Indices 1 2 3 4 5 6 
#
# 1 102.0101 29.5066 33.7975 0.0000 0.0000 0.0000
# 2 29.5066 176.4469 64.9781 0.0000 0.0000 0.0000
# 3 33.7975 64.9781 120.4187 0.0000 0.0000 0.0000
# 4 0.0000 0.0000 0.0000 41.2864 0.0000 0.0000
# 5 0.0000 0.0000 0.0000 0.0000 50.3468 0.0000
# 6 0.0000 0.0000 0.0000 0.0000 0.0000 25.4928
#
#
#
# Elastic Compliance Matrix: (Units=1/GPa)
#
#
# Indices 1 2 3 4 5 6 
#
# 1 0.010914 -0.000870 -0.002594 0.000000 0.000000 0.000000
# 2 -0.000870 0.007142 -0.003610 0.000000 0.000000 0.000000
# 3 -0.002594 -0.003610 0.010980 0.000000 0.000000 0.000000
# 4 0.000000 0.000000 0.000000 0.024221 0.000000 0.000000
# 5 0.000000 0.000000 0.000000 0.000000 0.019862 0.000000
# 6 0.000000 0.000000 0.000000 0.000000 0.000000 0.039227
#
#
# Mechanical properties :
#
#
# Convention : Reuss Voigt Hill
#
# Bulk Modulus (GPa) = 67.16194 72.82668 69.99431
# Shear Modulus (GPa) = 38.03539 41.46478 39.75009
#
# Velocity S-wave (km/s) = 3.91460 4.08727 4.00187
# Velocity P-wave (km/s) = 6.89138 7.18440 7.03941
#
# Compressibility (1/GPa) = 0.01488938
#
# Stress axis : x y z
#
# Youngs Moduli (GPa) = 91.62603 140.01203 91.07303
#
# Poissons Ratio (x) = 0.12180 0.23622
# Poissons Ratio (y) = 0.07971 0.32876
# Poissons Ratio (z) = 0.23766 0.50542
#
# Static dielectric constant tensor:
#      x y z
#    x 2.036950 0.000000 0.000000 
#    y 0.000000 2.041180 0.000000 
#    z 0.000000 0.000000 2.025550 
# 
# From -- ./inp_files/16421.got.cif
#   From: 2010.05.17/outbox.cif.g08.bks.cpg/sg54_9_cif.got.tgz:16421.got - 2010.06.03 13:09:01.
