data_PCOD9423977
_publ_section_title
;
Structure prediction by ZEFSAII (Michael W. Deem and Ramdas Pophale) SiO2 
 PCOD9423977
Probable space group: P C C A
;
_chemical_formula_sum "Si O2"
_cell_formula_units_Z 40
_cell_length_a 17.513358
_cell_length_b 8.370367
_cell_length_c 12.314039
_cell_angle_alpha 90.000000
_cell_angle_beta 90.000000
_cell_angle_gamma 90.000000
_cell_volume 1805.154799
_symmetry_space_group_name_H-M "P C C A"
_symmetry_group_IT_number 54
_symmetry_cell_setting 'orthorhombic'
loop_
_space_group_symop_operation_xyz
x,y,z
1/2-x,-y,z
1/2+x,-y,1/2-z
-x,y,1/2-z
-x,-y,-z
1/2+x,y,-z
1/2-x,y,1/2+z
x,-y,1/2+z
loop_
_atom_site_type_symbol
_atom_site_label
_atom_site_fract_x
_atom_site_fract_y
_atom_site_fract_z
Si Si1 0.728682 0.183487 0.665242
Si Si2 0.082361 0.277537 0.202308
Si Si3 0.380380 0.650090 0.748952
Si Si4 0.684842 0.618862 0.964600
Si Si5 0.565942 0.375623 0.032838
O O1 0.653007 0.194864 0.739071
O O2 0.796506 0.293498 0.712225
O O3 0.716018 0.248117 0.544028
O O4 0.750000 0.000000 0.662932
O O5 0.097629 0.464473 0.230275
O O6 0.000000 0.232447 0.250000
O O7 0.079200 0.263990 0.071460
O O8 0.372168 0.698468 0.622477
O O9 0.436318 0.702339 0.847741
O O10 0.750000 0.500000 0.914815
O O11 0.638320 0.494266 0.038317
O O12 0.500000 0.500000 0.000000
#
# Coordination Sequence:
#
# PCOD9423977 Si02
#       5
#     8   8   8   8   8
#     4  12  25  42  62  95 141 184 227 276 342 423
#     4  11  21  41  71 100 135 173 229 287 353 399
#     4  11  22  39  65  98 126 171 228 284 340 402
#     4  11  21  37  63  89 124 167 226 280 331 397
#     4  11  20  36  68 100 127 160 218 293 345 393
#
# _framework density 22.158764000000001
#
# number of rings (size 3 to 8) (size 9 to 14) (size 15 to 20)
#    0.000    0.800    6.000    3.000    0.000    0.800 
#    0.000    1.000    0.000    2.400    0.000    0.000 
#    0.000    0.000    0.000    0.000    0.000    0.000 
#
# Total GULP energy -222992.010816 kJ/mol
# GULP energy per Si atom -5574.800270 kJ/mol
# Density = 2.210833 g / cm^3
# Si number density = 22.158764 Si / 1000 Ang^3
#
#
#
# Elastic Constant Matrix: (Units=GPa)
#
#
# Indices 1 2 3 4 5 6 
#
# 1 90.7995 31.6723 11.2630 0.0000 0.0000 0.0000
# 2 31.6723 53.8726 29.0748 0.0000 0.0000 0.0000
# 3 11.2630 29.0748 158.7968 0.0000 0.0000 0.0000
# 4 0.0000 0.0000 0.0000 7.7766 0.0000 0.0000
# 5 0.0000 0.0000 0.0000 0.0000 41.2332 0.0000
# 6 0.0000 0.0000 0.0000 0.0000 0.0000 12.7952
#
#
#
# Elastic Compliance Matrix: (Units=1/GPa)
#
#
# Indices 1 2 3 4 5 6 
#
# 1 0.013900 -0.008478 0.000566 0.000000 0.000000 0.000000
# 2 -0.008478 0.025768 -0.004117 0.000000 0.000000 0.000000
# 3 0.000566 -0.004117 0.007011 0.000000 0.000000 0.000000
# 4 0.000000 0.000000 0.000000 0.128591 0.000000 0.000000
# 5 0.000000 0.000000 0.000000 0.000000 0.024252 0.000000
# 6 0.000000 0.000000 0.000000 0.000000 0.000000 0.078154
#
#
# Mechanical properties :
#
#
# Convention : Reuss Voigt Hill
#
# Bulk Modulus (GPa) = 44.20252 49.72099 46.96175
# Shear Modulus (GPa) = 16.16687 27.79157 21.97922
#
# Velocity S-wave (km/s) = 2.70403 3.54531 3.15286
# Velocity P-wave (km/s) = 5.45348 6.26468 5.87310
#
# Compressibility (1/GPa) = 0.02262315
#
# Stress axis : x y z
#
# Youngs Moduli (GPa) = 71.94144 38.80745 142.63431
#
# Poissons Ratio (x) = 0.32900 -0.08078
# Poissons Ratio (y) = 0.60990 0.58718
# Poissons Ratio (z) = -0.04074 0.15976
#
# Static dielectric constant tensor:
#      x y z
#    x 1.922540 0.000000 0.000000 
#    y 0.000000 1.785340 0.000000 
#    z 0.000000 0.000000 1.881780 
# 
# From -- ./inp_files/8713.got.cif
#   From: 2010.05.17/outbox.cif.g08.bks.cpg/sg54_5_cif.got.tgz:8713.got - 2010.06.03 13:09:01.
