data_PCOD9423121
_publ_section_title
;
Structure prediction by ZEFSAII (Michael W. Deem and Ramdas Pophale) SiO2 
 PCOD9423121
Probable space group: P C C A
;
_chemical_formula_sum "Si O2"
_cell_formula_units_Z 40
_cell_length_a 5.532896
_cell_length_b 16.807912
_cell_length_c 18.817230
_cell_angle_alpha 90.000000
_cell_angle_beta 90.000000
_cell_angle_gamma 90.000000
_cell_volume 1749.935195
_symmetry_space_group_name_H-M "P C C A"
_symmetry_group_IT_number 54
_symmetry_cell_setting 'orthorhombic'
loop_
_space_group_symop_operation_xyz
x,y,z
1/2-x,-y,z
1/2+x,-y,1/2-z
-x,y,1/2-z
-x,-y,-z
1/2+x,y,-z
1/2-x,y,1/2+z
x,-y,1/2+z
loop_
_atom_site_type_symbol
_atom_site_label
_atom_site_fract_x
_atom_site_fract_y
_atom_site_fract_z
Si Si1 0.500000 0.297300 0.250000
Si Si2 0.250000 0.000000 0.294548
Si Si3 0.095934 0.612971 0.969841
Si Si4 0.157301 0.825789 0.821264
Si Si5 0.867316 0.581323 0.823098
Si Si6 0.550515 0.797798 0.026605
O O1 0.639987 0.239334 0.195759
O O2 0.324400 0.352525 0.202489
O O3 0.249876 0.915364 0.333831
O O4 0.500000 0.001101 0.250000
O O5 0.043647 0.609433 0.885732
O O6 0.092306 0.705645 0.994155
O O7 0.858124 0.579828 0.009612
O O8 0.005763 0.801340 0.889501
O O9 0.000000 0.826658 0.750000
O O10 0.750000 0.500000 0.850039
O O11 0.000000 0.560194 0.750000
O O12 0.315787 0.833672 0.988904
#
# Coordination Sequence:
#
# PCOD9423121 Si02
#       6
#     4   4   8   8   8   8
#     4  12  24  42  72 100 130 182 242 274 358 410
#     4  10  22  42  66 106 142 174 224 298 340 398
#     4  10  24  43  69  97 132 181 234 283 343 411
#     4  11  24  42  72 103 135 180 236 282 344 417
#     4  12  27  45  67  99 140 180 232 296 351 407
#     4  10  23  40  65  99 140 177 228 282 344 409
#
# _framework density 22.857989
#
# number of rings (size 3 to 8) (size 9 to 14) (size 15 to 20)
#    0.000    1.200    2.000    3.000   14.000    0.800 
#    0.000    1.000    0.000    0.000    0.000    0.000 
#    0.000    0.000    0.000    0.000    0.000    0.000 
#
# Total GULP energy -223577.470535 kJ/mol
# GULP energy per Si atom -5589.436763 kJ/mol
# Density = 2.280596 g / cm^3
# Si number density = 22.857989 Si / 1000 Ang^3
#
#
#
# Elastic Constant Matrix: (Units=GPa)
#
#
# Indices 1 2 3 4 5 6 
#
# 1 122.3802 19.7486 32.8566 0.0000 0.0000 0.0000
# 2 19.7486 104.1668 -15.9494 0.0000 0.0000 0.0000
# 3 32.8566 -15.9494 92.2227 0.0000 0.0000 0.0000
# 4 0.0000 0.0000 0.0000 -51.8607 0.0000 0.0000
# 5 0.0000 0.0000 0.0000 0.0000 43.8495 0.0000
# 6 0.0000 0.0000 0.0000 0.0000 0.0000 19.5591
#
#
#
# Elastic Compliance Matrix: (Units=1/GPa)
#
#
# Indices 1 2 3 4 5 6 
#
# 1 0.009588 -0.002404 -0.003832 0.000000 0.000000 0.000000
# 2 -0.002404 0.010464 0.002666 0.000000 0.000000 0.000000
# 3 -0.003832 0.002666 0.012670 0.000000 0.000000 0.000000
# 4 0.000000 0.000000 0.000000 -0.019282 0.000000 0.000000
# 5 0.000000 0.000000 0.000000 0.000000 0.022805 0.000000
# 6 0.000000 0.000000 0.000000 0.000000 0.000000 0.051127
#
#
# Mechanical properties :
#
#
# Convention : Reuss Voigt Hill
#
# Bulk Modulus (GPa) = 39.09011 43.56460 41.32735
# Shear Modulus (GPa) = 48.52536 21.11717 34.82126
#
# Velocity S-wave (km/s) = 4.61250 3.04277 3.90728
# Velocity P-wave (km/s) = 6.74576 5.60757 6.20283
#
# Compressibility (1/GPa) = 0.02558192
#
# Stress axis : x y z
#
# Youngs Moduli (GPa) = 104.29672 95.56489 78.92890
#
# Poissons Ratio (x) = 0.22978 0.30244
# Poissons Ratio (y) = 0.25078 -0.21045
# Poissons Ratio (z) = 0.39965 -0.25481
#
# Static dielectric constant tensor:
#      x y z
#    x 1.964840 0.000000 0.000000 
#    y 0.000000 1.879620 0.000000 
#    z 0.000000 0.000000 1.827010 
# 
# From -- ./inp_files/15804.got.cif
#   From: 2010.05.17/outbox.cif.g08.bks.cpg/sg54_8_cif.got.tgz:15804.got - 2010.06.03 13:09:01.
