data_PCOD9423175
_publ_section_title
;
Structure prediction by ZEFSAII (Michael W. Deem and Ramdas Pophale) SiO2 
 PCOD9423175
Probable space group: P C C A
;
_chemical_formula_sum "Si O2"
_cell_formula_units_Z 32
_cell_length_a 7.740497
_cell_length_b 6.242941
_cell_length_c 30.558400
_cell_angle_alpha 90.000000
_cell_angle_beta 90.000000
_cell_angle_gamma 90.000000
_cell_volume 1476.687806
_symmetry_space_group_name_H-M "P C C A"
_symmetry_group_IT_number 54
_symmetry_cell_setting 'orthorhombic'
loop_
_space_group_symop_operation_xyz
x,y,z
1/2-x,-y,z
1/2+x,-y,1/2-z
-x,y,1/2-z
-x,-y,-z
1/2+x,y,-z
1/2-x,y,1/2+z
x,-y,1/2+z
loop_
_atom_site_type_symbol
_atom_site_label
_atom_site_fract_x
_atom_site_fract_y
_atom_site_fract_z
Si Si1 0.034379 0.202713 0.967585
Si Si2 0.500000 0.836433 0.750000
Si Si3 0.750000 0.000000 0.605795
Si Si4 0.750000 0.500000 0.289080
Si Si5 0.068151 0.119928 0.165986
Si Si6 0.250000 0.500000 0.530983
O O1 0.160084 0.161592 0.927561
O O2 0.867018 0.319389 0.946918
O O3 0.129107 0.361507 0.000090
O O4 0.000000 0.000000 0.000000
O O5 0.341260 0.676641 0.741239
O O6 0.498395 0.987883 0.792054
O O7 0.909245 0.896292 0.632416
O O8 0.619754 0.639728 0.319111
O O9 0.250000 0.000000 0.152803
#
# Coordination Sequence:
#
# PCOD9423175 Si02
#       6
#     8   4   4   4   8   4
#     4  11  22  46  70 105 143 188 237 303 363 437
#     4  10  22  42  74 104 146 194 242 298 374 438
#     4  12  26  46  76 108 148 194 250 312 364 424
#     4  10  22  44  74 104 144 200 236 300 373 441
#     4  10  25  46  66 108 151 188 245 313 356 441
#     4  10  22  42  74 100 136 194 236 282 373 445
#
# _framework density 21.670117000000001
#
# number of rings (size 3 to 8) (size 9 to 14) (size 15 to 20)
#    0.000    1.500    2.500    0.750    8.750    2.000 
#    9.000    2.500    0.000    0.000    0.000    0.000 
#    0.000    0.000    0.000    0.000    0.000    0.000 
#
# Total GULP energy -178450.459281 kJ/mol
# GULP energy per Si atom -5576.576853 kJ/mol
# Density = 2.162080 g / cm^3
# Si number density = 21.670117 Si / 1000 Ang^3
#
#
#
# Elastic Constant Matrix: (Units=GPa)
#
#
# Indices 1 2 3 4 5 6 
#
# 1 143.3607 51.1579 57.5457 0.0000 0.0000 0.0000
# 2 51.1579 121.2303 31.2664 0.0000 0.0000 0.0000
# 3 57.5457 31.2664 71.1145 0.0000 0.0000 0.0000
# 4 0.0000 0.0000 0.0000 -12.4478 0.0000 0.0000
# 5 0.0000 0.0000 0.0000 0.0000 55.1318 0.0000
# 6 0.0000 0.0000 0.0000 0.0000 0.0000 51.5253
#
#
#
# Elastic Compliance Matrix: (Units=1/GPa)
#
#
# Indices 1 2 3 4 5 6 
#
# 1 0.011041 -0.002656 -0.007766 0.000000 0.000000 0.000000
# 2 -0.002656 0.009943 -0.002222 0.000000 0.000000 0.000000
# 3 -0.007766 -0.002222 0.021323 0.000000 0.000000 0.000000
# 4 0.000000 0.000000 0.000000 -0.080335 0.000000 0.000000
# 5 0.000000 0.000000 0.000000 0.000000 0.018138 0.000000
# 6 0.000000 0.000000 0.000000 0.000000 0.000000 0.019408
#
#
# Mechanical properties :
#
#
# Convention : Reuss Voigt Hill
#
# Bulk Modulus (GPa) = 58.76262 68.40508 63.58385
# Shear Modulus (GPa) = 164.04531 31.89088 97.96809
#
# Velocity S-wave (km/s) = 8.71008 3.84037 6.73105
# Velocity P-wave (km/s) = 11.32827 7.16238 9.47706
#
# Compressibility (1/GPa) = 0.01701762
#
# Stress axis : x y z
#
# Youngs Moduli (GPa) = 90.57432 100.57622 46.89695
#
# Poissons Ratio (x) = 0.26713 0.36422
# Poissons Ratio (y) = 0.24057 0.10421
# Poissons Ratio (z) = 0.70343 0.22350
#
# Static dielectric constant tensor:
#      x y z
#    x 1.913140 0.000000 0.000000 
#    y 0.000000 1.850540 0.000000 
#    z 0.000000 0.000000 1.780340 
# 
# From -- ./inp_files/27464.got.cif
#   From: 2010.05.17/outbox.cif.g08.bks.cpg/sg54_14_cif.got.tgz:27464.got - 2010.06.03 13:09:01.
