data_PCOD9423701
_publ_section_title
;
Structure prediction by ZEFSAII (Michael W. Deem and Ramdas Pophale) SiO2 
 PCOD9423701
Probable space group: P C C A
;
_chemical_formula_sum "Si O2"
_cell_formula_units_Z 36
_cell_length_a 14.049171
_cell_length_b 10.751058
_cell_length_c 11.547206
_cell_angle_alpha 90.000000
_cell_angle_beta 90.000000
_cell_angle_gamma 90.000000
_cell_volume 1744.129858
_symmetry_space_group_name_H-M "P C C A"
_symmetry_group_IT_number 54
_symmetry_cell_setting 'orthorhombic'
loop_
_space_group_symop_operation_xyz
x,y,z
1/2-x,-y,z
1/2+x,-y,1/2-z
-x,y,1/2-z
-x,-y,-z
1/2+x,y,-z
1/2-x,y,1/2+z
x,-y,1/2+z
loop_
_atom_site_type_symbol
_atom_site_label
_atom_site_fract_x
_atom_site_fract_y
_atom_site_fract_z
Si Si1 0.392423 0.831954 0.276408
Si Si2 0.250000 0.000000 0.403006
Si Si3 0.635135 0.390478 0.547767
Si Si4 0.182189 0.753016 0.529527
Si Si5 0.533389 0.377134 0.124797
O O1 0.500000 0.867279 0.250000
O O2 0.392922 0.729892 0.377797
O O3 0.343733 0.769516 0.163737
O O4 0.333403 0.949411 0.320987
O O5 0.279652 0.115964 0.482059
O O6 0.739074 0.353936 0.498141
O O7 0.563738 0.412625 0.441060
O O8 0.607503 0.506865 0.630304
O O9 0.089118 0.720411 0.454615
O O10 0.500000 0.333099 0.250000
#
# Coordination Sequence:
#
# PCOD9423701 Si02
#       5
#     8   4   8   8   8
#     4  11  22  45  70  93 136 174 223 283 331 395
#     4  10  26  42  64 100 130 174 234 274 334 394
#     4  10  24  43  65  99 133 170 218 269 336 405
#     4  11  24  45  66  97 130 180 220 273 337 393
#     4  11  24  42  68 100 133 171 218 272 333 407
#
# _framework density 20.640664000000001
#
# number of rings (size 3 to 8) (size 9 to 14) (size 15 to 20)
#    0.000    1.333    2.222    2.000    9.333    1.778 
#    0.000    0.000    0.000    0.000    0.000    0.000 
#    0.000    0.000    0.000    0.000    0.000    0.000 
#
# Total GULP energy -200965.357906 kJ/mol
# GULP energy per Si atom -5582.371053 kJ/mol
# Density = 2.059368 g / cm^3
# Si number density = 20.640664 Si / 1000 Ang^3
#
#
#
# Elastic Constant Matrix: (Units=GPa)
#
#
# Indices 1 2 3 4 5 6 
#
# 1 102.7212 10.3717 23.0070 0.0000 0.0000 0.0000
# 2 10.3717 65.7102 -3.7220 0.0000 0.0000 0.0000
# 3 23.0070 -3.7220 79.2026 0.0000 0.0000 0.0000
# 4 0.0000 0.0000 0.0000 19.1162 0.0000 0.0000
# 5 0.0000 0.0000 0.0000 0.0000 28.7851 0.0000
# 6 0.0000 0.0000 0.0000 0.0000 0.0000 31.0602
#
#
#
# Elastic Compliance Matrix: (Units=1/GPa)
#
#
# Indices 1 2 3 4 5 6 
#
# 1 0.010634 -0.001858 -0.003176 0.000000 0.000000 0.000000
# 2 -0.001858 0.015584 0.001272 0.000000 0.000000 0.000000
# 3 -0.003176 0.001272 0.013608 0.000000 0.000000 0.000000
# 4 0.000000 0.000000 0.000000 0.052312 0.000000 0.000000
# 5 0.000000 0.000000 0.000000 0.000000 0.034740 0.000000
# 6 0.000000 0.000000 0.000000 0.000000 0.000000 0.032196
#
#
# Mechanical properties :
#
#
# Convention : Reuss Voigt Hill
#
# Bulk Modulus (GPa) = 30.95884 34.10528 32.53206
# Shear Modulus (GPa) = 28.19034 30.32412 29.25723
#
# Velocity S-wave (km/s) = 3.69964 3.83710 3.76900
# Velocity P-wave (km/s) = 5.76899 6.01584 5.89371
#
# Compressibility (1/GPa) = 0.03230096
#
# Stress axis : x y z
#
# Youngs Moduli (GPa) = 94.03658 64.16946 73.48452
#
# Poissons Ratio (x) = 0.11925 0.23341
# Poissons Ratio (y) = 0.17476 -0.09348
# Poissons Ratio (z) = 0.29870 -0.08163
#
# Static dielectric constant tensor:
#      x y z
#    x 1.777000 0.000000 0.000000 
#    y 0.000000 1.725870 0.000000 
#    z 0.000000 0.000000 1.714240 
# 
# From -- ./inp_files/7390.got.cif
#   From: 2010.05.17/outbox.cif.g08.bks.cpg/sg54_4_cif.got.tgz:7390.got - 2010.06.03 13:09:01.
