data_PCOD9423845
_publ_section_title
;
Structure prediction by ZEFSAII (Michael W. Deem and Ramdas Pophale) SiO2 
 PCOD9423845
Probable space group: P C C A
;
_chemical_formula_sum "Si O2"
_cell_formula_units_Z 32
_cell_length_a 10.666212
_cell_length_b 9.099740
_cell_length_c 13.531924
_cell_angle_alpha 90.000000
_cell_angle_beta 90.000000
_cell_angle_gamma 90.000000
_cell_volume 1313.405241
_symmetry_space_group_name_H-M "P C C A"
_symmetry_group_IT_number 54
_symmetry_cell_setting 'orthorhombic'
loop_
_space_group_symop_operation_xyz
x,y,z
1/2-x,-y,z
1/2+x,-y,1/2-z
-x,y,1/2-z
-x,-y,-z
1/2+x,y,-z
1/2-x,y,1/2+z
x,-y,1/2+z
loop_
_atom_site_type_symbol
_atom_site_label
_atom_site_fract_x
_atom_site_fract_y
_atom_site_fract_z
Si Si1 0.988924 0.403068 0.902576
Si Si2 0.250000 0.000000 0.497045
Si Si3 0.401950 0.900582 0.831487
Si Si4 0.000000 0.617098 0.750000
Si Si5 0.243223 0.752263 0.661697
O O1 0.063951 0.504268 0.825549
O O2 0.845063 0.372078 0.868590
O O3 0.044748 0.240195 0.891186
O O4 0.000000 0.500000 0.000000
O O5 0.136892 0.010617 0.417935
O O6 0.240325 0.861876 0.568663
O O7 0.500000 0.957707 0.750000
O O8 0.294406 0.836593 0.759277
O O9 0.895468 0.701598 0.810905
#
# Coordination Sequence:
#
# PCOD9423845 Si02
#       5
#     8   4   8   4   8
#     4  11  24  46  78 111 152 199 260 321 395 468
#     4  12  26  50  78 110 154 202 272 308 392 492
#     4  10  24  49  72 108 151 195 252 330 380 468
#     4  12  24  48  76 110 156 198 254 330 390 468
#     4  11  26  49  74 117 150 211 254 323 399 461
#
# _framework density 24.364148
#
# number of rings (size 3 to 8) (size 9 to 14) (size 15 to 20)
#    0.000    1.000    3.750    3.000    3.500    4.000 
#   18.000    0.000    0.000    0.000    0.000    0.000 
#    0.000    0.000    0.000    0.000    0.000    0.000 
#
# Total GULP energy -178812.582657 kJ/mol
# GULP energy per Si atom -5587.893208 kJ/mol
# Density = 2.430869 g / cm^3
# Si number density = 24.364148 Si / 1000 Ang^3
#
#
#
# Elastic Constant Matrix: (Units=GPa)
#
#
# Indices 1 2 3 4 5 6 
#
# 1 103.9397 55.0906 52.2915 0.0000 0.0000 0.0000
# 2 55.0906 84.0339 74.3504 0.0000 0.0000 0.0000
# 3 52.2915 74.3504 201.6089 0.0000 0.0000 0.0000
# 4 0.0000 0.0000 0.0000 45.0562 0.0000 0.0000
# 5 0.0000 0.0000 0.0000 0.0000 35.4784 0.0000
# 6 0.0000 0.0000 0.0000 0.0000 0.0000 36.4931
#
#
#
# Elastic Compliance Matrix: (Units=1/GPa)
#
#
# Indices 1 2 3 4 5 6 
#
# 1 0.014764 -0.009338 -0.000386 0.000000 0.000000 0.000000
# 2 -0.009338 0.023569 -0.006270 0.000000 0.000000 0.000000
# 3 -0.000386 -0.006270 0.007372 0.000000 0.000000 0.000000
# 4 0.000000 0.000000 0.000000 0.022195 0.000000 0.000000
# 5 0.000000 0.000000 0.000000 0.000000 0.028186 0.000000
# 6 0.000000 0.000000 0.000000 0.000000 0.000000 0.027402
#
#
# Mechanical properties :
#
#
# Convention : Reuss Voigt Hill
#
# Bulk Modulus (GPa) = 72.89325 83.67196 78.28260
# Shear Modulus (GPa) = 31.24045 37.26220 34.25132
#
# Velocity S-wave (km/s) = 3.58471 3.91498 3.75348
# Velocity P-wave (km/s) = 6.86416 7.40627 7.14036
#
# Compressibility (1/GPa) = 0.01371869
#
# Stress axis : x y z
#
# Youngs Moduli (GPa) = 67.73087 42.42853 135.64042
#
# Poissons Ratio (x) = 0.39619 0.05233
# Poissons Ratio (y) = 0.63246 0.85046
# Poissons Ratio (z) = 0.02613 0.26603
#
# Static dielectric constant tensor:
#      x y z
#    x 2.059170 0.000000 0.000000 
#    y 0.000000 1.998220 0.000000 
#    z 0.000000 0.000000 1.986120 
# 
# From -- ./inp_files/12272.got.cif
#   From: 2010.05.17/outbox.cif.g08.bks.cpg/sg54_7_cif.got.tgz:12272.got - 2010.06.03 13:09:01.
