data_PCOD9423030
_publ_section_title
;
Structure prediction by ZEFSAII (Michael W. Deem and Ramdas Pophale) SiO2 
 PCOD9423030
Probable space group: P C C A
;
_chemical_formula_sum "Si O2"
_cell_formula_units_Z 56
_cell_length_a 13.295858
_cell_length_b 5.418823
_cell_length_c 31.672256
_cell_angle_alpha 90.000000
_cell_angle_beta 90.000000
_cell_angle_gamma 90.000000
_cell_volume 2281.919569
_symmetry_space_group_name_H-M "P C C A"
_symmetry_group_IT_number 54
_symmetry_cell_setting 'orthorhombic'
loop_
_space_group_symop_operation_xyz
x,y,z
1/2-x,-y,z
1/2+x,-y,1/2-z
-x,y,1/2-z
-x,-y,-z
1/2+x,y,-z
1/2-x,y,1/2+z
x,-y,1/2+z
loop_
_atom_site_type_symbol
_atom_site_label
_atom_site_fract_x
_atom_site_fract_y
_atom_site_fract_z
Si Si1 0.750000 0.500000 0.626706
Si Si2 0.908519 0.381152 0.352421
Si Si3 0.387604 0.142020 0.822400
Si Si4 0.348378 0.329110 0.561477
Si Si5 0.193199 0.257625 0.234460
Si Si6 0.453774 0.856055 0.459850
Si Si7 0.750000 0.000000 0.508646
Si Si8 0.050911 0.755578 0.384227
O O1 0.793574 0.726247 0.654879
O O2 0.850915 0.407585 0.602691
O O3 0.856420 0.234713 0.390377
O O4 0.849504 0.363362 0.309212
O O5 0.017083 0.286116 0.339630
O O6 0.941575 0.638813 0.374094
O O7 0.379162 0.172262 0.772473
O O8 0.411069 0.870879 0.839699
O O9 0.250000 0.500000 0.563723
O O10 0.468419 0.371265 0.549531
O O11 0.315454 0.160499 0.523056
O O12 0.250000 0.500000 0.252362
O O13 0.250000 0.000000 0.224833
O O14 0.500000 0.000000 0.500000
O O15 0.333229 0.834654 0.466966
O O16 0.460546 0.035359 0.419407
#
# Coordination Sequence:
#
# PCOD9423030 Si02
#       8
#     4   8   8   8   8   8   4   8
#     4  10  22  40  72 110 136 194 256 310 408 460
#     4  11  27  45  74 111 144 211 258 321 403 492
#     4  11  23  47  73 103 157 194 253 330 393 487
#     4  11  25  46  73 105 148 200 254 321 393 483
#     4  12  28  48  75 114 156 205 274 332 403 487
#     4  10  24  48  71 107 149 200 257 327 399 480
#     4  10  26  46  74 104 154 198 256 338 396 484
#     4  11  24  44  77 105 155 196 259 329 405 489
#
# _framework density 24.540742000000002
#
# number of rings (size 3 to 8) (size 9 to 14) (size 15 to 20)
#    0.000    1.143    2.143    2.143   11.000    0.571 
#    7.714    0.000    0.000    0.000    0.000    0.000 
#    0.000    0.000    0.000    0.000    0.000    0.000 
#
# Total GULP energy -312029.211941 kJ/mol
# GULP energy per Si atom -5571.950213 kJ/mol
# Density = 2.448489 g / cm^3
# Si number density = 24.540742 Si / 1000 Ang^3
#
#
#
# Elastic Constant Matrix: (Units=GPa)
#
#
# Indices 1 2 3 4 5 6 
#
# 1 156.2761 40.4259 51.3909 0.0000 0.0000 0.0000
# 2 40.4259 64.0658 31.8660 0.0000 0.0000 0.0000
# 3 51.3909 31.8660 148.8190 0.0000 0.0000 0.0000
# 4 0.0000 0.0000 0.0000 19.0912 0.0000 0.0000
# 5 0.0000 0.0000 0.0000 0.0000 19.5132 0.0000
# 6 0.0000 0.0000 0.0000 0.0000 0.0000 32.6616
#
#
#
# Elastic Compliance Matrix: (Units=1/GPa)
#
#
# Indices 1 2 3 4 5 6 
#
# 1 0.008103 -0.004165 -0.001906 0.000000 0.000000 0.000000
# 2 -0.004165 0.019610 -0.002761 0.000000 0.000000 0.000000
# 3 -0.001906 -0.002761 0.007969 0.000000 0.000000 0.000000
# 4 0.000000 0.000000 0.000000 0.052380 0.000000 0.000000
# 5 0.000000 0.000000 0.000000 0.000000 0.051247 0.000000
# 6 0.000000 0.000000 0.000000 0.000000 0.000000 0.030617
#
#
# Mechanical properties :
#
#
# Convention : Reuss Voigt Hill
#
# Bulk Modulus (GPa) = 55.49936 68.50294 62.00115
# Shear Modulus (GPa) = 25.82676 30.61839 28.22258
#
# Velocity S-wave (km/s) = 3.24760 3.53605 3.39489
# Velocity P-wave (km/s) = 6.06026 6.68177 6.37859
#
# Compressibility (1/GPa) = 0.01801823
#
# Stress axis : x y z
#
# Youngs Moduli (GPa) = 123.40718 50.99363 125.48516
#
# Poissons Ratio (x) = 0.21239 0.23923
# Poissons Ratio (y) = 0.51399 0.34644
# Poissons Ratio (z) = 0.23527 0.14078
#
# Static dielectric constant tensor:
#      x y z
#    x 2.077130 0.000000 0.000000 
#    y 0.000000 2.202960 0.000000 
#    z 0.000000 0.000000 1.926080 
# 
# From -- ./inp_files/28280.got.cif
#   From: 2010.05.17/outbox.cif.g08.bks.cpg/sg54_15_cif.got.tgz:28280.got - 2010.06.03 13:09:01.
