data_PCOD9423445
_publ_section_title
;
Structure prediction by ZEFSAII (Michael W. Deem and Ramdas Pophale) SiO2 
 PCOD9423445
Probable space group: P C C A
;
_chemical_formula_sum "Si O2"
_cell_formula_units_Z 40
_cell_length_a 9.444403
_cell_length_b 8.073445
_cell_length_c 24.176057
_cell_angle_alpha 90.000000
_cell_angle_beta 90.000000
_cell_angle_gamma 90.000000
_cell_volume 1843.396983
_symmetry_space_group_name_H-M "P C C A"
_symmetry_group_IT_number 54
_symmetry_cell_setting 'orthorhombic'
loop_
_space_group_symop_operation_xyz
x,y,z
1/2-x,-y,z
1/2+x,-y,1/2-z
-x,y,1/2-z
-x,-y,-z
1/2+x,y,-z
1/2-x,y,1/2+z
x,-y,1/2+z
loop_
_atom_site_type_symbol
_atom_site_label
_atom_site_fract_x
_atom_site_fract_y
_atom_site_fract_z
Si Si1 0.265090 0.807790 0.438210
Si Si2 0.704488 0.192940 0.179353
Si Si3 0.464362 0.331493 0.030213
Si Si4 0.859219 0.671701 0.779971
Si Si5 0.605998 0.677925 0.843960
O O1 0.285212 0.741361 0.375948
O O2 0.375217 0.769536 0.485686
O O3 0.114454 0.748217 0.458473
O O4 0.250000 0.000000 0.428874
O O5 0.750588 0.311725 0.228757
O O6 0.534993 0.215529 0.169918
O O7 0.750000 0.000000 0.190293
O O8 0.393432 0.353040 0.090245
O O9 0.500000 0.500000 0.000000
O O10 0.758105 0.755575 0.826496
O O11 0.901034 0.496892 0.809577
O O12 0.000000 0.740877 0.750000
#
# Coordination Sequence:
#
# PCOD9423445 Si02
#       5
#     8   8   8   8   8
#     4  10  23  43  67  97 138 179 227 286 352 410
#     4  10  23  45  67  96 136 186 233 283 346 424
#     4  11  24  40  69 100 134 180 233 290 340 414
#     4  11  23  38  67  97 137 178 224 286 351 405
#     4  10  23  42  65  96 140 178 232 288 346 417
#
# _framework density 21.699069999999999
#
# number of rings (size 3 to 8) (size 9 to 14) (size 15 to 20)
#    0.000    1.600    0.000    4.200    8.400    1.600 
#    0.000    1.000    0.000    0.000    0.000    0.000 
#    0.000    0.000    0.000    0.000    0.000    0.000 
#
# Total GULP energy -222858.376119 kJ/mol
# GULP energy per Si atom -5571.459403 kJ/mol
# Density = 2.164968 g / cm^3
# Si number density = 21.699070 Si / 1000 Ang^3
#
#
#
# Elastic Constant Matrix: (Units=GPa)
#
#
# Indices 1 2 3 4 5 6 
#
# 1 197.0948 32.0548 132.9234 0.0000 0.0000 0.0000
# 2 32.0548 55.3255 42.1340 0.0000 0.0000 0.0000
# 3 132.9234 42.1340 247.2566 0.0000 0.0000 0.0000
# 4 0.0000 0.0000 0.0000 22.6619 0.0000 0.0000
# 5 0.0000 0.0000 0.0000 0.0000 28.7023 0.0000
# 6 0.0000 0.0000 0.0000 0.0000 0.0000 37.6356
#
#
#
# Elastic Compliance Matrix: (Units=1/GPa)
#
#
# Indices 1 2 3 4 5 6 
#
# 1 0.008078 -0.001578 -0.004074 0.000000 0.000000 0.000000
# 2 -0.001578 0.021078 -0.002744 0.000000 0.000000 0.000000
# 3 -0.004074 -0.002744 0.006702 0.000000 0.000000 0.000000
# 4 0.000000 0.000000 0.000000 0.044127 0.000000 0.000000
# 5 0.000000 0.000000 0.000000 0.000000 0.034840 0.000000
# 6 0.000000 0.000000 0.000000 0.000000 0.000000 0.026571
#
#
# Mechanical properties :
#
#
# Convention : Reuss Voigt Hill
#
# Bulk Modulus (GPa) = 52.44433 101.54458 76.99446
# Shear Modulus (GPa) = 30.38740 37.30428 33.84584
#
# Velocity S-wave (km/s) = 3.74625 4.15078 3.95369
# Velocity P-wave (km/s) = 6.55240 8.35885 7.51013
#
# Compressibility (1/GPa) = 0.01906784
#
# Stress axis : x y z
#
# Youngs Moduli (GPa) = 123.79930 47.44173 149.21215
#
# Poissons Ratio (x) = 0.07485 0.60783
# Poissons Ratio (y) = 0.19532 0.40940
# Poissons Ratio (z) = 0.50431 0.13017
#
# Static dielectric constant tensor:
#      x y z
#    x 1.839240 0.000000 0.000000 
#    y 0.000000 1.608820 0.000000 
#    z 0.000000 0.000000 1.622570 
# 
# From -- ./inp_files/23255.got.cif
#   From: 2010.05.17/outbox.cif.g08.bks.cpg/sg54_12_cif.got.tgz:23255.got - 2010.06.03 13:09:01.
