data_PCOD9423973
_publ_section_title
;
Structure prediction by ZEFSAII (Michael W. Deem and Ramdas Pophale) SiO2 
 PCOD9423973
Probable space group: P C C A
;
_chemical_formula_sum "Si O2"
_cell_formula_units_Z 64
_cell_length_a 11.524266
_cell_length_b 9.846086
_cell_length_c 29.637988
_cell_angle_alpha 90.000000
_cell_angle_beta 90.000000
_cell_angle_gamma 90.000000
_cell_volume 3362.990315
_symmetry_space_group_name_H-M "P C C A"
_symmetry_group_IT_number 54
_symmetry_cell_setting 'orthorhombic'
loop_
_space_group_symop_operation_xyz
x,y,z
1/2-x,-y,z
1/2+x,-y,1/2-z
-x,y,1/2-z
-x,-y,-z
1/2+x,y,-z
1/2-x,y,1/2+z
x,-y,1/2+z
loop_
_atom_site_type_symbol
_atom_site_label
_atom_site_fract_x
_atom_site_fract_y
_atom_site_fract_z
Si Si1 0.616847 0.846291 0.279082
Si Si2 0.999208 0.021851 0.573269
Si Si3 0.427999 0.476114 0.570552
Si Si4 0.341573 0.894234 0.495067
Si Si5 0.582603 0.752574 0.874928
Si Si6 0.342731 0.788958 0.116392
Si Si7 0.842293 0.403905 0.024223
Si Si8 0.619847 0.174053 0.275846
O O1 0.500000 0.809774 0.250000
O O2 0.620239 0.793050 0.330856
O O3 0.745479 0.804524 0.259374
O O4 0.616023 0.010672 0.283607
O O5 0.080365 0.899611 0.590416
O O6 0.886566 0.953373 0.552245
O O7 0.053578 0.105195 0.530791
O O8 0.987922 0.134100 0.612047
O O9 0.441614 0.610652 0.600783
O O10 0.356416 0.361922 0.596461
O O11 0.375237 0.525610 0.523143
O O12 0.545961 0.401326 0.555714
O O13 0.295662 0.744255 0.487387
O O14 0.250000 0.000000 0.513363
O O15 0.706218 0.817801 0.890063
O O16 0.603047 0.743250 0.821991
O O17 0.750000 0.500000 0.047418
O O18 0.500000 0.205256 0.250000
#
# Coordination Sequence:
#
# PCOD9423973 Si02
#       8
#     8   8   8   8   8   8   8   8
#     4   9  18  34  58  85 114 146 183 236 297 352
#     4  11  22  36  55  83 113 144 194 244 281 322
#     4  11  24  38  55  81 114 150 195 234 283 342
#     4  11  24  37  56  81 113 152 194 241 287 336
#     4  11  20  35  60  86 109 150 188 239 282 338
#     4  11  20  37  58  84 113 146 193 237 279 338
#     4  11  24  39  55  77 115 158 190 235 290 344
#     4   9  18  34  57  87 115 142 184 238 296 351
#
# _framework density 19.030681999999999
#
# number of rings (size 3 to 8) (size 9 to 14) (size 15 to 20)
#    0.000    1.500    3.750    2.250    3.500    0.000 
#    0.000    3.125    0.000    0.000    0.000    0.000 
#    0.000    0.000    0.000    0.000    0.000    0.000 
#
# Total GULP energy -356701.624558 kJ/mol
# GULP energy per Si atom -5573.462884 kJ/mol
# Density = 1.898737 g / cm^3
# Si number density = 19.030682 Si / 1000 Ang^3
#
#
#
# Elastic Constant Matrix: (Units=GPa)
#
#
# Indices 1 2 3 4 5 6 
#
# 1 68.3501 10.1011 32.8621 0.0000 0.0000 0.0000
# 2 10.1011 68.2605 6.2793 0.0000 0.0000 0.0000
# 3 32.8621 6.2793 57.7247 0.0000 0.0000 0.0000
# 4 0.0000 0.0000 0.0000 6.2132 0.0000 0.0000
# 5 0.0000 0.0000 0.0000 0.0000 26.2343 0.0000
# 6 0.0000 0.0000 0.0000 0.0000 0.0000 20.1245
#
#
#
# Elastic Compliance Matrix: (Units=1/GPa)
#
#
# Indices 1 2 3 4 5 6 
#
# 1 0.020403 -0.001970 -0.011401 0.000000 0.000000 0.000000
# 2 -0.001970 0.014988 -0.000509 0.000000 0.000000 0.000000
# 3 -0.011401 -0.000509 0.023869 0.000000 0.000000 0.000000
# 4 0.000000 0.000000 0.000000 0.160948 0.000000 0.000000
# 5 0.000000 0.000000 0.000000 0.000000 0.038118 0.000000
# 6 0.000000 0.000000 0.000000 0.000000 0.000000 0.049691
#
#
# Mechanical properties :
#
#
# Convention : Reuss Voigt Hill
#
# Bulk Modulus (GPa) = 31.74547 32.53559 32.14053
# Shear Modulus (GPa) = 14.43925 20.18724 17.31325
#
# Velocity S-wave (km/s) = 2.75750 3.26049 3.01949
# Velocity P-wave (km/s) = 5.18226 5.59534 5.39276
#
# Compressibility (1/GPa) = 0.03150055
#
# Stress axis : x y z
#
# Youngs Moduli (GPa) = 49.01169 66.71942 41.89457
#
# Poissons Ratio (x) = 0.13147 0.47764
# Poissons Ratio (y) = 0.09658 0.02131
# Poissons Ratio (z) = 0.55878 0.03394
#
# Static dielectric constant tensor:
#      x y z
#    x 1.808710 0.000000 0.000000 
#    y 0.000000 1.646330 0.000000 
#    z 0.000000 0.000000 1.672430 
# 
# From -- ./inp_files/28148.got.cif
#   From: 2010.05.17/outbox.cif.g08.bks.cpg/sg54_15_cif.got.tgz:28148.got - 2010.06.03 13:09:01.
