data_PCOD9423097
_publ_section_title
;
Structure prediction by ZEFSAII (Michael W. Deem and Ramdas Pophale) SiO2 
 PCOD9423097
Probable space group: P C C A
;
_chemical_formula_sum "Si O2"
_cell_formula_units_Z 40
_cell_length_a 9.664565
_cell_length_b 13.248210
_cell_length_c 14.716147
_cell_angle_alpha 90.000000
_cell_angle_beta 90.000000
_cell_angle_gamma 90.000000
_cell_volume 1884.228777
_symmetry_space_group_name_H-M "P C C A"
_symmetry_group_IT_number 54
_symmetry_cell_setting 'orthorhombic'
loop_
_space_group_symop_operation_xyz
x,y,z
1/2-x,-y,z
1/2+x,-y,1/2-z
-x,y,1/2-z
-x,-y,-z
1/2+x,y,-z
1/2-x,y,1/2+z
x,-y,1/2+z
loop_
_atom_site_type_symbol
_atom_site_label
_atom_site_fract_x
_atom_site_fract_y
_atom_site_fract_z
Si Si1 0.581353 0.903917 0.541398
Si Si2 0.807269 0.388836 0.326516
Si Si3 0.250000 0.000000 0.295136
Si Si4 0.500000 0.871214 0.250000
Si Si5 0.686485 0.772204 0.954620
Si Si6 0.904011 0.314301 0.135426
O O1 0.462709 0.822012 0.557034
O O2 0.698788 0.857507 0.475708
O O3 0.500000 0.000000 0.500000
O O4 0.658627 0.932970 0.635033
O O5 0.750000 0.500000 0.338136
O O6 0.720762 0.299515 0.371473
O O7 0.823789 0.360975 0.220493
O O8 0.958091 0.380378 0.373279
O O9 0.362935 0.938344 0.237581
O O10 0.539919 0.796054 0.168046
O O11 0.680313 0.702658 0.044850
#
# Coordination Sequence:
#
# PCOD9423097 Si02
#       6
#     8   8   4   4   8   8
#     4  12  23  42  67 104 140 185 237 281 344 415
#     4  10  24  45  71 101 134 182 230 293 361 419
#     4  12  24  40  64 100 142 186 242 280 350 406
#     4  10  22  42  62  96 138 184 228 288 336 410
#     4  12  23  46  73 103 141 190 228 293 351 418
#     4  10  23  47  67  94 146 174 234 297 352 413
#
# _framework density 21.228843000000001
#
# number of rings (size 3 to 8) (size 9 to 14) (size 15 to 20)
#    0.000    1.200    6.000    0.000    2.800    4.800 
#    7.200    0.000    0.000    0.000    0.000    0.000 
#    0.000    0.000    0.000    0.000    0.000    0.000 
#
# Total GULP energy -223728.704029 kJ/mol
# GULP energy per Si atom -5593.217601 kJ/mol
# Density = 2.118053 g / cm^3
# Si number density = 21.228843 Si / 1000 Ang^3
#
#
#
# Elastic Constant Matrix: (Units=GPa)
#
#
# Indices 1 2 3 4 5 6 
#
# 1 119.0599 50.3786 24.5519 0.0000 0.0000 0.0000
# 2 50.3786 95.7945 13.1837 0.0000 0.0000 0.0000
# 3 24.5519 13.1837 27.6177 0.0000 0.0000 0.0000
# 4 0.0000 0.0000 0.0000 8.0896 0.0000 0.0000
# 5 0.0000 0.0000 0.0000 0.0000 30.1529 0.0000
# 6 0.0000 0.0000 0.0000 0.0000 0.0000 44.5073
#
#
#
# Elastic Compliance Matrix: (Units=1/GPa)
#
#
# Indices 1 2 3 4 5 6 
#
# 1 0.012417 -0.005363 -0.008478 0.000000 0.000000 0.000000
# 2 -0.005363 0.013490 -0.001672 0.000000 0.000000 0.000000
# 3 -0.008478 -0.001672 0.044544 0.000000 0.000000 0.000000
# 4 0.000000 0.000000 0.000000 0.123615 0.000000 0.000000
# 5 0.000000 0.000000 0.000000 0.000000 0.033164 0.000000
# 6 0.000000 0.000000 0.000000 0.000000 0.000000 0.022468
#
#
# Mechanical properties :
#
#
# Convention : Reuss Voigt Hill
#
# Bulk Modulus (GPa) = 25.36522 46.52230 35.94376
# Shear Modulus (GPa) = 17.01457 26.84047 21.92752
#
# Velocity S-wave (km/s) = 2.83412 3.55961 3.21738
# Velocity P-wave (km/s) = 4.76278 6.23351 5.54711
#
# Compressibility (1/GPa) = 0.03942406
#
# Stress axis : x y z
#
# Youngs Moduli (GPa) = 80.53563 74.13113 22.44980
#
# Poissons Ratio (x) = 0.39758 0.19034
# Poissons Ratio (y) = 0.43193 0.03753
# Poissons Ratio (z) = 0.68280 0.12392
#
# Static dielectric constant tensor:
#      x y z
#    x 1.763620 0.000000 0.000000 
#    y 0.000000 1.761500 0.000000 
#    z 0.000000 0.000000 1.787260 
# 
# From -- ./inp_files/16370.got.cif
#   From: 2010.05.17/outbox.cif.g08.bks.cpg/sg54_9_cif.got.tgz:16370.got - 2010.06.03 13:09:01.
