data_PCOD9423276
_publ_section_title
;
Structure prediction by ZEFSAII (Michael W. Deem and Ramdas Pophale) SiO2 
 PCOD9423276
Probable space group: P C C A
;
_chemical_formula_sum "Si O2"
_cell_formula_units_Z 36
_cell_length_a 20.505350
_cell_length_b 5.080210
_cell_length_c 13.795639
_cell_angle_alpha 90.000000
_cell_angle_beta 90.000000
_cell_angle_gamma 90.000000
_cell_volume 1437.112189
_symmetry_space_group_name_H-M "P C C A"
_symmetry_group_IT_number 54
_symmetry_cell_setting 'orthorhombic'
loop_
_space_group_symop_operation_xyz
x,y,z
1/2-x,-y,z
1/2+x,-y,1/2-z
-x,y,1/2-z
-x,-y,-z
1/2+x,y,-z
1/2-x,y,1/2+z
x,-y,1/2+z
loop_
_atom_site_type_symbol
_atom_site_label
_atom_site_fract_x
_atom_site_fract_y
_atom_site_fract_z
Si Si1 0.500000 0.408274 0.750000
Si Si2 0.452804 0.285924 0.951541
Si Si3 0.361714 0.961345 0.058732
Si Si4 0.638968 0.560045 0.811099
Si Si5 0.180307 0.397941 0.905563
O O1 0.475985 0.238724 0.841697
O O2 0.561882 0.579961 0.784122
O O3 0.565927 0.956653 0.978942
O O4 0.382841 0.435968 0.939394
O O5 0.500000 0.500000 0.000000
O O6 0.356893 0.716044 0.132157
O O7 0.337541 0.209935 0.118695
O O8 0.327778 0.881255 0.958495
O O9 0.675998 0.591312 0.710216
O O10 0.250000 0.500000 0.937360
#
# Coordination Sequence:
#
# PCOD9423276 Si02
#       5
#     4   8   8   8   8
#     4  10  22  44  74 116 158 202 256 330 402 478
#     4  11  23  49  78 118 157 210 266 337 407 496
#     4  12  25  52  77 114 156 213 269 335 411 488
#     4  11  27  47  75 116 155 206 268 332 406 494
#     4  11  28  52  77 117 160 214 271 344 413 494
#
# _framework density 25.050235000000001
#
# number of rings (size 3 to 8) (size 9 to 14) (size 15 to 20)
#    0.000    0.889    4.444    0.000    6.222    6.222 
#    4.000    0.000    0.000    0.000    0.000    0.000 
#    0.000    0.000    0.000    0.000    0.000    0.000 
#
# Total GULP energy -201563.162615 kJ/mol
# GULP energy per Si atom -5598.976739 kJ/mol
# Density = 2.499322 g / cm^3
# Si number density = 25.050235 Si / 1000 Ang^3
#
#
#
# Elastic Constant Matrix: (Units=GPa)
#
#
# Indices 1 2 3 4 5 6 
#
# 1 124.6493 34.8227 32.5699 0.0000 0.0000 0.0000
# 2 34.8227 165.0322 85.5915 0.0000 0.0000 0.0000
# 3 32.5699 85.5915 194.3459 0.0000 0.0000 0.0000
# 4 0.0000 0.0000 0.0000 43.9525 0.0000 0.0000
# 5 0.0000 0.0000 0.0000 0.0000 20.3147 0.0000
# 6 0.0000 0.0000 0.0000 0.0000 0.0000 24.7849
#
#
#
# Elastic Compliance Matrix: (Units=1/GPa)
#
#
# Indices 1 2 3 4 5 6 
#
# 1 0.008628 -0.001388 -0.000835 0.000000 0.000000 0.000000
# 2 -0.001388 0.008076 -0.003324 0.000000 0.000000 0.000000
# 3 -0.000835 -0.003324 0.006749 0.000000 0.000000 0.000000
# 4 0.000000 0.000000 0.000000 0.022752 0.000000 0.000000
# 5 0.000000 0.000000 0.000000 0.000000 0.049226 0.000000
# 6 0.000000 0.000000 0.000000 0.000000 0.000000 0.040347
#
#
# Mechanical properties :
#
#
# Convention : Reuss Voigt Hill
#
# Bulk Modulus (GPa) = 80.90341 87.77731 84.34036
# Shear Modulus (GPa) = 33.11426 39.87997 36.49712
#
# Velocity S-wave (km/s) = 3.63976 3.99432 3.82115
# Velocity P-wave (km/s) = 7.07321 7.50928 7.29451
#
# Compressibility (1/GPa) = 0.01236042
#
# Stress axis : x y z
#
# Youngs Moduli (GPa) = 115.89755 123.81842 148.16037
#
# Poissons Ratio (x) = 0.17181 0.12369
# Poissons Ratio (y) = 0.16082 0.49254
# Poissons Ratio (z) = 0.09676 0.41161
#
# Static dielectric constant tensor:
#      x y z
#    x 1.459830 0.000000 0.000000 
#    y 0.000000 2.041440 0.000000 
#    z 0.000000 0.000000 1.986500 
# 
# From -- ./inp_files/14454.got.cif
#   From: 2010.05.17/outbox.cif.g08.bks.cpg/sg54_8_cif.got.tgz:14454.got - 2010.06.03 13:09:01.
