data_PCOD9423051
_publ_section_title
;
Structure prediction by ZEFSAII (Michael W. Deem and Ramdas Pophale) SiO2 
 PCOD9423051
Probable space group: P C C A
;
_chemical_formula_sum "Si O2"
_cell_formula_units_Z 40
_cell_length_a 14.151095
_cell_length_b 5.194241
_cell_length_c 22.566335
_cell_angle_alpha 90.000000
_cell_angle_beta 90.000000
_cell_angle_gamma 90.000000
_cell_volume 1658.720352
_symmetry_space_group_name_H-M "P C C A"
_symmetry_group_IT_number 54
_symmetry_cell_setting 'orthorhombic'
loop_
_space_group_symop_operation_xyz
x,y,z
1/2-x,-y,z
1/2+x,-y,1/2-z
-x,y,1/2-z
-x,-y,-z
1/2+x,y,-z
1/2-x,y,1/2+z
x,-y,1/2+z
loop_
_atom_site_type_symbol
_atom_site_label
_atom_site_fract_x
_atom_site_fract_y
_atom_site_fract_z
Si Si1 0.106813 0.951315 0.520648
Si Si2 0.846462 0.401812 0.274367
Si Si3 0.403164 0.897468 0.786751
Si Si4 0.349000 0.557801 0.450332
Si Si5 0.511145 0.224983 0.871779
O O1 0.161074 0.190174 0.492111
O O2 0.135859 0.682559 0.492897
O O3 0.000000 0.000000 0.500000
O O4 0.094501 0.911849 0.590805
O O5 0.750000 0.500000 0.304753
O O6 0.862096 0.616400 0.223402
O O7 0.935142 0.378047 0.319431
O O8 0.842511 0.124345 0.243475
O O9 0.500000 0.894770 0.750000
O O10 0.437804 0.006158 0.849354
O O11 0.250000 0.500000 0.417186
O O12 0.442812 0.595075 0.410828
#
# Coordination Sequence:
#
# PCOD9423051 Si02
#       5
#     8   8   8   8   8
#     4  10  22  42  67  95 132 175 223 280 336 397
#     4  11  24  42  65  99 136 174 227 280 329 394
#     4  10  22  41  64  91 130 173 220 279 334 391
#     4  11  24  43  68 103 140 176 227 281 333 402
#     4  10  23  44  72  96 133 186 226 272 343 406
#
# _framework density 24.114972999999999
#
# number of rings (size 3 to 8) (size 9 to 14) (size 15 to 20)
#    0.000    1.600    0.000    5.400    0.000   16.000 
#    0.000   14.000    0.000    0.000    0.000    0.000 
#    0.000    0.000    0.000    0.000    0.000    0.000 
#
# Total GULP energy -223492.200185 kJ/mol
# GULP energy per Si atom -5587.305005 kJ/mol
# Density = 2.406009 g / cm^3
# Si number density = 24.114973 Si / 1000 Ang^3
#
#
#
# Elastic Constant Matrix: (Units=GPa)
#
#
# Indices 1 2 3 4 5 6 
#
# 1 107.0842 47.4806 30.7097 0.0000 0.0000 0.0000
# 2 47.4806 182.7380 48.6932 0.0000 0.0000 0.0000
# 3 30.7097 48.6932 81.5652 0.0000 0.0000 0.0000
# 4 0.0000 0.0000 0.0000 9.3211 0.0000 0.0000
# 5 0.0000 0.0000 0.0000 0.0000 15.9471 0.0000
# 6 0.0000 0.0000 0.0000 0.0000 0.0000 36.1406
#
#
#
# Elastic Compliance Matrix: (Units=1/GPa)
#
#
# Indices 1 2 3 4 5 6 
#
# 1 0.011112 -0.002108 -0.002925 0.000000 0.000000 0.000000
# 2 -0.002108 0.006907 -0.003330 0.000000 0.000000 0.000000
# 3 -0.002925 -0.003330 0.015350 0.000000 0.000000 0.000000
# 4 0.000000 0.000000 0.000000 0.107284 0.000000 0.000000
# 5 0.000000 0.000000 0.000000 0.000000 0.062707 0.000000
# 6 0.000000 0.000000 0.000000 0.000000 0.000000 0.027670
#
#
# Mechanical properties :
#
#
# Convention : Reuss Voigt Hill
#
# Bulk Modulus (GPa) = 60.08704 69.46160 64.77432
# Shear Modulus (GPa) = 19.73916 28.58200 24.16058
#
# Velocity S-wave (km/s) = 2.86412 3.44646 3.16870
# Velocity P-wave (km/s) = 5.99238 6.68613 6.34874
#
# Compressibility (1/GPa) = 0.01664252
#
# Stress axis : x y z
#
# Youngs Moduli (GPa) = 89.99330 144.77493 65.14857
#
# Poissons Ratio (x) = 0.30514 0.19059
# Poissons Ratio (y) = 0.18968 0.21694
# Poissons Ratio (z) = 0.26327 0.48210
#
# Static dielectric constant tensor:
#      x y z
#    x 1.978470 0.000000 0.000000 
#    y 0.000000 1.657190 0.000000 
#    z 0.000000 0.000000 2.056500 
# 
# From -- ./inp_files/24318.got.cif
#   From: 2010.05.17/outbox.cif.g08.bks.cpg/sg54_13_cif.got.tgz:24318.got - 2010.06.03 13:09:01.
