data_PCOD9423202
_publ_section_title
;
Structure prediction by ZEFSAII (Michael W. Deem and Ramdas Pophale) SiO2 
 PCOD9423202
Probable space group: P C C A
;
_chemical_formula_sum "Si O2"
_cell_formula_units_Z 44
_cell_length_a 14.538452
_cell_length_b 5.431343
_cell_length_c 23.087129
_cell_angle_alpha 90.000000
_cell_angle_beta 90.000000
_cell_angle_gamma 90.000000
_cell_volume 1823.036344
_symmetry_space_group_name_H-M "P C C A"
_symmetry_group_IT_number 54
_symmetry_cell_setting 'orthorhombic'
loop_
_space_group_symop_operation_xyz
x,y,z
1/2-x,-y,z
1/2+x,-y,1/2-z
-x,y,1/2-z
-x,-y,-z
1/2+x,y,-z
1/2-x,y,1/2+z
x,-y,1/2+z
loop_
_atom_site_type_symbol
_atom_site_label
_atom_site_fract_x
_atom_site_fract_y
_atom_site_fract_z
Si Si1 0.400598 0.644716 0.077611
Si Si2 0.750000 0.000000 0.675269
Si Si3 0.904944 0.710745 0.527346
Si Si4 0.439771 0.075866 0.805899
Si Si5 0.250000 0.500000 0.398661
Si Si6 0.250000 0.000000 0.527074
Si Si7 0.496017 0.428273 0.179849
O O1 0.411655 0.407191 0.036445
O O2 0.306409 0.795863 0.065423
O O3 0.411205 0.545332 0.143716
O O4 0.496860 0.776571 0.055904
O O5 0.839921 0.002488 0.713341
O O6 0.754153 0.247540 0.637572
O O7 0.842200 0.514976 0.562297
O O8 0.832302 0.924965 0.516173
O O9 0.500000 0.112445 0.750000
O O10 0.480511 0.846375 0.841582
O O11 0.432936 0.348945 0.831953
O O12 0.500000 0.396901 0.250000
#
# Coordination Sequence:
#
# PCOD9423202 Si02
#       7
#     8   4   8   8   4   4   8
#     4  11  24  42  70  99 142 188 236 292 363 429
#     4  12  23  38  71 100 134 189 230 301 366 416
#     4  11  24  42  65 104 140 187 234 295 363 428
#     4  10  22  43  68  99 136 175 240 294 354 424
#     4  12  24  42  66 104 142 174 242 296 356 452
#     4  12  23  44  65 102 148 189 232 293 358 448
#     4  10  23  45  71  96 133 183 234 291 351 423
#
# _framework density 24.135560999999999
#
# number of rings (size 3 to 8) (size 9 to 14) (size 15 to 20)
#    0.000    1.091    1.818    4.364    2.545    0.000 
#    0.000    3.636    8.000    0.000    0.000    0.000 
#    0.000    0.000    0.000    0.000    0.000    0.000 
#
# Total GULP energy -244954.941852 kJ/mol
# GULP energy per Si atom -5567.157769 kJ/mol
# Density = 2.408063 g / cm^3
# Si number density = 24.135561 Si / 1000 Ang^3
#
#
#
# Elastic Constant Matrix: (Units=GPa)
#
#
# Indices 1 2 3 4 5 6 
#
# 1 88.1585 5.8588 25.0856 0.0000 0.0000 0.0000
# 2 5.8588 132.9608 10.8238 0.0000 0.0000 0.0000
# 3 25.0856 10.8238 99.5935 0.0000 0.0000 0.0000
# 4 0.0000 0.0000 0.0000 6.7013 0.0000 0.0000
# 5 0.0000 0.0000 0.0000 0.0000 25.9487 0.0000
# 6 0.0000 0.0000 0.0000 0.0000 0.0000 39.7006
#
#
#
# Elastic Compliance Matrix: (Units=1/GPa)
#
#
# Indices 1 2 3 4 5 6 
#
# 1 0.012230 -0.000291 -0.003049 0.000000 0.000000 0.000000
# 2 -0.000291 0.007595 -0.000752 0.000000 0.000000 0.000000
# 3 -0.003049 -0.000752 0.010891 0.000000 0.000000 0.000000
# 4 0.000000 0.000000 0.000000 0.149224 0.000000 0.000000
# 5 0.000000 0.000000 0.000000 0.000000 0.038538 0.000000
# 6 0.000000 0.000000 0.000000 0.000000 0.000000 0.025189
#
#
# Mechanical properties :
#
#
# Convention : Reuss Voigt Hill
#
# Bulk Modulus (GPa) = 44.38128 44.91656 44.64892
# Shear Modulus (GPa) = 19.27824 33.06644 26.17234
#
# Velocity S-wave (km/s) = 2.82928 3.70541 3.29658
# Velocity P-wave (km/s) = 5.39457 6.07925 5.74711
#
# Compressibility (1/GPa) = 0.02253202
#
# Stress axis : x y z
#
# Youngs Moduli (GPa) = 81.76547 131.66455 91.82289
#
# Poissons Ratio (x) = 0.03828 0.27996
# Poissons Ratio (y) = 0.02377 0.06907
# Poissons Ratio (z) = 0.24930 0.09904
#
# Static dielectric constant tensor:
#      x y z
#    x 2.008160 0.000000 0.000000 
#    y 0.000000 2.095270 0.000000 
#    z 0.000000 0.000000 2.407750 
# 
# From -- ./inp_files/26424.got.cif
#   From: 2010.05.17/outbox.cif.g08.bks.cpg/sg54_14_cif.got.tgz:26424.got - 2010.06.03 13:09:01.
