data_PCOD9423491
_publ_section_title
;
Structure prediction by ZEFSAII (Michael W. Deem and Ramdas Pophale) SiO2 
 PCOD9423491
Probable space group: P C C A
;
_chemical_formula_sum "Si O2"
_cell_formula_units_Z 28
_cell_length_a 10.343997
_cell_length_b 13.248035
_cell_length_c 8.343192
_cell_angle_alpha 90.000000
_cell_angle_beta 90.000000
_cell_angle_gamma 90.000000
_cell_volume 1143.331294
_symmetry_space_group_name_H-M "P C C A"
_symmetry_group_IT_number 54
_symmetry_cell_setting 'orthorhombic'
loop_
_space_group_symop_operation_xyz
x,y,z
1/2-x,-y,z
1/2+x,-y,1/2-z
-x,y,1/2-z
-x,-y,-z
1/2+x,y,-z
1/2-x,y,1/2+z
x,-y,1/2+z
loop_
_atom_site_type_symbol
_atom_site_label
_atom_site_fract_x
_atom_site_fract_y
_atom_site_fract_z
Si Si1 0.250000 0.500000 0.178767
Si Si2 0.500000 0.022590 0.250000
Si Si3 0.159920 0.094063 0.027047
Si Si4 0.000000 0.622613 0.250000
Si Si5 0.086812 0.691782 0.584121
O O1 0.128209 0.554195 0.261438
O O2 0.323635 0.593365 0.096404
O O3 0.455347 0.088905 0.397921
O O4 0.389905 0.947239 0.195067
O O5 0.181997 0.211612 0.056699
O O6 0.250000 0.000000 0.979152
O O7 0.000968 0.680497 0.421566
O O8 0.000000 0.701307 0.750000
#
# Coordination Sequence:
#
# PCOD9423491 Si02
#       5
#     4   4   8   4   8
#     4  12  28  52  84 122 164 214 268 336 402 482
#     4  10  23  43  70 104 150 193 255 314 388 468
#     4  11  24  46  74 108 152 201 256 321 391 472
#     4  12  29  51  80 122 166 209 269 334 406 476
#     4  12  28  50  82 114 164 213 269 332 403 478
#
# _framework density 24.489837000000001
#
# number of rings (size 3 to 8) (size 9 to 14) (size 15 to 20)
#    0.000    0.571    2.857    3.429    4.000    9.143 
#    0.000    0.000    0.000    0.000    0.000    0.000 
#    0.000    0.000    0.000    0.000    0.000    0.000 
#
# Total GULP energy -155907.457586 kJ/mol
# GULP energy per Si atom -5568.123485 kJ/mol
# Density = 2.443410 g / cm^3
# Si number density = 24.489837 Si / 1000 Ang^3
#
#
#
# Elastic Constant Matrix: (Units=GPa)
#
#
# Indices 1 2 3 4 5 6 
#
# 1 91.8083 43.2317 48.1552 0.0000 0.0000 0.0000
# 2 43.2317 211.3561 65.6289 0.0000 0.0000 0.0000
# 3 48.1552 65.6289 157.2591 0.0000 0.0000 0.0000
# 4 0.0000 0.0000 0.0000 -91.1750 0.0000 0.0000
# 5 0.0000 0.0000 0.0000 0.0000 24.2909 0.0000
# 6 0.0000 0.0000 0.0000 0.0000 0.0000 39.3228
#
#
#
# Elastic Compliance Matrix: (Units=1/GPa)
#
#
# Indices 1 2 3 4 5 6 
#
# 1 0.013486 -0.001696 -0.003422 0.000000 0.000000 0.000000
# 2 -0.001696 0.005649 -0.001838 0.000000 0.000000 0.000000
# 3 -0.003422 -0.001838 0.008174 0.000000 0.000000 0.000000
# 4 0.000000 0.000000 0.000000 -0.010968 0.000000 0.000000
# 5 0.000000 0.000000 0.000000 0.000000 0.041168 0.000000
# 6 0.000000 0.000000 0.000000 0.000000 0.000000 0.025431
#
#
# Mechanical properties :
#
#
# Convention : Reuss Voigt Hill
#
# Bulk Modulus (GPa) = 74.64469 86.05056 80.34762
# Shear Modulus (GPa) = 49.35052 14.71493 32.03273
#
# Velocity S-wave (km/s) = 4.49390 2.45390 3.62055
# Velocity P-wave (km/s) = 7.58109 6.57589 7.09631
#
# Compressibility (1/GPa) = 0.01339680
#
# Stress axis : x y z
#
# Youngs Moduli (GPa) = 74.15299 177.02176 122.34113
#
# Poissons Ratio (x) = 0.30021 0.41862
# Poissons Ratio (y) = 0.12576 0.22489
# Poissons Ratio (z) = 0.25373 0.32540
#
# Static dielectric constant tensor:
#      x y z
#    x 2.226960 0.000000 0.000000 
#    y 0.000000 1.989790 0.000000 
#    z 0.000000 0.000000 2.013030 
# 
# From -- ./inp_files/2734.got.cif
#   From: 2010.05.17/outbox.cif.g08.bks.cpg/sg54_2_cif.got.tgz:2734.got - 2010.06.03 13:09:01.
