data_PCOD9423326
_publ_section_title
;
Structure prediction by ZEFSAII (Michael W. Deem and Ramdas Pophale) SiO2 
 PCOD9423326
Probable space group: P C C A
;
_chemical_formula_sum "Si O2"
_cell_formula_units_Z 32
_cell_length_a 12.153695
_cell_length_b 8.575851
_cell_length_c 13.593554
_cell_angle_alpha 90.000000
_cell_angle_beta 90.000000
_cell_angle_gamma 90.000000
_cell_volume 1416.832717
_symmetry_space_group_name_H-M "P C C A"
_symmetry_group_IT_number 54
_symmetry_cell_setting 'orthorhombic'
loop_
_space_group_symop_operation_xyz
x,y,z
1/2-x,-y,z
1/2+x,-y,1/2-z
-x,y,1/2-z
-x,-y,-z
1/2+x,y,-z
1/2-x,y,1/2+z
x,-y,1/2+z
loop_
_atom_site_type_symbol
_atom_site_label
_atom_site_fract_x
_atom_site_fract_y
_atom_site_fract_z
Si Si1 0.750000 0.000000 0.775158
Si Si2 0.730821 0.324888 0.460105
Si Si3 0.250000 0.500000 0.230081
Si Si4 0.576452 0.087872 0.921153
Si Si5 0.378768 0.743026 0.346165
O O1 0.851534 0.026202 0.851335
O O2 0.795662 0.865936 0.704125
O O3 0.750000 0.500000 0.499559
O O4 0.706151 0.367778 0.346315
O O5 0.835180 0.209666 0.465622
O O6 0.644275 0.262571 0.537028
O O7 0.345632 0.580775 0.293978
O O8 0.502001 0.193116 0.849276
O O9 0.500000 0.000000 0.000000
#
# Coordination Sequence:
#
# PCOD9423326 Si02
#       5
#     4   8   4   8   8
#     4  12  24  44  74 104 146 184 254 308 364 464
#     4  10  23  45  67 103 149 186 235 315 365 442
#     4  10  22  46  72  98 156 180 248 306 370 444
#     4  12  26  45  76 107 147 197 250 310 387 448
#     4  12  24  46  76 104 144 199 243 310 376 448
#
# _framework density 22.585587
#
# number of rings (size 3 to 8) (size 9 to 14) (size 15 to 20)
#    0.750    0.000    3.750    3.750    0.000    1.000 
#    0.000    0.000    5.500    0.000    0.000    0.000 
#    0.000    0.000    0.000    0.000    0.000    0.000 
#
# Total GULP energy -178257.175531 kJ/mol
# GULP energy per Si atom -5570.536735 kJ/mol
# Density = 2.253418 g / cm^3
# Si number density = 22.585587 Si / 1000 Ang^3
#
#
#
# Elastic Constant Matrix: (Units=GPa)
#
#
# Indices 1 2 3 4 5 6 
#
# 1 81.6389 29.9688 14.7323 0.0000 0.0000 0.0000
# 2 29.9688 93.7590 2.0762 0.0000 0.0000 0.0000
# 3 14.7323 2.0762 92.8530 0.0000 0.0000 0.0000
# 4 0.0000 0.0000 0.0000 8.9020 0.0000 0.0000
# 5 0.0000 0.0000 0.0000 0.0000 31.2861 0.0000
# 6 0.0000 0.0000 0.0000 0.0000 0.0000 41.4439
#
#
#
# Elastic Compliance Matrix: (Units=1/GPa)
#
#
# Indices 1 2 3 4 5 6 
#
# 1 0.014301 -0.004523 -0.002168 0.000000 0.000000 0.000000
# 2 -0.004523 0.012101 0.000447 0.000000 0.000000 0.000000
# 3 -0.002168 0.000447 0.011104 0.000000 0.000000 0.000000
# 4 0.000000 0.000000 0.000000 0.112334 0.000000 0.000000
# 5 0.000000 0.000000 0.000000 0.000000 0.031963 0.000000
# 6 0.000000 0.000000 0.000000 0.000000 0.000000 0.024129
#
#
# Mechanical properties :
#
#
# Convention : Reuss Voigt Hill
#
# Bulk Modulus (GPa) = 39.97098 40.20062 40.08580
# Shear Modulus (GPa) = 22.04986 31.09132 26.57059
#
# Velocity S-wave (km/s) = 3.12794 3.71428 3.43365
# Velocity P-wave (km/s) = 5.54809 6.01933 5.78851
#
# Compressibility (1/GPa) = 0.02501815
#
# Stress axis : x y z
#
# Youngs Moduli (GPa) = 69.92715 82.63471 90.06035
#
# Poissons Ratio (x) = 0.37376 0.19524
# Poissons Ratio (y) = 0.31628 -0.04026
# Poissons Ratio (z) = 0.15159 -0.03694
#
# Static dielectric constant tensor:
#      x y z
#    x 1.793650 0.000000 0.000000 
#    y 0.000000 2.097930 0.000000 
#    z 0.000000 0.000000 1.897260 
# 
# From -- ./inp_files/12337.got.cif
#   From: 2010.05.17/outbox.cif.g08.bks.cpg/sg54_7_cif.got.tgz:12337.got - 2010.06.03 13:09:01.
