data_PCOD9423560
_publ_section_title
;
Structure prediction by ZEFSAII (Michael W. Deem and Ramdas Pophale) SiO2 
 PCOD9423560
Probable space group: P C C A
;
_chemical_formula_sum "Si O2"
_cell_formula_units_Z 56
_cell_length_a 14.981579
_cell_length_b 20.536943
_cell_length_c 8.815739
_cell_angle_alpha 90.000000
_cell_angle_beta 90.000000
_cell_angle_gamma 90.000000
_cell_volume 2712.389849
_symmetry_space_group_name_H-M "P C C A"
_symmetry_group_IT_number 54
_symmetry_cell_setting 'orthorhombic'
loop_
_space_group_symop_operation_xyz
x,y,z
1/2-x,-y,z
1/2+x,-y,1/2-z
-x,y,1/2-z
-x,-y,-z
1/2+x,y,-z
1/2-x,y,1/2+z
x,-y,1/2+z
loop_
_atom_site_type_symbol
_atom_site_label
_atom_site_fract_x
_atom_site_fract_y
_atom_site_fract_z
Si Si1 0.354953 0.882712 0.625901
Si Si2 0.671310 0.145323 0.022897
Si Si3 0.996599 0.220231 0.570639
Si Si4 0.502067 0.647902 0.430077
Si Si5 0.354519 0.438487 0.083873
Si Si6 0.930082 0.975175 0.879565
Si Si7 0.167246 0.580581 0.445710
O O1 0.273659 0.855633 0.526576
O O2 0.334622 0.863509 0.797532
O O3 0.444417 0.845887 0.569587
O O4 0.369020 0.960451 0.639454
O O5 0.601269 0.204074 0.003263
O O6 0.629152 0.083985 0.935080
O O7 0.032198 0.280284 0.473815
O O8 0.000000 0.239246 0.750000
O O9 0.500000 0.637087 0.250000
O O10 0.441388 0.596886 0.521020
O O11 0.601211 0.636318 0.496025
O O12 0.342156 0.430672 0.264944
O O13 0.358258 0.514051 0.034946
O O14 0.269213 0.408523 0.995738
O O15 0.000000 0.955467 0.750000
O O16 0.000000 0.000000 0.000000
#
# Coordination Sequence:
#
# PCOD9423560 Si02
#       7
#     8   8   8   8   8   8   8
#     4  11  24  42  63  92 125 162 208 255 317 372
#     4  11  25  41  65  93 124 163 205 257 312 380
#     4  10  23  46  62  83 123 167 210 263 313 367
#     4  12  25  41  64  93 125 167 217 259 316 377
#     4  11  22  40  65  96 131 167 207 260 315 372
#     4  12  22  40  66  92 126 161 198 255 312 368
#     4  11  22  40  65  96 131 167 207 260 316 372
#
# _framework density 20.646000000000001
#
# number of rings (size 3 to 8) (size 9 to 14) (size 15 to 20)
#    0.000    0.857    2.857    6.000    2.000    4.000 
#    0.000    2.857    0.000    0.000    0.000    0.000 
#    0.000    0.000    0.000    0.000    0.000    0.000 
#
# Total GULP energy -312635.197111 kJ/mol
# GULP energy per Si atom -5582.771377 kJ/mol
# Density = 2.059901 g / cm^3
# Si number density = 20.646000 Si / 1000 Ang^3
#
#
#
# Elastic Constant Matrix: (Units=GPa)
#
#
# Indices 1 2 3 4 5 6 
#
# 1 72.2416 12.0122 12.4550 0.0000 0.0000 0.0000
# 2 12.0122 40.7732 7.5926 0.0000 0.0000 0.0000
# 3 12.4550 7.5926 111.3968 0.0000 0.0000 0.0000
# 4 0.0000 0.0000 0.0000 21.6901 0.0000 0.0000
# 5 0.0000 0.0000 0.0000 0.0000 34.9675 0.0000
# 6 0.0000 0.0000 0.0000 0.0000 0.0000 14.9144
#
#
#
# Elastic Compliance Matrix: (Units=1/GPa)
#
#
# Indices 1 2 3 4 5 6 
#
# 1 0.014759 -0.004093 -0.001371 0.000000 0.000000 0.000000
# 2 -0.004093 0.025976 -0.001313 0.000000 0.000000 0.000000
# 3 -0.001371 -0.001313 0.009220 0.000000 0.000000 0.000000
# 4 0.000000 0.000000 0.000000 0.046104 0.000000 0.000000
# 5 0.000000 0.000000 0.000000 0.000000 0.028598 0.000000
# 6 0.000000 0.000000 0.000000 0.000000 0.000000 0.067049
#
#
# Mechanical properties :
#
#
# Convention : Reuss Voigt Hill
#
# Bulk Modulus (GPa) = 27.47158 32.05901 29.76530
# Shear Modulus (GPa) = 22.99964 27.13784 25.06874
#
# Velocity S-wave (km/s) = 3.34128 3.62945 3.48834
# Velocity P-wave (km/s) = 5.31229 5.75548 5.53832
#
# Compressibility (1/GPa) = 0.03640125
#
# Stress axis : x y z
#
# Youngs Moduli (GPa) = 67.75335 38.49680 108.46320
#
# Poissons Ratio (x) = 0.15756 0.14873
# Poissons Ratio (y) = 0.27731 0.14240
# Poissons Ratio (z) = 0.09291 0.05054
#
# Static dielectric constant tensor:
#      x y z
#    x 1.761170 0.000000 0.000000 
#    y 0.000000 1.970010 0.000000 
#    z 0.000000 0.000000 1.694560 
# 
# From -- ./inp_files/3677.got.cif
#   From: 2010.05.17/outbox.cif.g08.bks.cpg/sg54_2_cif.got.tgz:3677.got - 2010.06.03 13:09:01.
