data_PCOD9423502
_publ_section_title
;
Structure prediction by ZEFSAII (Michael W. Deem and Ramdas Pophale) SiO2 
 PCOD9423502
Probable space group: P C C A
;
_chemical_formula_sum "Si O2"
_cell_formula_units_Z 48
_cell_length_a 29.854944
_cell_length_b 5.390543
_cell_length_c 12.186170
_cell_angle_alpha 90.000000
_cell_angle_beta 90.000000
_cell_angle_gamma 90.000000
_cell_volume 1961.173462
_symmetry_space_group_name_H-M "P C C A"
_symmetry_group_IT_number 54
_symmetry_cell_setting 'orthorhombic'
loop_
_space_group_symop_operation_xyz
x,y,z
1/2-x,-y,z
1/2+x,-y,1/2-z
-x,y,1/2-z
-x,-y,-z
1/2+x,y,-z
1/2-x,y,1/2+z
x,-y,1/2+z
loop_
_atom_site_type_symbol
_atom_site_label
_atom_site_fract_x
_atom_site_fract_y
_atom_site_fract_z
Si Si1 0.952426 0.512750 0.192099
Si Si2 0.294331 0.352956 0.365236
Si Si3 0.951478 0.983590 0.554832
Si Si4 0.797788 0.072149 0.860881
Si Si5 0.635574 0.718037 0.243065
Si Si6 0.642083 0.016082 0.519998
O O1 0.949352 0.788450 0.142212
O O2 0.909818 0.432231 0.267395
O O3 0.000000 0.488613 0.250000
O O4 0.950504 0.299593 0.099137
O O5 0.250000 0.500000 0.400730
O O6 0.284179 0.197099 0.254098
O O7 0.331375 0.534174 0.318255
O O8 0.319687 0.186795 0.453850
O O9 0.908185 0.025818 0.475596
O O10 0.000000 0.000000 0.500000
O O11 0.750000 0.000000 0.909719
O O12 0.834202 0.857682 0.832044
O O13 0.829448 0.215629 0.948317
O O14 0.628208 0.914567 0.145066
#
# Coordination Sequence:
#
# PCOD9423502 Si02
#       6
#     8   8   8   8   8   8
#     4  11  24  44  72  99 134 184 232 280 362 413
#     4  11  22  43  66  89 132 176 222 286 344 413
#     4  11  24  45  67 103 138 177 231 290 346 423
#     4  11  24  40  63  99 127 172 232 276 341 424
#     4  10  23  44  64  93 135 174 222 286 344 414
#     4  10  25  42  65  95 139 176 223 282 358 411
#
# _framework density 24.475142000000002
#
# number of rings (size 3 to 8) (size 9 to 14) (size 15 to 20)
#    0.000    1.333    3.333    1.000    4.667    2.667 
#    0.000    0.000    0.000    0.000    0.000    0.000 
#    0.000    0.000    0.000    0.000    0.000    0.000 
#
# Total GULP energy -267557.830660 kJ/mol
# GULP energy per Si atom -5574.121472 kJ/mol
# Density = 2.441944 g / cm^3
# Si number density = 24.475142 Si / 1000 Ang^3
#
#
#
# Elastic Constant Matrix: (Units=GPa)
#
#
# Indices 1 2 3 4 5 6 
#
# 1 242.8519 46.3857 28.0207 0.0000 0.0000 0.0000
# 2 46.3857 81.2224 11.5905 0.0000 0.0000 0.0000
# 3 28.0207 11.5905 43.9256 0.0000 0.0000 0.0000
# 4 0.0000 0.0000 0.0000 54.3228 0.0000 0.0000
# 5 0.0000 0.0000 0.0000 0.0000 43.0129 0.0000
# 6 0.0000 0.0000 0.0000 0.0000 0.0000 49.9871
#
#
#
# Elastic Compliance Matrix: (Units=1/GPa)
#
#
# Indices 1 2 3 4 5 6 
#
# 1 0.004866 -0.002427 -0.002463 0.000000 0.000000 0.000000
# 2 -0.002427 0.014004 -0.002147 0.000000 0.000000 0.000000
# 3 -0.002463 -0.002147 0.024904 0.000000 0.000000 0.000000
# 4 0.000000 0.000000 0.000000 0.018408 0.000000 0.000000
# 5 0.000000 0.000000 0.000000 0.000000 0.023249 0.000000
# 6 0.000000 0.000000 0.000000 0.000000 0.000000 0.020005
#
#
# Mechanical properties :
#
#
# Convention : Reuss Voigt Hill
#
# Bulk Modulus (GPa) = 33.67155 59.99930 46.83542
# Shear Modulus (GPa) = 38.63668 48.26475 43.45072
#
# Velocity S-wave (km/s) = 3.97748 4.44553 4.21800
# Velocity P-wave (km/s) = 5.90602 7.13568 6.54977
#
# Compressibility (1/GPa) = 0.02969867
#
# Stress axis : x y z
#
# Youngs Moduli (GPa) = 205.52605 71.40617 40.15464
#
# Poissons Ratio (x) = 0.17332 0.09892
# Poissons Ratio (y) = 0.49885 0.08621
# Poissons Ratio (z) = 0.50628 0.15331
#
# Static dielectric constant tensor:
#      x y z
#    x 2.305390 0.000000 0.000000 
#    y 0.000000 2.143860 0.000000 
#    z 0.000000 0.000000 2.689270 
# 
# From -- ./inp_files/15128.got.cif
#   From: 2010.05.17/outbox.cif.g08.bks.cpg/sg54_8_cif.got.tgz:15128.got - 2010.06.03 13:09:01.
