data_PCOD9423056
_publ_section_title
;
Structure prediction by ZEFSAII (Michael W. Deem and Ramdas Pophale) SiO2 
 PCOD9423056
Probable space group: P C C A
;
_chemical_formula_sum "Si O2"
_cell_formula_units_Z 36
_cell_length_a 13.035571
_cell_length_b 11.476531
_cell_length_c 11.320147
_cell_angle_alpha 90.000000
_cell_angle_beta 90.000000
_cell_angle_gamma 90.000000
_cell_volume 1693.529476
_symmetry_space_group_name_H-M "P C C A"
_symmetry_group_IT_number 54
_symmetry_cell_setting 'orthorhombic'
loop_
_space_group_symop_operation_xyz
x,y,z
1/2-x,-y,z
1/2+x,-y,1/2-z
-x,y,1/2-z
-x,-y,-z
1/2+x,y,-z
1/2-x,y,1/2+z
x,-y,1/2+z
loop_
_atom_site_type_symbol
_atom_site_label
_atom_site_fract_x
_atom_site_fract_y
_atom_site_fract_z
Si Si1 0.414831 0.840350 0.425651
Si Si2 0.029854 0.653723 0.120950
Si Si3 0.144222 0.799697 0.669180
Si Si4 0.150733 0.559744 0.540840
Si Si5 0.250000 0.000000 0.033819
O O1 0.422057 0.751828 0.535757
O O2 0.532647 0.844724 0.379031
O O3 0.357040 0.791752 0.310264
O O4 0.349954 0.955721 0.460284
O O5 0.102564 0.540814 0.123269
O O6 0.000000 0.698044 0.250000
O O7 0.929030 0.602967 0.056809
O O8 0.169917 0.674191 0.617116
O O9 0.221507 0.892841 0.616965
O O10 0.250000 0.500000 0.485929
#
# Coordination Sequence:
#
# PCOD9423056 Si02
#       5
#     8   8   8   8   4
#     4  10  23  45  66  95 132 171 218 269 334 381
#     4  10  23  42  67  96 134 172 212 266 328 397
#     4  10  23  43  67  93 135 173 212 277 325 385
#     4  10  22  41  65 100 130 172 215 266 328 390
#     4  12  22  44  66 100 124 174 228 270 318 390
#
# _framework density 21.257380000000001
#
# number of rings (size 3 to 8) (size 9 to 14) (size 15 to 20)
#    0.000    1.778    0.000    2.667    9.333    0.889 
#   32.000    0.000    0.000    0.000    0.000    0.000 
#    0.000    0.000    0.000    0.000    0.000    0.000 
#
# Total GULP energy -200943.096613 kJ/mol
# GULP energy per Si atom -5581.752684 kJ/mol
# Density = 2.120900 g / cm^3
# Si number density = 21.257380 Si / 1000 Ang^3
#
#
#
# Elastic Constant Matrix: (Units=GPa)
#
#
# Indices 1 2 3 4 5 6 
#
# 1 71.5680 39.7465 23.5677 0.0000 0.0000 0.0000
# 2 39.7465 100.8261 58.3988 0.0000 0.0000 0.0000
# 3 23.5677 58.3988 113.6543 0.0000 0.0000 0.0000
# 4 0.0000 0.0000 0.0000 18.0345 0.0000 0.0000
# 5 0.0000 0.0000 0.0000 0.0000 -6.4024 0.0000
# 6 0.0000 0.0000 0.0000 0.0000 0.0000 27.8984
#
#
#
# Elastic Compliance Matrix: (Units=1/GPa)
#
#
# Indices 1 2 3 4 5 6 
#
# 1 0.017890 -0.006982 -0.000122 0.000000 0.000000 0.000000
# 2 -0.006982 0.016845 -0.007208 0.000000 0.000000 0.000000
# 3 -0.000122 -0.007208 0.012528 0.000000 0.000000 0.000000
# 4 0.000000 0.000000 0.000000 0.055449 0.000000 0.000000
# 5 0.000000 0.000000 0.000000 0.000000 -0.156191 0.000000
# 6 0.000000 0.000000 0.000000 0.000000 0.000000 0.035844
#
#
# Mechanical properties :
#
#
# Convention : Reuss Voigt Hill
#
# Bulk Modulus (GPa) = 53.64986 58.83047 56.24017
# Shear Modulus (GPa) = 290.66425 18.86179 154.76302
#
# Velocity S-wave (km/s) = 11.70609 2.98200 8.54180
# Velocity P-wave (km/s) = 14.42231 6.29220 11.12643
#
# Compressibility (1/GPa) = 0.01863938
#
# Stress axis : x y z
#
# Youngs Moduli (GPa) = 55.89584 59.36481 79.82427
#
# Poissons Ratio (x) = 0.41446 0.00978
# Poissons Ratio (y) = 0.39024 0.57535
# Poissons Ratio (z) = 0.00685 0.42788
#
# Static dielectric constant tensor:
#      x y z
#    x 1.863910 0.000000 0.000000 
#    y 0.000000 1.726170 0.000000 
#    z 0.000000 0.000000 1.734170 
# 
# From -- ./inp_files/7393.got.cif
#   From: 2010.05.17/outbox.cif.g08.bks.cpg/sg54_4_cif.got.tgz:7393.got - 2010.06.03 13:09:01.
