data_PCOD9423724
_publ_section_title
;
Structure prediction by ZEFSAII (Michael W. Deem and Ramdas Pophale) SiO2 
 PCOD9423724
Probable space group: P C C A
;
_chemical_formula_sum "Si O2"
_cell_formula_units_Z 40
_cell_length_a 17.531561
_cell_length_b 5.291481
_cell_length_c 18.825949
_cell_angle_alpha 90.000000
_cell_angle_beta 90.000000
_cell_angle_gamma 90.000000
_cell_volume 1746.444167
_symmetry_space_group_name_H-M "P C C A"
_symmetry_group_IT_number 54
_symmetry_cell_setting 'orthorhombic'
loop_
_space_group_symop_operation_xyz
x,y,z
1/2-x,-y,z
1/2+x,-y,1/2-z
-x,y,1/2-z
-x,-y,-z
1/2+x,y,-z
1/2-x,y,1/2+z
x,-y,1/2+z
loop_
_atom_site_type_symbol
_atom_site_label
_atom_site_fract_x
_atom_site_fract_y
_atom_site_fract_z
Si Si1 0.750000 0.500000 0.450184
Si Si2 0.946032 0.209095 0.314752
Si Si3 0.848474 0.293600 0.821648
Si Si4 0.250000 0.500000 0.795019
Si Si5 0.704189 0.227202 0.576879
Si Si6 0.031256 0.752230 0.962180
O O1 0.688074 0.387526 0.396138
O O2 0.763969 0.289957 0.511482
O O3 0.904902 0.476792 0.300939
O O4 0.000000 0.136072 0.250000
O O5 0.997574 0.245943 0.383549
O O6 0.887024 0.979134 0.327737
O O7 0.785420 0.298672 0.759387
O O8 0.190050 0.594358 0.854292
O O9 0.622413 0.219907 0.540806
O O10 0.750000 0.000000 0.611755
O O11 0.000000 0.500000 0.000000
O O12 0.000000 0.000000 0.000000
#
# Coordination Sequence:
#
# PCOD9423724 Si02
#       6
#     4   8   8   4   8   8
#     4  10  24  44  68 104 140 186 240 300 358 434
#     4  12  26  46  72 104 148 187 246 295 366 441
#     4  11  26  45  73 104 142 192 239 297 363 435
#     4  10  26  44  72 104 148 188 244 300 372 434
#     4  11  26  44  76 104 148 191 251 307 373 439
#     4  12  28  48  75 108 150 197 245 305 377 447
#
# _framework density 22.903680000000001
#
# number of rings (size 3 to 8) (size 9 to 14) (size 15 to 20)
#    0.000    0.800    0.000    5.400   16.800    1.600 
#    0.000    0.000    0.000    0.000    0.000    0.000 
#    0.000    0.000    0.000    0.000    0.000    0.000 
#
# Total GULP energy -223125.295757 kJ/mol
# GULP energy per Si atom -5578.132394 kJ/mol
# Density = 2.285155 g / cm^3
# Si number density = 22.903680 Si / 1000 Ang^3
#
#
#
# Elastic Constant Matrix: (Units=GPa)
#
#
# Indices 1 2 3 4 5 6 
#
# 1 68.8378 28.2073 47.8377 0.0000 0.0000 0.0000
# 2 28.2073 106.5581 24.7930 0.0000 0.0000 0.0000
# 3 47.8377 24.7930 188.6129 0.0000 0.0000 0.0000
# 4 0.0000 0.0000 0.0000 16.9098 0.0000 0.0000
# 5 0.0000 0.0000 0.0000 0.0000 25.1584 0.0000
# 6 0.0000 0.0000 0.0000 0.0000 0.0000 38.7282
#
#
#
# Elastic Compliance Matrix: (Units=1/GPa)
#
#
# Indices 1 2 3 4 5 6 
#
# 1 0.019211 -0.004076 -0.004337 0.000000 0.000000 0.000000
# 2 -0.004076 0.010546 -0.000352 0.000000 0.000000 0.000000
# 3 -0.004337 -0.000352 0.006448 0.000000 0.000000 0.000000
# 4 0.000000 0.000000 0.000000 0.059137 0.000000 0.000000
# 5 0.000000 0.000000 0.000000 0.000000 0.039748 0.000000
# 6 0.000000 0.000000 0.000000 0.000000 0.000000 0.025821
#
#
# Mechanical properties :
#
#
# Convention : Reuss Voigt Hill
#
# Bulk Modulus (GPa) = 53.55046 62.85385 58.20215
# Shear Modulus (GPa) = 27.07589 33.70400 30.38994
#
# Velocity S-wave (km/s) = 3.44199 3.84025 3.64656
# Velocity P-wave (km/s) = 6.26322 6.86772 6.57242
#
# Compressibility (1/GPa) = 0.01867397
#
# Stress axis : x y z
#
# Youngs Moduli (GPa) = 52.05376 94.82632 155.08529
#
# Poissons Ratio (x) = 0.38655 0.67254
# Poissons Ratio (y) = 0.21219 0.05464
# Poissons Ratio (z) = 0.22574 0.03341
#
# Static dielectric constant tensor:
#      x y z
#    x 2.067680 0.000000 0.000000 
#    y 0.000000 1.787950 0.000000 
#    z 0.000000 0.000000 1.786080 
# 
# From -- ./inp_files/18426.got.cif
#   From: 2010.05.17/outbox.cif.g08.bks.cpg/sg54_10_cif.got.tgz:18426.got - 2010.06.03 13:09:01.
