data_PCOD9423743
_publ_section_title
;
Structure prediction by ZEFSAII (Michael W. Deem and Ramdas Pophale) SiO2 
 PCOD9423743
Probable space group: P C C A
;
_chemical_formula_sum "Si O2"
_cell_formula_units_Z 44
_cell_length_a 20.293898
_cell_length_b 9.761410
_cell_length_c 8.661956
_cell_angle_alpha 90.000000
_cell_angle_beta 90.000000
_cell_angle_gamma 90.000000
_cell_volume 1715.908008
_symmetry_space_group_name_H-M "P C C A"
_symmetry_group_IT_number 54
_symmetry_cell_setting 'orthorhombic'
loop_
_space_group_symop_operation_xyz
x,y,z
1/2-x,-y,z
1/2+x,-y,1/2-z
-x,y,1/2-z
-x,-y,-z
1/2+x,y,-z
1/2-x,y,1/2+z
x,-y,1/2+z
loop_
_atom_site_type_symbol
_atom_site_label
_atom_site_fract_x
_atom_site_fract_y
_atom_site_fract_z
Si Si1 0.250000 0.000000 0.681074
Si Si2 0.185416 0.332943 0.390124
Si Si3 0.623960 0.417984 0.927123
Si Si4 0.071560 0.158701 0.454056
Si Si5 0.000000 0.385502 0.250000
Si Si6 0.815703 0.810637 0.069482
Si Si7 0.500000 0.932347 0.750000
O O1 0.203820 0.904083 0.576046
O O2 0.298402 0.905567 0.784787
O O3 0.154856 0.452276 0.491922
O O4 0.169072 0.369808 0.215040
O O5 0.148629 0.191974 0.438288
O O6 0.261741 0.310038 0.414541
O O7 0.554656 0.460613 0.850503
O O8 0.619238 0.280124 0.034125
O O9 0.038586 0.286284 0.366530
O O10 0.045044 0.146127 0.626938
O O11 0.047772 0.027487 0.355947
#
# Coordination Sequence:
#
# PCOD9423743 Si02
#       7
#     4   8   8   8   4   8   4
#     4  10  24  44  70  98 138 168 214 278 342 416
#     4  11  25  41  67  96 133 173 222 275 332 398
#     4  11  25  44  68  96 138 179 228 280 327 408
#     4   9  20  39  59  95 124 172 217 269 324 387
#     4   9  22  45  62  94 132 173 229 276 334 387
#     4  11  23  46  66 104 129 174 217 277 347 403
#     4   9  18  39  62  90 134 173 217 268 324 397
#
# _framework density 25.642399999999999
#
# number of rings (size 3 to 8) (size 9 to 14) (size 15 to 20)
#    0.000    1.818    1.818    0.545    2.545    8.000 
#   16.364    0.000    0.000    0.000    0.000    0.000 
#    0.000    0.000    0.000    0.000    0.000    0.000 
#
# Total GULP energy -246614.738847 kJ/mol
# GULP energy per Si atom -5604.880428 kJ/mol
# Density = 2.558404 g / cm^3
# Si number density = 25.642400 Si / 1000 Ang^3
#
#
#
# Elastic Constant Matrix: (Units=GPa)
#
#
# Indices 1 2 3 4 5 6 
#
# 1 53.0762 7.5789 1.1007 0.0000 0.0000 0.0000
# 2 7.5789 89.4102 28.8887 0.0000 0.0000 0.0000
# 3 1.1007 28.8887 128.1260 0.0000 0.0000 0.0000
# 4 0.0000 0.0000 0.0000 38.8718 0.0000 0.0000
# 5 0.0000 0.0000 0.0000 0.0000 32.0862 0.0000
# 6 0.0000 0.0000 0.0000 0.0000 0.0000 38.2977
#
#
#
# Elastic Compliance Matrix: (Units=1/GPa)
#
#
# Indices 1 2 3 4 5 6 
#
# 1 0.019077 -0.001687 0.000216 0.000000 0.000000 0.000000
# 2 -0.001687 0.012212 -0.002739 0.000000 0.000000 0.000000
# 3 0.000216 -0.002739 0.008421 0.000000 0.000000 0.000000
# 4 0.000000 0.000000 0.000000 0.025726 0.000000 0.000000
# 5 0.000000 0.000000 0.000000 0.000000 0.031166 0.000000
# 6 0.000000 0.000000 0.000000 0.000000 0.000000 0.026111
#
#
# Mechanical properties :
#
#
# Convention : Reuss Voigt Hill
#
# Bulk Modulus (GPa) = 31.95808 38.41655 35.18732
# Shear Modulus (GPa) = 35.32008 37.38743 36.35376
#
# Velocity S-wave (km/s) = 3.71537 3.82256 3.76935
# Velocity P-wave (km/s) = 5.55836 5.87340 5.71805
#
# Compressibility (1/GPa) = 0.03129099
#
# Stress axis : x y z
#
# Youngs Moduli (GPa) = 52.41843 81.88396 118.75736
#
# Poissons Ratio (x) = 0.13814 -0.02571
# Poissons Ratio (y) = 0.08843 0.32528
# Poissons Ratio (z) = -0.01135 0.22428
#
# Static dielectric constant tensor:
#      x y z
#    x 2.126300 0.000000 0.000000 
#    y 0.000000 2.007710 0.000000 
#    z 0.000000 0.000000 2.021980 
# 
# From -- ./inp_files/5127.got.cif
#   From: 2010.05.17/outbox.cif.g08.bks.cpg/sg54_3_cif.got.tgz:5127.got - 2010.06.03 13:09:01.
