data_PCOD9423134
_publ_section_title
;
Structure prediction by ZEFSAII (Michael W. Deem and Ramdas Pophale) SiO2 
 PCOD9423134
Probable space group: P C C A
;
_chemical_formula_sum "Si O2"
_cell_formula_units_Z 48
_cell_length_a 9.375905
_cell_length_b 9.191476
_cell_length_c 29.034005
_cell_angle_alpha 90.000000
_cell_angle_beta 90.000000
_cell_angle_gamma 90.000000
_cell_volume 2502.104264
_symmetry_space_group_name_H-M "P C C A"
_symmetry_group_IT_number 54
_symmetry_cell_setting 'orthorhombic'
loop_
_space_group_symop_operation_xyz
x,y,z
1/2-x,-y,z
1/2+x,-y,1/2-z
-x,y,1/2-z
-x,-y,-z
1/2+x,y,-z
1/2-x,y,1/2+z
x,-y,1/2+z
loop_
_atom_site_type_symbol
_atom_site_label
_atom_site_fract_x
_atom_site_fract_y
_atom_site_fract_z
Si Si1 0.586872 0.471200 0.376857
Si Si2 0.560620 0.706268 0.700035
Si Si3 0.654806 0.716857 0.142101
Si Si4 0.087509 0.962386 0.791731
Si Si5 0.735269 0.175813 0.043742
Si Si6 0.546485 0.346335 0.477581
O O1 0.750000 0.500000 0.365077
O O2 0.532690 0.361469 0.339170
O O3 0.467886 0.601104 0.372052
O O4 0.591862 0.397766 0.426942
O O5 0.500000 0.655570 0.750000
O O6 0.724841 0.676681 0.681640
O O7 0.530467 0.878037 0.698377
O O8 0.584216 0.858943 0.164564
O O9 0.734279 0.765645 0.095494
O O10 0.000000 0.893949 0.750000
O O11 0.250000 0.000000 0.777857
O O12 0.580852 0.232184 0.029045
O O13 0.750000 0.000000 0.041818
O O14 0.839923 0.263297 0.009304
O O15 0.500000 0.500000 0.500000
#
# Coordination Sequence:
#
# PCOD9423134 Si02
#       6
#     8   8   8   8   8   8
#     4  12  26  42  62  99 135 179 232 278 338 413
#     4  10  22  42  67  97 131 173 225 279 339 410
#     4  11  23  42  71  95 133 183 226 277 351 415
#     4   9  20  39  66  96 129 171 222 271 342 409
#     4  12  25  45  73 103 137 180 238 291 345 417
#     4  12  25  45  71  99 139 186 227 285 350 415
#
# _framework density 19.183852000000002
#
# number of rings (size 3 to 8) (size 9 to 14) (size 15 to 20)
#    0.000    1.000    3.333    4.000    0.000    6.000 
#    0.000    0.000    0.000    0.000    0.000    0.000 
#    0.000    0.000    0.000    0.000    0.000    0.000 
#
# Total GULP energy -267512.605556 kJ/mol
# GULP energy per Si atom -5573.179282 kJ/mol
# Density = 1.914019 g / cm^3
# Si number density = 19.183852 Si / 1000 Ang^3
#
#
#
# Elastic Constant Matrix: (Units=GPa)
#
#
# Indices 1 2 3 4 5 6 
#
# 1 45.5936 15.9801 -8.0269 0.0000 0.0000 0.0000
# 2 15.9801 62.9779 10.3888 0.0000 0.0000 0.0000
# 3 -8.0269 10.3888 81.0229 0.0000 0.0000 0.0000
# 4 0.0000 0.0000 0.0000 37.2994 0.0000 0.0000
# 5 0.0000 0.0000 0.0000 0.0000 31.8343 0.0000
# 6 0.0000 0.0000 0.0000 0.0000 0.0000 119.5542
#
#
#
# Elastic Compliance Matrix: (Units=1/GPa)
#
#
# Indices 1 2 3 4 5 6 
#
# 1 0.024934 -0.006880 0.003352 0.000000 0.000000 0.000000
# 2 -0.006880 0.018120 -0.003005 0.000000 0.000000 0.000000
# 3 0.003352 -0.003005 0.013060 0.000000 0.000000 0.000000
# 4 0.000000 0.000000 0.000000 0.026810 0.000000 0.000000
# 5 0.000000 0.000000 0.000000 0.000000 0.031413 0.000000
# 6 0.000000 0.000000 0.000000 0.000000 0.000000 0.008364
#
#
# Mechanical properties :
#
#
# Convention : Reuss Voigt Hill
#
# Bulk Modulus (GPa) = 23.22929 25.14205 24.18567
# Shear Modulus (GPa) = 33.30762 49.15441 41.23101
#
# Velocity S-wave (km/s) = 4.17133 5.06739 4.64104
# Velocity P-wave (km/s) = 5.94433 6.88275 6.43068
#
# Compressibility (1/GPa) = 0.04304911
#
# Stress axis : x y z
#
# Youngs Moduli (GPa) = 40.10517 55.18766 76.57197
#
# Poissons Ratio (x) = 0.37969 -0.25670
# Poissons Ratio (y) = 0.27592 0.23009
# Poissons Ratio (z) = -0.13445 0.16584
#
# Static dielectric constant tensor:
#      x y z
#    x 2.178030 0.000000 0.000000 
#    y 0.000000 1.700920 0.000000 
#    z 0.000000 0.000000 1.691110 
# 
# From -- ./inp_files/27691.got.cif
#   From: 2010.05.17/outbox.cif.g08.bks.cpg/sg54_14_cif.got.tgz:27691.got - 2010.06.03 13:09:01.
