data_PCOD9423400
_publ_section_title
;
Structure prediction by ZEFSAII (Michael W. Deem and Ramdas Pophale) SiO2 
 PCOD9423400
Probable space group: P C C A
;
_chemical_formula_sum "Si O2"
_cell_formula_units_Z 48
_cell_length_a 8.947028
_cell_length_b 15.846666
_cell_length_c 16.787162
_cell_angle_alpha 90.000000
_cell_angle_beta 90.000000
_cell_angle_gamma 90.000000
_cell_volume 2380.093303
_symmetry_space_group_name_H-M "P C C A"
_symmetry_group_IT_number 54
_symmetry_cell_setting 'orthorhombic'
loop_
_space_group_symop_operation_xyz
x,y,z
1/2-x,-y,z
1/2+x,-y,1/2-z
-x,y,1/2-z
-x,-y,-z
1/2+x,y,-z
1/2-x,y,1/2+z
x,-y,1/2+z
loop_
_atom_site_type_symbol
_atom_site_label
_atom_site_fract_x
_atom_site_fract_y
_atom_site_fract_z
Si Si1 0.035729 0.283871 0.377456
Si Si2 0.079875 0.470455 0.418965
Si Si3 0.253993 0.703265 0.725675
Si Si4 0.864805 0.115984 0.037334
Si Si5 0.000000 0.557745 0.250000
Si Si6 0.054888 0.935031 0.404152
Si Si7 0.500000 0.159615 0.250000
O O1 0.072783 0.369860 0.421774
O O2 0.152171 0.281240 0.303645
O O3 0.065574 0.201548 0.429898
O O4 0.866697 0.294530 0.345068
O O5 0.250000 0.500000 0.420883
O O6 0.000000 0.500000 0.500000
O O7 0.017236 0.503683 0.332229
O O8 0.354086 0.618500 0.737743
O O9 0.372471 0.778536 0.716872
O O10 0.688364 0.110047 0.048091
O O11 0.927697 0.035052 0.086312
O O12 0.905692 0.095942 0.946749
O O13 0.066286 0.900772 0.316453
#
# Coordination Sequence:
#
# PCOD9423400 Si02
#       7
#     8   8   8   8   4   8   4
#     4  11  23  43  67  99 134 171 233 274 328 401
#     4  12  29  46  72 105 134 181 230 277 344 402
#     4  10  23  40  71  99 131 181 222 275 338 390
#     4  10  23  44  66  95 133 176 220 271 333 393
#     4  11  24  50  69  92 148 180 221 282 340 401
#     4  10  23  44  66  95 136 176 217 268 335 394
#     4  11  22  42  65 102 134 170 225 274 324 385
#
# _framework density 20.167276999999999
#
# number of rings (size 3 to 8) (size 9 to 14) (size 15 to 20)
#    0.000    1.333    3.333    1.000    4.667    5.333 
#    0.000    0.000    0.000    0.000    0.000    0.000 
#    0.000    0.000    0.000    0.000    0.000    0.000 
#
# Total GULP energy -268057.484158 kJ/mol
# GULP energy per Si atom -5584.530920 kJ/mol
# Density = 2.012138 g / cm^3
# Si number density = 20.167277 Si / 1000 Ang^3
#
#
#
# Elastic Constant Matrix: (Units=GPa)
#
#
# Indices 1 2 3 4 5 6 
#
# 1 66.0544 10.5493 1.7283 0.0000 0.0000 0.0000
# 2 10.5493 139.3530 26.4399 0.0000 0.0000 0.0000
# 3 1.7283 26.4399 47.0517 0.0000 0.0000 0.0000
# 4 0.0000 0.0000 0.0000 21.9916 0.0000 0.0000
# 5 0.0000 0.0000 0.0000 0.0000 18.6143 0.0000
# 6 0.0000 0.0000 0.0000 0.0000 0.0000 12.0340
#
#
#
# Elastic Compliance Matrix: (Units=1/GPa)
#
#
# Indices 1 2 3 4 5 6 
#
# 1 0.015325 -0.001179 0.000100 0.000000 0.000000 0.000000
# 2 -0.001179 0.008123 -0.004521 0.000000 0.000000 0.000000
# 3 0.000100 -0.004521 0.023790 0.000000 0.000000 0.000000
# 4 0.000000 0.000000 0.000000 0.045472 0.000000 0.000000
# 5 0.000000 0.000000 0.000000 0.000000 0.053722 0.000000
# 6 0.000000 0.000000 0.000000 0.000000 0.000000 0.083098
#
#
# Mechanical properties :
#
#
# Convention : Reuss Voigt Hill
#
# Bulk Modulus (GPa) = 27.74957 36.65489 32.20223
# Shear Modulus (GPa) = 19.78288 24.77742 22.28015
#
# Velocity S-wave (km/s) = 3.13539 3.50893 3.32741
# Velocity P-wave (km/s) = 5.18625 5.88487 5.54657
#
# Compressibility (1/GPa) = 0.03603660
#
# Stress axis : x y z
#
# Youngs Moduli (GPa) = 65.25399 123.10535 42.03407
#
# Poissons Ratio (x) = 0.14514 -0.00419
# Poissons Ratio (y) = 0.07693 0.19005
# Poissons Ratio (z) = -0.00650 0.55660
#
# Static dielectric constant tensor:
#      x y z
#    x 1.717690 0.000000 0.000000 
#    y 0.000000 1.695410 0.000000 
#    z 0.000000 0.000000 1.711250 
# 
# From -- ./inp_files/16697.got.cif
#   From: 2010.05.17/outbox.cif.g08.bks.cpg/sg54_9_cif.got.tgz:16697.got - 2010.06.03 13:09:01.
