data_PCOD9423099
_publ_section_title
;
Structure prediction by ZEFSAII (Michael W. Deem and Ramdas Pophale) SiO2 
 PCOD9423099
Probable space group: P C C A
;
_chemical_formula_sum "Si O2"
_cell_formula_units_Z 32
_cell_length_a 12.255599
_cell_length_b 21.778205
_cell_length_c 5.259073
_cell_angle_alpha 90.000000
_cell_angle_beta 90.000000
_cell_angle_gamma 90.000000
_cell_volume 1403.672603
_symmetry_space_group_name_H-M "P C C A"
_symmetry_group_IT_number 54
_symmetry_cell_setting 'orthorhombic'
loop_
_space_group_symop_operation_xyz
x,y,z
1/2-x,-y,z
1/2+x,-y,1/2-z
-x,y,1/2-z
-x,-y,-z
1/2+x,y,-z
1/2-x,y,1/2+z
x,-y,1/2+z
loop_
_atom_site_type_symbol
_atom_site_label
_atom_site_fract_x
_atom_site_fract_y
_atom_site_fract_z
Si Si1 0.178445 0.220787 0.332745
Si Si2 0.700599 0.931128 0.501469
Si Si3 0.500000 0.457846 0.750000
Si Si4 0.000000 0.876972 0.750000
Si Si5 0.317871 0.640492 0.377565
O O1 0.272304 0.215957 0.547621
O O2 0.084790 0.170316 0.376744
O O3 0.135049 0.290562 0.352135
O O4 0.728426 0.903862 0.772514
O O5 0.575465 0.920846 0.425432
O O6 0.750000 0.000000 0.525796
O O7 0.500000 0.500000 0.500000
O O8 0.601503 0.412507 0.709425
O O9 0.280049 0.635753 0.670697
#
# Coordination Sequence:
#
# PCOD9423099 Si02
#       5
#     8   8   4   4   8
#     4  10  23  41  63  93 120 154 208 255 304 369
#     4  10  24  42  60  89 122 157 204 243 294 369
#     4  12  25  38  60  94 124 161 214 248 290 370
#     4  12  23  40  68  88 124 163 196 258 312 350
#     4  10  22  42  63  86 124 163 200 256 311 353
#
# _framework density 22.797336999999999
#
# number of rings (size 3 to 8) (size 9 to 14) (size 15 to 20)
#    0.000    1.500    0.000    3.750    0.000   11.000 
#    0.000    7.500    0.000    0.000    0.000    0.000 
#    0.000    0.000    0.000    0.000    0.000    0.000 
#
# Total GULP energy -178683.907341 kJ/mol
# GULP energy per Si atom -5583.872104 kJ/mol
# Density = 2.274545 g / cm^3
# Si number density = 22.797337 Si / 1000 Ang^3
#
#
#
# Elastic Constant Matrix: (Units=GPa)
#
#
# Indices 1 2 3 4 5 6 
#
# 1 88.9501 53.7879 9.5150 0.0000 0.0000 0.0000
# 2 53.7879 163.8989 27.0765 0.0000 0.0000 0.0000
# 3 9.5150 27.0765 130.0201 0.0000 0.0000 0.0000
# 4 0.0000 0.0000 0.0000 37.9480 0.0000 0.0000
# 5 0.0000 0.0000 0.0000 0.0000 14.2511 0.0000
# 6 0.0000 0.0000 0.0000 0.0000 0.0000 58.3574
#
#
#
# Elastic Compliance Matrix: (Units=1/GPa)
#
#
# Indices 1 2 3 4 5 6 
#
# 1 0.014026 -0.004591 -0.000070 0.000000 0.000000 0.000000
# 2 -0.004591 0.007822 -0.001293 0.000000 0.000000 0.000000
# 3 -0.000070 -0.001293 0.007966 0.000000 0.000000 0.000000
# 4 0.000000 0.000000 0.000000 0.026352 0.000000 0.000000
# 5 0.000000 0.000000 0.000000 0.000000 0.070170 0.000000
# 6 0.000000 0.000000 0.000000 0.000000 0.000000 0.017136
#
#
# Mechanical properties :
#
#
# Convention : Reuss Voigt Hill
#
# Bulk Modulus (GPa) = 55.85277 62.62532 59.23904
# Shear Modulus (GPa) = 30.98883 41.61061 36.29972
#
# Velocity S-wave (km/s) = 3.69089 4.27692 3.99467
# Velocity P-wave (km/s) = 6.53578 7.20552 6.87881
#
# Compressibility (1/GPa) = 0.01790422
#
# Stress axis : x y z
#
# Youngs Moduli (GPa) = 71.29498 127.84897 125.54139
#
# Poissons Ratio (x) = 0.58702 0.00882
# Poissons Ratio (y) = 0.32735 0.16231
# Poissons Ratio (z) = 0.00501 0.16529
#
# Static dielectric constant tensor:
#      x y z
#    x 1.850980 0.000000 0.000000 
#    y 0.000000 0.983970 0.000000 
#    z 0.000000 0.000000 1.850270 
# 
# From -- ./inp_files/160.got.cif
#   From: 2010.05.17/outbox.cif.g08.bks.cpg/sg54_1_cif.got.tgz:160.got - 2010.06.03 13:09:01.
