data_PCOD9423710
_publ_section_title
;
Structure prediction by ZEFSAII (Michael W. Deem and Ramdas Pophale) SiO2 
 PCOD9423710
Probable space group: P C C A
;
_chemical_formula_sum "Si O2"
_cell_formula_units_Z 36
_cell_length_a 13.422506
_cell_length_b 5.464795
_cell_length_c 20.251614
_cell_angle_alpha 90.000000
_cell_angle_beta 90.000000
_cell_angle_gamma 90.000000
_cell_volume 1485.481073
_symmetry_space_group_name_H-M "P C C A"
_symmetry_group_IT_number 54
_symmetry_cell_setting 'orthorhombic'
loop_
_space_group_symop_operation_xyz
x,y,z
1/2-x,-y,z
1/2+x,-y,1/2-z
-x,y,1/2-z
-x,-y,-z
1/2+x,y,-z
1/2-x,y,1/2+z
x,-y,1/2+z
loop_
_atom_site_type_symbol
_atom_site_label
_atom_site_fract_x
_atom_site_fract_y
_atom_site_fract_z
Si Si1 0.855000 0.405276 0.936880
Si Si2 0.613348 0.911622 0.510072
Si Si3 0.877828 0.194381 0.248318
Si Si4 0.908269 0.304104 0.800670
Si Si5 0.250000 0.000000 0.869723
O O1 0.750000 0.500000 0.908119
O O2 0.930475 0.345941 0.877475
O O3 0.886528 0.640533 0.978894
O O4 0.835823 0.154206 0.976496
O O5 0.500000 0.000000 0.500000
O O6 0.667132 0.885245 0.581162
O O7 0.852450 0.454995 0.277449
O O8 0.819748 0.160068 0.179358
O O9 0.000000 0.200668 0.250000
O O10 0.854957 0.954745 0.291795
O O11 0.000000 0.288131 0.750000
#
# Coordination Sequence:
#
# PCOD9423710 Si02
#       5
#     8   8   8   8   4
#     4  12  25  49  73 109 155 188 257 306 380 452
#     4  12  29  49  76 111 148 209 247 315 373 452
#     4  10  25  45  71 107 144 192 245 312 378 442
#     4  10  24  43  71 103 144 190 237 305 375 436
#     4  12  28  50  78 106 156 192 264 304 380 454
#
# _framework density 24.234575
#
# number of rings (size 3 to 8) (size 9 to 14) (size 15 to 20)
#    0.000    0.889    2.222    2.000   15.556    3.556 
#    0.000    0.000    0.000    0.000    0.000    0.000 
#    0.000    0.000    0.000    0.000    0.000    0.000 
#
# Total GULP energy -200723.492713 kJ/mol
# GULP energy per Si atom -5575.652575 kJ/mol
# Density = 2.417942 g / cm^3
# Si number density = 24.234575 Si / 1000 Ang^3
#
#
#
# Elastic Constant Matrix: (Units=GPa)
#
#
# Indices 1 2 3 4 5 6 
#
# 1 139.3663 26.9644 21.0447 0.0000 0.0000 0.0000
# 2 26.9644 455.3433 255.7846 0.0000 0.0000 0.0000
# 3 21.0447 255.7846 294.0635 0.0000 0.0000 0.0000
# 4 0.0000 0.0000 0.0000 6.3773 0.0000 0.0000
# 5 0.0000 0.0000 0.0000 0.0000 46.2348 0.0000
# 6 0.0000 0.0000 0.0000 0.0000 0.0000 -2.2234
#
#
#
# Elastic Compliance Matrix: (Units=1/GPa)
#
#
# Indices 1 2 3 4 5 6 
#
# 1 0.007271 -0.000270 -0.000285 0.000000 0.000000 0.000000
# 2 -0.000270 0.004305 -0.003725 0.000000 0.000000 0.000000
# 3 -0.000285 -0.003725 0.006661 0.000000 0.000000 0.000000
# 4 0.000000 0.000000 0.000000 0.156807 0.000000 0.000000
# 5 0.000000 0.000000 0.000000 0.000000 0.021629 0.000000
# 6 0.000000 0.000000 0.000000 0.000000 0.000000 -0.449763
#
#
# Mechanical properties :
#
#
# Convention : Reuss Voigt Hill
#
# Bulk Modulus (GPa) = 103.35382 166.26227 134.80805
# Shear Modulus (GPa) = -20.72063 49.07636 14.17787
#
# Velocity S-wave (km/s) = -2.92722 4.50494 2.42136
# Velocity P-wave (km/s) = 5.59599 9.78845 7.97273
#
# Compressibility (1/GPa) = 0.00967550
#
# Stress axis : x y z
#
# Youngs Moduli (GPa) = 137.53818 232.31076 150.12650
#
# Poissons Ratio (x) = 0.06281 0.04281
# Poissons Ratio (y) = 0.03719 0.55921
# Poissons Ratio (z) = 0.03922 0.86533
#
# Static dielectric constant tensor:
#      x y z
#    x 2.128200 0.000000 0.000000 
#    y 0.000000 1.941340 0.000000 
#    z 0.000000 0.000000 1.942030 
# 
# From -- ./inp_files/21334.got.cif
#   From: 2010.05.17/outbox.cif.g08.bks.cpg/sg54_11_cif.got.tgz:21334.got - 2010.06.03 13:09:01.
