data_PCOD9423964
_publ_section_title
;
Structure prediction by ZEFSAII (Michael W. Deem and Ramdas Pophale) SiO2 
 PCOD9423964
Probable space group: P C C A
;
_chemical_formula_sum "Si O2"
_cell_formula_units_Z 32
_cell_length_a 7.616667
_cell_length_b 12.713393
_cell_length_c 17.660874
_cell_angle_alpha 90.000000
_cell_angle_beta 90.000000
_cell_angle_gamma 90.000000
_cell_volume 1710.167438
_symmetry_space_group_name_H-M "P C C A"
_symmetry_group_IT_number 54
_symmetry_cell_setting 'orthorhombic'
loop_
_space_group_symop_operation_xyz
x,y,z
1/2-x,-y,z
1/2+x,-y,1/2-z
-x,y,1/2-z
-x,-y,-z
1/2+x,y,-z
1/2-x,y,1/2+z
x,-y,1/2+z
loop_
_atom_site_type_symbol
_atom_site_label
_atom_site_fract_x
_atom_site_fract_y
_atom_site_fract_z
Si Si1 0.748861 0.121587 0.579396
Si Si2 0.893678 0.419209 0.049438
Si Si3 0.629743 0.219871 0.433992
Si Si4 0.542654 0.740140 0.337913
O O1 0.701735 0.130416 0.490443
O O2 0.593001 0.176999 0.625362
O O3 0.931690 0.186773 0.587877
O O4 0.750000 0.000000 0.601588
O O5 0.750000 0.500000 0.081586
O O6 0.853654 0.323642 0.989320
O O7 0.996717 0.366749 0.117827
O O8 0.000000 0.500000 0.000000
O O9 0.759322 0.231976 0.363071
O O10 0.500000 0.733189 0.250000
#
# Coordination Sequence:
#
# PCOD9423964 Si02
#       4
#     8   8   8   8
#     4  11  22  40  67  97 121 171 222 259 314 384
#     4  11  19  39  67  88 120 168 215 254 314 383
#     4  11  21  39  69  93 125 164 214 269 306 380
#     4  11  25  43  59  96 136 160 210 274 324 377
#
# _framework density 18.71162
#
# number of rings (size 3 to 8) (size 9 to 14) (size 15 to 20)
#    0.000    1.000    7.500    2.250    0.000    1.000 
#    9.000    0.000    0.000    0.000    0.000    0.000 
#    0.000    0.000    0.000    0.000    0.000    0.000 
#
# Total GULP energy -178245.133541 kJ/mol
# GULP energy per Si atom -5570.160423 kJ/mol
# Density = 1.866903 g / cm^3
# Si number density = 18.711620 Si / 1000 Ang^3
#
#
#
# Elastic Constant Matrix: (Units=GPa)
#
#
# Indices 1 2 3 4 5 6 
#
# 1 89.0868 16.7843 10.1480 0.0000 0.0000 0.0000
# 2 16.7843 100.6215 7.8752 0.0000 0.0000 0.0000
# 3 10.1480 7.8752 103.2386 0.0000 0.0000 0.0000
# 4 0.0000 0.0000 0.0000 11.5225 0.0000 0.0000
# 5 0.0000 0.0000 0.0000 0.0000 23.6812 0.0000
# 6 0.0000 0.0000 0.0000 0.0000 0.0000 21.0504
#
#
#
# Elastic Compliance Matrix: (Units=1/GPa)
#
#
# Indices 1 2 3 4 5 6 
#
# 1 0.011692 -0.001872 -0.001007 0.000000 0.000000 0.000000
# 2 -0.001872 0.010298 -0.000602 0.000000 0.000000 0.000000
# 3 -0.001007 -0.000602 0.009831 0.000000 0.000000 0.000000
# 4 0.000000 0.000000 0.000000 0.086786 0.000000 0.000000
# 5 0.000000 0.000000 0.000000 0.000000 0.042228 0.000000
# 6 0.000000 0.000000 0.000000 0.000000 0.000000 0.047505
#
#
# Mechanical properties :
#
#
# Convention : Reuss Voigt Hill
#
# Bulk Modulus (GPa) = 40.22267 40.28465 40.25366
# Shear Modulus (GPa) = 22.36271 28.46013 25.41142
#
# Velocity S-wave (km/s) = 3.46081 3.90421 3.68918
# Velocity P-wave (km/s) = 6.12473 6.47301 6.30128
#
# Compressibility (1/GPa) = 0.02486160
#
# Stress axis : x y z
#
# Youngs Moduli (GPa) = 85.52661 97.11093 101.71772
#
# Poissons Ratio (x) = 0.18175 0.10238
# Poissons Ratio (y) = 0.16007 0.06119
# Poissons Ratio (z) = 0.08609 0.05842
#
# Static dielectric constant tensor:
#      x y z
#    x 1.578610 0.000000 0.000000 
#    y 0.000000 1.637070 0.000000 
#    z 0.000000 0.000000 1.605340 
# 
# From -- ./inp_files/11215.got.cif
#   From: 2010.05.17/outbox.cif.g08.bks.cpg/sg54_6_cif.got.tgz:11215.got - 2010.06.03 13:09:01.
