data_PCOD9423996
_publ_section_title
;
Structure prediction by ZEFSAII (Michael W. Deem and Ramdas Pophale) SiO2 
 PCOD9423996
Probable space group: P C C A
;
_chemical_formula_sum "Si O2"
_cell_formula_units_Z 48
_cell_length_a 14.535174
_cell_length_b 8.649349
_cell_length_c 17.176652
_cell_angle_alpha 90.000000
_cell_angle_beta 90.000000
_cell_angle_gamma 90.000000
_cell_volume 2159.445129
_symmetry_space_group_name_H-M "P C C A"
_symmetry_group_IT_number 54
_symmetry_cell_setting 'orthorhombic'
loop_
_space_group_symop_operation_xyz
x,y,z
1/2-x,-y,z
1/2+x,-y,1/2-z
-x,y,1/2-z
-x,-y,-z
1/2+x,y,-z
1/2-x,y,1/2+z
x,-y,1/2+z
loop_
_atom_site_type_symbol
_atom_site_label
_atom_site_fract_x
_atom_site_fract_y
_atom_site_fract_z
Si Si1 0.317028 0.646377 0.154195
Si Si2 0.755531 0.815633 0.214035
Si Si3 0.683466 0.369742 0.575394
Si Si4 0.310427 0.863285 0.550126
Si Si5 0.567103 0.823333 0.815282
Si Si6 0.501473 0.516155 0.905267
O O1 0.250000 0.500000 0.168876
O O2 0.325133 0.749068 0.231499
O O3 0.263013 0.754194 0.093540
O O4 0.413656 0.587266 0.123199
O O5 0.746378 0.728238 0.133439
O O6 0.847553 0.771790 0.261107
O O7 0.750000 0.000000 0.206767
O O8 0.750000 0.500000 0.538802
O O9 0.644907 0.247372 0.513398
O O10 0.598620 0.452191 0.617403
O O11 0.383331 0.918879 0.615360
O O12 0.250000 0.000000 0.515213
O O13 0.500000 0.894525 0.750000
O O14 0.519895 0.681412 0.862679
O O15 0.500000 0.500000 0.000000
#
# Coordination Sequence:
#
# PCOD9423996 Si02
#       6
#     8   8   8   8   8   8
#     4  11  20  40  70  98 135 185 237 288 354 423
#     4  11  25  47  68 100 146 190 236 295 369 431
#     4  12  25  44  73 104 139 188 245 301 356 429
#     4  11  23  45  70  99 145 195 228 294 372 426
#     4  11  23  42  71 103 141 181 237 296 357 422
#     4  12  23  41  70 109 137 175 240 300 351 420
#
# _framework density 22.227933
#
# number of rings (size 3 to 8) (size 9 to 14) (size 15 to 20)
#    0.000    0.667    5.000    5.500    2.333    0.000 
#    6.000    0.833    0.000    0.000    0.000    0.000 
#    0.000    0.000    0.000    0.000    0.000    0.000 
#
# Total GULP energy -267966.926597 kJ/mol
# GULP energy per Si atom -5582.644304 kJ/mol
# Density = 2.217734 g / cm^3
# Si number density = 22.227933 Si / 1000 Ang^3
#
#
#
# Elastic Constant Matrix: (Units=GPa)
#
#
# Indices 1 2 3 4 5 6 
#
# 1 98.3061 21.8886 12.7143 0.0000 0.0000 0.0000
# 2 21.8886 98.0974 21.0445 0.0000 0.0000 0.0000
# 3 12.7143 21.0445 85.7976 0.0000 0.0000 0.0000
# 4 0.0000 0.0000 0.0000 31.4669 0.0000 0.0000
# 5 0.0000 0.0000 0.0000 0.0000 33.7525 0.0000
# 6 0.0000 0.0000 0.0000 0.0000 0.0000 28.8231
#
#
#
# Elastic Compliance Matrix: (Units=1/GPa)
#
#
# Indices 1 2 3 4 5 6 
#
# 1 0.010796 -0.002180 -0.001065 0.000000 0.000000 0.000000
# 2 -0.002180 0.011201 -0.002424 0.000000 0.000000 0.000000
# 3 -0.001065 -0.002424 0.012408 0.000000 0.000000 0.000000
# 4 0.000000 0.000000 0.000000 0.031779 0.000000 0.000000
# 5 0.000000 0.000000 0.000000 0.000000 0.029627 0.000000
# 6 0.000000 0.000000 0.000000 0.000000 0.000000 0.034694
#
#
# Mechanical properties :
#
#
# Convention : Reuss Voigt Hill
#
# Bulk Modulus (GPa) = 43.35616 43.72178 43.53897
# Shear Modulus (GPa) = 33.43760 33.91208 33.67484
#
# Velocity S-wave (km/s) = 3.88275 3.91020 3.89650
# Velocity P-wave (km/s) = 6.29671 6.33235 6.31455
#
# Compressibility (1/GPa) = 0.02306477
#
# Stress axis : x y z
#
# Youngs Moduli (GPa) = 92.63103 89.28170 80.59468
#
# Poissons Ratio (x) = 0.19467 0.08583
# Poissons Ratio (y) = 0.20197 0.19538
# Poissons Ratio (z) = 0.09865 0.21643
#
# Static dielectric constant tensor:
#      x y z
#    x 1.835540 0.000000 0.000000 
#    y 0.000000 1.807030 0.000000 
#    z 0.000000 0.000000 1.880480 
# 
# From -- ./inp_files/18045.got.cif
#   From: 2010.05.17/outbox.cif.g08.bks.cpg/sg54_10_cif.got.tgz:18045.got - 2010.06.03 13:09:01.
