data_PCOD9423409
_publ_section_title
;
Structure prediction by ZEFSAII (Michael W. Deem and Ramdas Pophale) SiO2 
 PCOD9423409
Probable space group: P C C A
;
_chemical_formula_sum "Si O2"
_cell_formula_units_Z 40
_cell_length_a 20.323291
_cell_length_b 8.862917
_cell_length_c 8.573600
_cell_angle_alpha 90.000000
_cell_angle_beta 90.000000
_cell_angle_gamma 90.000000
_cell_volume 1544.308051
_symmetry_space_group_name_H-M "P C C A"
_symmetry_group_IT_number 54
_symmetry_cell_setting 'orthorhombic'
loop_
_space_group_symop_operation_xyz
x,y,z
1/2-x,-y,z
1/2+x,-y,1/2-z
-x,y,1/2-z
-x,-y,-z
1/2+x,y,-z
1/2-x,y,1/2+z
x,-y,1/2+z
loop_
_atom_site_type_symbol
_atom_site_label
_atom_site_fract_x
_atom_site_fract_y
_atom_site_fract_z
Si Si1 0.000000 0.149701 0.750000
Si Si2 0.070320 0.609177 0.378228
Si Si3 0.369750 0.037415 0.840960
Si Si4 0.879455 0.642485 0.781009
Si Si5 0.830387 0.785173 0.346678
Si Si6 0.250000 0.500000 0.680920
O O1 0.991826 0.278493 0.612438
O O2 0.940966 0.039607 0.693374
O O3 0.107708 0.607731 0.539787
O O4 0.064832 0.437265 0.322776
O O5 0.113134 0.688418 0.240842
O O6 0.370249 0.181458 0.730653
O O7 0.316967 0.910699 0.787694
O O8 0.356167 0.113668 0.009003
O O9 0.811993 0.563662 0.725980
O O10 0.777095 0.658027 0.393273
#
# Coordination Sequence:
#
# PCOD9423409 Si02
#       6
#     4   8   8   8   8   4
#     4  10  24  44  66  90 138 180 216 290 358 398
#     4  10  23  41  64  98 132 175 229 275 340 423
#     4  11  23  42  69 103 135 174 234 287 340 419
#     4  11  23  41  67  99 133 175 234 283 339 425
#     4  10  23  43  68 100 135 177 230 278 341 420
#     4  10  24  46  70  94 140 184 218 288 358 404
#
# _framework density 25.901567
#
# number of rings (size 3 to 8) (size 9 to 14) (size 15 to 20)
#    0.000    1.600    0.000    4.800    0.000   16.800 
#    0.000    4.000    0.000    1.200    0.000    0.000 
#    0.000    0.000    0.000    0.000    0.000    0.000 
#
# Total GULP energy -222686.548377 kJ/mol
# GULP energy per Si atom -5567.163709 kJ/mol
# Density = 2.584261 g / cm^3
# Si number density = 25.901567 Si / 1000 Ang^3
#
#
#
# Elastic Constant Matrix: (Units=GPa)
#
#
# Indices 1 2 3 4 5 6 
#
# 1 60.9207 65.1261 28.8233 0.0000 0.0000 0.0000
# 2 65.1261 212.9263 46.1422 0.0000 0.0000 0.0000
# 3 28.8233 46.1422 141.6427 0.0000 0.0000 0.0000
# 4 0.0000 0.0000 0.0000 30.8591 0.0000 0.0000
# 5 0.0000 0.0000 0.0000 0.0000 2.4284 0.0000
# 6 0.0000 0.0000 0.0000 0.0000 0.0000 41.0680
#
#
#
# Elastic Compliance Matrix: (Units=1/GPa)
#
#
# Indices 1 2 3 4 5 6 
#
# 1 0.025408 -0.007156 -0.002839 0.000000 0.000000 0.000000
# 2 -0.007156 0.007069 -0.000847 0.000000 0.000000 0.000000
# 3 -0.002839 -0.000847 0.007914 0.000000 0.000000 0.000000
# 4 0.000000 0.000000 0.000000 0.032405 0.000000 0.000000
# 5 0.000000 0.000000 0.000000 0.000000 0.411801 0.000000
# 6 0.000000 0.000000 0.000000 0.000000 0.000000 0.024350
#
#
# Mechanical properties :
#
#
# Convention : Reuss Voigt Hill
#
# Bulk Modulus (GPa) = 53.45650 77.29698 65.37674
# Shear Modulus (GPa) = 9.31332 33.23096 21.27214
#
# Velocity S-wave (km/s) = 1.89828 3.58574 2.86889
# Velocity P-wave (km/s) = 5.04854 6.85936 6.02240
#
# Compressibility (1/GPa) = 0.01870680
#
# Stress axis : x y z
#
# Youngs Moduli (GPa) = 39.35731 141.46866 126.36589
#
# Poissons Ratio (x) = 1.01237 0.35877
# Poissons Ratio (y) = 0.28165 0.10697
# Poissons Ratio (z) = 0.11174 0.11975
#
# Static dielectric constant tensor:
#      x y z
#    x 2.133220 0.000000 0.000000 
#    y 0.000000 2.079680 0.000000 
#    z 0.000000 0.000000 2.090180 
# 
# From -- ./inp_files/5057.got.cif
#   From: 2010.05.17/outbox.cif.g08.bks.cpg/sg54_3_cif.got.tgz:5057.got - 2010.06.03 13:09:01.
