data_PCOD9423525
_publ_section_title
;
Structure prediction by ZEFSAII (Michael W. Deem and Ramdas Pophale) SiO2 
 PCOD9423525
Probable space group: P C C A
;
_chemical_formula_sum "Si O2"
_cell_formula_units_Z 56
_cell_length_a 14.751771
_cell_length_b 5.262178
_cell_length_c 32.519736
_cell_angle_alpha 90.000000
_cell_angle_beta 90.000000
_cell_angle_gamma 90.000000
_cell_volume 2524.391492
_symmetry_space_group_name_H-M "P C C A"
_symmetry_group_IT_number 54
_symmetry_cell_setting 'orthorhombic'
loop_
_space_group_symop_operation_xyz
x,y,z
1/2-x,-y,z
1/2+x,-y,1/2-z
-x,y,1/2-z
-x,-y,-z
1/2+x,y,-z
1/2-x,y,1/2+z
x,-y,1/2+z
loop_
_atom_site_type_symbol
_atom_site_label
_atom_site_fract_x
_atom_site_fract_y
_atom_site_fract_z
Si Si1 0.844776 0.637085 0.570955
Si Si2 0.665842 0.690823 0.277546
Si Si3 0.529782 0.368028 0.400872
Si Si4 0.441591 0.750540 0.509112
Si Si5 0.000000 0.632880 0.250000
Si Si6 0.750000 0.000000 0.632531
Si Si7 0.051427 0.142381 0.152123
Si Si8 0.881399 0.006279 0.197670
O O1 0.750000 0.500000 0.567138
O O2 0.866926 0.751284 0.526408
O O3 0.927130 0.454440 0.585724
O O4 0.820076 0.848638 0.604544
O O5 0.750000 0.500000 0.283239
O O6 0.575524 0.525029 0.273060
O O7 0.635676 0.868939 0.315716
O O8 0.668981 0.843047 0.234403
O O9 0.580513 0.282086 0.442897
O O10 0.567126 0.621345 0.378736
O O11 0.536771 0.124000 0.371468
O O12 0.500000 0.500000 0.500000
O O13 0.500000 0.000000 0.500000
O O14 0.054165 0.806232 0.281091
O O15 0.684212 0.864438 0.665490
O O16 0.953877 0.186799 0.174544
#
# Coordination Sequence:
#
# PCOD9423525 Si02
#       8
#     8   8   8   8   4   4   8   8
#     4  11  25  42  71 112 155 187 243 322 388 450
#     4  12  27  46  70 105 147 202 255 321 385 450
#     4  11  24  45  75 104 143 200 251 303 372 466
#     4  10  23  44  72 103 141 194 242 287 377 457
#     4  12  22  48  72 100 148 208 256 306 382 458
#     4  12  26  42  70 118 156 188 254 322 392 450
#     4  12  23  46  74 105 145 196 254 308 366 445
#     4  12  24  43  69 105 151 201 246 308 388 457
#
# _framework density 22.183562999999999
#
# number of rings (size 3 to 8) (size 9 to 14) (size 15 to 20)
#    0.000    0.571    4.286    4.286    4.000    1.714 
#    0.000    0.714    0.000    0.000    0.000    0.000 
#    0.000    0.000    0.000    0.000    0.000    0.000 
#
# Total GULP energy -312818.507123 kJ/mol
# GULP energy per Si atom -5586.044770 kJ/mol
# Density = 2.213307 g / cm^3
# Si number density = 22.183563 Si / 1000 Ang^3
#
#
#
# Elastic Constant Matrix: (Units=GPa)
#
#
# Indices 1 2 3 4 5 6 
#
# 1 59.2585 12.9683 34.1716 0.0000 0.0000 0.0000
# 2 12.9683 105.9622 47.4013 0.0000 0.0000 0.0000
# 3 34.1716 47.4013 160.8861 0.0000 0.0000 0.0000
# 4 0.0000 0.0000 0.0000 47.8776 0.0000 0.0000
# 5 0.0000 0.0000 0.0000 0.0000 59.9578 0.0000
# 6 0.0000 0.0000 0.0000 0.0000 0.0000 38.5015
#
#
#
# Elastic Compliance Matrix: (Units=1/GPa)
#
#
# Indices 1 2 3 4 5 6 
#
# 1 0.019264 -0.000607 -0.003913 0.000000 0.000000 0.000000
# 2 -0.000607 0.010889 -0.003079 0.000000 0.000000 0.000000
# 3 -0.003913 -0.003079 0.007954 0.000000 0.000000 0.000000
# 4 0.000000 0.000000 0.000000 0.020887 0.000000 0.000000
# 5 0.000000 0.000000 0.000000 0.000000 0.016678 0.000000
# 6 0.000000 0.000000 0.000000 0.000000 0.000000 0.025973
#
#
# Mechanical properties :
#
#
# Convention : Reuss Voigt Hill
#
# Bulk Modulus (GPa) = 43.65146 57.24325 50.44736
# Shear Modulus (GPa) = 40.16699 44.70508 42.43603
#
# Velocity S-wave (km/s) = 4.25981 4.49401 4.37847
# Velocity P-wave (km/s) = 6.62682 7.26557 6.95353
#
# Compressibility (1/GPa) = 0.02290874
#
# Stress axis : x y z
#
# Youngs Moduli (GPa) = 51.90916 91.83476 125.72524
#
# Poissons Ratio (x) = 0.05578 0.49193
# Poissons Ratio (y) = 0.03153 0.38714
# Poissons Ratio (z) = 0.20311 0.28278
#
# Static dielectric constant tensor:
#      x y z
#    x 1.802680 0.000000 0.000000 
#    y 0.000000 1.894260 0.000000 
#    z 0.000000 0.000000 1.886760 
# 
# From -- ./inp_files/28272.got.cif
#   From: 2010.05.17/outbox.cif.g08.bks.cpg/sg54_15_cif.got.tgz:28272.got - 2010.06.03 13:09:01.
