data_PCOD9423924
_publ_section_title
;
Structure prediction by ZEFSAII (Michael W. Deem and Ramdas Pophale) SiO2 
 PCOD9423924
Probable space group: P C C A
;
_chemical_formula_sum "Si O2"
_cell_formula_units_Z 28
_cell_length_a 16.529850
_cell_length_b 7.477389
_cell_length_c 9.440259
_cell_angle_alpha 90.000000
_cell_angle_beta 90.000000
_cell_angle_gamma 90.000000
_cell_volume 1166.817132
_symmetry_space_group_name_H-M "P C C A"
_symmetry_group_IT_number 54
_symmetry_cell_setting 'orthorhombic'
loop_
_space_group_symop_operation_xyz
x,y,z
1/2-x,-y,z
1/2+x,-y,1/2-z
-x,y,1/2-z
-x,-y,-z
1/2+x,y,-z
1/2-x,y,1/2+z
x,-y,1/2+z
loop_
_atom_site_type_symbol
_atom_site_label
_atom_site_fract_x
_atom_site_fract_y
_atom_site_fract_z
Si Si1 0.838560 0.086460 0.127476
Si Si2 0.500000 0.575381 0.250000
Si Si3 0.337436 0.509458 0.384536
Si Si4 0.104637 0.800690 0.565843
O O1 0.843169 0.285832 0.064481
O O2 0.857158 0.113574 0.293192
O O3 0.750000 0.000000 0.108562
O O4 0.899999 0.951023 0.052880
O O5 0.417753 0.474893 0.290518
O O6 0.523843 0.702441 0.381362
O O7 0.250000 0.500000 0.310229
O O8 0.159201 0.640053 0.504547
#
# Coordination Sequence:
#
# PCOD9423924 Si02
#       4
#     8   4   8   8
#     4  11  24  45  74 112 146 197 257 310 383 456
#     4  10  26  48  74 118 154 202 260 316 390 458
#     4  11  24  46  75 109 151 205 251 319 384 453
#     4  11  25  45  74 109 155 196 253 318 376 457
#
# _framework density 23.996901999999999
#
# number of rings (size 3 to 8) (size 9 to 14) (size 15 to 20)
#    0.000    1.143    2.857    1.714    0.000   13.714 
#    0.000    7.143    0.000    0.000    0.000    0.000 
#    0.000    0.000    0.000    0.000    0.000    0.000 
#
# Total GULP energy -156517.974809 kJ/mol
# GULP energy per Si atom -5589.927672 kJ/mol
# Density = 2.394228 g / cm^3
# Si number density = 23.996902 Si / 1000 Ang^3
#
#
#
# Elastic Constant Matrix: (Units=GPa)
#
#
# Indices 1 2 3 4 5 6 
#
# 1 165.0657 5.9820 41.8964 0.0000 0.0000 0.0000
# 2 5.9820 132.3376 66.3671 0.0000 0.0000 0.0000
# 3 41.8964 66.3671 114.9091 0.0000 0.0000 0.0000
# 4 0.0000 0.0000 0.0000 25.2480 0.0000 0.0000
# 5 0.0000 0.0000 0.0000 0.0000 36.5879 0.0000
# 6 0.0000 0.0000 0.0000 0.0000 0.0000 35.6802
#
#
#
# Elastic Compliance Matrix: (Units=1/GPa)
#
#
# Indices 1 2 3 4 5 6 
#
# 1 0.006837 0.001325 -0.003258 0.000000 0.000000 0.000000
# 2 0.001325 0.010894 -0.006775 0.000000 0.000000 0.000000
# 3 -0.003258 -0.006775 0.013803 0.000000 0.000000 0.000000
# 4 0.000000 0.000000 0.000000 0.039607 0.000000 0.000000
# 5 0.000000 0.000000 0.000000 0.000000 0.027331 0.000000
# 6 0.000000 0.000000 0.000000 0.000000 0.000000 0.028027
#
#
# Mechanical properties :
#
#
# Convention : Reuss Voigt Hill
#
# Bulk Modulus (GPa) = 70.83054 71.20038 71.01546
# Shear Modulus (GPa) = 33.64219 39.37435 36.50827
#
# Velocity S-wave (km/s) = 3.74831 4.05509 3.90471
# Velocity P-wave (km/s) = 6.95081 7.18749 7.07014
#
# Compressibility (1/GPa) = 0.01411820
#
# Stress axis : x y z
#
# Youngs Moduli (GPa) = 146.26036 91.79135 72.44543
#
# Poissons Ratio (x) = -0.12161 0.23603
# Poissons Ratio (y) = -0.19377 0.49083
# Poissons Ratio (z) = 0.47652 0.62190
#
# Static dielectric constant tensor:
#      x y z
#    x 1.989850 0.000000 0.000000 
#    y 0.000000 1.898130 0.000000 
#    z 0.000000 0.000000 1.926420 
# 
# From -- ./inp_files/7841.got.cif
#   From: 2010.05.17/outbox.cif.g08.bks.cpg/sg54_4_cif.got.tgz:7841.got - 2010.06.03 13:09:01.
