data_PCOD9423413
_publ_section_title
;
Structure prediction by ZEFSAII (Michael W. Deem and Ramdas Pophale) SiO2 
 PCOD9423413
Probable space group: P C C A
;
_chemical_formula_sum "Si O2"
_cell_formula_units_Z 32
_cell_length_a 5.195309
_cell_length_b 18.345200
_cell_length_c 13.357572
_cell_angle_alpha 90.000000
_cell_angle_beta 90.000000
_cell_angle_gamma 90.000000
_cell_volume 1273.096598
_symmetry_space_group_name_H-M "P C C A"
_symmetry_group_IT_number 54
_symmetry_cell_setting 'orthorhombic'
loop_
_space_group_symop_operation_xyz
x,y,z
1/2-x,-y,z
1/2+x,-y,1/2-z
-x,y,1/2-z
-x,-y,-z
1/2+x,y,-z
1/2-x,y,1/2+z
x,-y,1/2+z
loop_
_atom_site_type_symbol
_atom_site_label
_atom_site_fract_x
_atom_site_fract_y
_atom_site_fract_z
Si Si1 0.500000 0.304560 0.250000
Si Si2 0.165842 0.110253 0.045068
Si Si3 0.350016 0.272695 0.463380
Si Si4 0.250000 0.500000 0.424394
Si Si5 0.000000 0.602318 0.750000
Si Si6 0.000000 0.950610 0.750000
O O1 0.402101 0.261185 0.346818
O O2 0.751753 0.349883 0.284434
O O3 0.060302 0.098208 0.154412
O O4 0.449544 0.079019 0.029650
O O5 0.188536 0.195650 0.019465
O O6 0.585991 0.312937 0.514584
O O7 0.500000 0.500000 0.500000
O O8 0.364834 0.557558 0.340502
O O9 0.750000 0.000000 0.732421
#
# Coordination Sequence:
#
# PCOD9423413 Si02
#       6
#     4   8   8   4   4   4
#     4  12  25  42  69 104 144 176 230 302 350 414
#     4  10  23  42  66  93 130 174 223 280 351 427
#     4  10  23  41  65  97 134 180 226 275 350 427
#     4  12  26  48  76 102 146 200 240 290 366 426
#     4  12  27  46  71 110 144 184 246 298 346 430
#     4  12  26  42  66  98 130 174 232 294 348 406
#
# _framework density 25.135562
#
# number of rings (size 3 to 8) (size 9 to 14) (size 15 to 20)
#    0.000    1.000    0.000    6.000    0.000   17.000 
#    0.000    0.000    0.000    0.000    0.000    0.000 
#    0.000    0.000    0.000    0.000    0.000    0.000 
#
# Total GULP energy -178701.872560 kJ/mol
# GULP energy per Si atom -5584.433517 kJ/mol
# Density = 2.507835 g / cm^3
# Si number density = 25.135562 Si / 1000 Ang^3
#
#
#
# Elastic Constant Matrix: (Units=GPa)
#
#
# Indices 1 2 3 4 5 6 
#
# 1 207.8842 27.6755 14.4490 0.0000 0.0000 0.0000
# 2 27.6755 85.2618 50.2365 0.0000 0.0000 0.0000
# 3 14.4490 50.2365 147.8085 0.0000 0.0000 0.0000
# 4 0.0000 0.0000 0.0000 33.5453 0.0000 0.0000
# 5 0.0000 0.0000 0.0000 0.0000 58.5621 0.0000
# 6 0.0000 0.0000 0.0000 0.0000 0.0000 21.0981
#
#
#
# Elastic Compliance Matrix: (Units=1/GPa)
#
#
# Indices 1 2 3 4 5 6 
#
# 1 0.005028 -0.001679 0.000079 0.000000 0.000000 0.000000
# 2 -0.001679 0.015226 -0.005011 0.000000 0.000000 0.000000
# 3 0.000079 -0.005011 0.008461 0.000000 0.000000 0.000000
# 4 0.000000 0.000000 0.000000 0.029810 0.000000 0.000000
# 5 0.000000 0.000000 0.000000 0.000000 0.017076 0.000000
# 6 0.000000 0.000000 0.000000 0.000000 0.000000 0.047398
#
#
# Mechanical properties :
#
#
# Convention : Reuss Voigt Hill
#
# Bulk Modulus (GPa) = 64.54099 69.51962 67.03031
# Shear Modulus (GPa) = 35.36450 45.88067 40.62258
#
# Velocity S-wave (km/s) = 3.75500 4.27702 4.02449
# Velocity P-wave (km/s) = 6.67330 7.21862 6.95131
#
# Compressibility (1/GPa) = 0.01549403
#
# Stress axis : x y z
#
# Youngs Moduli (GPa) = 198.87168 65.67774 118.19160
#
# Poissons Ratio (x) = 0.11026 -0.00934
# Poissons Ratio (y) = 0.33385 0.59223
# Poissons Ratio (z) = -0.01571 0.32910
#
# Static dielectric constant tensor:
#      x y z
#    x 2.140830 0.000000 0.000000 
#    y 0.000000 2.240280 0.000000 
#    z 0.000000 0.000000 1.969890 
# 
# From -- ./inp_files/6300.got.cif
#   From: 2010.05.17/outbox.cif.g08.bks.cpg/sg54_4_cif.got.tgz:6300.got - 2010.06.03 13:09:01.
