data_PCOD9423807
_publ_section_title
;
Structure prediction by ZEFSAII (Michael W. Deem and Ramdas Pophale) SiO2 
 PCOD9423807
Probable space group: P C C A
;
_chemical_formula_sum "Si O2"
_cell_formula_units_Z 28
_cell_length_a 5.838329
_cell_length_b 7.297481
_cell_length_c 27.931078
_cell_angle_alpha 90.000000
_cell_angle_beta 90.000000
_cell_angle_gamma 90.000000
_cell_volume 1190.006230
_symmetry_space_group_name_H-M "P C C A"
_symmetry_group_IT_number 54
_symmetry_cell_setting 'orthorhombic'
loop_
_space_group_symop_operation_xyz
x,y,z
1/2-x,-y,z
1/2+x,-y,1/2-z
-x,y,1/2-z
-x,-y,-z
1/2+x,y,-z
1/2-x,y,1/2+z
x,-y,1/2+z
loop_
_atom_site_type_symbol
_atom_site_label
_atom_site_fract_x
_atom_site_fract_y
_atom_site_fract_z
Si Si1 0.464309 0.212968 0.982930
Si Si2 0.250000 0.500000 0.301840
Si Si3 0.750000 0.000000 0.830753
Si Si4 0.924471 0.347537 0.383754
Si Si5 0.500000 0.188098 0.250000
O O1 0.427873 0.263502 0.927019
O O2 0.724594 0.281907 0.994153
O O3 0.500000 0.000000 0.000000
O O4 0.447243 0.559879 0.338819
O O5 0.305879 0.329026 0.267673
O O6 0.705420 0.173524 0.862993
O O7 0.948873 0.059484 0.794682
O O8 0.750000 0.500000 0.401898
#
# Coordination Sequence:
#
# PCOD9423807 Si02
#       5
#     8   4   4   8   4
#     4  10  24  46  75 109 148 197 253 315 383 465
#     4  12  26  48  72 112 150 196 252 322 384 456
#     4  12  24  46  72 108 140 204 248 304 384 458
#     4  12  27  48  75 108 152 193 254 318 382 459
#     4  12  24  44  74 104 150 192 254 310 378 460
#
# _framework density 23.529288999999999
#
# number of rings (size 3 to 8) (size 9 to 14) (size 15 to 20)
#    0.000    0.571    2.857    5.143    4.000    5.714 
#    0.000    0.000    0.000    0.000    0.000    0.000 
#    0.000    0.000    0.000    0.000    0.000    0.000 
#
# Total GULP energy -156316.492177 kJ/mol
# GULP energy per Si atom -5582.731863 kJ/mol
# Density = 2.347574 g / cm^3
# Si number density = 23.529289 Si / 1000 Ang^3
#
#
#
# Elastic Constant Matrix: (Units=GPa)
#
#
# Indices 1 2 3 4 5 6 
#
# 1 94.4077 14.2600 11.7717 0.0000 0.0000 0.0000
# 2 14.2600 144.7073 30.3316 0.0000 0.0000 0.0000
# 3 11.7717 30.3316 100.2506 0.0000 0.0000 0.0000
# 4 0.0000 0.0000 0.0000 46.0665 0.0000 0.0000
# 5 0.0000 0.0000 0.0000 0.0000 -13.5990 0.0000
# 6 0.0000 0.0000 0.0000 0.0000 0.0000 28.5463
#
#
#
# Elastic Compliance Matrix: (Units=1/GPa)
#
#
# Indices 1 2 3 4 5 6 
#
# 1 0.010848 -0.000856 -0.001015 0.000000 0.000000 0.000000
# 2 -0.000856 0.007446 -0.002152 0.000000 0.000000 0.000000
# 3 -0.001015 -0.002152 0.010745 0.000000 0.000000 0.000000
# 4 0.000000 0.000000 0.000000 0.021708 0.000000 0.000000
# 5 0.000000 0.000000 0.000000 0.000000 -0.073535 0.000000
# 6 0.000000 0.000000 0.000000 0.000000 0.000000 0.035031
#
#
# Mechanical properties :
#
#
# Convention : Reuss Voigt Hill
#
# Bulk Modulus (GPa) = 47.63522 50.23246 48.93384
# Shear Modulus (GPa) = 183.23129 31.06958 107.15043
#
# Velocity S-wave (km/s) = 8.83418 3.63776 6.75559
# Velocity P-wave (km/s) = 11.15106 6.24817 9.03841
#
# Compressibility (1/GPa) = 0.02099287
#
# Stress axis : x y z
#
# Youngs Moduli (GPa) = 92.18097 134.29990 93.06347
#
# Poissons Ratio (x) = 0.11501 0.09444
# Poissons Ratio (y) = 0.07894 0.20030
# Poissons Ratio (z) = 0.09354 0.28905
#
# Static dielectric constant tensor:
#      x y z
#    x 1.943770 0.000000 0.000000 
#    y 0.000000 1.817120 0.000000 
#    z 0.000000 0.000000 2.043060 
# 
# From -- ./inp_files/25063.got.cif
#   From: 2010.05.17/outbox.cif.g08.bks.cpg/sg54_13_cif.got.tgz:25063.got - 2010.06.03 13:09:01.
