data_PCOD9423464
_publ_section_title
;
Structure prediction by ZEFSAII (Michael W. Deem and Ramdas Pophale) SiO2 
 PCOD9423464
Probable space group: P C C A
;
_chemical_formula_sum "Si O2"
_cell_formula_units_Z 60
_cell_length_a 30.316942
_cell_length_b 7.751372
_cell_length_c 11.476885
_cell_angle_alpha 90.000000
_cell_angle_beta 90.000000
_cell_angle_gamma 90.000000
_cell_volume 2697.043820
_symmetry_space_group_name_H-M "P C C A"
_symmetry_group_IT_number 54
_symmetry_cell_setting 'orthorhombic'
loop_
_space_group_symop_operation_xyz
x,y,z
1/2-x,-y,z
1/2+x,-y,1/2-z
-x,y,1/2-z
-x,-y,-z
1/2+x,y,-z
1/2-x,y,1/2+z
x,-y,1/2+z
loop_
_atom_site_type_symbol
_atom_site_label
_atom_site_fract_x
_atom_site_fract_y
_atom_site_fract_z
Si Si1 0.392706 0.731884 0.635684
Si Si2 0.213144 0.852037 0.731446
Si Si3 0.113397 0.086993 0.199515
Si Si4 0.984897 0.072738 0.373818
Si Si5 0.750000 0.500000 0.372591
Si Si6 0.537753 0.620440 0.043876
Si Si7 0.183740 0.300916 0.460940
Si Si8 0.384383 0.444264 0.813517
O O1 0.437715 0.713695 0.564031
O O2 0.355293 0.773693 0.541017
O O3 0.382925 0.551141 0.696496
O O4 0.390851 0.884759 0.729857
O O5 0.165663 0.887599 0.668792
O O6 0.228407 0.657872 0.698962
O O7 0.203426 0.837191 0.870578
O O8 0.250000 0.000000 0.707598
O O9 0.068246 0.105185 0.123400
O O10 0.108454 0.240393 0.291483
O O11 0.000000 0.983396 0.250000
O O12 0.014015 0.246244 0.371531
O O13 0.000000 0.000000 0.500000
O O14 0.782851 0.605063 0.455072
O O15 0.574523 0.505787 0.107981
O O16 0.500000 0.500000 0.000000
O O17 0.160520 0.450942 0.384223
#
# Coordination Sequence:
#
# PCOD9423464 Si02
#       8
#     8   8   8   8   4   8   8   8
#     4  11  23  43  67  99 132 184 245 295 365 454
#     4  11  26  46  72 105 145 190 242 306 381 464
#     4  11  23  43  72  98 139 194 237 303 375 443
#     4  12  25  46  71 104 149 197 253 318 376 455
#     4  12  24  46  70 104 144 186 240 306 378 456
#     4  11  24  41  66  97 142 188 245 307 373 450
#     4  10  23  42  69  99 137 180 235 301 370 443
#     4  10  23  46  66  98 144 187 240 308 369 443
#
# _framework density 22.246580000000002
#
# number of rings (size 3 to 8) (size 9 to 14) (size 15 to 20)
#    0.000    1.067    2.667    3.600    0.000    4.800 
#    0.000   12.000    0.000    0.000    0.000    0.000 
#    0.000    0.000    0.000    0.000    0.000    0.000 
#
# Total GULP energy -334305.553601 kJ/mol
# GULP energy per Si atom -5571.759227 kJ/mol
# Density = 2.219595 g / cm^3
# Si number density = 22.246580 Si / 1000 Ang^3
#
#
#
# Elastic Constant Matrix: (Units=GPa)
#
#
# Indices 1 2 3 4 5 6 
#
# 1 164.9528 34.7051 36.0949 0.0000 0.0000 0.0000
# 2 34.7051 69.5291 30.6831 0.0000 0.0000 0.0000
# 3 36.0949 30.6831 98.2829 0.0000 0.0000 0.0000
# 4 0.0000 0.0000 0.0000 24.5808 0.0000 0.0000
# 5 0.0000 0.0000 0.0000 0.0000 37.4790 0.0000
# 6 0.0000 0.0000 0.0000 0.0000 0.0000 22.5383
#
#
#
# Elastic Compliance Matrix: (Units=1/GPa)
#
#
# Indices 1 2 3 4 5 6 
#
# 1 0.007016 -0.002743 -0.001720 0.000000 0.000000 0.000000
# 2 -0.002743 0.017753 -0.004535 0.000000 0.000000 0.000000
# 3 -0.001720 -0.004535 0.012222 0.000000 0.000000 0.000000
# 4 0.000000 0.000000 0.000000 0.040682 0.000000 0.000000
# 5 0.000000 0.000000 0.000000 0.000000 0.026682 0.000000
# 6 0.000000 0.000000 0.000000 0.000000 0.000000 0.044369
#
#
# Mechanical properties :
#
#
# Convention : Reuss Voigt Hill
#
# Bulk Modulus (GPa) = 52.64604 59.52567 56.08585
# Shear Modulus (GPa) = 28.89317 32.33840 30.61578
#
# Velocity S-wave (km/s) = 3.60775 3.81679 3.71374
# Velocity P-wave (km/s) = 6.40864 6.79994 6.60719
#
# Compressibility (1/GPa) = 0.01899478
#
# Stress axis : x y z
#
# Youngs Moduli (GPa) = 142.53457 56.32923 81.81761
#
# Poissons Ratio (x) = 0.15450 0.14075
# Poissons Ratio (y) = 0.39093 0.37104
# Poissons Ratio (z) = 0.24521 0.25545
#
# Static dielectric constant tensor:
#      x y z
#    x 2.640730 0.000000 0.000000 
#    y 0.000000 1.800120 0.000000 
#    z 0.000000 0.000000 1.939430 
# 
# From -- ./inp_files/10519.got.cif
#   From: 2010.05.17/outbox.cif.g08.bks.cpg/sg54_6_cif.got.tgz:10519.got - 2010.06.03 13:09:01.
