data_PCOD9423670
_publ_section_title
;
Structure prediction by ZEFSAII (Michael W. Deem and Ramdas Pophale) SiO2 
 PCOD9423670
Probable space group: P C C A
;
_chemical_formula_sum "Si O2"
_cell_formula_units_Z 40
_cell_length_a 8.029985
_cell_length_b 19.713955
_cell_length_c 11.220402
_cell_angle_alpha 90.000000
_cell_angle_beta 90.000000
_cell_angle_gamma 90.000000
_cell_volume 1776.220638
_symmetry_space_group_name_H-M "P C C A"
_symmetry_group_IT_number 54
_symmetry_cell_setting 'orthorhombic'
loop_
_space_group_symop_operation_xyz
x,y,z
1/2-x,-y,z
1/2+x,-y,1/2-z
-x,y,1/2-z
-x,-y,-z
1/2+x,y,-z
1/2-x,y,1/2+z
x,-y,1/2+z
loop_
_atom_site_type_symbol
_atom_site_label
_atom_site_fract_x
_atom_site_fract_y
_atom_site_fract_z
Si Si1 0.669490 0.425956 0.099626
Si Si2 0.390008 0.217914 0.137241
Si Si3 0.697893 0.624554 0.853891
Si Si4 0.619377 0.938155 0.135430
Si Si5 0.867990 0.858327 0.997885
O O1 0.750000 0.500000 0.092139
O O2 0.472404 0.418417 0.124633
O O3 0.753031 0.392805 0.218551
O O4 0.693890 0.392114 0.970056
O O5 0.500000 0.200207 0.250000
O O6 0.337789 0.295395 0.144728
O O7 0.241992 0.165195 0.113586
O O8 0.515715 0.204914 0.028223
O O9 0.500000 0.939700 0.250000
O O10 0.483153 0.923359 0.030774
O O11 0.750000 0.000000 0.137157
O O12 0.744907 0.876105 0.106124
#
# Coordination Sequence:
#
# PCOD9423670 Si02
#       5
#     8   8   8   8   8
#     4  11  23  42  65  95 136 175 231 282 346 412
#     4  11  21  41  66  92 134 168 227 281 336 408
#     4  11  24  42  65  99 130 182 228 284 349 400
#     4  11  24  43  67 100 133 172 221 269 335 405
#     4  10  24  42  67  97 129 176 218 277 339 396
#
# _framework density 22.519725999999999
#
# number of rings (size 3 to 8) (size 9 to 14) (size 15 to 20)
#    0.000    1.200    2.000    4.200    0.000    7.200 
#    0.000    0.000    0.000    0.000    0.000    0.000 
#    0.000    0.000    0.000    0.000    0.000    0.000 
#
# Total GULP energy -222940.766819 kJ/mol
# GULP energy per Si atom -5573.519170 kJ/mol
# Density = 2.246847 g / cm^3
# Si number density = 22.519726 Si / 1000 Ang^3
#
#
#
# Elastic Constant Matrix: (Units=GPa)
#
#
# Indices 1 2 3 4 5 6 
#
# 1 70.2444 35.0983 20.9697 0.0000 0.0000 0.0000
# 2 35.0983 104.8532 20.6373 0.0000 0.0000 0.0000
# 3 20.9697 20.6373 121.2016 0.0000 0.0000 0.0000
# 4 0.0000 0.0000 0.0000 13.9381 0.0000 0.0000
# 5 0.0000 0.0000 0.0000 0.0000 34.2608 0.0000
# 6 0.0000 0.0000 0.0000 0.0000 0.0000 16.3694
#
#
#
# Elastic Compliance Matrix: (Units=1/GPa)
#
#
# Indices 1 2 3 4 5 6 
#
# 1 0.017603 -0.005477 -0.002113 0.000000 0.000000 0.000000
# 2 -0.005477 0.011572 -0.001023 0.000000 0.000000 0.000000
# 3 -0.002113 -0.001023 0.008790 0.000000 0.000000 0.000000
# 4 0.000000 0.000000 0.000000 0.071746 0.000000 0.000000
# 5 0.000000 0.000000 0.000000 0.000000 0.029188 0.000000
# 6 0.000000 0.000000 0.000000 0.000000 0.000000 0.061090
#
#
# Mechanical properties :
#
#
# Convention : Reuss Voigt Hill
#
# Bulk Modulus (GPa) = 48.21507 49.96776 49.09141
# Shear Modulus (GPa) = 22.30880 27.55327 24.93104
#
# Velocity S-wave (km/s) = 3.15085 3.50168 3.33088
# Velocity P-wave (km/s) = 5.89014 6.21173 6.05307
#
# Compressibility (1/GPa) = 0.02074040
#
# Stress axis : x y z
#
# Youngs Moduli (GPa) = 56.80775 86.41802 113.75957
#
# Poissons Ratio (x) = 0.47327 0.24039
# Poissons Ratio (y) = 0.31111 0.11635
# Poissons Ratio (z) = 0.12004 0.08839
#
# Static dielectric constant tensor:
#      x y z
#    x 1.878300 0.000000 0.000000 
#    y 0.000000 1.792430 0.000000 
#    z 0.000000 0.000000 1.880250 
# 
# From -- ./inp_files/6876.got.cif
#   From: 2010.05.17/outbox.cif.g08.bks.cpg/sg54_4_cif.got.tgz:6876.got - 2010.06.03 13:09:01.
