data_PCOD9423321
_publ_section_title
;
Structure prediction by ZEFSAII (Michael W. Deem and Ramdas Pophale) SiO2 
 PCOD9423321
Probable space group: P C C A
;
_chemical_formula_sum "Si O2"
_cell_formula_units_Z 32
_cell_length_a 17.012945
_cell_length_b 5.276745
_cell_length_c 14.199547
_cell_angle_alpha 90.000000
_cell_angle_beta 90.000000
_cell_angle_gamma 90.000000
_cell_volume 1274.735542
_symmetry_space_group_name_H-M "P C C A"
_symmetry_group_IT_number 54
_symmetry_cell_setting 'orthorhombic'
loop_
_space_group_symop_operation_xyz
x,y,z
1/2-x,-y,z
1/2+x,-y,1/2-z
-x,y,1/2-z
-x,-y,-z
1/2+x,y,-z
1/2-x,y,1/2+z
x,-y,1/2+z
loop_
_atom_site_type_symbol
_atom_site_label
_atom_site_fract_x
_atom_site_fract_y
_atom_site_fract_z
Si Si1 0.865855 0.389158 0.438473
Si Si2 0.493537 0.888776 0.395421
Si Si3 0.353574 0.884075 0.662314
Si Si4 0.167015 0.886155 0.372977
O O1 0.837320 0.664502 0.412297
O O2 0.856695 0.316812 0.547615
O O3 0.827297 0.158798 0.377666
O O4 0.957533 0.370733 0.404324
O O5 0.552094 0.063763 0.334754
O O6 0.403134 0.905348 0.369418
O O7 0.500000 0.000000 0.500000
O O8 0.325802 0.800249 0.764889
O O9 0.250000 0.000000 0.401488
#
# Coordination Sequence:
#
# PCOD9423321 Si02
#       4
#     8   8   8   8
#     4   9  23  45  74  95 140 187 242 284 348 418
#     4   8  19  43  70  99 136 186 236 289 346 417
#     4  10  22  46  72 102 135 188 237 291 344 422
#     4  11  23  44  72 110 145 185 235 296 365 426
#
# _framework density 25.103247
#
# number of rings (size 3 to 8) (size 9 to 14) (size 15 to 20)
#    1.500    1.000    0.000    0.750    0.000    7.000 
#    9.000    7.500    0.000    0.000    0.000    0.000 
#    0.000    0.000    0.000    0.000    0.000    0.000 
#
# Total GULP energy -178637.534677 kJ/mol
# GULP energy per Si atom -5582.422959 kJ/mol
# Density = 2.504611 g / cm^3
# Si number density = 25.103247 Si / 1000 Ang^3
#
#
#
# Elastic Constant Matrix: (Units=GPa)
#
#
# Indices 1 2 3 4 5 6 
#
# 1 144.8046 52.5345 15.9774 0.0000 0.0000 0.0000
# 2 52.5345 101.9817 29.5465 0.0000 0.0000 0.0000
# 3 15.9774 29.5465 149.0579 0.0000 0.0000 0.0000
# 4 0.0000 0.0000 0.0000 20.4237 0.0000 0.0000
# 5 0.0000 0.0000 0.0000 0.0000 31.9427 0.0000
# 6 0.0000 0.0000 0.0000 0.0000 0.0000 21.1593
#
#
#
# Elastic Compliance Matrix: (Units=1/GPa)
#
#
# Indices 1 2 3 4 5 6 
#
# 1 0.008493 -0.004362 -0.000046 0.000000 0.000000 0.000000
# 2 -0.004362 0.012643 -0.002039 0.000000 0.000000 0.000000
# 3 -0.000046 -0.002039 0.007118 0.000000 0.000000 0.000000
# 4 0.000000 0.000000 0.000000 0.048963 0.000000 0.000000
# 5 0.000000 0.000000 0.000000 0.000000 0.031306 0.000000
# 6 0.000000 0.000000 0.000000 0.000000 0.000000 0.047260
#
#
# Mechanical properties :
#
#
# Convention : Reuss Voigt Hill
#
# Bulk Modulus (GPa) = 65.09659 65.77344 65.43502
# Shear Modulus (GPa) = 28.76917 34.55754 31.66335
#
# Velocity S-wave (km/s) = 3.38898 3.71430 3.55537
# Velocity P-wave (km/s) = 6.42662 6.68227 6.55569
#
# Compressibility (1/GPa) = 0.01536179
#
# Stress axis : x y z
#
# Youngs Moduli (GPa) = 117.73807 79.09294 140.49271
#
# Poissons Ratio (x) = 0.34500 0.00643
# Poissons Ratio (y) = 0.51358 0.28641
# Poissons Ratio (z) = 0.00539 0.16124
#
# Static dielectric constant tensor:
#      x y z
#    x 2.192820 0.000000 0.000000 
#    y 0.000000 1.977260 0.000000 
#    z 0.000000 0.000000 1.991900 
# 
# From -- ./inp_files/13795.got.cif
#   From: 2010.05.17/outbox.cif.g08.bks.cpg/sg54_7_cif.got.tgz:13795.got - 2010.06.03 13:09:01.
