data_PCOD9423839
_publ_section_title
;
Structure prediction by ZEFSAII (Michael W. Deem and Ramdas Pophale) SiO2 
 PCOD9423839
Probable space group: P C C A
;
_chemical_formula_sum "Si O2"
_cell_formula_units_Z 24
_cell_length_a 20.185666
_cell_length_b 4.950471
_cell_length_c 10.231471
_cell_angle_alpha 90.000000
_cell_angle_beta 90.000000
_cell_angle_gamma 90.000000
_cell_volume 1022.416104
_symmetry_space_group_name_H-M "P C C A"
_symmetry_group_IT_number 54
_symmetry_cell_setting 'orthorhombic'
loop_
_space_group_symop_operation_xyz
x,y,z
1/2-x,-y,z
1/2+x,-y,1/2-z
-x,y,1/2-z
-x,-y,-z
1/2+x,y,-z
1/2-x,y,1/2+z
x,-y,1/2+z
loop_
_atom_site_type_symbol
_atom_site_label
_atom_site_fract_x
_atom_site_fract_y
_atom_site_fract_z
Si Si1 0.827047 0.040631 0.818702
Si Si2 0.896414 0.443653 0.221295
Si Si3 0.060414 0.792318 0.523664
O O1 0.856603 0.836606 0.708475
O O2 0.750000 0.000000 0.840225
O O3 0.844239 0.342639 0.779290
O O4 0.872934 0.957627 0.940990
O O5 0.926100 0.587580 0.094574
O O6 0.946206 0.376017 0.341097
O O7 0.000000 0.000000 0.500000
#
# Coordination Sequence:
#
# PCOD9423839 Si02
#       3
#     8   8   8
#     4  10  24  48  78 114 155 210 266 330 404 480
#     4  10  25  48  77 115 155 211 265 334 395 479
#     4  10  26  51  80 113 164 210 266 332 406 476
#
# _framework density 23.473806
#
# number of rings (size 3 to 8) (size 9 to 14) (size 15 to 20)
#    2.000    0.000    0.000    1.000    4.667    4.000 
#   12.000    1.667    0.000    0.000    0.000    0.000 
#    0.000    0.000    0.000    0.000    0.000    0.000 
#
# Total GULP energy -133972.916604 kJ/mol
# GULP energy per Si atom -5582.204859 kJ/mol
# Density = 2.342038 g / cm^3
# Si number density = 23.473806 Si / 1000 Ang^3
#
#
#
# Elastic Constant Matrix: (Units=GPa)
#
#
# Indices 1 2 3 4 5 6 
#
# 1 159.9896 19.1838 80.6654 0.0000 0.0000 0.0000
# 2 19.1838 93.9024 46.4241 0.0000 0.0000 0.0000
# 3 80.6654 46.4241 172.8246 0.0000 0.0000 0.0000
# 4 0.0000 0.0000 0.0000 60.5640 0.0000 0.0000
# 5 0.0000 0.0000 0.0000 0.0000 16.4954 0.0000
# 6 0.0000 0.0000 0.0000 0.0000 0.0000 45.7980
#
#
#
# Elastic Compliance Matrix: (Units=1/GPa)
#
#
# Indices 1 2 3 4 5 6 
#
# 1 0.008179 0.000250 -0.003885 0.000000 0.000000 0.000000
# 2 0.000250 0.012288 -0.003417 0.000000 0.000000 0.000000
# 3 -0.003885 -0.003417 0.008517 0.000000 0.000000 0.000000
# 4 0.000000 0.000000 0.000000 0.016511 0.000000 0.000000
# 5 0.000000 0.000000 0.000000 0.000000 0.060623 0.000000
# 6 0.000000 0.000000 0.000000 0.000000 0.000000 0.021835
#
#
# Mechanical properties :
#
#
# Convention : Reuss Voigt Hill
#
# Bulk Modulus (GPa) = 67.20608 79.91813 73.56210
# Shear Modulus (GPa) = 34.00943 43.26768 38.63855
#
# Velocity S-wave (km/s) = 3.81047 4.29795 4.06153
# Velocity P-wave (km/s) = 6.93195 7.66481 7.30758
#
# Compressibility (1/GPa) = 0.01487961
#
# Stress axis : x y z
#
# Youngs Moduli (GPa) = 122.26340 81.38148 117.40852
#
# Poissons Ratio (x) = -0.02031 0.45608
# Poissons Ratio (y) = -0.03051 0.40121
# Poissons Ratio (z) = 0.47494 0.27810
#
# Static dielectric constant tensor:
#      x y z
#    x 1.244050 0.000000 0.000000 
#    y 0.000000 1.962090 0.000000 
#    z 0.000000 0.000000 1.927780 
# 
# From -- ./inp_files/8570.got.cif
#   From: 2010.05.17/outbox.cif.g08.bks.cpg/sg54_5_cif.got.tgz:8570.got - 2010.06.03 13:09:01.
