data_PCOD9423427
_publ_section_title
;
Structure prediction by ZEFSAII (Michael W. Deem and Ramdas Pophale) SiO2 
 PCOD9423427
Probable space group: P C C A
;
_chemical_formula_sum "Si O2"
_cell_formula_units_Z 32
_cell_length_a 4.958153
_cell_length_b 9.789582
_cell_length_c 30.102043
_cell_angle_alpha 90.000000
_cell_angle_beta 90.000000
_cell_angle_gamma 90.000000
_cell_volume 1461.100349
_symmetry_space_group_name_H-M "P C C A"
_symmetry_group_IT_number 54
_symmetry_cell_setting 'orthorhombic'
loop_
_space_group_symop_operation_xyz
x,y,z
1/2-x,-y,z
1/2+x,-y,1/2-z
-x,y,1/2-z
-x,-y,-z
1/2+x,y,-z
1/2-x,y,1/2+z
x,-y,1/2+z
loop_
_atom_site_type_symbol
_atom_site_label
_atom_site_fract_x
_atom_site_fract_y
_atom_site_fract_z
Si Si1 0.669266 0.706497 0.526679
Si Si2 0.986077 0.588219 0.612016
Si Si3 0.250000 0.000000 0.281811
Si Si4 0.549126 0.120430 0.855592
Si Si5 0.750000 0.000000 0.561251
O O1 0.368215 0.667151 0.513539
O O2 0.809752 0.644665 0.570139
O O3 0.656334 0.870680 0.533110
O O4 0.750000 0.500000 0.636444
O O5 0.250000 0.500000 0.601170
O O6 0.109138 0.721798 0.636355
O O7 0.323356 0.881518 0.317111
O O8 0.500000 0.030505 0.250000
O O9 0.461328 0.063408 0.903828
O O10 0.750000 0.000000 0.840460
#
# Coordination Sequence:
#
# PCOD9423427 Si02
#       5
#     8   8   4   8   4
#     4  11  23  37  58  84 122 168 220 278 331 377
#     4  11  26  42  63  91 129 173 219 266 322 381
#     4  11  22  40  70 109 132 154 198 257 312 370
#     4  10  23  41  71  98 128 165 217 259 310 386
#     4   9  22  34  60  89 126 160 222 269 328 368
#
# _framework density 21.901302000000001
#
# number of rings (size 3 to 8) (size 9 to 14) (size 15 to 20)
#    0.000    1.500    1.250    2.250   17.500    3.000 
#    0.000    0.000    0.000    3.000    0.000    0.000 
#    0.000    0.000    0.000    0.000    0.000    0.000 
#
# Total GULP energy -178385.194014 kJ/mol
# GULP energy per Si atom -5574.537313 kJ/mol
# Density = 2.185145 g / cm^3
# Si number density = 21.901302 Si / 1000 Ang^3
#
#
#
# Elastic Constant Matrix: (Units=GPa)
#
#
# Indices 1 2 3 4 5 6 
#
# 1 101.2425 44.0082 21.4537 0.0000 0.0000 0.0000
# 2 44.0082 157.3794 30.6018 0.0000 0.0000 0.0000
# 3 21.4537 30.6018 70.0399 0.0000 0.0000 0.0000
# 4 0.0000 0.0000 0.0000 -125.4934 0.0000 0.0000
# 5 0.0000 0.0000 0.0000 0.0000 29.9761 0.0000
# 6 0.0000 0.0000 0.0000 0.0000 0.0000 33.3177
#
#
#
# Elastic Compliance Matrix: (Units=1/GPa)
#
#
# Indices 1 2 3 4 5 6 
#
# 1 0.011582 -0.002785 -0.002331 0.000000 0.000000 0.000000
# 2 -0.002785 0.007614 -0.002473 0.000000 0.000000 0.000000
# 3 -0.002331 -0.002473 0.016072 0.000000 0.000000 0.000000
# 4 0.000000 0.000000 0.000000 -0.007969 0.000000 0.000000
# 5 0.000000 0.000000 0.000000 0.000000 0.033360 0.000000
# 6 0.000000 0.000000 0.000000 0.000000 0.000000 0.030014
#
#
# Mechanical properties :
#
#
# Convention : Reuss Voigt Hill
#
# Bulk Modulus (GPa) = 49.77863 57.86546 53.82205
# Shear Modulus (GPa) = 44.42515 3.06663 23.74589
#
# Velocity S-wave (km/s) = 4.50869 1.18459 3.29633
# Velocity P-wave (km/s) = 7.06274 5.32441 6.25427
#
# Compressibility (1/GPa) = 0.02008894
#
# Stress axis : x y z
#
# Youngs Moduli (GPa) = 86.34140 131.33802 62.21938
#
# Poissons Ratio (x) = 0.36584 0.14501
# Poissons Ratio (y) = 0.24050 0.15390
# Poissons Ratio (z) = 0.20123 0.32486
#
# Static dielectric constant tensor:
#      x y z
#    x 1.899090 0.000000 0.000000 
#    y 0.000000 1.866660 0.000000 
#    z 0.000000 0.000000 1.778360 
# 
# From -- ./inp_files/26893.got.cif
#   From: 2010.05.17/outbox.cif.g08.bks.cpg/sg54_14_cif.got.tgz:26893.got - 2010.06.03 13:09:01.
