data_PCOD9423505
_publ_section_title
;
Structure prediction by ZEFSAII (Michael W. Deem and Ramdas Pophale) SiO2 
 PCOD9423505
Probable space group: P C C A
;
_chemical_formula_sum "Si O2"
_cell_formula_units_Z 24
_cell_length_a 13.146968
_cell_length_b 7.541067
_cell_length_c 11.873191
_cell_angle_alpha 90.000000
_cell_angle_beta 90.000000
_cell_angle_gamma 90.000000
_cell_volume 1177.133879
_symmetry_space_group_name_H-M "P C C A"
_symmetry_group_IT_number 54
_symmetry_cell_setting 'orthorhombic'
loop_
_space_group_symop_operation_xyz
x,y,z
1/2-x,-y,z
1/2+x,-y,1/2-z
-x,y,1/2-z
-x,-y,-z
1/2+x,y,-z
1/2-x,y,1/2+z
x,-y,1/2+z
loop_
_atom_site_type_symbol
_atom_site_label
_atom_site_fract_x
_atom_site_fract_y
_atom_site_fract_z
Si Si1 0.750000 0.000000 0.186142
Si Si2 0.065921 0.162955 0.953793
Si Si3 0.500000 0.607512 0.750000
Si Si4 0.895293 0.271821 0.301606
O O1 0.664835 0.088348 0.108310
O O2 0.803186 0.151467 0.261162
O O3 0.005148 0.275525 0.861349
O O4 0.095466 0.274741 0.064129
O O5 0.000000 0.000000 0.000000
O O6 0.404163 0.471861 0.745368
O O7 0.000000 0.188095 0.250000
#
# Coordination Sequence:
#
# PCOD9423505 Si02
#       4
#     4   8   4   8
#     4  12  24  42  72 106 136 198 248 278 378 440
#     4  12  22  43  71 100 142 184 241 303 359 431
#     4  10  24  44  72 100 146 186 240 306 362 414
#     4  10  23  44  66 105 139 185 238 298 358 420
#
# _framework density 20.388504999999999
#
# number of rings (size 3 to 8) (size 9 to 14) (size 15 to 20)
#    1.000    0.000    3.333    4.000    0.000    1.333 
#    0.000    3.333    0.000    0.000    0.000    0.000 
#    0.000    0.000    0.000    0.000    0.000    0.000 
#
# Total GULP energy -134035.295379 kJ/mol
# GULP energy per Si atom -5584.803974 kJ/mol
# Density = 2.034210 g / cm^3
# Si number density = 20.388505 Si / 1000 Ang^3
#
#
#
# Elastic Constant Matrix: (Units=GPa)
#
#
# Indices 1 2 3 4 5 6 
#
# 1 88.0384 46.9635 34.8895 0.0000 0.0000 0.0000
# 2 46.9635 127.4424 61.6994 0.0000 0.0000 0.0000
# 3 34.8895 61.6994 156.1017 0.0000 0.0000 0.0000
# 4 0.0000 0.0000 0.0000 46.3580 0.0000 0.0000
# 5 0.0000 0.0000 0.0000 0.0000 33.0016 0.0000
# 6 0.0000 0.0000 0.0000 0.0000 0.0000 41.5474
#
#
#
# Elastic Compliance Matrix: (Units=1/GPa)
#
#
# Indices 1 2 3 4 5 6 
#
# 1 0.014376 -0.004627 -0.001384 0.000000 0.000000 0.000000
# 2 -0.004627 0.011193 -0.003390 0.000000 0.000000 0.000000
# 3 -0.001384 -0.003390 0.008055 0.000000 0.000000 0.000000
# 4 0.000000 0.000000 0.000000 0.021571 0.000000 0.000000
# 5 0.000000 0.000000 0.000000 0.000000 0.030302 0.000000
# 6 0.000000 0.000000 0.000000 0.000000 0.000000 0.024069
#
#
# Mechanical properties :
#
#
# Convention : Reuss Voigt Hill
#
# Bulk Modulus (GPa) = 67.47020 73.18746 70.32883
# Shear Modulus (GPa) = 37.50692 39.38342 38.44517
#
# Velocity S-wave (km/s) = 4.29372 4.39982 4.34709
# Velocity P-wave (km/s) = 7.59905 7.86038 7.73082
#
# Compressibility (1/GPa) = 0.01482136
#
# Stress axis : x y z
#
# Youngs Moduli (GPa) = 69.56199 89.34097 124.14283
#
# Poissons Ratio (x) = 0.41342 0.17181
# Poissons Ratio (y) = 0.32190 0.42082
# Poissons Ratio (z) = 0.09627 0.30285
#
# Static dielectric constant tensor:
#      x y z
#    x 1.714180 0.000000 0.000000 
#    y 0.000000 1.756580 0.000000 
#    z 0.000000 0.000000 1.697180 
# 
# From -- ./inp_files/3176.got.cif
#   From: 2010.05.17/outbox.cif.g08.bks.cpg/sg54_2_cif.got.tgz:3176.got - 2010.06.03 13:09:01.
