data_PCOD9423137
_publ_section_title
;
Structure prediction by ZEFSAII (Michael W. Deem and Ramdas Pophale) SiO2 
 PCOD9423137
Probable space group: P C C A
;
_chemical_formula_sum "Si O2"
_cell_formula_units_Z 32
_cell_length_a 23.521128
_cell_length_b 5.283413
_cell_length_c 9.606082
_cell_angle_alpha 90.000000
_cell_angle_beta 90.000000
_cell_angle_gamma 90.000000
_cell_volume 1193.765422
_symmetry_space_group_name_H-M "P C C A"
_symmetry_group_IT_number 54
_symmetry_cell_setting 'orthorhombic'
loop_
_space_group_symop_operation_xyz
x,y,z
1/2-x,-y,z
1/2+x,-y,1/2-z
-x,y,1/2-z
-x,-y,-z
1/2+x,y,-z
1/2-x,y,1/2+z
x,-y,1/2+z
loop_
_atom_site_type_symbol
_atom_site_label
_atom_site_fract_x
_atom_site_fract_y
_atom_site_fract_z
Si Si1 0.701708 0.302916 0.204204
Si Si2 0.000000 0.705241 0.250000
Si Si3 0.250000 0.000000 0.056742
Si Si4 0.407493 0.487934 0.927280
Si Si5 0.564706 0.986804 0.439072
O O1 0.750000 0.500000 0.246740
O O2 0.642903 0.441619 0.176191
O O3 0.721396 0.190846 0.054358
O O4 0.703579 0.106613 0.332461
O O5 0.948470 0.893066 0.289926
O O6 0.030533 0.520739 0.357952
O O7 0.400965 0.205001 0.981187
O O8 0.409805 0.710114 0.044127
O O9 0.500000 0.000000 0.500000
#
# Coordination Sequence:
#
# PCOD9423137 Si02
#       5
#     8   4   4   8   8
#     4  11  26  48  75 111 148 203 258 325 395 474
#     4  10  22  42  68 100 144 188 238 296 366 450
#     4  10  26  48  74 104 158 192 264 324 398 470
#     4  11  26  41  73 100 145 186 248 307 378 450
#     4  10  23  43  62 102 138 185 235 293 360 446
#
# _framework density 26.805938000000001
#
# number of rings (size 3 to 8) (size 9 to 14) (size 15 to 20)
#    0.000    1.500    0.000    3.750   10.500   11.000 
#    0.000    0.000    0.000    0.000    0.000    0.000 
#    0.000    0.000    0.000    0.000    0.000    0.000 
#
# Total GULP energy -179127.021220 kJ/mol
# GULP energy per Si atom -5597.719413 kJ/mol
# Density = 2.674493 g / cm^3
# Si number density = 26.805938 Si / 1000 Ang^3
#
#
#
# Elastic Constant Matrix: (Units=GPa)
#
#
# Indices 1 2 3 4 5 6 
#
# 1 91.0430 32.5623 28.6411 0.0000 0.0000 0.0000
# 2 32.5623 102.2200 39.6039 0.0000 0.0000 0.0000
# 3 28.6411 39.6039 130.2974 0.0000 0.0000 0.0000
# 4 0.0000 0.0000 0.0000 44.6618 0.0000 0.0000
# 5 0.0000 0.0000 0.0000 0.0000 38.4172 0.0000
# 6 0.0000 0.0000 0.0000 0.0000 0.0000 39.3587
#
#
#
# Elastic Compliance Matrix: (Units=1/GPa)
#
#
# Indices 1 2 3 4 5 6 
#
# 1 0.012749 -0.003373 -0.001777 0.000000 0.000000 0.000000
# 2 -0.003373 0.011981 -0.002900 0.000000 0.000000 0.000000
# 3 -0.001777 -0.002900 0.008947 0.000000 0.000000 0.000000
# 4 0.000000 0.000000 0.000000 0.022390 0.000000 0.000000
# 5 0.000000 0.000000 0.000000 0.000000 0.026030 0.000000
# 6 0.000000 0.000000 0.000000 0.000000 0.000000 0.025407
#
#
# Mechanical properties :
#
#
# Convention : Reuss Voigt Hill
#
# Bulk Modulus (GPa) = 56.89391 58.35279 57.62335
# Shear Modulus (GPa) = 38.62073 39.33775 38.97924
#
# Velocity S-wave (km/s) = 3.79984 3.83495 3.81744
# Velocity P-wave (km/s) = 6.36570 6.43623 6.40106
#
# Compressibility (1/GPa) = 0.01757657
#
# Stress axis : x y z
#
# Youngs Moduli (GPa) = 78.43618 83.46657 111.76991
#
# Poissons Ratio (x) = 0.28151 0.19865
# Poissons Ratio (y) = 0.26454 0.32416
# Poissons Ratio (z) = 0.13941 0.24207
#
# Static dielectric constant tensor:
#      x y z
#    x 2.067480 0.000000 0.000000 
#    y 0.000000 2.129490 0.000000 
#    z 0.000000 0.000000 2.411270 
# 
# From -- ./inp_files/10104.got.cif
#   From: 2010.05.17/outbox.cif.g08.bks.cpg/sg54_6_cif.got.tgz:10104.got - 2010.06.03 13:09:01.
