data_PCOD9423499
_publ_section_title
;
Structure prediction by ZEFSAII (Michael W. Deem and Ramdas Pophale) SiO2 
 PCOD9423499
Probable space group: P C C A
;
_chemical_formula_sum "Si O2"
_cell_formula_units_Z 40
_cell_length_a 11.164333
_cell_length_b 5.024028
_cell_length_c 29.383098
_cell_angle_alpha 90.000000
_cell_angle_beta 90.000000
_cell_angle_gamma 90.000000
_cell_volume 1648.095663
_symmetry_space_group_name_H-M "P C C A"
_symmetry_group_IT_number 54
_symmetry_cell_setting 'orthorhombic'
loop_
_space_group_symop_operation_xyz
x,y,z
1/2-x,-y,z
1/2+x,-y,1/2-z
-x,y,1/2-z
-x,-y,-z
1/2+x,y,-z
1/2-x,y,1/2+z
x,-y,1/2+z
loop_
_atom_site_type_symbol
_atom_site_label
_atom_site_fract_x
_atom_site_fract_y
_atom_site_fract_z
Si Si1 0.085216 0.754303 0.010566
Si Si2 0.750000 0.000000 0.654840
Si Si3 0.750000 0.000000 0.911333
Si Si4 0.017975 0.865591 0.303508
Si Si5 0.356269 0.321695 0.915219
Si Si6 0.428802 0.374026 0.642435
O O1 0.160021 0.833179 0.055312
O O2 0.171822 0.736307 0.966954
O O3 0.000000 0.500000 0.000000
O O4 0.000000 0.000000 0.000000
O O5 0.838426 0.171681 0.686686
O O6 0.649622 0.068257 0.616702
O O7 0.681818 0.218339 0.880533
O O8 0.000000 0.841318 0.250000
O O9 0.935885 0.651728 0.330472
O O10 0.980544 0.159979 0.320963
O O11 0.250000 0.500000 0.896058
O O12 0.484344 0.433004 0.901240
#
# Coordination Sequence:
#
# PCOD9423499 Si02
#       6
#     8   4   4   8   8   8
#     4  12  30  47  74 111 158 211 267 320 379 470
#     4  10  23  43  76 106 146 206 248 331 377 464
#     4  12  29  53  76 120 170 208 262 331 405 474
#     4  11  25  48  77 114 153 198 269 323 406 487
#     4  11  23  43  72 105 146 198 267 313 377 456
#     4  11  26  46  77 110 156 208 253 331 405 473
#
# _framework density 24.270436
#
# number of rings (size 3 to 8) (size 9 to 14) (size 15 to 20)
#    0.000    0.800    4.000    1.200    8.400    3.200 
#    0.000    4.000    0.000    0.000    0.000    0.000 
#    0.000    0.000    0.000    0.000    0.000    0.000 
#
# Total GULP energy -222803.661625 kJ/mol
# GULP energy per Si atom -5570.091541 kJ/mol
# Density = 2.421519 g / cm^3
# Si number density = 24.270436 Si / 1000 Ang^3
#
#
#
# Elastic Constant Matrix: (Units=GPa)
#
#
# Indices 1 2 3 4 5 6 
#
# 1 110.7706 29.7055 38.8053 0.0000 0.0000 0.0000
# 2 29.7055 123.6019 11.8079 0.0000 0.0000 0.0000
# 3 38.8053 11.8079 140.6739 0.0000 0.0000 0.0000
# 4 0.0000 0.0000 0.0000 16.7599 0.0000 0.0000
# 5 0.0000 0.0000 0.0000 0.0000 35.1808 0.0000
# 6 0.0000 0.0000 0.0000 0.0000 0.0000 52.7442
#
#
#
# Elastic Compliance Matrix: (Units=1/GPa)
#
#
# Indices 1 2 3 4 5 6 
#
# 1 0.010598 -0.002286 -0.002731 0.000000 0.000000 0.000000
# 2 -0.002286 0.008649 -0.000095 0.000000 0.000000 0.000000
# 3 -0.002731 -0.000095 0.007870 0.000000 0.000000 0.000000
# 4 0.000000 0.000000 0.000000 0.059666 0.000000 0.000000
# 5 0.000000 0.000000 0.000000 0.000000 0.028425 0.000000
# 6 0.000000 0.000000 0.000000 0.000000 0.000000 0.018959
#
#
# Mechanical properties :
#
#
# Convention : Reuss Voigt Hill
#
# Bulk Modulus (GPa) = 59.20315 59.52041 59.36178
# Shear Modulus (GPa) = 33.32823 40.58551 36.95687
#
# Velocity S-wave (km/s) = 3.70970 4.09372 3.90643
# Velocity P-wave (km/s) = 6.54180 6.84994 6.69765
#
# Compressibility (1/GPa) = 0.01689099
#
# Stress axis : x y z
#
# Youngs Moduli (GPa) = 94.36091 115.62025 127.06264
#
# Poissons Ratio (x) = 0.26431 0.34707
# Poissons Ratio (y) = 0.21571 0.01212
# Poissons Ratio (z) = 0.25775 0.01103
#
# Static dielectric constant tensor:
#      x y z
#    x 3.105330 0.000000 0.000000 
#    y 0.000000 2.445180 0.000000 
#    z 0.000000 0.000000 1.892420 
# 
# From -- ./inp_files/26067.got.cif
#   From: 2010.05.17/outbox.cif.g08.bks.cpg/sg54_14_cif.got.tgz:26067.got - 2010.06.03 13:09:01.
