data_PCOD9423257
_publ_section_title
;
Structure prediction by ZEFSAII (Michael W. Deem and Ramdas Pophale) SiO2 
 PCOD9423257
Probable space group: P C C A
;
_chemical_formula_sum "Si O2"
_cell_formula_units_Z 32
_cell_length_a 10.516580
_cell_length_b 7.602906
_cell_length_c 19.757779
_cell_angle_alpha 90.000000
_cell_angle_beta 90.000000
_cell_angle_gamma 90.000000
_cell_volume 1579.764223
_symmetry_space_group_name_H-M "P C C A"
_symmetry_group_IT_number 54
_symmetry_cell_setting 'orthorhombic'
loop_
_space_group_symop_operation_xyz
x,y,z
1/2-x,-y,z
1/2+x,-y,1/2-z
-x,y,1/2-z
-x,-y,-z
1/2+x,y,-z
1/2-x,y,1/2+z
x,-y,1/2+z
loop_
_atom_site_type_symbol
_atom_site_label
_atom_site_fract_x
_atom_site_fract_y
_atom_site_fract_z
Si Si1 0.628397 0.109032 0.006317
Si Si2 0.894710 0.459383 0.556765
Si Si3 0.445182 0.490060 0.178089
Si Si4 0.233009 0.207852 0.141559
O O1 0.672594 0.195517 0.934470
O O2 0.750000 0.000000 0.027139
O O3 0.603363 0.251364 0.062870
O O4 0.500000 0.000000 0.000000
O O5 0.750000 0.500000 0.537230
O O6 0.000000 0.500000 0.500000
O O7 0.941520 0.538289 0.626625
O O8 0.500000 0.434738 0.250000
O O9 0.359779 0.330943 0.145689
O O10 0.362027 0.668334 0.184251
O O11 0.250000 0.000000 0.160709
#
# Coordination Sequence:
#
# PCOD9423257 Si02
#       4
#     8   8   8   8
#     4  11  22  39  66 100 133 173 229 287 347 416
#     4  12  23  40  66  96 131 175 223 286 348 403
#     4  11  25  43  69  99 137 185 238 280 350 428
#     4  10  22  44  70  94 137 184 228 287 352 407
#
# _framework density 20.256188000000002
#
# number of rings (size 3 to 8) (size 9 to 14) (size 15 to 20)
#    0.000    1.000    2.500    6.000    3.500    1.000 
#    0.000    1.250    0.000    0.000    0.000    0.000 
#    0.000    0.000    0.000    0.000    0.000    0.000 
#
# Total GULP energy -178315.625146 kJ/mol
# GULP energy per Si atom -5572.363286 kJ/mol
# Density = 2.021008 g / cm^3
# Si number density = 20.256188 Si / 1000 Ang^3
#
#
#
# Elastic Constant Matrix: (Units=GPa)
#
#
# Indices 1 2 3 4 5 6 
#
# 1 163.8995 43.8286 40.9613 0.0000 0.0000 0.0000
# 2 43.8286 119.5028 -1.5669 0.0000 0.0000 0.0000
# 3 40.9613 -1.5669 78.9254 0.0000 0.0000 0.0000
# 4 0.0000 0.0000 0.0000 24.2008 0.0000 0.0000
# 5 0.0000 0.0000 0.0000 0.0000 20.5904 0.0000
# 6 0.0000 0.0000 0.0000 0.0000 0.0000 48.2276
#
#
#
# Elastic Compliance Matrix: (Units=1/GPa)
#
#
# Indices 1 2 3 4 5 6 
#
# 1 0.007939 -0.002966 -0.004179 0.000000 0.000000 0.000000
# 2 -0.002966 0.009479 0.001728 0.000000 0.000000 0.000000
# 3 -0.004179 0.001728 0.014873 0.000000 0.000000 0.000000
# 4 0.000000 0.000000 0.000000 0.041321 0.000000 0.000000
# 5 0.000000 0.000000 0.000000 0.000000 0.048566 0.000000
# 6 0.000000 0.000000 0.000000 0.000000 0.000000 0.020735
#
#
# Mechanical properties :
#
#
# Convention : Reuss Voigt Hill
#
# Bulk Modulus (GPa) = 46.60850 58.75261 52.68055
# Shear Modulus (GPa) = 31.07505 37.21075 34.14290
#
# Velocity S-wave (km/s) = 3.92101 4.29068 4.11000
# Velocity P-wave (km/s) = 6.59989 7.32218 6.97040
#
# Compressibility (1/GPa) = 0.02145531
#
# Stress axis : x y z
#
# Youngs Moduli (GPa) = 125.96024 105.50034 67.23405
#
# Poissons Ratio (x) = 0.31297 0.28098
# Poissons Ratio (y) = 0.37366 -0.11616
# Poissons Ratio (z) = 0.52641 -0.18228
#
# Static dielectric constant tensor:
#      x y z
#    x 1.508490 0.000000 0.000000 
#    y 0.000000 1.767410 0.000000 
#    z 0.000000 0.000000 1.709970 
# 
# From -- ./inp_files/20003.got.cif
#   From: 2010.05.17/outbox.cif.g08.bks.cpg/sg54_11_cif.got.tgz:20003.got - 2010.06.03 13:09:01.
