data_PCOD9423277
_publ_section_title
;
Structure prediction by ZEFSAII (Michael W. Deem and Ramdas Pophale) SiO2 
 PCOD9423277
Probable space group: P C C A
;
_chemical_formula_sum "Si O2"
_cell_formula_units_Z 56
_cell_length_a 14.644577
_cell_length_b 14.472304
_cell_length_c 10.945038
_cell_angle_alpha 90.000000
_cell_angle_beta 90.000000
_cell_angle_gamma 90.000000
_cell_volume 2319.699785
_symmetry_space_group_name_H-M "P C C A"
_symmetry_group_IT_number 54
_symmetry_cell_setting 'orthorhombic'
loop_
_space_group_symop_operation_xyz
x,y,z
1/2-x,-y,z
1/2+x,-y,1/2-z
-x,y,1/2-z
-x,-y,-z
1/2+x,y,-z
1/2-x,y,1/2+z
x,-y,1/2+z
loop_
_atom_site_type_symbol
_atom_site_label
_atom_site_fract_x
_atom_site_fract_y
_atom_site_fract_z
Si Si1 0.867118 0.751302 0.714780
Si Si2 0.927252 0.805284 0.970399
Si Si3 0.102976 0.400382 0.480102
Si Si4 0.919810 0.831173 0.344392
Si Si5 0.081562 0.390310 0.898707
Si Si6 0.206054 0.340632 0.670811
Si Si7 0.210267 0.100356 0.854059
O O1 0.913536 0.684588 0.613458
O O2 0.806425 0.674364 0.783347
O O3 0.792108 0.825022 0.665241
O O4 0.921937 0.800776 0.824395
O O5 0.903250 0.702452 0.020987
O O6 0.848317 0.868079 0.029251
O O7 0.021739 0.844207 0.031700
O O8 0.095455 0.502728 0.431231
O O9 0.200382 0.394898 0.545313
O O10 0.029440 0.388991 0.590345
O O11 0.842110 0.755725 0.365771
O O12 0.861215 0.902479 0.261729
O O13 0.000000 0.798535 0.250000
O O14 0.146713 0.376251 0.783652
O O15 0.250000 0.000000 0.871920
#
# Coordination Sequence:
#
# PCOD9423277 Si02
#       7
#     8   8   8   8   8   8   8
#     4  11  25  42  66 107 148 182 239 320 365 419
#     4  11  21  43  70 102 142 192 239 298 372 441
#     4  11  25  41  66 103 144 190 249 294 351 442
#     4   9  16  37  70  94 128 181 234 282 351 433
#     4  11  23  42  68  98 138 198 243 288 357 437
#     4  11  20  43  66  94 136 200 241 291 359 427
#     4  10  22  44  75 104 137 186 247 300 370 449
#
# _framework density 24.141055000000001
#
# number of rings (size 3 to 8) (size 9 to 14) (size 15 to 20)
#    0.000    1.429    5.714    1.286    2.000    1.714 
#    0.000    0.714    9.429    0.000    0.000    0.000 
#    0.000    0.000    0.000    0.000    0.000    0.000 
#
# Total GULP energy -312210.541263 kJ/mol
# GULP energy per Si atom -5575.188237 kJ/mol
# Density = 2.408611 g / cm^3
# Si number density = 24.141055 Si / 1000 Ang^3
#
#
#
# Elastic Constant Matrix: (Units=GPa)
#
#
# Indices 1 2 3 4 5 6 
#
# 1 78.8027 34.4700 54.6875 0.0000 0.0000 0.0000
# 2 34.4700 101.8207 22.5793 0.0000 0.0000 0.0000
# 3 54.6875 22.5793 93.7300 0.0000 0.0000 0.0000
# 4 0.0000 0.0000 0.0000 -5.9692 0.0000 0.0000
# 5 0.0000 0.0000 0.0000 0.0000 45.8266 0.0000
# 6 0.0000 0.0000 0.0000 0.0000 0.0000 32.5168
#
#
#
# Elastic Compliance Matrix: (Units=1/GPa)
#
#
# Indices 1 2 3 4 5 6 
#
# 1 0.023703 -0.005237 -0.012568 0.000000 0.000000 0.000000
# 2 -0.005237 0.011533 0.000278 0.000000 0.000000 0.000000
# 3 -0.012568 0.000278 0.017935 0.000000 0.000000 0.000000
# 4 0.000000 0.000000 0.000000 -0.167525 0.000000 0.000000
# 5 0.000000 0.000000 0.000000 0.000000 0.021821 0.000000
# 6 0.000000 0.000000 0.000000 0.000000 0.000000 0.030753
#
#
# Mechanical properties :
#
#
# Convention : Reuss Voigt Hill
#
# Bulk Modulus (GPa) = 55.20268 55.31410 55.25839
# Shear Modulus (GPa) = -241.69993 25.31594 -108.19200
#
# Velocity S-wave (km/s) = -10.01685 3.24183 -6.70178
# Velocity P-wave (km/s) = 10.52932 6.08072 6.07830
#
# Compressibility (1/GPa) = 0.01811506
#
# Stress axis : x y z
#
# Youngs Moduli (GPa) = 42.18935 86.71046 55.75718
#
# Poissons Ratio (x) = 0.45412 0.70075
# Poissons Ratio (y) = 0.22095 -0.01547
# Poissons Ratio (z) = 0.53023 -0.02406
#
# Static dielectric constant tensor:
#      x y z
#    x 2.018030 0.000000 0.000000 
#    y 0.000000 1.897430 0.000000 
#    z 0.000000 0.000000 2.026530 
# 
# From -- ./inp_files/8428.got.cif
#   From: 2010.05.17/outbox.cif.g08.bks.cpg/sg54_5_cif.got.tgz:8428.got - 2010.06.03 13:09:01.
