data_PCOD9423384
_publ_section_title
;
Structure prediction by ZEFSAII (Michael W. Deem and Ramdas Pophale) SiO2 
 PCOD9423384
Probable space group: P C C A
;
_chemical_formula_sum "Si O2"
_cell_formula_units_Z 64
_cell_length_a 30.565478
_cell_length_b 12.140616
_cell_length_c 8.781786
_cell_angle_alpha 90.000000
_cell_angle_beta 90.000000
_cell_angle_gamma 90.000000
_cell_volume 3258.777916
_symmetry_space_group_name_H-M "P C C A"
_symmetry_group_IT_number 54
_symmetry_cell_setting 'orthorhombic'
loop_
_space_group_symop_operation_xyz
x,y,z
1/2-x,-y,z
1/2+x,-y,1/2-z
-x,y,1/2-z
-x,-y,-z
1/2+x,y,-z
1/2-x,y,1/2+z
x,-y,1/2+z
loop_
_atom_site_type_symbol
_atom_site_label
_atom_site_fract_x
_atom_site_fract_y
_atom_site_fract_z
Si Si1 0.649234 0.522822 0.495031
Si Si2 0.726301 0.882664 0.521388
Si Si3 0.944658 0.901400 0.893383
Si Si4 0.380628 0.719800 0.487745
Si Si5 0.200569 0.796940 0.167075
Si Si6 0.960907 0.864919 0.535378
Si Si7 0.793382 0.554034 0.254278
Si Si8 0.641909 0.232007 0.866144
O O1 0.621432 0.411046 0.479715
O O2 0.695908 0.493306 0.419456
O O3 0.661143 0.529282 0.671489
O O4 0.637968 0.645062 0.437755
O O5 0.767136 0.805842 0.476327
O O6 0.709847 0.882607 0.696639
O O7 0.685790 0.834236 0.419712
O O8 0.750000 0.000000 0.488701
O O9 0.952524 0.892227 0.712864
O O10 0.899172 0.840512 0.923101
O O11 0.986958 0.849040 0.977729
O O12 0.945810 0.028661 0.941020
O O13 0.348331 0.783826 0.603808
O O14 0.429640 0.764002 0.502913
O O15 0.362963 0.749017 0.316660
O O16 0.212253 0.683058 0.247775
O O17 0.750000 0.500000 0.196057
#
# Coordination Sequence:
#
# PCOD9423384 Si02
#       8
#     8   8   8   8   8   8   8   8
#     4  11  21  38  58  88 117 159 202 254 303 364
#     4  12  26  42  58  83 125 163 207 250 300 363
#     4   9  20  38  68  91 121 161 195 256 301 369
#     4  10  23  40  65  89 124 162 202 257 305 363
#     4  11  25  40  58  85 117 163 204 251 300 357
#     4   9  19  41  64  95 121 152 207 245 310 363
#     4  11  22  35  58  81 112 153 208 254 301 345
#     4  11  22  42  61  91 126 162 206 249 310 369
#
# _framework density 19.639265000000002
#
# number of rings (size 3 to 8) (size 9 to 14) (size 15 to 20)
#    0.000    1.500    2.500    2.250    5.250    1.000 
#    0.000    1.250    0.000    0.000    0.000    0.000 
#    0.000    0.000    0.000    0.000    0.000    0.000 
#
# Total GULP energy -356468.961913 kJ/mol
# GULP energy per Si atom -5569.827530 kJ/mol
# Density = 1.959457 g / cm^3
# Si number density = 19.639265 Si / 1000 Ang^3
#
#
#
# Elastic Constant Matrix: (Units=GPa)
#
#
# Indices 1 2 3 4 5 6 
#
# 1 75.5210 50.3312 7.0464 0.0000 0.0000 0.0000
# 2 50.3312 73.9932 9.2717 0.0000 0.0000 0.0000
# 3 7.0464 9.2717 30.5500 0.0000 0.0000 0.0000
# 4 0.0000 0.0000 0.0000 -6.6363 0.0000 0.0000
# 5 0.0000 0.0000 0.0000 0.0000 23.2138 0.0000
# 6 0.0000 0.0000 0.0000 0.0000 0.0000 18.0725
#
#
#
# Elastic Compliance Matrix: (Units=1/GPa)
#
#
# Indices 1 2 3 4 5 6 
#
# 1 0.024233 -0.016407 -0.000610 0.000000 0.000000 0.000000
# 2 -0.016407 0.025158 -0.003851 0.000000 0.000000 0.000000
# 3 -0.000610 -0.003851 0.034043 0.000000 0.000000 0.000000
# 4 0.000000 0.000000 0.000000 -0.150686 0.000000 0.000000
# 5 0.000000 0.000000 0.000000 0.000000 0.043078 0.000000
# 6 0.000000 0.000000 0.000000 0.000000 0.000000 0.055333
#
#
# Mechanical properties :
#
#
# Convention : Reuss Voigt Hill
#
# Bulk Modulus (GPa) = 23.98233 34.81809 29.40021
# Shear Modulus (GPa) = 57.60890 14.49099 36.04995
#
# Velocity S-wave (km/s) = 5.42192 2.71930 4.28904
# Velocity P-wave (km/s) = 7.17176 5.25612 6.28733
#
# Compressibility (1/GPa) = 0.04169737
#
# Stress axis : x y z
#
# Youngs Moduli (GPa) = 41.26637 39.74946 29.37500
#
# Poissons Ratio (x) = 0.65217 0.01792
# Poissons Ratio (y) = 0.67706 0.11312
# Poissons Ratio (z) = 0.02517 0.15307
#
# Static dielectric constant tensor:
#      x y z
#    x 1.663290 0.000000 0.000000 
#    y 0.000000 1.812740 0.000000 
#    z 0.000000 0.000000 1.741220 
# 
# From -- ./inp_files/5975.got.cif
#   From: 2010.05.17/outbox.cif.g08.bks.cpg/sg54_3_cif.got.tgz:5975.got - 2010.06.03 13:09:01.
