data_PCOD9423013
_publ_section_title
;
Structure prediction by ZEFSAII (Michael W. Deem and Ramdas Pophale) SiO2 
 PCOD9423013
Probable space group: P C C A
;
_chemical_formula_sum "Si O2"
_cell_formula_units_Z 32
_cell_length_a 12.279359
_cell_length_b 5.067799
_cell_length_c 22.468619
_cell_angle_alpha 90.000000
_cell_angle_beta 90.000000
_cell_angle_gamma 90.000000
_cell_volume 1398.206955
_symmetry_space_group_name_H-M "P C C A"
_symmetry_group_IT_number 54
_symmetry_cell_setting 'orthorhombic'
loop_
_space_group_symop_operation_xyz
x,y,z
1/2-x,-y,z
1/2+x,-y,1/2-z
-x,y,1/2-z
-x,-y,-z
1/2+x,y,-z
1/2-x,y,1/2+z
x,-y,1/2+z
loop_
_atom_site_type_symbol
_atom_site_label
_atom_site_fract_x
_atom_site_fract_y
_atom_site_fract_z
Si Si1 0.089350 0.284825 0.023321
Si Si2 0.250000 0.000000 0.433202
Si Si3 0.460058 0.697642 0.684194
Si Si4 0.453361 0.192012 0.877502
Si Si5 0.750000 0.500000 0.874335
O O1 0.168940 0.363857 0.078508
O O2 0.012021 0.091700 0.061369
O O3 0.173859 0.181432 0.974773
O O4 0.000000 0.500000 0.000000
O O5 0.172615 0.169613 0.391431
O O6 0.500000 0.625339 0.750000
O O7 0.518732 0.488614 0.640600
O O8 0.331696 0.668039 0.667833
O O9 0.502168 0.990744 0.671156
#
# Coordination Sequence:
#
# PCOD9423013 Si02
#       5
#     8   4   8   8   4
#     4  11  22  40  66 100 137 180 221 273 346 429
#     4  12  22  38  66  96 140 176 212 282 348 412
#     4  11  25  46  67  94 129 173 228 284 335 398
#     4  11  25  42  65  99 130 169 227 273 332 415
#     4  10  22  40  68  94 132 174 220 274 338 404
#
# _framework density 22.886455999999999
#
# number of rings (size 3 to 8) (size 9 to 14) (size 15 to 20)
#    0.000    1.000    0.000    7.500    0.000    8.000 
#    0.000    0.000    0.000    0.000    0.000    0.000 
#    0.000    0.000    0.000    0.000    0.000    0.000 
#
# Total GULP energy -178510.102841 kJ/mol
# GULP energy per Si atom -5578.440714 kJ/mol
# Density = 2.283437 g / cm^3
# Si number density = 22.886456 Si / 1000 Ang^3
#
#
#
# Elastic Constant Matrix: (Units=GPa)
#
#
# Indices 1 2 3 4 5 6 
#
# 1 157.4463 20.7188 37.3714 0.0000 0.0000 0.0000
# 2 20.7188 51.3385 -3.9027 0.0000 0.0000 0.0000
# 3 37.3714 -3.9027 88.4768 0.0000 0.0000 0.0000
# 4 0.0000 0.0000 0.0000 38.0663 0.0000 0.0000
# 5 0.0000 0.0000 0.0000 0.0000 31.6697 0.0000
# 6 0.0000 0.0000 0.0000 0.0000 0.0000 30.5069
#
#
#
# Elastic Compliance Matrix: (Units=1/GPa)
#
#
# Indices 1 2 3 4 5 6 
#
# 1 0.007582 -0.003315 -0.003349 0.000000 0.000000 0.000000
# 2 -0.003315 0.020993 0.002326 0.000000 0.000000 0.000000
# 3 -0.003349 0.002326 0.012820 0.000000 0.000000 0.000000
# 4 0.000000 0.000000 0.000000 0.026270 0.000000 0.000000
# 5 0.000000 0.000000 0.000000 0.000000 0.031576 0.000000
# 6 0.000000 0.000000 0.000000 0.000000 0.000000 0.032779
#
#
# Mechanical properties :
#
#
# Convention : Reuss Voigt Hill
#
# Bulk Modulus (GPa) = 30.56234 45.07075 37.81654
# Shear Modulus (GPa) = 32.98107 36.25352 34.61730
#
# Velocity S-wave (km/s) = 3.80027 3.98434 3.89339
# Velocity P-wave (km/s) = 5.71305 6.39551 6.06389
#
# Compressibility (1/GPa) = 0.03272001
#
# Stress axis : x y z
#
# Youngs Moduli (GPa) = 131.88333 47.63477 78.00593
#
# Poissons Ratio (x) = 0.15789 0.26124
# Poissons Ratio (y) = 0.43715 -0.18145
# Poissons Ratio (z) = 0.44167 -0.11080
#
# Static dielectric constant tensor:
#      x y z
#    x 2.777140 0.000000 0.000000 
#    y 0.000000 1.910320 0.000000 
#    z 0.000000 0.000000 2.163710 
# 
# From -- ./inp_files/20875.got.cif
#   From: 2010.05.17/outbox.cif.g08.bks.cpg/sg54_11_cif.got.tgz:20875.got - 2010.06.03 13:09:01.
