data_PCOD9423547
_publ_section_title
;
Structure prediction by ZEFSAII (Michael W. Deem and Ramdas Pophale) SiO2 
 PCOD9423547
Probable space group: P C C A
;
_chemical_formula_sum "Si O2"
_cell_formula_units_Z 20
_cell_length_a 4.913057
_cell_length_b 15.398104
_cell_length_c 10.164602
_cell_angle_alpha 90.000000
_cell_angle_beta 90.000000
_cell_angle_gamma 90.000000
_cell_volume 768.970058
_symmetry_space_group_name_H-M "P C C A"
_symmetry_group_IT_number 54
_symmetry_cell_setting 'orthorhombic'
loop_
_space_group_symop_operation_xyz
x,y,z
1/2-x,-y,z
1/2+x,-y,1/2-z
-x,y,1/2-z
-x,-y,-z
1/2+x,y,-z
1/2-x,y,1/2+z
x,-y,1/2+z
loop_
_atom_site_type_symbol
_atom_site_label
_atom_site_fract_x
_atom_site_fract_y
_atom_site_fract_z
Si Si1 0.130425 0.781488 0.586129
Si Si2 0.000000 0.342817 0.750000
Si Si3 0.250000 0.500000 0.330478
Si Si4 0.500000 0.943135 0.250000
O O1 0.321639 0.770595 0.459369
O O2 0.266168 0.716325 0.689471
O O3 0.137848 0.878249 0.644894
O O4 0.907636 0.411414 0.631460
O O5 0.500000 0.541167 0.250000
O O6 0.750000 0.000000 0.195892
#
# Coordination Sequence:
#
# PCOD9423547 Si02
#       4
#     8   4   4   4
#     4  12  27  43  73 106 135 181 232 282 347 417
#     4  10  23  45  68  96 150 180 230 287 339 386
#     4   8  20  36  70  92 134 194 224 276 338 392
#     4  12  27  49  72  98 142 182 222 291 351 408
#
# _framework density 26.008814000000001
#
# number of rings (size 3 to 8) (size 9 to 14) (size 15 to 20)
#    1.200    0.000    0.000    6.000    8.400    4.800 
#    0.000    6.000    0.000    0.000    0.000    0.000 
#    0.000    0.000    0.000    0.000    0.000    0.000 
#
# Total GULP energy -111368.330579 kJ/mol
# GULP energy per Si atom -5568.416529 kJ/mol
# Density = 2.594962 g / cm^3
# Si number density = 26.008814 Si / 1000 Ang^3
#
#
#
# Elastic Constant Matrix: (Units=GPa)
#
#
# Indices 1 2 3 4 5 6 
#
# 1 149.9809 62.2096 16.4627 0.0000 0.0000 0.0000
# 2 62.2096 207.6398 38.9446 0.0000 0.0000 0.0000
# 3 16.4627 38.9446 82.8312 0.0000 0.0000 0.0000
# 4 0.0000 0.0000 0.0000 4.8661 0.0000 0.0000
# 5 0.0000 0.0000 0.0000 0.0000 33.5813 0.0000
# 6 0.0000 0.0000 0.0000 0.0000 0.0000 183.1942
#
#
#
# Elastic Compliance Matrix: (Units=1/GPa)
#
#
# Indices 1 2 3 4 5 6 
#
# 1 0.007631 -0.002196 -0.000484 0.000000 0.000000 0.000000
# 2 -0.002196 0.005913 -0.002344 0.000000 0.000000 0.000000
# 3 -0.000484 -0.002344 0.013271 0.000000 0.000000 0.000000
# 4 0.000000 0.000000 0.000000 0.205505 0.000000 0.000000
# 5 0.000000 0.000000 0.000000 0.000000 0.029778 0.000000
# 6 0.000000 0.000000 0.000000 0.000000 0.000000 0.005459
#
#
# Mechanical properties :
#
#
# Convention : Reuss Voigt Hill
#
# Bulk Modulus (GPa) = 59.63740 75.07619 67.35680
# Shear Modulus (GPa) = 17.65565 65.85065 41.75315
#
# Velocity S-wave (km/s) = 2.60827 5.03722 4.01102
# Velocity P-wave (km/s) = 5.66129 7.92210 6.88513
#
# Compressibility (1/GPa) = 0.01676800
#
# Stress axis : x y z
#
# Youngs Moduli (GPa) = 131.03831 169.10616 75.35181
#
# Poissons Ratio (x) = 0.37128 0.03651
# Poissons Ratio (y) = 0.28770 0.17662
# Poissons Ratio (z) = 0.06348 0.39638
#
# Static dielectric constant tensor:
#      x y z
#    x 1.673760 0.000000 0.000000 
#    y 0.000000 2.022070 0.000000 
#    z 0.000000 0.000000 2.292760 
# 
# From -- ./inp_files/6132.got.cif
#   From: 2010.05.17/outbox.cif.g08.bks.cpg/sg54_4_cif.got.tgz:6132.got - 2010.06.03 13:09:01.
