data_PCOD9423530
_publ_section_title
;
Structure prediction by ZEFSAII (Michael W. Deem and Ramdas Pophale) SiO2 
 PCOD9423530
Probable space group: P C C A
;
_chemical_formula_sum "Si O2"
_cell_formula_units_Z 48
_cell_length_a 5.271396
_cell_length_b 26.825927
_cell_length_c 15.270414
_cell_angle_alpha 90.000000
_cell_angle_beta 90.000000
_cell_angle_gamma 90.000000
_cell_volume 2159.390531
_symmetry_space_group_name_H-M "P C C A"
_symmetry_group_IT_number 54
_symmetry_cell_setting 'orthorhombic'
loop_
_space_group_symop_operation_xyz
x,y,z
1/2-x,-y,z
1/2+x,-y,1/2-z
-x,y,1/2-z
-x,-y,-z
1/2+x,y,-z
1/2-x,y,1/2+z
x,-y,1/2+z
loop_
_atom_site_type_symbol
_atom_site_label
_atom_site_fract_x
_atom_site_fract_y
_atom_site_fract_z
Si Si1 0.500000 0.406289 0.250000
Si Si2 0.500000 0.827184 0.250000
Si Si3 0.500000 0.343600 0.750000
Si Si4 0.098066 0.813487 0.448562
Si Si5 0.250000 0.000000 0.558477
Si Si6 0.310486 0.736373 0.824199
Si Si7 0.313009 0.440774 0.446369
Si Si8 0.361185 0.099858 0.159780
O O1 0.242205 0.376656 0.224966
O O2 0.402728 0.430591 0.344297
O O3 0.700941 0.788863 0.210858
O O4 0.366552 0.863078 0.182190
O O5 0.404405 0.305610 0.826663
O O6 0.387756 0.814804 0.476593
O O7 0.048087 0.758554 0.406837
O O8 0.043556 0.864546 0.396224
O O9 0.234602 0.050255 0.614511
O O10 0.500000 0.000000 0.500000
O O11 0.500000 0.717909 0.750000
O O12 0.250000 0.500000 0.449433
O O13 0.543643 0.422537 0.510573
O O14 0.500000 0.086649 0.250000
#
# Coordination Sequence:
#
# PCOD9423530 Si02
#       8
#     4   4   4   8   4   8   8   8
#     4  12  24  45  72 113 147 212 255 314 380 460
#     4  11  20  40  76  99 119 162 240 274 319 390
#     4  11  26  41  74  96 148 194 249 292 369 434
#     4  12  25  41  67 102 135 167 221 289 351 400
#     4  12  32  52  68 100 148 174 204 276 352 418
#     4  11  22  45  69  96 134 184 233 287 341 420
#     4  10  23  44  73 109 151 197 256 324 380 437
#     4  12  26  44  73 100 129 178 224 268 336 429
#
# _framework density 22.228496
#
# number of rings (size 3 to 8) (size 9 to 14) (size 15 to 20)
#    0.000    0.667    4.167    3.000    5.833    2.667 
#    0.000    5.000    0.000    0.000    0.000    0.000 
#    0.000    0.000    0.000    0.000    0.000    0.000 
#
# Total GULP energy -267515.593186 kJ/mol
# GULP energy per Si atom -5573.241525 kJ/mol
# Density = 2.217790 g / cm^3
# Si number density = 22.228496 Si / 1000 Ang^3
#
#
#
# Elastic Constant Matrix: (Units=GPa)
#
#
# Indices 1 2 3 4 5 6 
#
# 1 141.6132 47.5774 50.2165 0.0000 0.0000 0.0000
# 2 47.5774 65.6801 25.0910 0.0000 0.0000 0.0000
# 3 50.2165 25.0910 100.2761 0.0000 0.0000 0.0000
# 4 0.0000 0.0000 0.0000 110.1946 0.0000 0.0000
# 5 0.0000 0.0000 0.0000 0.0000 36.2362 0.0000
# 6 0.0000 0.0000 0.0000 0.0000 0.0000 45.1603
#
#
#
# Elastic Compliance Matrix: (Units=1/GPa)
#
#
# Indices 1 2 3 4 5 6 
#
# 1 0.010435 -0.006151 -0.003687 0.000000 0.000000 0.000000
# 2 -0.006151 0.020460 -0.002039 0.000000 0.000000 0.000000
# 3 -0.003687 -0.002039 0.012329 0.000000 0.000000 0.000000
# 4 0.000000 0.000000 0.000000 0.009075 0.000000 0.000000
# 5 0.000000 0.000000 0.000000 0.000000 0.027597 0.000000
# 6 0.000000 0.000000 0.000000 0.000000 0.000000 0.022143
#
#
# Mechanical properties :
#
#
# Convention : Reuss Voigt Hill
#
# Bulk Modulus (GPa) = 51.35956 61.48213 56.42085
# Shear Modulus (GPa) = 37.79786 50.63051 44.21418
#
# Velocity S-wave (km/s) = 4.12809 4.77773 4.46474
# Velocity P-wave (km/s) = 6.77325 7.62593 7.21221
#
# Compressibility (1/GPa) = 0.01947057
#
# Stress axis : x y z
#
# Youngs Moduli (GPa) = 95.82903 48.87642 81.10953
#
# Poissons Ratio (x) = 0.30062 0.29903
# Poissons Ratio (y) = 0.58941 0.16541
# Poissons Ratio (z) = 0.35330 0.09967
#
# Static dielectric constant tensor:
#      x y z
#    x 1.845620 0.000000 0.000000 
#    y 0.000000 1.911680 0.000000 
#    z 0.000000 0.000000 2.090060 
# 
# From -- ./inp_files/10944.got.cif
#   From: 2010.05.17/outbox.cif.g08.bks.cpg/sg54_6_cif.got.tgz:10944.got - 2010.06.03 13:09:01.
