data_PCOD9423380
_publ_section_title
;
Structure prediction by ZEFSAII (Michael W. Deem and Ramdas Pophale) SiO2 
 PCOD9423380
Probable space group: P C C A
;
_chemical_formula_sum "Si O2"
_cell_formula_units_Z 64
_cell_length_a 21.349738
_cell_length_b 14.435913
_cell_length_c 8.992753
_cell_angle_alpha 90.000000
_cell_angle_beta 90.000000
_cell_angle_gamma 90.000000
_cell_volume 2771.593096
_symmetry_space_group_name_H-M "P C C A"
_symmetry_group_IT_number 54
_symmetry_cell_setting 'orthorhombic'
loop_
_space_group_symop_operation_xyz
x,y,z
1/2-x,-y,z
1/2+x,-y,1/2-z
-x,y,1/2-z
-x,-y,-z
1/2+x,y,-z
1/2-x,y,1/2+z
x,-y,1/2+z
loop_
_atom_site_type_symbol
_atom_site_label
_atom_site_fract_x
_atom_site_fract_y
_atom_site_fract_z
Si Si1 0.376703 0.538217 0.847448
Si Si2 0.239009 0.148503 0.569197
Si Si3 0.852019 0.975068 0.932717
Si Si4 0.560240 0.958730 0.163351
Si Si5 0.048303 0.421817 0.563584
Si Si6 0.700664 0.568498 0.393869
Si Si7 0.802674 0.261069 0.188400
Si Si8 0.949633 0.251808 0.125500
O O1 0.432586 0.571539 0.737260
O O2 0.395311 0.451499 0.951606
O O3 0.330293 0.502002 0.723150
O O4 0.345781 0.603354 0.973708
O O5 0.299037 0.093245 0.505325
O O6 0.218203 0.239708 0.479370
O O7 0.267246 0.178056 0.726827
O O8 0.181749 0.075743 0.575768
O O9 0.880686 0.947992 0.774280
O O10 0.912612 0.977530 0.036105
O O11 0.500000 0.995462 0.250000
O O12 0.542874 0.857595 0.100306
O O13 0.035791 0.317101 0.514618
O O14 0.000000 0.500000 0.500000
O O15 0.750000 0.500000 0.471742
O O16 0.718998 0.650803 0.283340
O O17 0.878376 0.262579 0.185729
O O18 0.000000 0.280840 0.250000
#
# Coordination Sequence:
#
# PCOD9423380 Si02
#       8
#     8   8   8   8   8   8   8   8
#     4  10  23  40  64  91 125 174 226 271 346 411
#     4  11  24  41  71  99 137 185 227 294 339 437
#     4  11  21  44  70 102 137 181 237 273 369 421
#     4  11  23  41  70 101 139 180 226 288 350 429
#     4  11  22  42  69  98 127 175 232 288 345 415
#     4  11  25  42  64  95 134 181 224 284 346 417
#     4  12  25  45  64 102 139 181 238 287 355 408
#     4  11  23  43  69  97 136 181 230 294 351 416
#
# _framework density 23.091411999999998
#
# number of rings (size 3 to 8) (size 9 to 14) (size 15 to 20)
#    0.000    1.000    3.750    2.625    5.250    2.000 
#    0.000    0.000    0.000    1.500    0.000    0.000 
#    0.000    0.000    0.000    0.000    0.000    0.000 
#
# Total GULP energy -356826.948391 kJ/mol
# GULP energy per Si atom -5575.421069 kJ/mol
# Density = 2.303885 g / cm^3
# Si number density = 23.091412 Si / 1000 Ang^3
#
#
#
# Elastic Constant Matrix: (Units=GPa)
#
#
# Indices 1 2 3 4 5 6 
#
# 1 84.1250 13.3777 26.0004 0.0000 0.0000 0.0000
# 2 13.3777 50.0013 19.8499 0.0000 0.0000 0.0000
# 3 26.0004 19.8499 103.0488 0.0000 0.0000 0.0000
# 4 0.0000 0.0000 0.0000 18.5251 0.0000 0.0000
# 5 0.0000 0.0000 0.0000 0.0000 36.8104 0.0000
# 6 0.0000 0.0000 0.0000 0.0000 0.0000 13.2970
#
#
#
# Elastic Compliance Matrix: (Units=1/GPa)
#
#
# Indices 1 2 3 4 5 6 
#
# 1 0.013150 -0.002383 -0.002859 0.000000 0.000000 0.000000
# 2 -0.002383 0.022087 -0.003653 0.000000 0.000000 0.000000
# 3 -0.002859 -0.003653 0.011129 0.000000 0.000000 0.000000
# 4 0.000000 0.000000 0.000000 0.053981 0.000000 0.000000
# 5 0.000000 0.000000 0.000000 0.000000 0.027166 0.000000
# 6 0.000000 0.000000 0.000000 0.000000 0.000000 0.075205
#
#
# Mechanical properties :
#
#
# Convention : Reuss Voigt Hill
#
# Bulk Modulus (GPa) = 34.99485 39.51457 37.25471
# Shear Modulus (GPa) = 21.73594 25.58964 23.66279
#
# Velocity S-wave (km/s) = 3.07139 3.33256 3.20464
# Velocity P-wave (km/s) = 5.26932 5.65308 5.46457
#
# Compressibility (1/GPa) = 0.02857563
#
# Stress axis : x y z
#
# Youngs Moduli (GPa) = 76.04787 45.27464 89.85413
#
# Poissons Ratio (x) = 0.10790 0.25687
# Poissons Ratio (y) = 0.18124 0.32826
# Poissons Ratio (z) = 0.21740 0.16540
#
# Static dielectric constant tensor:
#      x y z
#    x 2.030670 0.000000 0.000000 
#    y 0.000000 1.890630 0.000000 
#    z 0.000000 0.000000 1.890100 
# 
# From -- ./inp_files/5319.got.cif
#   From: 2010.05.17/outbox.cif.g08.bks.cpg/sg54_3_cif.got.tgz:5319.got - 2010.06.03 13:09:01.
