data_PCOD9423954
_publ_section_title
;
Structure prediction by ZEFSAII (Michael W. Deem and Ramdas Pophale) SiO2 
 PCOD9423954
Probable space group: P C C A
;
_chemical_formula_sum "Si O2"
_cell_formula_units_Z 40
_cell_length_a 20.200514
_cell_length_b 5.151481
_cell_length_c 17.633702
_cell_angle_alpha 90.000000
_cell_angle_beta 90.000000
_cell_angle_gamma 90.000000
_cell_volume 1835.008244
_symmetry_space_group_name_H-M "P C C A"
_symmetry_group_IT_number 54
_symmetry_cell_setting 'orthorhombic'
loop_
_space_group_symop_operation_xyz
x,y,z
1/2-x,-y,z
1/2+x,-y,1/2-z
-x,y,1/2-z
-x,-y,-z
1/2+x,y,-z
1/2-x,y,1/2+z
x,-y,1/2+z
loop_
_atom_site_type_symbol
_atom_site_label
_atom_site_fract_x
_atom_site_fract_y
_atom_site_fract_z
Si Si1 0.501510 0.320069 0.661943
Si Si2 0.273628 0.750067 0.869893
Si Si3 0.115159 0.196154 0.059173
Si Si4 0.196992 0.306465 0.533280
Si Si5 0.428392 0.824651 0.900344
O O1 0.500000 0.384824 0.750000
O O2 0.429614 0.231316 0.632333
O O3 0.527541 0.574094 0.617998
O O4 0.548912 0.074855 0.646414
O O5 0.250000 0.500000 0.826630
O O6 0.351224 0.760794 0.883940
O O7 0.250000 0.000000 0.826799
O O8 0.229189 0.743737 0.949145
O O9 0.137564 0.485784 0.033272
O O10 0.171970 0.971864 0.063838
O O11 0.070804 0.102610 0.988771
O O12 0.250000 0.500000 0.573880
#
# Coordination Sequence:
#
# PCOD9423954 Si02
#       5
#     8   8   8   8   8
#     4  12  28  45  61  91 140 180 218 265 326 388
#     4  11  18  34  61  99 127 150 195 275 335 361
#     4  12  22  39  68 100 127 167 220 274 321 389
#     4  11  19  35  63 103 133 154 197 281 345 367
#     4  12  22  41  70  96 124 169 225 273 323 386
#
# _framework density 21.798268
#
# number of rings (size 3 to 8) (size 9 to 14) (size 15 to 20)
#    0.000    0.400    6.000    6.000    0.000    0.000 
#    0.000    0.000    0.000   12.000    0.000    0.000 
#    0.000    0.000    0.000    0.000    0.000    0.000 
#
# Total GULP energy -223080.901004 kJ/mol
# GULP energy per Si atom -5577.022525 kJ/mol
# Density = 2.174865 g / cm^3
# Si number density = 21.798268 Si / 1000 Ang^3
#
#
#
# Elastic Constant Matrix: (Units=GPa)
#
#
# Indices 1 2 3 4 5 6 
#
# 1 73.3352 25.7818 18.0881 0.0000 0.0000 0.0000
# 2 25.7818 168.9188 1.0237 0.0000 0.0000 0.0000
# 3 18.0881 1.0237 42.2799 0.0000 0.0000 0.0000
# 4 0.0000 0.0000 0.0000 9.6360 0.0000 0.0000
# 5 0.0000 0.0000 0.0000 0.0000 -47.2443 0.0000
# 6 0.0000 0.0000 0.0000 0.0000 0.0000 73.3916
#
#
#
# Elastic Compliance Matrix: (Units=1/GPa)
#
#
# Indices 1 2 3 4 5 6 
#
# 1 0.016183 -0.002428 -0.006865 0.000000 0.000000 0.000000
# 2 -0.002428 0.006285 0.000887 0.000000 0.000000 0.000000
# 3 -0.006865 0.000887 0.026567 0.000000 0.000000 0.000000
# 4 0.000000 0.000000 0.000000 0.103778 0.000000 0.000000
# 5 0.000000 0.000000 0.000000 0.000000 -0.021167 0.000000
# 6 0.000000 0.000000 0.000000 0.000000 0.000000 0.013626
#
#
# Mechanical properties :
#
#
# Convention : Reuss Voigt Hill
#
# Bulk Modulus (GPa) = 31.03374 41.59123 36.31248
# Shear Modulus (GPa) = 28.93092 23.13268 26.03180
#
# Velocity S-wave (km/s) = 3.64704 3.26117 3.45949
# Velocity P-wave (km/s) = 5.65705 5.77077 5.71419
#
# Compressibility (1/GPa) = 0.03222299
#
# Stress axis : x y z
#
# Youngs Moduli (GPa) = 61.79373 159.10218 37.64040
#
# Poissons Ratio (x) = 0.38636 0.25838
# Poissons Ratio (y) = 0.15006 -0.03338
# Poissons Ratio (z) = 0.42418 -0.14108
#
# Static dielectric constant tensor:
#      x y z
#    x 1.903410 0.000000 0.000000 
#    y 0.000000 1.933700 0.000000 
#    z 0.000000 0.000000 1.768930 
# 
# From -- ./inp_files/22007.got.cif
#   From: 2010.05.17/outbox.cif.g08.bks.cpg/sg54_12_cif.got.tgz:22007.got - 2010.06.03 13:09:01.
