data_PCOD9423185
_publ_section_title
;
Structure prediction by ZEFSAII (Michael W. Deem and Ramdas Pophale) SiO2 
 PCOD9423185
Probable space group: P C C A
;
_chemical_formula_sum "Si O2"
_cell_formula_units_Z 40
_cell_length_a 13.825686
_cell_length_b 13.358432
_cell_length_c 9.322969
_cell_angle_alpha 90.000000
_cell_angle_beta 90.000000
_cell_angle_gamma 90.000000
_cell_volume 1721.854355
_symmetry_space_group_name_H-M "P C C A"
_symmetry_group_IT_number 54
_symmetry_cell_setting 'orthorhombic'
loop_
_space_group_symop_operation_xyz
x,y,z
1/2-x,-y,z
1/2+x,-y,1/2-z
-x,y,1/2-z
-x,-y,-z
1/2+x,y,-z
1/2-x,y,1/2+z
x,-y,1/2+z
loop_
_atom_site_type_symbol
_atom_site_label
_atom_site_fract_x
_atom_site_fract_y
_atom_site_fract_z
Si Si1 0.473462 0.207313 0.095140
Si Si2 0.689083 0.908392 0.175507
Si Si3 0.750000 0.500000 0.250575
Si Si4 0.000000 0.015616 0.750000
Si Si5 0.680569 0.632110 0.000481
Si Si6 0.320466 0.202467 0.544946
O O1 0.500000 0.255327 0.250000
O O2 0.444101 0.094895 0.146613
O O3 0.570485 0.190821 0.005763
O O4 0.398702 0.279772 0.016026
O O5 0.750802 0.874397 0.039073
O O6 0.689919 0.817692 0.287534
O O7 0.750000 0.000000 0.238558
O O8 0.579386 0.948614 0.169795
O O9 0.683732 0.566985 0.144354
O O10 0.817156 0.564060 0.358280
O O11 0.783349 0.688772 0.996181
#
# Coordination Sequence:
#
# PCOD9423185 Si02
#       6
#     8   8   4   4   8   8
#     4  10  22  43  65 100 144 182 228 293 349 407
#     4  12  24  42  66 101 144 190 244 274 332 403
#     4  10  24  46  78 102 128 182 234 300 360 454
#     4  10  24  42  64 104 144 192 238 282 326 418
#     4  11  23  47  72 100 139 175 233 292 368 421
#     4  12  25  43  69 100 142 192 223 297 348 409
#
# _framework density 23.230768999999999
#
# number of rings (size 3 to 8) (size 9 to 14) (size 15 to 20)
#    0.600    0.400    2.000    5.400    2.800    0.800 
#    0.000   11.000    0.000    0.000    0.000    0.000 
#    0.000    0.000    0.000    0.000    0.000    0.000 
#
# Total GULP energy -223551.235873 kJ/mol
# GULP energy per Si atom -5588.780897 kJ/mol
# Density = 2.317789 g / cm^3
# Si number density = 23.230769 Si / 1000 Ang^3
#
#
#
# Elastic Constant Matrix: (Units=GPa)
#
#
# Indices 1 2 3 4 5 6 
#
# 1 125.2468 43.1102 40.6732 0.0000 0.0000 0.0000
# 2 43.1102 90.8182 38.6257 0.0000 0.0000 0.0000
# 3 40.6732 38.6257 115.2775 0.0000 0.0000 0.0000
# 4 0.0000 0.0000 0.0000 15.6907 0.0000 0.0000
# 5 0.0000 0.0000 0.0000 0.0000 61.6331 0.0000
# 6 0.0000 0.0000 0.0000 0.0000 0.0000 39.5356
#
#
#
# Elastic Compliance Matrix: (Units=1/GPa)
#
#
# Indices 1 2 3 4 5 6 
#
# 1 0.010027 -0.003796 -0.002266 0.000000 0.000000 0.000000
# 2 -0.003796 0.014278 -0.003445 0.000000 0.000000 0.000000
# 3 -0.002266 -0.003445 0.010628 0.000000 0.000000 0.000000
# 4 0.000000 0.000000 0.000000 0.063732 0.000000 0.000000
# 5 0.000000 0.000000 0.000000 0.000000 0.016225 0.000000
# 6 0.000000 0.000000 0.000000 0.000000 0.000000 0.025294
#
#
# Mechanical properties :
#
#
# Convention : Reuss Voigt Hill
#
# Bulk Modulus (GPa) = 62.81384 64.01789 63.41586
# Shear Modulus (GPa) = 30.39454 37.30077 33.84766
#
# Velocity S-wave (km/s) = 3.62107 4.01142 3.82123
# Velocity P-wave (km/s) = 6.67687 7.00518 6.84299
#
# Compressibility (1/GPa) = 0.01592006
#
# Stress axis : x y z
#
# Youngs Moduli (GPa) = 99.73500 70.03817 94.08757
#
# Poissons Ratio (x) = 0.26585 0.21318
# Poissons Ratio (y) = 0.37858 0.32411
# Poissons Ratio (z) = 0.22598 0.24127
#
# Static dielectric constant tensor:
#      x y z
#    x 1.864330 0.000000 0.000000 
#    y 0.000000 1.911680 0.000000 
#    z 0.000000 0.000000 1.920250 
# 
# From -- ./inp_files/3456.got.cif
#   From: 2010.05.17/outbox.cif.g08.bks.cpg/sg54_2_cif.got.tgz:3456.got - 2010.06.03 13:09:01.
