data_PCOD9423042
_publ_section_title
;
Structure prediction by ZEFSAII (Michael W. Deem and Ramdas Pophale) SiO2 
 PCOD9423042
Probable space group: P C C A
;
_chemical_formula_sum "Si O2"
_cell_formula_units_Z 64
_cell_length_a 8.972943
_cell_length_b 18.965961
_cell_length_c 18.195896
_cell_angle_alpha 90.000000
_cell_angle_beta 90.000000
_cell_angle_gamma 90.000000
_cell_volume 3096.586443
_symmetry_space_group_name_H-M "P C C A"
_symmetry_group_IT_number 54
_symmetry_cell_setting 'orthorhombic'
loop_
_space_group_symop_operation_xyz
x,y,z
1/2-x,-y,z
1/2+x,-y,1/2-z
-x,y,1/2-z
-x,-y,-z
1/2+x,y,-z
1/2-x,y,1/2+z
x,-y,1/2+z
loop_
_atom_site_type_symbol
_atom_site_label
_atom_site_fract_x
_atom_site_fract_y
_atom_site_fract_z
Si Si1 0.296014 0.922653 0.957308
Si Si2 0.162952 0.723935 0.433614
Si Si3 0.001193 0.388358 0.662396
Si Si4 0.812956 0.333301 0.402762
Si Si5 0.926411 0.480862 0.422288
Si Si6 0.914683 0.845465 0.435178
Si Si7 0.643882 0.164466 0.652067
Si Si8 0.177228 0.811482 0.676328
O O1 0.470118 0.908437 0.949470
O O2 0.228724 0.903551 0.877925
O O3 0.250000 0.000000 0.981128
O O4 0.220441 0.864065 0.010232
O O5 0.204177 0.695165 0.514021
O O6 0.291449 0.769362 0.393888
O O7 0.118822 0.659581 0.379992
O O8 0.018205 0.775804 0.443128
O O9 0.157940 0.362227 0.628839
O O10 0.995035 0.470149 0.638438
O O11 0.000000 0.379382 0.750000
O O12 0.929319 0.397706 0.405549
O O13 0.850393 0.268440 0.350062
O O14 0.750000 0.500000 0.426324
O O15 0.000000 0.500000 0.500000
O O16 0.831985 0.837662 0.357640
O O17 0.468435 0.150704 0.643228
O O18 0.674912 0.180221 0.736821
#
# Coordination Sequence:
#
# PCOD9423042 Si02
#       8
#     8   8   8   8   8   8   8   8
#     4  11  23  42  64  93 130 170 215 268 335 417
#     4  11  22  36  69  95 125 172 217 282 331 407
#     4  11  23  41  64  94 132 170 221 280 338 407
#     4  11  22  38  68  91 128 170 223 270 341 400
#     4  10  22  41  60  90 127 168 215 269 324 411
#     4  11  23  38  67  96 128 165 219 276 329 399
#     4  10  24  40  61  94 133 166 223 276 338 395
#     4  11  22  41  61  93 133 169 218 286 329 399
#
# _framework density 20.667918
#
# number of rings (size 3 to 8) (size 9 to 14) (size 15 to 20)
#    0.000    1.250    2.500    4.125    1.750    1.500 
#    2.250    5.000    0.000    0.000    0.000    0.000 
#    0.000    0.000    0.000    0.000    0.000    0.000 
#
# Total GULP energy -357386.873937 kJ/mol
# GULP energy per Si atom -5584.169905 kJ/mol
# Density = 2.062088 g / cm^3
# Si number density = 20.667918 Si / 1000 Ang^3
#
#
#
# Elastic Constant Matrix: (Units=GPa)
#
#
# Indices 1 2 3 4 5 6 
#
# 1 54.8902 -7.9722 17.2708 0.0000 0.0000 0.0000
# 2 -7.9722 36.9427 11.8159 0.0000 0.0000 0.0000
# 3 17.2708 11.8159 111.2683 0.0000 0.0000 0.0000
# 4 0.0000 0.0000 0.0000 18.0779 0.0000 0.0000
# 5 0.0000 0.0000 0.0000 0.0000 33.1107 0.0000
# 6 0.0000 0.0000 0.0000 0.0000 0.0000 -14.4525
#
#
#
# Elastic Compliance Matrix: (Units=1/GPa)
#
#
# Indices 1 2 3 4 5 6 
#
# 1 0.020196 0.005549 -0.003724 0.000000 0.000000 0.000000
# 2 0.005549 0.029545 -0.003999 0.000000 0.000000 0.000000
# 3 -0.003724 -0.003999 0.009990 0.000000 0.000000 0.000000
# 4 0.000000 0.000000 0.000000 0.055316 0.000000 0.000000
# 5 0.000000 0.000000 0.000000 0.000000 0.030202 0.000000
# 6 0.000000 0.000000 0.000000 0.000000 0.000000 -0.069192
#
#
# Mechanical properties :
#
#
# Convention : Reuss Voigt Hill
#
# Bulk Modulus (GPa) = 18.05569 27.25893 22.65731
# Shear Modulus (GPa) = 50.57367 19.47966 35.02666
#
# Velocity S-wave (km/s) = 4.95205 3.07336 4.12118
# Velocity P-wave (km/s) = 6.43833 5.08052 5.79930
#
# Compressibility (1/GPa) = 0.05538421
#
# Stress axis : x y z
#
# Youngs Moduli (GPa) = 49.51497 33.84613 100.10029
#
# Poissons Ratio (x) = -0.18782 0.37278
# Poissons Ratio (y) = -0.27478 0.40029
# Poissons Ratio (z) = 0.18440 0.13535
#
# Static dielectric constant tensor:
#      x y z
#    x 1.794630 0.000000 0.000000 
#    y 0.000000 1.781900 0.000000 
#    z 0.000000 0.000000 1.719930 
# 
# From -- ./inp_files/16868.got.cif
#   From: 2010.05.17/outbox.cif.g08.bks.cpg/sg54_9_cif.got.tgz:16868.got - 2010.06.03 13:09:01.
