data_PCOD9423783
_publ_section_title
;
Structure prediction by ZEFSAII (Michael W. Deem and Ramdas Pophale) SiO2 
 PCOD9423783
Probable space group: P C C A
;
_chemical_formula_sum "Si O2"
_cell_formula_units_Z 48
_cell_length_a 17.294774
_cell_length_b 8.287816
_cell_length_c 13.426984
_cell_angle_alpha 90.000000
_cell_angle_beta 90.000000
_cell_angle_gamma 90.000000
_cell_volume 1924.568899
_symmetry_space_group_name_H-M "P C C A"
_symmetry_group_IT_number 54
_symmetry_cell_setting 'orthorhombic'
loop_
_space_group_symop_operation_xyz
x,y,z
1/2-x,-y,z
1/2+x,-y,1/2-z
-x,y,1/2-z
-x,-y,-z
1/2+x,y,-z
1/2-x,y,1/2+z
x,-y,1/2+z
loop_
_atom_site_type_symbol
_atom_site_label
_atom_site_fract_x
_atom_site_fract_y
_atom_site_fract_z
Si Si1 0.573824 0.275785 0.945705
Si Si2 0.081370 0.997023 0.705121
Si Si3 0.242886 0.663545 0.027670
Si Si4 0.198870 0.161631 0.345766
Si Si5 0.170465 0.664787 0.233401
Si Si6 0.036375 0.556540 0.351037
O O1 0.565968 0.099071 0.897572
O O2 0.668592 0.287170 0.948481
O O3 0.518999 0.405868 0.884244
O O4 0.545453 0.318828 0.057656
O O5 0.123517 0.873370 0.781509
O O6 0.000000 0.034135 0.750000
O O7 0.130261 0.161008 0.709805
O O8 0.250000 0.500000 0.966914
O O9 0.191872 0.612559 0.122593
O O10 0.194678 0.787319 0.960653
O O11 0.250887 0.288643 0.287373
O O12 0.250000 0.000000 0.346249
O O13 0.122603 0.543868 0.304358
O O14 0.000000 0.622071 0.250000
#
# Coordination Sequence:
#
# PCOD9423783 Si02
#       6
#     8   8   8   8   8   8
#     4  11  25  45  73 107 150 202 251 312 379 467
#     4  11  25  45  75 110 146 200 251 314 388 449
#     4  12  26  42  72 112 145 202 254 305 384 455
#     4  10  24  45  75 105 148 196 249 322 373 454
#     4  11  24  47  74 107 151 194 255 315 374 459
#     4  11  24  45  71 105 155 195 241 319 385 447
#
# _framework density 24.940650999999999
#
# number of rings (size 3 to 8) (size 9 to 14) (size 15 to 20)
#    0.000    1.000    3.333    2.000    2.333    6.000 
#    0.000    2.500    0.000    0.000    0.000    0.000 
#    0.000    0.000    0.000    0.000    0.000    0.000 
#
# Total GULP energy -267784.948032 kJ/mol
# GULP energy per Si atom -5578.853084 kJ/mol
# Density = 2.488388 g / cm^3
# Si number density = 24.940651 Si / 1000 Ang^3
#
#
#
# Elastic Constant Matrix: (Units=GPa)
#
#
# Indices 1 2 3 4 5 6 
#
# 1 100.5260 36.5317 39.0630 0.0000 0.0000 0.0000
# 2 36.5317 70.0979 32.9512 0.0000 0.0000 0.0000
# 3 39.0630 32.9512 157.8818 0.0000 0.0000 0.0000
# 4 0.0000 0.0000 0.0000 -4.6148 0.0000 0.0000
# 5 0.0000 0.0000 0.0000 0.0000 20.7215 0.0000
# 6 0.0000 0.0000 0.0000 0.0000 0.0000 32.9998
#
#
#
# Elastic Compliance Matrix: (Units=1/GPa)
#
#
# Indices 1 2 3 4 5 6 
#
# 1 0.012800 -0.005746 -0.001968 0.000000 0.000000 0.000000
# 2 -0.005746 0.018397 -0.002418 0.000000 0.000000 0.000000
# 3 -0.001968 -0.002418 0.007325 0.000000 0.000000 0.000000
# 4 0.000000 0.000000 0.000000 -0.216692 0.000000 0.000000
# 5 0.000000 0.000000 0.000000 0.000000 0.048259 0.000000
# 6 0.000000 0.000000 0.000000 0.000000 0.000000 0.030303
#
#
# Mechanical properties :
#
#
# Convention : Reuss Voigt Hill
#
# Bulk Modulus (GPa) = 54.76672 60.62195 57.69434
# Shear Modulus (GPa) = -68.25283 24.48528 -21.88377
#
# Velocity S-wave (km/s) = -5.23694 3.13668 -2.96536
# Velocity P-wave (km/s) = 3.81587 6.12189 3.38502
#
# Compressibility (1/GPa) = 0.01825926
#
# Stress axis : x y z
#
# Youngs Moduli (GPa) = 78.12216 54.35703 136.51176
#
# Poissons Ratio (x) = 0.31233 0.26863
# Poissons Ratio (y) = 0.44889 0.33007
# Poissons Ratio (z) = 0.15373 0.13143
#
# Static dielectric constant tensor:
#      x y z
#    x 2.678380 0.000000 0.000000 
#    y 0.000000 2.042150 0.000000 
#    z 0.000000 0.000000 1.996170 
# 
# From -- ./inp_files/14107.got.cif
#   From: 2010.05.17/outbox.cif.g08.bks.cpg/sg54_8_cif.got.tgz:14107.got - 2010.06.03 13:09:01.
