data_PCOD9423271
_publ_section_title
;
Structure prediction by ZEFSAII (Michael W. Deem and Ramdas Pophale) SiO2 
 PCOD9423271
Probable space group: P C C A
;
_chemical_formula_sum "Si O2"
_cell_formula_units_Z 20
_cell_length_a 8.060766
_cell_length_b 5.055644
_cell_length_c 18.876816
_cell_angle_alpha 90.000000
_cell_angle_beta 90.000000
_cell_angle_gamma 90.000000
_cell_volume 769.274863
_symmetry_space_group_name_H-M "P C C A"
_symmetry_group_IT_number 54
_symmetry_cell_setting 'orthorhombic'
loop_
_space_group_symop_operation_xyz
x,y,z
1/2-x,-y,z
1/2+x,-y,1/2-z
-x,y,1/2-z
-x,-y,-z
1/2+x,y,-z
1/2-x,y,1/2+z
x,-y,1/2+z
loop_
_atom_site_type_symbol
_atom_site_label
_atom_site_fract_x
_atom_site_fract_y
_atom_site_fract_z
Si Si1 0.750000 0.000000 0.977512
Si Si2 0.250000 0.000000 0.757442
Si Si3 0.978230 0.839670 0.353547
Si Si4 0.750000 0.500000 0.580210
O O1 0.903962 0.027385 0.923448
O O2 0.764013 0.252569 0.027411
O O3 0.171166 0.209460 0.702113
O O4 0.099728 0.959593 0.811981
O O5 0.091053 0.589592 0.373580
#
# Coordination Sequence:
#
# PCOD9423271 Si02
#       4
#     4   4   8   4
#     4  11  25  44  74 110 151 201 256 318 388 465
#     4   9  21  46  72 104 145 201 258 314 376 451
#     4  10  22  44  73 106 150 200 257 317 382 457
#     4  12  24  44  74 112 152 200 256 320 388 464
#
# _framework density 25.998511000000001
#
# number of rings (size 3 to 8) (size 9 to 14) (size 15 to 20)
#    0.000    1.600    0.000    3.600    0.000    3.200 
#    0.000   34.000    0.000    0.000    0.000    0.000 
#    0.000    0.000    0.000    0.000    0.000    0.000 
#
# Total GULP energy -111721.228160 kJ/mol
# GULP energy per Si atom -5586.061408 kJ/mol
# Density = 2.593934 g / cm^3
# Si number density = 25.998511 Si / 1000 Ang^3
#
#
#
# Elastic Constant Matrix: (Units=GPa)
#
#
# Indices 1 2 3 4 5 6 
#
# 1 154.3302 106.0605 96.2986 0.0000 0.0000 0.0000
# 2 106.0605 178.7705 115.3311 0.0000 0.0000 0.0000
# 3 96.2986 115.3311 214.1470 0.0000 0.0000 0.0000
# 4 0.0000 0.0000 0.0000 79.9143 0.0000 0.0000
# 5 0.0000 0.0000 0.0000 0.0000 72.9879 0.0000
# 6 0.0000 0.0000 0.0000 0.0000 0.0000 43.0086
#
#
#
# Elastic Compliance Matrix: (Units=1/GPa)
#
#
# Indices 1 2 3 4 5 6 
#
# 1 0.011649 -0.005412 -0.002324 0.000000 0.000000 0.000000
# 2 -0.005412 0.011086 -0.003537 0.000000 0.000000 0.000000
# 3 -0.002324 -0.003537 0.007620 0.000000 0.000000 0.000000
# 4 0.000000 0.000000 0.000000 0.012513 0.000000 0.000000
# 5 0.000000 0.000000 0.000000 0.000000 0.013701 0.000000
# 6 0.000000 0.000000 0.000000 0.000000 0.000000 0.023251
#
#
# Mechanical properties :
#
#
# Convention : Reuss Voigt Hill
#
# Bulk Modulus (GPa) = 128.04913 131.40312 129.72612
# Shear Modulus (GPa) = 47.63342 54.48599 51.05970
#
# Velocity S-wave (km/s) = 4.28502 4.58289 4.43645
# Velocity P-wave (km/s) = 8.59309 8.86883 8.73205
#
# Compressibility (1/GPa) = 0.00780950
#
# Stress axis : x y z
#
# Youngs Moduli (GPa) = 85.84646 90.20075 131.24205
#
# Poissons Ratio (x) = 0.48815 0.30496
# Poissons Ratio (y) = 0.46459 0.46421
# Poissons Ratio (z) = 0.19948 0.31905
#
# Static dielectric constant tensor:
#      x y z
#    x 2.208670 0.000000 0.000000 
#    y 0.000000 1.992940 0.000000 
#    z 0.000000 0.000000 2.049200 
# 
# From -- ./inp_files/16076.got.cif
#   From: 2010.05.17/outbox.cif.g08.bks.cpg/sg54_9_cif.got.tgz:16076.got - 2010.06.03 13:09:01.
