data_PCOD9423699
_publ_section_title
;
Structure prediction by ZEFSAII (Michael W. Deem and Ramdas Pophale) SiO2 
 PCOD9423699
Probable space group: P C C A
;
_chemical_formula_sum "Si O2"
_cell_formula_units_Z 48
_cell_length_a 8.029755
_cell_length_b 18.346508
_cell_length_c 14.395937
_cell_angle_alpha 90.000000
_cell_angle_beta 90.000000
_cell_angle_gamma 90.000000
_cell_volume 2120.780134
_symmetry_space_group_name_H-M "P C C A"
_symmetry_group_IT_number 54
_symmetry_cell_setting 'orthorhombic'
loop_
_space_group_symop_operation_xyz
x,y,z
1/2-x,-y,z
1/2+x,-y,1/2-z
-x,y,1/2-z
-x,-y,-z
1/2+x,y,-z
1/2-x,y,1/2+z
x,-y,1/2+z
loop_
_atom_site_type_symbol
_atom_site_label
_atom_site_fract_x
_atom_site_fract_y
_atom_site_fract_z
Si Si1 0.885781 0.446228 0.059269
Si Si2 0.786338 0.376247 0.377527
Si Si3 0.147208 0.231761 0.890004
Si Si4 0.500000 0.116430 0.750000
Si Si5 0.333825 0.066712 0.309996
Si Si6 0.000000 0.650592 0.250000
Si Si7 0.524894 0.237003 0.902980
O O1 0.750000 0.500000 0.105150
O O2 0.026146 0.409313 0.123362
O O3 0.793852 0.396951 0.978905
O O4 0.000000 0.500000 0.000000
O O5 0.651340 0.393932 0.297899
O O6 0.832638 0.291112 0.366652
O O7 0.145138 0.148216 0.852756
O O8 0.058173 0.293503 0.829835
O O9 0.334760 0.262140 0.896252
O O10 0.065862 0.226350 0.990318
O O11 0.672186 0.074498 0.754059
O O12 0.516175 0.166044 0.840515
O O13 0.500000 0.054754 0.250000
O O14 0.250000 0.000000 0.372206
#
# Coordination Sequence:
#
# PCOD9423699 Si02
#       7
#     8   8   8   4   8   4   8
#     4   9  20  40  68  96 128 175 230 277 333 400
#     4  11  21  38  67 100 133 180 225 283 347 417
#     4  11  24  40  63  98 135 176 222 292 352 409
#     4  10  24  43  64  99 130 176 220 294 358 404
#     4  11  22  41  66  90 132 187 232 278 345 419
#     4  12  24  39  64 103 142 176 226 286 354 406
#     4  11  23  40  66  98 133 167 226 286 357 414
#
# _framework density 22.633179999999999
#
# number of rings (size 3 to 8) (size 9 to 14) (size 15 to 20)
#    0.000    1.333    1.667    5.000    2.333    1.333 
#    0.000    4.167    0.000   42.000    0.000    0.000 
#    0.000    0.000    0.000    0.000    0.000    0.000 
#
# Total GULP energy -267369.780603 kJ/mol
# GULP energy per Si atom -5570.203763 kJ/mol
# Density = 2.258167 g / cm^3
# Si number density = 22.633180 Si / 1000 Ang^3
#
#
#
# Elastic Constant Matrix: (Units=GPa)
#
#
# Indices 1 2 3 4 5 6 
#
# 1 192.9066 44.3561 48.7896 0.0000 0.0000 0.0000
# 2 44.3561 50.5425 6.3959 0.0000 0.0000 0.0000
# 3 48.7896 6.3959 75.2415 0.0000 0.0000 0.0000
# 4 0.0000 0.0000 0.0000 0.8547 0.0000 0.0000
# 5 0.0000 0.0000 0.0000 0.0000 28.8153 0.0000
# 6 0.0000 0.0000 0.0000 0.0000 0.0000 41.2113
#
#
#
# Elastic Compliance Matrix: (Units=1/GPa)
#
#
# Indices 1 2 3 4 5 6 
#
# 1 0.007756 -0.006237 -0.004499 0.000000 0.000000 0.000000
# 2 -0.006237 0.025016 0.001918 0.000000 0.000000 0.000000
# 3 -0.004499 0.001918 0.016045 0.000000 0.000000 0.000000
# 4 0.000000 0.000000 0.000000 1.170045 0.000000 0.000000
# 5 0.000000 0.000000 0.000000 0.000000 0.034704 0.000000
# 6 0.000000 0.000000 0.000000 0.000000 0.000000 0.024265
#
#
# Mechanical properties :
#
#
# Convention : Reuss Voigt Hill
#
# Bulk Modulus (GPa) = 32.07131 57.53042 44.80087
# Shear Modulus (GPa) = 3.82889 28.78618 16.30754
#
# Velocity S-wave (km/s) = 1.30207 3.57018 2.68715
# Velocity P-wave (km/s) = 4.05726 6.51680 5.42817
#
# Compressibility (1/GPa) = 0.03118052
#
# Stress axis : x y z
#
# Youngs Moduli (GPa) = 128.93399 39.97376 62.32526
#
# Poissons Ratio (x) = 0.24933 0.28040
# Poissons Ratio (y) = 0.80419 -0.11954
# Poissons Ratio (z) = 0.58008 -0.07667
#
# Static dielectric constant tensor:
#      x y z
#    x 1.875920 0.000000 0.000000 
#    y 0.000000 2.056320 0.000000 
#    z 0.000000 0.000000 1.775780 
# 
# From -- ./inp_files/11785.got.cif
#   From: 2010.05.17/outbox.cif.g08.bks.cpg/sg54_6_cif.got.tgz:11785.got - 2010.06.03 13:09:01.
