data_PCOD9423556
_publ_section_title
;
Structure prediction by ZEFSAII (Michael W. Deem and Ramdas Pophale) SiO2 
 PCOD9423556
Probable space group: P C C A
;
_chemical_formula_sum "Si O2"
_cell_formula_units_Z 32
_cell_length_a 13.719055
_cell_length_b 5.696579
_cell_length_c 17.987106
_cell_angle_alpha 90.000000
_cell_angle_beta 90.000000
_cell_angle_gamma 90.000000
_cell_volume 1405.722563
_symmetry_space_group_name_H-M "P C C A"
_symmetry_group_IT_number 54
_symmetry_cell_setting 'orthorhombic'
loop_
_space_group_symop_operation_xyz
x,y,z
1/2-x,-y,z
1/2+x,-y,1/2-z
-x,y,1/2-z
-x,-y,-z
1/2+x,y,-z
1/2-x,y,1/2+z
x,-y,1/2+z
loop_
_atom_site_type_symbol
_atom_site_label
_atom_site_fract_x
_atom_site_fract_y
_atom_site_fract_z
Si Si1 0.139210 0.265648 0.738240
Si Si2 0.466492 0.795816 0.444900
Si Si3 0.364373 0.529494 0.576899
Si Si4 0.863756 0.230120 0.205987
O O1 0.130382 0.313492 0.650696
O O2 0.098903 0.503156 0.778188
O O3 0.250721 0.251436 0.768666
O O4 0.100736 0.004135 0.752229
O O5 0.410159 0.625862 0.501438
O O6 0.566088 0.694116 0.409041
O O7 0.390173 0.835501 0.378651
O O8 0.500000 0.000000 0.500000
O O9 0.250000 0.500000 0.564937
#
# Coordination Sequence:
#
# PCOD9423556 Si02
#       4
#     8   8   8   8
#     4  10  23  46  74 112 144 204 251 316 379 457
#     4  11  29  47  74 113 153 205 256 322 392 470
#     4  11  26  50  75 107 151 200 256 317 390 464
#     4  10  23  45  74 108 150 195 256 308 386 455
#
# _framework density 22.764095000000001
#
# number of rings (size 3 to 8) (size 9 to 14) (size 15 to 20)
#    0.000    1.500    2.500    0.000   14.000    4.000 
#    0.000    0.000    0.000    0.000    0.000    0.000 
#    0.000    0.000    0.000    0.000    0.000    0.000 
#
# Total GULP energy -178334.545475 kJ/mol
# GULP energy per Si atom -5572.954546 kJ/mol
# Density = 2.271228 g / cm^3
# Si number density = 22.764095 Si / 1000 Ang^3
#
#
#
# Elastic Constant Matrix: (Units=GPa)
#
#
# Indices 1 2 3 4 5 6 
#
# 1 117.0665 34.2045 68.2813 0.0000 0.0000 0.0000
# 2 34.2045 165.6604 49.8717 0.0000 0.0000 0.0000
# 3 68.2813 49.8717 149.6073 0.0000 0.0000 0.0000
# 4 0.0000 0.0000 0.0000 102.1607 0.0000 0.0000
# 5 0.0000 0.0000 0.0000 0.0000 6.2091 0.0000
# 6 0.0000 0.0000 0.0000 0.0000 0.0000 -12.2548
#
#
#
# Elastic Compliance Matrix: (Units=1/GPa)
#
#
# Indices 1 2 3 4 5 6 
#
# 1 0.011761 -0.000903 -0.005067 0.000000 0.000000 0.000000
# 2 -0.000903 0.006779 -0.001848 0.000000 0.000000 0.000000
# 3 -0.005067 -0.001848 0.009613 0.000000 0.000000 0.000000
# 4 0.000000 0.000000 0.000000 0.009788 0.000000 0.000000
# 5 0.000000 0.000000 0.000000 0.000000 0.161053 0.000000
# 6 0.000000 0.000000 0.000000 0.000000 0.000000 -0.081601
#
#
# Mechanical properties :
#
#
# Convention : Reuss Voigt Hill
#
# Bulk Modulus (GPa) = 79.88550 81.89435 80.88993
# Shear Modulus (GPa) = 36.44271 37.88813 37.16542
#
# Velocity S-wave (km/s) = 4.00545 4.08411 4.04497
# Velocity P-wave (km/s) = 7.52067 7.63500 7.57805
#
# Compressibility (1/GPa) = 0.01251792
#
# Stress axis : x y z
#
# Youngs Moduli (GPa) = 85.02413 147.51135 104.02967
#
# Poissons Ratio (x) = 0.13321 0.52711
# Poissons Ratio (y) = 0.07678 0.19221
# Poissons Ratio (z) = 0.43081 0.27255
#
# Static dielectric constant tensor:
#      x y z
#    x 1.869120 0.000000 0.000000 
#    y 0.000000 2.023640 0.000000 
#    z 0.000000 0.000000 1.952390 
# 
# From -- ./inp_files/17589.got.cif
#   From: 2010.05.17/outbox.cif.g08.bks.cpg/sg54_9_cif.got.tgz:17589.got - 2010.06.03 13:09:01.
