data_PCOD9423942
_publ_section_title
;
Structure prediction by ZEFSAII (Michael W. Deem and Ramdas Pophale) SiO2 
 PCOD9423942
Probable space group: P C C A
;
_chemical_formula_sum "Si O2"
_cell_formula_units_Z 32
_cell_length_a 15.052011
_cell_length_b 5.049717
_cell_length_c 17.164851
_cell_angle_alpha 90.000000
_cell_angle_beta 90.000000
_cell_angle_gamma 90.000000
_cell_volume 1304.672789
_symmetry_space_group_name_H-M "P C C A"
_symmetry_group_IT_number 54
_symmetry_cell_setting 'orthorhombic'
loop_
_space_group_symop_operation_xyz
x,y,z
1/2-x,-y,z
1/2+x,-y,1/2-z
-x,y,1/2-z
-x,-y,-z
1/2+x,y,-z
1/2-x,y,1/2+z
x,-y,1/2+z
loop_
_atom_site_type_symbol
_atom_site_label
_atom_site_fract_x
_atom_site_fract_y
_atom_site_fract_z
Si Si1 0.679180 0.794074 0.254656
Si Si2 0.500000 0.133700 0.250000
Si Si3 0.397428 0.576499 0.866224
Si Si4 0.900053 0.937738 0.527202
Si Si5 0.250000 0.000000 0.596235
O O1 0.660172 0.528471 0.206923
O O2 0.750000 0.000000 0.217581
O O3 0.585832 0.950217 0.255687
O O4 0.712374 0.780290 0.343508
O O5 0.512995 0.316905 0.174452
O O6 0.406178 0.322596 0.920349
O O7 0.365932 0.816873 0.920104
O O8 0.830811 0.904830 0.457273
O O9 0.000000 0.000000 0.500000
#
# Coordination Sequence:
#
# PCOD9423942 Si02
#       5
#     8   4   8   8   4
#     4  10  26  52  81 121 162 220 280 342 411 502
#     4  12  24  48  86 116 166 206 290 336 416 482
#     4  12  27  49  83 113 162 216 277 333 412 499
#     4  12  28  52  78 120 165 217 265 349 422 505
#     4  10  28  52  80 118 170 212 276 340 436 482
#
# _framework density 24.527221000000001
#
# number of rings (size 3 to 8) (size 9 to 14) (size 15 to 20)
#    0.750    0.000    2.500    3.000    5.250    4.000 
#    4.500    0.000    0.000    0.000    0.000    0.000 
#    0.000    0.000    0.000    0.000    0.000    0.000 
#
# Total GULP energy -179183.812889 kJ/mol
# GULP energy per Si atom -5599.494153 kJ/mol
# Density = 2.447140 g / cm^3
# Si number density = 24.527221 Si / 1000 Ang^3
#
#
#
# Elastic Constant Matrix: (Units=GPa)
#
#
# Indices 1 2 3 4 5 6 
#
# 1 175.9754 48.0472 66.0289 0.0000 0.0000 0.0000
# 2 48.0472 181.1149 72.1584 0.0000 0.0000 0.0000
# 3 66.0289 72.1584 178.9845 0.0000 0.0000 0.0000
# 4 0.0000 0.0000 0.0000 -1.4480 0.0000 0.0000
# 5 0.0000 0.0000 0.0000 0.0000 49.0408 0.0000
# 6 0.0000 0.0000 0.0000 0.0000 0.0000 24.1168
#
#
#
# Elastic Compliance Matrix: (Units=1/GPa)
#
#
# Indices 1 2 3 4 5 6 
#
# 1 0.006730 -0.000949 -0.002100 0.000000 0.000000 0.000000
# 2 -0.000949 0.006712 -0.002356 0.000000 0.000000 0.000000
# 3 -0.002100 -0.002356 0.007312 0.000000 0.000000 0.000000
# 4 0.000000 0.000000 0.000000 -0.690591 0.000000 0.000000
# 5 0.000000 0.000000 0.000000 0.000000 0.020391 0.000000
# 6 0.000000 0.000000 0.000000 0.000000 0.000000 0.041465
#
#
# Mechanical properties :
#
#
# Convention : Reuss Voigt Hill
#
# Bulk Modulus (GPa) = 100.56702 100.94932 100.75817
# Shear Modulus (GPa) = -8.41952 37.66461 14.62255
#
# Velocity S-wave (km/s) = -1.85477 3.92296 2.44432
# Velocity P-wave (km/s) = 6.04188 7.85919 7.00968
#
# Compressibility (1/GPa) = 0.00994362
#
# Stress axis : x y z
#
# Youngs Moduli (GPa) = 148.59662 148.99570 136.76804
#
# Poissons Ratio (x) = 0.14133 0.28724
# Poissons Ratio (y) = 0.14095 0.32221
# Poissons Ratio (z) = 0.31208 0.35102
#
# Static dielectric constant tensor:
#      x y z
#    x 1.966290 0.000000 0.000000 
#    y 0.000000 1.989780 0.000000 
#    z 0.000000 0.000000 1.961830 
# 
# From -- ./inp_files/17608.got.cif
#   From: 2010.05.17/outbox.cif.g08.bks.cpg/sg54_9_cif.got.tgz:17608.got - 2010.06.03 13:09:01.
