data_PCOD9423626
_publ_section_title
;
Structure prediction by ZEFSAII (Michael W. Deem and Ramdas Pophale) SiO2 
 PCOD9423626
Probable space group: P C C A
;
_chemical_formula_sum "Si O2"
_cell_formula_units_Z 40
_cell_length_a 8.789267
_cell_length_b 20.490018
_cell_length_c 10.224514
_cell_angle_alpha 90.000000
_cell_angle_beta 90.000000
_cell_angle_gamma 90.000000
_cell_volume 1841.355619
_symmetry_space_group_name_H-M "P C C A"
_symmetry_group_IT_number 54
_symmetry_cell_setting 'orthorhombic'
loop_
_space_group_symop_operation_xyz
x,y,z
1/2-x,-y,z
1/2+x,-y,1/2-z
-x,y,1/2-z
-x,-y,-z
1/2+x,y,-z
1/2-x,y,1/2+z
x,-y,1/2+z
loop_
_atom_site_type_symbol
_atom_site_label
_atom_site_fract_x
_atom_site_fract_y
_atom_site_fract_z
Si Si1 0.584774 0.877705 0.450458
Si Si2 0.482724 0.555013 0.891947
Si Si3 0.997803 0.737813 0.896752
Si Si4 0.257357 0.646115 0.507916
Si Si5 0.721140 0.924820 0.190329
O O1 0.543834 0.802047 0.476654
O O2 0.703533 0.886070 0.328192
O O3 0.434964 0.913277 0.392311
O O4 0.649595 0.904905 0.586084
O O5 0.500000 0.524636 0.750000
O O6 0.618084 0.607276 0.909199
O O7 0.500000 0.500000 0.000000
O O8 0.326683 0.594303 0.914478
O O9 0.873246 0.680894 0.909097
O O10 0.000000 0.762311 0.750000
O O11 0.154913 0.703905 0.934702
O O12 0.750000 0.000000 0.224957
#
# Coordination Sequence:
#
# PCOD9423626 Si02
#       5
#     8   8   8   8   8
#     4  11  24  42  65  97 127 176 218 270 333 382
#     4  11  24  43  66  99 131 168 214 259 321 382
#     4  11  21  41  64  88 130 165 221 265 319 386
#     4  10  24  40  65  94 127 172 211 267 318 376
#     4  11  23  42  65  95 133 168 221 271 329 393
#
# _framework density 21.723123999999999
#
# number of rings (size 3 to 8) (size 9 to 14) (size 15 to 20)
#    0.000    1.200    2.000    4.200    0.000    8.800 
#    0.000    0.000    0.000    0.000    0.000    0.000 
#    0.000    0.000    0.000    0.000    0.000    0.000 
#
# Total GULP energy -223581.743051 kJ/mol
# GULP energy per Si atom -5589.543576 kJ/mol
# Density = 2.167368 g / cm^3
# Si number density = 21.723124 Si / 1000 Ang^3
#
#
#
# Elastic Constant Matrix: (Units=GPa)
#
#
# Indices 1 2 3 4 5 6 
#
# 1 59.4700 11.5529 1.4210 0.0000 0.0000 0.0000
# 2 11.5529 103.5190 28.8677 0.0000 0.0000 0.0000
# 3 1.4210 28.8677 77.6134 0.0000 0.0000 0.0000
# 4 0.0000 0.0000 0.0000 25.8468 0.0000 0.0000
# 5 0.0000 0.0000 0.0000 0.0000 18.7885 0.0000
# 6 0.0000 0.0000 0.0000 0.0000 0.0000 7.5678
#
#
#
# Elastic Compliance Matrix: (Units=1/GPa)
#
#
# Indices 1 2 3 4 5 6 
#
# 1 0.017202 -0.002044 0.000445 0.000000 0.000000 0.000000
# 2 -0.002044 0.011021 -0.004062 0.000000 0.000000 0.000000
# 3 0.000445 -0.004062 0.014387 0.000000 0.000000 0.000000
# 4 0.000000 0.000000 0.000000 0.038689 0.000000 0.000000
# 5 0.000000 0.000000 0.000000 0.000000 0.053224 0.000000
# 6 0.000000 0.000000 0.000000 0.000000 0.000000 0.132139
#
#
# Mechanical properties :
#
#
# Convention : Reuss Voigt Hill
#
# Bulk Modulus (GPa) = 31.96038 36.03173 33.99605
# Shear Modulus (GPa) = 17.33629 23.69134 20.51381
#
# Velocity S-wave (km/s) = 2.82805 3.30601 3.07633
# Velocity P-wave (km/s) = 5.04067 5.58532 5.31997
#
# Compressibility (1/GPa) = 0.03128874
#
# Stress axis : x y z
#
# Youngs Moduli (GPa) = 58.13406 90.73738 69.50753
#
# Poissons Ratio (x) = 0.18546 -0.03095
# Poissons Ratio (y) = 0.11882 0.28232
# Poissons Ratio (z) = -0.02589 0.36855
#
# Static dielectric constant tensor:
#      x y z
#    x 1.846540 0.000000 0.000000 
#    y 0.000000 1.747100 0.000000 
#    z 0.000000 0.000000 1.791480 
# 
# From -- ./inp_files/6858.got.cif
#   From: 2010.05.17/outbox.cif.g08.bks.cpg/sg54_4_cif.got.tgz:6858.got - 2010.06.03 13:09:01.
