data_PCOD9423571
_publ_section_title
;
Structure prediction by ZEFSAII (Michael W. Deem and Ramdas Pophale) SiO2 
 PCOD9423571
Probable space group: P C C A
;
_chemical_formula_sum "Si O2"
_cell_formula_units_Z 64
_cell_length_a 8.844907
_cell_length_b 11.614948
_cell_length_c 27.720584
_cell_angle_alpha 90.000000
_cell_angle_beta 90.000000
_cell_angle_gamma 90.000000
_cell_volume 2847.822495
_symmetry_space_group_name_H-M "P C C A"
_symmetry_group_IT_number 54
_symmetry_cell_setting 'orthorhombic'
loop_
_space_group_symop_operation_xyz
x,y,z
1/2-x,-y,z
1/2+x,-y,1/2-z
-x,y,1/2-z
-x,-y,-z
1/2+x,y,-z
1/2-x,y,1/2+z
x,-y,1/2+z
loop_
_atom_site_type_symbol
_atom_site_label
_atom_site_fract_x
_atom_site_fract_y
_atom_site_fract_z
Si Si1 0.266106 0.131762 0.587421
Si Si2 0.402855 0.646119 0.544507
Si Si3 0.142009 0.110186 0.692966
Si Si4 0.057956 0.780267 0.873066
Si Si5 0.092940 0.535819 0.632382
Si Si6 0.247629 0.628890 0.443478
Si Si7 0.199720 0.175221 0.797248
Si Si8 0.884346 0.577117 0.207773
O O1 0.198286 0.241526 0.558503
O O2 0.180518 0.146748 0.638916
O O3 0.444733 0.136257 0.599132
O O4 0.250000 0.000000 0.568498
O O5 0.397531 0.538001 0.582306
O O6 0.346335 0.612741 0.491746
O O7 0.580605 0.671362 0.543565
O O8 0.204510 0.182948 0.738770
O O9 0.957488 0.103255 0.695614
O O10 0.250000 0.000000 0.699569
O O11 0.177729 0.723009 0.909087
O O12 0.145513 0.842632 0.828092
O O13 0.942321 0.671474 0.865393
O O14 0.250000 0.500000 0.656437
O O15 0.961220 0.487910 0.664620
O O16 0.250000 0.500000 0.421251
O O17 0.165463 0.303192 0.813822
O O18 0.750000 0.500000 0.226860
O O19 0.000000 0.599828 0.250000
#
# Coordination Sequence:
#
# PCOD9423571 Si02
#       8
#     8   8   8   8   8   8   8   8
#     4  11  26  48  72 101 139 191 243 300 360 420
#     4  12  25  44  73 104 150 179 244 296 364 430
#     4  10  23  46  74  98 134 191 248 299 351 411
#     4  12  25  43  70 105 144 183 240 291 369 427
#     4  12  24  40  66 101 145 190 232 298 354 436
#     4  12  25  43  72 109 142 186 228 292 363 443
#     4  11  24  43  68 103 140 182 234 303 354 426
#     4  12  24  40  63  99 145 190 229 275 368 447
#
# _framework density 22.473310999999999
#
# number of rings (size 3 to 8) (size 9 to 14) (size 15 to 20)
#    0.000    0.500    5.000    4.125    0.000    5.500 
#    0.000    5.625    0.000    0.000    0.000    0.000 
#    0.000    0.000    0.000    0.000    0.000    0.000 
#
# Total GULP energy -356821.959313 kJ/mol
# GULP energy per Si atom -5575.343114 kJ/mol
# Density = 2.242216 g / cm^3
# Si number density = 22.473311 Si / 1000 Ang^3
#
#
#
# Elastic Constant Matrix: (Units=GPa)
#
#
# Indices 1 2 3 4 5 6 
#
# 1 131.9006 26.8269 9.9459 0.0000 0.0000 0.0000
# 2 26.8269 81.7780 -1.5539 0.0000 0.0000 0.0000
# 3 9.9459 -1.5539 63.0521 0.0000 0.0000 0.0000
# 4 0.0000 0.0000 0.0000 55.2476 0.0000 0.0000
# 5 0.0000 0.0000 0.0000 0.0000 54.1244 0.0000
# 6 0.0000 0.0000 0.0000 0.0000 0.0000 36.5677
#
#
#
# Elastic Compliance Matrix: (Units=1/GPa)
#
#
# Indices 1 2 3 4 5 6 
#
# 1 0.008240 -0.002729 -0.001367 0.000000 0.000000 0.000000
# 2 -0.002729 0.013138 0.000754 0.000000 0.000000 0.000000
# 3 -0.001367 0.000754 0.016094 0.000000 0.000000 0.000000
# 4 0.000000 0.000000 0.000000 0.018100 0.000000 0.000000
# 5 0.000000 0.000000 0.000000 0.000000 0.018476 0.000000
# 6 0.000000 0.000000 0.000000 0.000000 0.000000 0.027347
#
#
# Mechanical properties :
#
#
# Convention : Reuss Voigt Hill
#
# Bulk Modulus (GPa) = 32.48003 38.57427 35.52715
# Shear Modulus (GPa) = 42.25103 45.28873 43.76988
#
# Velocity S-wave (km/s) = 4.34066 4.49399 4.41799
# Velocity P-wave (km/s) = 6.29332 6.64302 6.47053
#
# Compressibility (1/GPa) = 0.03078815
#
# Stress axis : x y z
#
# Youngs Moduli (GPa) = 121.36552 76.11642 62.13447
#
# Poissons Ratio (x) = 0.20772 0.08494
# Poissons Ratio (y) = 0.33120 -0.04686
# Poissons Ratio (z) = 0.16590 -0.05741
#
# Static dielectric constant tensor:
#      x y z
#    x 1.932930 0.000000 0.000000 
#    y 0.000000 1.846480 0.000000 
#    z 0.000000 0.000000 1.904590 
# 
# From -- ./inp_files/27922.got.cif
#   From: 2010.05.17/outbox.cif.g08.bks.cpg/sg54_14_cif.got.tgz:27922.got - 2010.06.03 13:09:01.
