data_PCOD9423770
_publ_section_title
;
Structure prediction by ZEFSAII (Michael W. Deem and Ramdas Pophale) SiO2 
 PCOD9423770
Probable space group: P C C A
;
_chemical_formula_sum "Si O2"
_cell_formula_units_Z 40
_cell_length_a 17.169571
_cell_length_b 5.573990
_cell_length_c 17.318916
_cell_angle_alpha 90.000000
_cell_angle_beta 90.000000
_cell_angle_gamma 90.000000
_cell_volume 1657.472513
_symmetry_space_group_name_H-M "P C C A"
_symmetry_group_IT_number 54
_symmetry_cell_setting 'orthorhombic'
loop_
_space_group_symop_operation_xyz
x,y,z
1/2-x,-y,z
1/2+x,-y,1/2-z
-x,y,1/2-z
-x,-y,-z
1/2+x,y,-z
1/2-x,y,1/2+z
x,-y,1/2+z
loop_
_atom_site_type_symbol
_atom_site_label
_atom_site_fract_x
_atom_site_fract_y
_atom_site_fract_z
Si Si1 0.670931 0.356512 0.148493
Si Si2 0.449440 0.951309 0.077579
Si Si3 0.341075 0.944890 0.701805
Si Si4 0.560416 0.703410 0.194498
Si Si5 0.702663 0.242971 0.985020
O O1 0.750000 0.500000 0.154895
O O2 0.654469 0.249517 0.231230
O O3 0.601795 0.538545 0.132625
O O4 0.680974 0.193087 0.074714
O O5 0.511710 0.889151 0.143731
O O6 0.381258 0.755371 0.057935
O O7 0.391662 0.128123 0.126715
O O8 0.500000 0.000000 0.000000
O O9 0.250000 0.000000 0.689049
O O10 0.378722 0.172654 0.747211
O O11 0.500000 0.569681 0.250000
O O12 0.750000 0.500000 0.978071
O O13 0.750000 0.000000 0.964618
#
# Coordination Sequence:
#
# PCOD9423770 Si02
#       5
#     8   8   8   8   8
#     4  11  23  41  79 102 140 194 256 317 374 453
#     4  11  26  47  73 109 161 199 252 322 401 465
#     4  11  22  46  73 103 143 190 259 313 380 462
#     4  10  24  45  67 110 139 188 249 319 378 451
#     4  11  27  51  78 112 157 210 260 311 389 476
#
# _framework density 24.133132
#
# number of rings (size 3 to 8) (size 9 to 14) (size 15 to 20)
#    0.000    1.200    2.000    2.400    8.400    4.800 
#   18.000    0.000    0.000    0.000    0.000    0.000 
#    0.000    0.000    0.000    0.000    0.000    0.000 
#
# Total GULP energy -222864.464324 kJ/mol
# GULP energy per Si atom -5571.611608 kJ/mol
# Density = 2.407820 g / cm^3
# Si number density = 24.133132 Si / 1000 Ang^3
#
#
#
# Elastic Constant Matrix: (Units=GPa)
#
#
# Indices 1 2 3 4 5 6 
#
# 1 164.7082 36.5822 51.9439 0.0000 0.0000 0.0000
# 2 36.5822 47.9921 8.8958 0.0000 0.0000 0.0000
# 3 51.9439 8.8958 138.0066 0.0000 0.0000 0.0000
# 4 0.0000 0.0000 0.0000 10.5557 0.0000 0.0000
# 5 0.0000 0.0000 0.0000 0.0000 42.3930 0.0000
# 6 0.0000 0.0000 0.0000 0.0000 0.0000 32.5075
#
#
#
# Elastic Compliance Matrix: (Units=1/GPa)
#
#
# Indices 1 2 3 4 5 6 
#
# 1 0.008206 -0.005751 -0.002718 0.000000 0.000000 0.000000
# 2 -0.005751 0.025119 0.000545 0.000000 0.000000 0.000000
# 3 -0.002718 0.000545 0.008234 0.000000 0.000000 0.000000
# 4 0.000000 0.000000 0.000000 0.094735 0.000000 0.000000
# 5 0.000000 0.000000 0.000000 0.000000 0.023589 0.000000
# 6 0.000000 0.000000 0.000000 0.000000 0.000000 0.030762
#
#
# Mechanical properties :
#
#
# Convention : Reuss Voigt Hill
#
# Bulk Modulus (GPa) = 38.89220 60.61676 49.75448
# Shear Modulus (GPa) = 23.24898 33.97692 28.61295
#
# Velocity S-wave (km/s) = 3.10718 3.75626 3.44703
# Velocity P-wave (km/s) = 5.38734 6.63211 6.04187
#
# Compressibility (1/GPa) = 0.02571210
#
# Stress axis : x y z
#
# Youngs Moduli (GPa) = 121.86479 39.80974 121.45008
#
# Poissons Ratio (x) = 0.22895 0.33008
# Poissons Ratio (y) = 0.70086 -0.06625
# Poissons Ratio (z) = 0.33121 -0.02172
#
# Static dielectric constant tensor:
#      x y z
#    x 1.991780 0.000000 0.000000 
#    y 0.000000 1.205070 0.000000 
#    z 0.000000 0.000000 1.931820 
# 
# From -- ./inp_files/18378.got.cif
#   From: 2010.05.17/outbox.cif.g08.bks.cpg/sg54_10_cif.got.tgz:18378.got - 2010.06.03 13:09:01.
