data_PCOD9423968
_publ_section_title
;
Structure prediction by ZEFSAII (Michael W. Deem and Ramdas Pophale) SiO2 
 PCOD9423968
Probable space group: P C C A
;
_chemical_formula_sum "Si O2"
_cell_formula_units_Z 48
_cell_length_a 8.550156
_cell_length_b 15.120095
_cell_length_c 20.318766
_cell_angle_alpha 90.000000
_cell_angle_beta 90.000000
_cell_angle_gamma 90.000000
_cell_volume 2626.793224
_symmetry_space_group_name_H-M "P C C A"
_symmetry_group_IT_number 54
_symmetry_cell_setting 'orthorhombic'
loop_
_space_group_symop_operation_xyz
x,y,z
1/2-x,-y,z
1/2+x,-y,1/2-z
-x,y,1/2-z
-x,-y,-z
1/2+x,y,-z
1/2-x,y,1/2+z
x,-y,1/2+z
loop_
_atom_site_type_symbol
_atom_site_label
_atom_site_fract_x
_atom_site_fract_y
_atom_site_fract_z
Si Si1 0.605396 0.566420 0.685815
Si Si2 0.881901 0.737277 0.097043
Si Si3 0.010529 0.919492 0.083337
Si Si4 0.118629 0.099380 0.062782
Si Si5 0.927480 0.469876 0.431177
Si Si6 0.037234 0.720469 0.959737
O O1 0.750000 0.500000 0.700482
O O2 0.500000 0.576212 0.750000
O O3 0.633880 0.663570 0.653765
O O4 0.513555 0.516252 0.628410
O O5 0.718803 0.731115 0.057408
O O6 0.928850 0.836841 0.120235
O O7 0.008126 0.716915 0.038771
O O8 0.195329 0.898972 0.073002
O O9 0.027618 0.022706 0.103574
O O10 0.916765 0.920706 0.014183
O O11 0.046495 0.194975 0.071464
O O12 0.750000 0.500000 0.430751
O O13 0.000000 0.500000 0.500000
O O14 0.960444 0.366082 0.428824
#
# Coordination Sequence:
#
# PCOD9423968 Si02
#       6
#     8   8   8   8   8   8
#     4  12  26  46  59  83 116 158 200 246 303 364
#     4  11  21  34  58  85 118 154 195 241 294 359
#     4   9  17  29  47  77 116 158 184 233 290 348
#     4   9  17  28  46  78 121 151 189 229 293 353
#     4  12  23  37  61  88 119 155 194 248 295 351
#     4  11  20  32  55  87 119 150 195 235 298 348
#
# _framework density 18.273230999999999
#
# number of rings (size 3 to 8) (size 9 to 14) (size 15 to 20)
#    0.000    1.333    3.333    6.000    2.333    2.000 
#    0.000    0.000    0.000    0.000    0.000    5.833 
#    0.000    0.000    0.000    0.000    0.000    0.000 
#
# Total GULP energy -267515.105430 kJ/mol
# GULP energy per Si atom -5573.231363 kJ/mol
# Density = 1.823164 g / cm^3
# Si number density = 18.273231 Si / 1000 Ang^3
#
#
#
# Elastic Constant Matrix: (Units=GPa)
#
#
# Indices 1 2 3 4 5 6 
#
# 1 100.7955 41.3669 21.3094 0.0000 0.0000 0.0000
# 2 41.3669 169.4687 21.7018 0.0000 0.0000 0.0000
# 3 21.3094 21.7018 52.2967 0.0000 0.0000 0.0000
# 4 0.0000 0.0000 0.0000 10.1290 0.0000 0.0000
# 5 0.0000 0.0000 0.0000 0.0000 13.3889 0.0000
# 6 0.0000 0.0000 0.0000 0.0000 0.0000 33.6056
#
#
#
# Elastic Compliance Matrix: (Units=1/GPa)
#
#
# Indices 1 2 3 4 5 6 
#
# 1 0.011693 -0.002370 -0.003781 0.000000 0.000000 0.000000
# 2 -0.002370 0.006712 -0.001820 0.000000 0.000000 0.000000
# 3 -0.003781 -0.001820 0.021417 0.000000 0.000000 0.000000
# 4 0.000000 0.000000 0.000000 0.098726 0.000000 0.000000
# 5 0.000000 0.000000 0.000000 0.000000 0.074689 0.000000
# 6 0.000000 0.000000 0.000000 0.000000 0.000000 0.029757
#
#
# Mechanical properties :
#
#
# Convention : Reuss Voigt Hill
#
# Bulk Modulus (GPa) = 41.87393 54.59079 48.23236
# Shear Modulus (GPa) = 18.73378 27.30354 23.01866
#
# Velocity S-wave (km/s) = 3.20535 3.86966 3.55307
# Velocity P-wave (km/s) = 6.05510 7.06437 6.57912
#
# Compressibility (1/GPa) = 0.02388121
#
# Stress axis : x y z
#
# Youngs Moduli (GPa) = 85.52027 148.97907 46.69085
#
# Poissons Ratio (x) = 0.35309 0.17654
# Poissons Ratio (y) = 0.20269 0.08496
# Poissons Ratio (z) = 0.32336 0.27110
#
# Static dielectric constant tensor:
#      x y z
#    x 1.644790 0.000000 0.000000 
#    y 0.000000 1.718130 0.000000 
#    z 0.000000 0.000000 1.564200 
# 
# From -- ./inp_files/20408.got.cif
#   From: 2010.05.17/outbox.cif.g08.bks.cpg/sg54_11_cif.got.tgz:20408.got - 2010.06.03 13:09:01.
