data_PCOD9423981
_publ_section_title
;
Structure prediction by ZEFSAII (Michael W. Deem and Ramdas Pophale) SiO2 
 PCOD9423981
Probable space group: P C C A
;
_chemical_formula_sum "Si O2"
_cell_formula_units_Z 28
_cell_length_a 9.608616
_cell_length_b 7.800094
_cell_length_c 19.259030
_cell_angle_alpha 90.000000
_cell_angle_beta 90.000000
_cell_angle_gamma 90.000000
_cell_volume 1443.427861
_symmetry_space_group_name_H-M "P C C A"
_symmetry_group_IT_number 54
_symmetry_cell_setting 'orthorhombic'
loop_
_space_group_symop_operation_xyz
x,y,z
1/2-x,-y,z
1/2+x,-y,1/2-z
-x,y,1/2-z
-x,-y,-z
1/2+x,y,-z
1/2-x,y,1/2+z
x,-y,1/2+z
loop_
_atom_site_type_symbol
_atom_site_label
_atom_site_fract_x
_atom_site_fract_y
_atom_site_fract_z
Si Si1 0.656449 0.353837 0.016319
Si Si2 0.250000 0.500000 0.345869
Si Si3 0.366550 0.857061 0.299008
Si Si4 0.580684 0.854453 0.040727
O O1 0.750000 0.500000 0.980813
O O2 0.643763 0.414646 0.097176
O O3 0.762752 0.192977 0.019077
O O4 0.516220 0.309195 0.977515
O O5 0.307982 0.660828 0.302799
O O6 0.500000 0.867503 0.250000
O O7 0.414212 0.892592 0.378044
O O8 0.250000 0.000000 0.280857
O O9 0.500000 0.000000 0.000000
#
# Coordination Sequence:
#
# PCOD9423981 Si02
#       4
#     8   4   8   8
#     4   9  19  34  59  87 122 150 201 255 305 362
#     4   8  20  42  62  86 124 166 202 260 318 360
#     4  11  25  44  64  91 130 169 211 262 316 379
#     4  11  20  37  62  92 122 162 202 259 313 368
#
# _framework density 19.398268000000002
#
# number of rings (size 3 to 8) (size 9 to 14) (size 15 to 20)
#    0.857    1.143    0.000    5.143    0.000    3.429 
#    2.571    0.000    0.000    0.000    0.000    0.000 
#    0.000    0.000    0.000    0.000    0.000    0.000 
#
# Total GULP energy -155920.522115 kJ/mol
# GULP energy per Si atom -5568.590076 kJ/mol
# Density = 1.935412 g / cm^3
# Si number density = 19.398268 Si / 1000 Ang^3
#
#
#
# Elastic Constant Matrix: (Units=GPa)
#
#
# Indices 1 2 3 4 5 6 
#
# 1 142.5100 57.8140 57.8345 0.0000 0.0000 0.0000
# 2 57.8140 139.6499 32.5560 0.0000 0.0000 0.0000
# 3 57.8345 32.5560 55.7193 0.0000 0.0000 0.0000
# 4 0.0000 0.0000 0.0000 16.4870 0.0000 0.0000
# 5 0.0000 0.0000 0.0000 0.0000 34.7074 0.0000
# 6 0.0000 0.0000 0.0000 0.0000 0.0000 42.4271
#
#
#
# Elastic Compliance Matrix: (Units=1/GPa)
#
#
# Indices 1 2 3 4 5 6 
#
# 1 0.012871 -0.002563 -0.011862 0.000000 0.000000 0.000000
# 2 -0.002563 0.008800 -0.002482 0.000000 0.000000 0.000000
# 3 -0.011862 -0.002482 0.031709 0.000000 0.000000 0.000000
# 4 0.000000 0.000000 0.000000 0.060654 0.000000 0.000000
# 5 0.000000 0.000000 0.000000 0.000000 0.028812 0.000000
# 6 0.000000 0.000000 0.000000 0.000000 0.000000 0.023570
#
#
# Mechanical properties :
#
#
# Convention : Reuss Voigt Hill
#
# Bulk Modulus (GPa) = 51.10537 70.47645 60.79091
# Shear Modulus (GPa) = 24.18366 31.36929 27.77647
#
# Velocity S-wave (km/s) = 3.53468 4.02570 3.78816
# Velocity P-wave (km/s) = 6.56210 7.61699 7.10914
#
# Compressibility (1/GPa) = 0.01956742
#
# Stress axis : x y z
#
# Youngs Moduli (GPa) = 77.69613 113.63150 31.53680
#
# Poissons Ratio (x) = 0.29125 0.37408
# Poissons Ratio (y) = 0.19914 0.07826
# Poissons Ratio (z) = 0.92161 0.28198
#
# Static dielectric constant tensor:
#      x y z
#    x 1.918520 0.000000 0.000000 
#    y 0.000000 2.468620 0.000000 
#    z 0.000000 0.000000 1.628840 
# 
# From -- ./inp_files/19957.got.cif
#   From: 2010.05.17/outbox.cif.g08.bks.cpg/sg54_10_cif.got.tgz:19957.got - 2010.06.03 13:09:01.
