data_PCOD9423540
_publ_section_title
;
Structure prediction by ZEFSAII (Michael W. Deem and Ramdas Pophale) SiO2 
 PCOD9423540
Probable space group: P C C A
;
_chemical_formula_sum "Si O2"
_cell_formula_units_Z 36
_cell_length_a 7.783699
_cell_length_b 14.237531
_cell_length_c 15.907930
_cell_angle_alpha 90.000000
_cell_angle_beta 90.000000
_cell_angle_gamma 90.000000
_cell_volume 1762.927235
_symmetry_space_group_name_H-M "P C C A"
_symmetry_group_IT_number 54
_symmetry_cell_setting 'orthorhombic'
loop_
_space_group_symop_operation_xyz
x,y,z
1/2-x,-y,z
1/2+x,-y,1/2-z
-x,y,1/2-z
-x,-y,-z
1/2+x,y,-z
1/2-x,y,1/2+z
x,-y,1/2+z
loop_
_atom_site_type_symbol
_atom_site_label
_atom_site_fract_x
_atom_site_fract_y
_atom_site_fract_z
Si Si1 0.500000 0.281733 0.750000
Si Si2 0.631893 0.224329 0.085007
Si Si3 0.500000 0.136298 0.250000
Si Si4 0.250000 0.000000 0.662169
Si Si5 0.998661 0.849047 0.909230
Si Si6 0.673831 0.396885 0.191519
O O1 0.538078 0.216538 0.829580
O O2 0.328800 0.342286 0.762146
O O3 0.524459 0.196128 0.166688
O O4 0.795471 0.154177 0.089048
O O5 0.658573 0.334687 0.105600
O O6 0.551565 0.201947 0.995646
O O7 0.341923 0.071613 0.224612
O O8 0.392936 0.054929 0.606385
O O9 0.750000 0.500000 0.174983
O O10 0.500000 0.400689 0.250000
#
# Coordination Sequence:
#
# PCOD9423540 Si02
#       6
#     4   8   4   4   8   8
#     4  10  23  45  66  98 138 182 224 281 347 406
#     4  11  25  43  66  97 135 178 219 282 348 400
#     4  12  23  41  66  94 132 174 230 275 345 386
#     4  12  24  40  66  96 130 184 234 280 322 398
#     4  11  25  42  65  96 136 179 228 276 336 398
#     4  11  22  42  72 102 131 176 226 276 344 415
#
# _framework density 20.420580999999999
#
# number of rings (size 3 to 8) (size 9 to 14) (size 15 to 20)
#    0.000    0.889    2.222    6.000    3.111    4.444 
#    0.000    5.556    0.000    0.000    0.000    0.000 
#    0.000    0.000    0.000    0.000    0.000    0.000 
#
# Total GULP energy -200847.252962 kJ/mol
# GULP energy per Si atom -5579.090360 kJ/mol
# Density = 2.037410 g / cm^3
# Si number density = 20.420581 Si / 1000 Ang^3
#
#
#
# Elastic Constant Matrix: (Units=GPa)
#
#
# Indices 1 2 3 4 5 6 
#
# 1 81.1535 31.9504 20.5040 0.0000 0.0000 0.0000
# 2 31.9504 92.9835 47.5636 0.0000 0.0000 0.0000
# 3 20.5040 47.5636 155.6310 0.0000 0.0000 0.0000
# 4 0.0000 0.0000 0.0000 145.7992 0.0000 0.0000
# 5 0.0000 0.0000 0.0000 0.0000 26.2228 0.0000
# 6 0.0000 0.0000 0.0000 0.0000 0.0000 -66.6008
#
#
#
# Elastic Compliance Matrix: (Units=1/GPa)
#
#
# Indices 1 2 3 4 5 6 
#
# 1 0.014277 -0.004674 -0.000452 0.000000 0.000000 0.000000
# 2 -0.004674 0.014278 -0.003748 0.000000 0.000000 0.000000
# 3 -0.000452 -0.003748 0.007630 0.000000 0.000000 0.000000
# 4 0.000000 0.000000 0.000000 0.006859 0.000000 0.000000
# 5 0.000000 0.000000 0.000000 0.000000 0.038135 0.000000
# 6 0.000000 0.000000 0.000000 0.000000 0.000000 -0.015015
#
#
# Mechanical properties :
#
#
# Convention : Reuss Voigt Hill
#
# Bulk Modulus (GPa) = 54.24089 58.86711 56.55400
# Shear Modulus (GPa) = 55.51964 36.40090 45.96027
#
# Velocity S-wave (km/s) = 5.21988 4.22662 4.74928
# Velocity P-wave (km/s) = 7.93404 7.26010 7.60454
#
# Compressibility (1/GPa) = 0.01843628
#
# Stress axis : x y z
#
# Youngs Moduli (GPa) = 70.04312 70.03864 131.05418
#
# Poissons Ratio (x) = 0.32738 0.05929
# Poissons Ratio (y) = 0.32741 0.49116
# Poissons Ratio (z) = 0.03169 0.26249
#
# Static dielectric constant tensor:
#      x y z
#    x 1.869130 0.000000 0.000000 
#    y 0.000000 1.796700 0.000000 
#    z 0.000000 0.000000 1.839420 
# 
# From -- ./inp_files/11446.got.cif
#   From: 2010.05.17/outbox.cif.g08.bks.cpg/sg54_6_cif.got.tgz:11446.got - 2010.06.03 13:09:01.
