data_PCOD9423517
_publ_section_title
;
Structure prediction by ZEFSAII (Michael W. Deem and Ramdas Pophale) SiO2 
 PCOD9423517
Probable space group: P C C A
;
_chemical_formula_sum "Si O2"
_cell_formula_units_Z 40
_cell_length_a 22.033881
_cell_length_b 5.148037
_cell_length_c 13.544286
_cell_angle_alpha 90.000000
_cell_angle_beta 90.000000
_cell_angle_gamma 90.000000
_cell_volume 1536.345083
_symmetry_space_group_name_H-M "P C C A"
_symmetry_group_IT_number 54
_symmetry_cell_setting 'orthorhombic'
loop_
_space_group_symop_operation_xyz
x,y,z
1/2-x,-y,z
1/2+x,-y,1/2-z
-x,y,1/2-z
-x,-y,-z
1/2+x,y,-z
1/2-x,y,1/2+z
x,-y,1/2+z
loop_
_atom_site_type_symbol
_atom_site_label
_atom_site_fract_x
_atom_site_fract_y
_atom_site_fract_z
Si Si1 0.413201 0.270373 0.215119
Si Si2 0.210532 0.756121 0.689660
Si Si3 0.027402 0.217251 0.126680
Si Si4 0.886547 0.660563 0.642616
Si Si5 0.139300 0.983628 0.038193
O O1 0.393035 0.355246 0.324624
O O2 0.451237 0.510964 0.172154
O O3 0.348971 0.746736 0.259692
O O4 0.362738 0.214341 0.132410
O O5 0.250000 0.500000 0.701536
O O6 0.188299 0.809933 0.577029
O O7 0.250000 0.000000 0.722597
O O8 0.047312 0.985270 0.199144
O O9 0.955719 0.254721 0.114685
O O10 0.073675 0.137606 0.037846
O O11 0.850710 0.798585 0.554241
#
# Coordination Sequence:
#
# PCOD9423517 Si02
#       5
#     8   8   8   8   8
#     4  10  23  44  69 120 163 200 240 316 394 481
#     4  12  29  53  74 108 155 206 274 329 380 456
#     4  10  24  46  74 121 165 196 247 329 402 485
#     4  12  24  51  82 116 156 213 261 321 409 485
#     4  10  26  51  79 118 158 208 256 336 396 474
#
# _framework density 26.035819
#
# number of rings (size 3 to 8) (size 9 to 14) (size 15 to 20)
#    1.200    0.000    2.000    2.400    0.000    9.600 
#   10.800    4.000    0.000    0.000    0.000    0.000 
#    0.000    0.000    0.000    0.000    0.000    0.000 
#
# Total GULP energy -222958.998956 kJ/mol
# GULP energy per Si atom -5573.974974 kJ/mol
# Density = 2.597656 g / cm^3
# Si number density = 26.035819 Si / 1000 Ang^3
#
#
#
# Elastic Constant Matrix: (Units=GPa)
#
#
# Indices 1 2 3 4 5 6 
#
# 1 118.8006 45.2861 4.7388 0.0000 0.0000 0.0000
# 2 45.2861 176.8570 31.5851 0.0000 0.0000 0.0000
# 3 4.7388 31.5851 100.3557 0.0000 0.0000 0.0000
# 4 0.0000 0.0000 0.0000 16.9353 0.0000 0.0000
# 5 0.0000 0.0000 0.0000 0.0000 11.2564 0.0000
# 6 0.0000 0.0000 0.0000 0.0000 0.0000 -37.6383
#
#
#
# Elastic Compliance Matrix: (Units=1/GPa)
#
#
# Indices 1 2 3 4 5 6 
#
# 1 0.009338 -0.002450 0.000330 0.000000 0.000000 0.000000
# 2 -0.002450 0.006634 -0.001972 0.000000 0.000000 0.000000
# 3 0.000330 -0.001972 0.010570 0.000000 0.000000 0.000000
# 4 0.000000 0.000000 0.000000 0.059048 0.000000 0.000000
# 5 0.000000 0.000000 0.000000 0.000000 0.088839 0.000000
# 6 0.000000 0.000000 0.000000 0.000000 0.000000 -0.026569
#
#
# Mechanical properties :
#
#
# Convention : Reuss Voigt Hill
#
# Bulk Modulus (GPa) = 54.47351 62.13701 58.30526
# Shear Modulus (GPa) = 30.83309 19.07089 24.95199
#
# Velocity S-wave (km/s) = 3.44504 2.70939 3.09912
# Velocity P-wave (km/s) = 6.06567 5.80564 5.93708
#
# Compressibility (1/GPa) = 0.01835755
#
# Stress axis : x y z
#
# Youngs Moduli (GPa) = 107.08620 150.74126 94.61025
#
# Poissons Ratio (x) = 0.36934 -0.03124
# Poissons Ratio (y) = 0.26238 0.18659
# Poissons Ratio (z) = -0.03536 0.29729
#
# Static dielectric constant tensor:
#      x y z
#    x 2.181510 0.000000 0.000000 
#    y 0.000000 2.130550 0.000000 
#    z 0.000000 0.000000 2.145630 
# 
# From -- ./inp_files/14811.got.cif
#   From: 2010.05.17/outbox.cif.g08.bks.cpg/sg54_8_cif.got.tgz:14811.got - 2010.06.03 13:09:01.
