data_PCOD9423296
_publ_section_title
;
Structure prediction by ZEFSAII (Michael W. Deem and Ramdas Pophale) SiO2 
 PCOD9423296
Probable space group: P C C A
;
_chemical_formula_sum "Si O2"
_cell_formula_units_Z 40
_cell_length_a 10.206226
_cell_length_b 11.849041
_cell_length_c 16.117941
_cell_angle_alpha 90.000000
_cell_angle_beta 90.000000
_cell_angle_gamma 90.000000
_cell_volume 1949.206921
_symmetry_space_group_name_H-M "P C C A"
_symmetry_group_IT_number 54
_symmetry_cell_setting 'orthorhombic'
loop_
_space_group_symop_operation_xyz
x,y,z
1/2-x,-y,z
1/2+x,-y,1/2-z
-x,y,1/2-z
-x,-y,-z
1/2+x,y,-z
1/2-x,y,1/2+z
x,-y,1/2+z
loop_
_atom_site_type_symbol
_atom_site_label
_atom_site_fract_x
_atom_site_fract_y
_atom_site_fract_z
Si Si1 0.876642 0.251603 0.874908
Si Si2 0.500000 0.592867 0.750000
Si Si3 0.083105 0.236029 0.166252
Si Si4 0.070915 0.386478 0.461865
Si Si5 0.750000 0.500000 0.668192
Si Si6 0.403471 0.002004 0.077620
O O1 0.979913 0.327856 0.828150
O O2 0.738298 0.258481 0.827079
O O3 0.919372 0.122074 0.877984
O O4 0.871905 0.306715 0.965982
O O5 0.628970 0.524416 0.728729
O O6 0.000000 0.252610 0.250000
O O7 0.032722 0.317321 0.093095
O O8 0.070640 0.106667 0.134709
O O9 0.188090 0.412369 0.397541
O O10 0.000000 0.500000 0.500000
O O11 0.250000 0.000000 0.051382
O O12 0.500000 0.000000 0.000000
#
# Coordination Sequence:
#
# PCOD9423296 Si02
#       6
#     8   4   8   8   4   8
#     4  11  25  45  71 102 141 184 234 287 355 424
#     4  12  28  44  70 102 150 180 240 292 356 420
#     4  11  25  45  71 103 143 185 232 295 350 419
#     4  12  24  44  72 101 139 185 238 283 352 423
#     4  12  28  44  68 106 138 196 232 296 354 422
#     4  10  22  45  71 104 137 181 234 284 350 421
#
# _framework density 20.521166000000001
#
# number of rings (size 3 to 8) (size 9 to 14) (size 15 to 20)
#    0.000    0.800    4.000    2.400    5.600    0.800 
#    3.600    0.000    0.000    0.000    0.000    0.000 
#    0.000    0.000    0.000    0.000    0.000    0.000 
#
# Total GULP energy -223455.349629 kJ/mol
# GULP energy per Si atom -5586.383741 kJ/mol
# Density = 2.047446 g / cm^3
# Si number density = 20.521166 Si / 1000 Ang^3
#
#
#
# Elastic Constant Matrix: (Units=GPa)
#
#
# Indices 1 2 3 4 5 6 
#
# 1 97.9889 37.1470 37.8430 0.0000 0.0000 0.0000
# 2 37.1470 117.4903 39.7397 0.0000 0.0000 0.0000
# 3 37.8430 39.7397 75.7289 0.0000 0.0000 0.0000
# 4 0.0000 0.0000 0.0000 100.8788 0.0000 0.0000
# 5 0.0000 0.0000 0.0000 0.0000 44.6572 0.0000
# 6 0.0000 0.0000 0.0000 0.0000 0.0000 119.5109
#
#
#
# Elastic Compliance Matrix: (Units=1/GPa)
#
#
# Indices 1 2 3 4 5 6 
#
# 1 0.013160 -0.002354 -0.005341 0.000000 0.000000 0.000000
# 2 -0.002354 0.010769 -0.004475 0.000000 0.000000 0.000000
# 3 -0.005341 -0.004475 0.018222 0.000000 0.000000 0.000000
# 4 0.000000 0.000000 0.000000 0.009913 0.000000 0.000000
# 5 0.000000 0.000000 0.000000 0.000000 0.022393 0.000000
# 6 0.000000 0.000000 0.000000 0.000000 0.000000 0.008367
#
#
# Mechanical properties :
#
#
# Convention : Reuss Voigt Hill
#
# Bulk Modulus (GPa) = 56.14336 57.85193 56.99764
# Shear Modulus (GPa) = 44.20767 64.77462 54.49114
#
# Velocity S-wave (km/s) = 4.64642 5.62435 5.15861
# Velocity P-wave (km/s) = 7.49692 8.39228 7.95720
#
# Compressibility (1/GPa) = 0.01781155
#
# Stress axis : x y z
#
# Youngs Moduli (GPa) = 75.98520 92.85678 54.87822
#
# Poissons Ratio (x) = 0.21862 0.29310
# Poissons Ratio (y) = 0.17890 0.24557
# Poissons Ratio (z) = 0.40584 0.41551
#
# Static dielectric constant tensor:
#      x y z
#    x 1.762900 0.000000 0.000000 
#    y 0.000000 1.766820 0.000000 
#    z 0.000000 0.000000 1.853140 
# 
# From -- ./inp_files/16380.got.cif
#   From: 2010.05.17/outbox.cif.g08.bks.cpg/sg54_9_cif.got.tgz:16380.got - 2010.06.03 13:09:01.
