data_PCOD9423472
_publ_section_title
;
Structure prediction by ZEFSAII (Michael W. Deem and Ramdas Pophale) SiO2 
 PCOD9423472
Probable space group: P C C A
;
_chemical_formula_sum "Si O2"
_cell_formula_units_Z 60
_cell_length_a 19.560122
_cell_length_b 5.272821
_cell_length_c 23.907865
_cell_angle_alpha 90.000000
_cell_angle_beta 90.000000
_cell_angle_gamma 90.000000
_cell_volume 2465.786000
_symmetry_space_group_name_H-M "P C C A"
_symmetry_group_IT_number 54
_symmetry_cell_setting 'orthorhombic'
loop_
_space_group_symop_operation_xyz
x,y,z
1/2-x,-y,z
1/2+x,-y,1/2-z
-x,y,1/2-z
-x,-y,-z
1/2+x,y,-z
1/2-x,y,1/2+z
x,-y,1/2+z
loop_
_atom_site_type_symbol
_atom_site_label
_atom_site_fract_x
_atom_site_fract_y
_atom_site_fract_z
Si Si1 0.830254 0.201910 0.894784
Si Si2 0.688289 0.665289 0.105833
Si Si3 0.563668 0.875104 0.709871
Si Si4 0.115998 0.061378 0.486521
Si Si5 0.651607 0.368732 0.724046
Si Si6 0.500000 0.500000 0.000000
Si Si7 0.677274 0.713879 0.348895
Si Si8 0.056204 0.324095 0.908729
O O1 0.857392 0.478269 0.879319
O O2 0.750359 0.242845 0.878899
O O3 0.860188 0.982049 0.855544
O O4 0.841864 0.093279 0.956816
O O5 0.750000 0.500000 0.081816
O O6 0.666905 0.897070 0.066377
O O7 0.699538 0.711279 0.171458
O O8 0.621000 0.491873 0.106155
O O9 0.500000 0.823160 0.750000
O O10 0.619730 0.651520 0.719986
O O11 0.544687 0.855032 0.643693
O O12 0.592522 0.155211 0.720848
O O13 0.060195 0.280485 0.490578
O O14 0.074589 0.803960 0.470440
O O15 0.686361 0.340694 0.783853
O O16 0.507253 0.520384 0.930416
#
# Coordination Sequence:
#
# PCOD9423472 Si02
#       8
#     8   8   8   8   8   4   8   8
#     4  10  24  40  66  95 140 182 221 281 337 415
#     4  10  24  40  70 102 133 187 225 292 348 422
#     4  11  24  46  72 103 135 184 237 298 346 422
#     4  11  23  45  67 101 138 182 234 288 347 420
#     4  11  23  46  69 101 140 180 234 289 359 409
#     4  10  24  42  70  94 136 180 228 292 342 420
#     4  10  23  43  63  98 139 181 227 283 340 426
#     4  10  23  45  67 101 138 177 241 282 358 416
#
# _framework density 24.333013999999999
#
# number of rings (size 3 to 8) (size 9 to 14) (size 15 to 20)
#    0.000    1.600    1.333    1.600    7.467    3.733 
#    4.800    0.000    0.000    0.000    0.000    0.000 
#    0.000    0.000    0.000    0.000    0.000    0.000 
#
# Total GULP energy -334074.115031 kJ/mol
# GULP energy per Si atom -5567.901917 kJ/mol
# Density = 2.427763 g / cm^3
# Si number density = 24.333014 Si / 1000 Ang^3
#
#
#
# Elastic Constant Matrix: (Units=GPa)
#
#
# Indices 1 2 3 4 5 6 
#
# 1 42.6734 -1.5796 30.0223 0.0000 0.0000 0.0000
# 2 -1.5796 94.0464 -3.2124 0.0000 0.0000 0.0000
# 3 30.0223 -3.2124 153.1869 0.0000 0.0000 0.0000
# 4 0.0000 0.0000 0.0000 38.3132 0.0000 0.0000
# 5 0.0000 0.0000 0.0000 0.0000 29.9872 0.0000
# 6 0.0000 0.0000 0.0000 0.0000 0.0000 -4.3758
#
#
#
# Elastic Compliance Matrix: (Units=1/GPa)
#
#
# Indices 1 2 3 4 5 6 
#
# 1 0.027189 0.000275 -0.005323 0.000000 0.000000 0.000000
# 2 0.000275 0.010643 0.000169 0.000000 0.000000 0.000000
# 3 -0.005323 0.000169 0.007575 0.000000 0.000000 0.000000
# 4 0.000000 0.000000 0.000000 0.026101 0.000000 0.000000
# 5 0.000000 0.000000 0.000000 0.000000 0.033348 0.000000
# 6 0.000000 0.000000 0.000000 0.000000 0.000000 -0.228527
#
#
# Mechanical properties :
#
#
# Convention : Reuss Voigt Hill
#
# Bulk Modulus (GPa) = 28.05076 37.81858 32.93467
# Shear Modulus (GPa) = -49.00431 30.43001 -9.28715
#
# Velocity S-wave (km/s) = -4.49252 3.54017 -1.95575
# Velocity P-wave (km/s) = 3.91886 5.68210 2.90936
#
# Compressibility (1/GPa) = 0.03564966
#
# Stress axis : x y z
#
# Youngs Moduli (GPa) = 36.77990 93.95446 132.01817
#
# Poissons Ratio (x) = -0.02582 0.70271
# Poissons Ratio (y) = -0.01011 -0.02235
# Poissons Ratio (z) = 0.19577 -0.01591
#
# Static dielectric constant tensor:
#      x y z
#    x 1.717440 0.000000 0.000000 
#    y 0.000000 1.739220 0.000000 
#    z 0.000000 0.000000 1.891330 
# 
# From -- ./inp_files/24785.got.cif
#   From: 2010.05.17/outbox.cif.g08.bks.cpg/sg54_13_cif.got.tgz:24785.got - 2010.06.03 13:09:01.
