data_PCOD9423182
_publ_section_title
;
Structure prediction by ZEFSAII (Michael W. Deem and Ramdas Pophale) SiO2 
 PCOD9423182
Probable space group: P C C A
;
_chemical_formula_sum "Si O2"
_cell_formula_units_Z 40
_cell_length_a 5.056133
_cell_length_b 18.071365
_cell_length_c 18.831448
_cell_angle_alpha 90.000000
_cell_angle_beta 90.000000
_cell_angle_gamma 90.000000
_cell_volume 1720.652471
_symmetry_space_group_name_H-M "P C C A"
_symmetry_group_IT_number 54
_symmetry_cell_setting 'orthorhombic'
loop_
_space_group_symop_operation_xyz
x,y,z
1/2-x,-y,z
1/2+x,-y,1/2-z
-x,y,1/2-z
-x,-y,-z
1/2+x,y,-z
1/2-x,y,1/2+z
x,-y,1/2+z
loop_
_atom_site_type_symbol
_atom_site_label
_atom_site_fract_x
_atom_site_fract_y
_atom_site_fract_z
Si Si1 0.382542 0.373187 0.144850
Si Si2 0.750000 0.500000 0.701790
Si Si3 0.163188 0.160957 0.823741
Si Si4 0.000000 0.716573 0.750000
Si Si5 0.750000 0.500000 0.949396
Si Si6 0.411639 0.764808 0.547468
Si Si7 0.750000 0.000000 0.199548
O O1 0.629293 0.426587 0.164920
O O2 0.202838 0.431144 0.102638
O O3 0.459298 0.313194 0.086368
O O4 0.225147 0.330728 0.207942
O O5 0.500000 0.477631 0.750000
O O6 0.367162 0.228187 0.808126
O O7 0.281228 0.079522 0.837791
O O8 0.000000 0.159530 0.750000
O O9 0.977686 0.178451 0.889972
O O10 0.500000 0.500000 0.000000
O O11 0.619539 0.771836 0.483564
O O12 0.500000 0.006118 0.250000
#
# Coordination Sequence:
#
# PCOD9423182 Si02
#       7
#     8   4   8   4   4   8   4
#     4  12  29  52  78 105 153 197 265 320 399 462
#     4  12  32  50  72 108 152 196 258 336 404 456
#     4  11  24  48  79 122 155 207 262 318 383 467
#     4  12  26  50  80 122 150 200 258 340 394 458
#     4  12  28  52  76  98 140 204 260 310 384 470
#     4  12  28  50  77 113 159 205 256 322 393 466
#     4  10  22  42  80 116 162 202 256 320 376 456
#
# _framework density 23.246994000000001
#
# number of rings (size 3 to 8) (size 9 to 14) (size 15 to 20)
#    0.000    0.400    3.000    3.600    7.000    4.800 
#    0.000    1.000    0.000    0.000    0.000    0.000 
#    0.000    0.000    0.000    0.000    0.000    0.000 
#
# Total GULP energy -223817.446558 kJ/mol
# GULP energy per Si atom -5595.436164 kJ/mol
# Density = 2.319408 g / cm^3
# Si number density = 23.246994 Si / 1000 Ang^3
#
#
#
# Elastic Constant Matrix: (Units=GPa)
#
#
# Indices 1 2 3 4 5 6 
#
# 1 117.7955 24.7720 23.6549 0.0000 0.0000 0.0000
# 2 24.7720 152.3468 42.4391 0.0000 0.0000 0.0000
# 3 23.6549 42.4391 100.4596 0.0000 0.0000 0.0000
# 4 0.0000 0.0000 0.0000 -34.4888 0.0000 0.0000
# 5 0.0000 0.0000 0.0000 0.0000 40.5457 0.0000
# 6 0.0000 0.0000 0.0000 0.0000 0.0000 36.3392
#
#
#
# Elastic Compliance Matrix: (Units=1/GPa)
#
#
# Indices 1 2 3 4 5 6 
#
# 1 0.009042 -0.000994 -0.001709 0.000000 0.000000 0.000000
# 2 -0.000994 0.007549 -0.002955 0.000000 0.000000 0.000000
# 3 -0.001709 -0.002955 0.011605 0.000000 0.000000 0.000000
# 4 0.000000 0.000000 0.000000 -0.028995 0.000000 0.000000
# 5 0.000000 0.000000 0.000000 0.000000 0.024664 0.000000
# 6 0.000000 0.000000 0.000000 0.000000 0.000000 0.027518
#
#
# Mechanical properties :
#
#
# Convention : Reuss Voigt Hill
#
# Bulk Modulus (GPa) = 59.24441 61.37043 60.30742
# Shear Modulus (GPa) = 73.17988 27.12828 50.15408
#
# Velocity S-wave (km/s) = 5.61673 3.41978 4.64987
# Velocity P-wave (km/s) = 8.22214 6.48458 7.40451
#
# Compressibility (1/GPa) = 0.01687923
#
# Stress axis : x y z
#
# Youngs Moduli (GPa) = 110.60063 132.47214 86.17007
#
# Poissons Ratio (x) = 0.13169 0.14727
# Poissons Ratio (y) = 0.10995 0.25462
# Poissons Ratio (z) = 0.18902 0.39144
#
# Static dielectric constant tensor:
#      x y z
#    x 1.881330 0.000000 0.000000 
#    y 0.000000 1.967960 0.000000 
#    z 0.000000 0.000000 1.904370 
# 
# From -- ./inp_files/15821.got.cif
#   From: 2010.05.17/outbox.cif.g08.bks.cpg/sg54_8_cif.got.tgz:15821.got - 2010.06.03 13:09:01.
