data_PCOD9423872
_publ_section_title
;
Structure prediction by ZEFSAII (Michael W. Deem and Ramdas Pophale) SiO2 
 PCOD9423872
Probable space group: P C C A
;
_chemical_formula_sum "Si O2"
_cell_formula_units_Z 32
_cell_length_a 29.624712
_cell_length_b 4.658455
_cell_length_c 8.621959
_cell_angle_alpha 90.000000
_cell_angle_beta 90.000000
_cell_angle_gamma 90.000000
_cell_volume 1189.876795
_symmetry_space_group_name_H-M "P C C A"
_symmetry_group_IT_number 54
_symmetry_cell_setting 'orthorhombic'
loop_
_space_group_symop_operation_xyz
x,y,z
1/2-x,-y,z
1/2+x,-y,1/2-z
-x,y,1/2-z
-x,-y,-z
1/2+x,y,-z
1/2-x,y,1/2+z
x,-y,1/2+z
loop_
_atom_site_type_symbol
_atom_site_label
_atom_site_fract_x
_atom_site_fract_y
_atom_site_fract_z
Si Si1 0.030311 0.204987 0.108388
Si Si2 0.842830 0.627272 0.664676
Si Si3 0.717129 0.254674 0.931741
Si Si4 0.905801 0.711326 0.398862
O O1 0.068426 0.984471 0.166154
O O2 0.000000 0.310229 0.250000
O O3 0.057273 0.476714 0.041395
O O4 0.000000 0.000000 0.000000
O O5 0.815083 0.818813 0.786889
O O6 0.811157 0.411507 0.566093
O O7 0.872150 0.794344 0.537443
O O8 0.876660 0.442134 0.768475
O O9 0.750000 0.500000 0.867437
O O10 0.750000 0.000000 0.983331
#
# Coordination Sequence:
#
# PCOD9423872 Si02
#       4
#     8   8   8   8
#     4  12  24  41  66  98 135 178 227 284 343 409
#     4  10  25  45  70  99 137 182 230 288 352 420
#     4  11  26  45  70 101 136 178 231 290 352 420
#     4  11  24  43  67  98 135 180 229 282 346 417
#
# _framework density 26.893542
#
# number of rings (size 3 to 8) (size 9 to 14) (size 15 to 20)
#    0.000    1.000    0.000    5.250    0.000   16.000 
#    0.000    3.750    0.000    0.000    0.000    0.000 
#    0.000    0.000    0.000    0.000    0.000    0.000 
#
# Total GULP energy -179698.852140 kJ/mol
# GULP energy per Si atom -5615.589129 kJ/mol
# Density = 2.683233 g / cm^3
# Si number density = 26.893542 Si / 1000 Ang^3
#
#
#
# Elastic Constant Matrix: (Units=GPa)
#
#
# Indices 1 2 3 4 5 6 
#
# 1 128.9388 41.6365 63.7493 0.0000 0.0000 0.0000
# 2 41.6365 97.2876 -1.0727 0.0000 0.0000 0.0000
# 3 63.7493 -1.0727 126.0783 0.0000 0.0000 0.0000
# 4 0.0000 0.0000 0.0000 -195.6716 0.0000 0.0000
# 5 0.0000 0.0000 0.0000 0.0000 62.2996 0.0000
# 6 0.0000 0.0000 0.0000 0.0000 0.0000 -13.5980
#
#
#
# Elastic Compliance Matrix: (Units=1/GPa)
#
#
# Indices 1 2 3 4 5 6 
#
# 1 0.012752 -0.005529 -0.006495 0.000000 0.000000 0.000000
# 2 -0.005529 0.012677 0.002904 0.000000 0.000000 0.000000
# 3 -0.006495 0.002904 0.011240 0.000000 0.000000 0.000000
# 4 0.000000 0.000000 0.000000 -0.005111 0.000000 0.000000
# 5 0.000000 0.000000 0.000000 0.000000 0.016051 0.000000
# 6 0.000000 0.000000 0.000000 0.000000 0.000000 -0.073540
#
#
# Mechanical properties :
#
#
# Convention : Reuss Voigt Hill
#
# Bulk Modulus (GPa) = 54.26354 62.32564 58.29459
# Shear Modulus (GPa) = -3235.42064 -12.86123 -1624.14093
#
# Velocity S-wave (km/s) = -34.72260 -2.18921 -24.60134
# Velocity P-wave (km/s) = 39.84124 4.10305 28.02222
#
# Compressibility (1/GPa) = 0.01842858
#
# Stress axis : x y z
#
# Youngs Moduli (GPa) = 78.41681 78.88174 88.96487
#
# Poissons Ratio (x) = 0.43616 0.57783
# Poissons Ratio (y) = 0.43359 -0.25832
# Poissons Ratio (z) = 0.50932 -0.22904
#
# Static dielectric constant tensor:
#      x y z
#    x 2.137510 0.000000 0.000000 
#    y 0.000000 2.041250 0.000000 
#    z 0.000000 0.000000 2.000940 
# 
# From -- ./inp_files/5695.got.cif
#   From: 2010.05.17/outbox.cif.g08.bks.cpg/sg54_3_cif.got.tgz:5695.got - 2010.06.03 13:09:01.
