data_PCOD9423684
_publ_section_title
;
Structure prediction by ZEFSAII (Michael W. Deem and Ramdas Pophale) SiO2 
 PCOD9423684
Probable space group: P C C A
;
_chemical_formula_sum "Si O2"
_cell_formula_units_Z 28
_cell_length_a 8.652894
_cell_length_b 5.352584
_cell_length_c 28.229655
_cell_angle_alpha 90.000000
_cell_angle_beta 90.000000
_cell_angle_gamma 90.000000
_cell_volume 1307.466125
_symmetry_space_group_name_H-M "P C C A"
_symmetry_group_IT_number 54
_symmetry_cell_setting 'orthorhombic'
loop_
_space_group_symop_operation_xyz
x,y,z
1/2-x,-y,z
1/2+x,-y,1/2-z
-x,y,1/2-z
-x,-y,-z
1/2+x,y,-z
1/2-x,y,1/2+z
x,-y,1/2+z
loop_
_atom_site_type_symbol
_atom_site_label
_atom_site_fract_x
_atom_site_fract_y
_atom_site_fract_z
Si Si1 0.063771 0.007340 0.852050
Si Si2 0.984725 0.177854 0.044431
Si Si3 0.564021 0.494060 0.803116
Si Si4 0.750000 0.500000 0.996646
O O1 0.011902 0.960572 0.906092
O O2 0.995703 0.771384 0.823114
O O3 0.250000 0.000000 0.849083
O O4 0.001256 0.271713 0.833118
O O5 0.822552 0.305307 0.033249
O O6 0.119545 0.381769 0.036941
O O7 0.000000 0.000000 0.000000
O O8 0.750000 0.500000 0.803494
O O9 0.500000 0.522904 0.750000
#
# Coordination Sequence:
#
# PCOD9423684 Si02
#       4
#     8   8   8   4
#     4  12  27  46  78 108 148 196 245 301 369 437
#     4  11  25  43  69 103 147 191 244 294 361 426
#     4  12  28  51  77 109 146 188 245 307 373 440
#     4  10  24  42  68  98 148 192 240 298 354 426
#
# _framework density 21.415469000000002
#
# number of rings (size 3 to 8) (size 9 to 14) (size 15 to 20)
#    0.000    0.571    0.000    6.857   14.000    2.286 
#    0.000    0.000    0.000    0.000    0.000    0.000 
#    0.000    0.000    0.000    0.000    0.000    0.000 
#
# Total GULP energy -156764.744830 kJ/mol
# GULP energy per Si atom -5598.740887 kJ/mol
# Density = 2.136673 g / cm^3
# Si number density = 21.415469 Si / 1000 Ang^3
#
#
#
# Elastic Constant Matrix: (Units=GPa)
#
#
# Indices 1 2 3 4 5 6 
#
# 1 109.0116 16.6430 22.5426 0.0000 0.0000 0.0000
# 2 16.6430 91.5254 19.3404 0.0000 0.0000 0.0000
# 3 22.5426 19.3404 123.8927 0.0000 0.0000 0.0000
# 4 0.0000 0.0000 0.0000 44.5499 0.0000 0.0000
# 5 0.0000 0.0000 0.0000 0.0000 21.0603 0.0000
# 6 0.0000 0.0000 0.0000 0.0000 0.0000 51.3261
#
#
#
# Elastic Compliance Matrix: (Units=1/GPa)
#
#
# Indices 1 2 3 4 5 6 
#
# 1 0.009712 -0.001440 -0.001542 0.000000 0.000000 0.000000
# 2 -0.001440 0.011512 -0.001535 0.000000 0.000000 0.000000
# 3 -0.001542 -0.001535 0.008592 0.000000 0.000000 0.000000
# 4 0.000000 0.000000 0.000000 0.022447 0.000000 0.000000
# 5 0.000000 0.000000 0.000000 0.000000 0.047483 0.000000
# 6 0.000000 0.000000 0.000000 0.000000 0.000000 0.019483
#
#
# Mechanical properties :
#
#
# Convention : Reuss Voigt Hill
#
# Bulk Modulus (GPa) = 48.12095 49.05353 48.58724
# Shear Modulus (GPa) = 36.98472 41.11416 39.04944
#
# Velocity S-wave (km/s) = 4.16024 4.38635 4.27479
# Velocity P-wave (km/s) = 6.75246 6.97200 6.86311
#
# Compressibility (1/GPa) = 0.02078097
#
# Stress axis : x y z
#
# Youngs Moduli (GPa) = 102.96389 86.86447 116.39049
#
# Poissons Ratio (x) = 0.12510 0.17951
# Poissons Ratio (y) = 0.14828 0.17867
# Poissons Ratio (z) = 0.15880 0.13334
#
# Static dielectric constant tensor:
#      x y z
#    x 1.698210 0.000000 0.000000 
#    y 0.000000 1.767940 0.000000 
#    z 0.000000 0.000000 1.760890 
# 
# From -- ./inp_files/25596.got.cif
#   From: 2010.05.17/outbox.cif.g08.bks.cpg/sg54_13_cif.got.tgz:25596.got - 2010.06.03 13:09:01.
