data_PCOD9423923
_publ_section_title
;
Structure prediction by ZEFSAII (Michael W. Deem and Ramdas Pophale) SiO2 
 PCOD9423923
Probable space group: P C C A
;
_chemical_formula_sum "Si O2"
_cell_formula_units_Z 32
_cell_length_a 16.627275
_cell_length_b 8.413007
_cell_length_c 8.547186
_cell_angle_alpha 90.000000
_cell_angle_beta 90.000000
_cell_angle_gamma 90.000000
_cell_volume 1195.626370
_symmetry_space_group_name_H-M "P C C A"
_symmetry_group_IT_number 54
_symmetry_cell_setting 'orthorhombic'
loop_
_space_group_symop_operation_xyz
x,y,z
1/2-x,-y,z
1/2+x,-y,1/2-z
-x,y,1/2-z
-x,-y,-z
1/2+x,y,-z
1/2-x,y,1/2+z
x,-y,1/2+z
loop_
_atom_site_type_symbol
_atom_site_label
_atom_site_fract_x
_atom_site_fract_y
_atom_site_fract_z
Si Si1 0.647148 0.855869 0.646987
Si Si2 0.055665 0.356903 0.438697
Si Si3 0.500000 0.071501 0.750000
Si Si4 0.657342 0.547604 0.775684
Si Si5 0.250000 0.000000 0.614929
O O1 0.638480 0.668559 0.631642
O O2 0.678122 0.940540 0.492649
O O3 0.575004 0.953318 0.724463
O O4 0.721974 0.864886 0.767451
O O5 0.122928 0.357834 0.574506
O O6 0.000000 0.500000 0.500000
O O7 0.009865 0.191900 0.399685
O O8 0.897917 0.399996 0.222409
O O9 0.750000 0.500000 0.789659
#
# Coordination Sequence:
#
# PCOD9423923 Si02
#       5
#     8   8   4   8   4
#     4  11  28  47  79 108 153 197 253 317 381 458
#     4  12  27  50  77 111 154 200 258 315 388 463
#     4  12  28  50  78 114 152 200 260 318 384 460
#     4  12  29  48  78 112 152 202 255 318 389 458
#     4  10  26  48  74 110 146 192 252 304 388 446
#
# _framework density 26.764215
#
# number of rings (size 3 to 8) (size 9 to 14) (size 15 to 20)
#    0.000    0.500    2.500    2.250   21.000    2.000 
#    0.000    0.000    0.000    0.000    0.000    0.000 
#    0.000    0.000    0.000    0.000    0.000    0.000 
#
# Total GULP energy -179145.021923 kJ/mol
# GULP energy per Si atom -5598.281935 kJ/mol
# Density = 2.670330 g / cm^3
# Si number density = 26.764215 Si / 1000 Ang^3
#
#
#
# Elastic Constant Matrix: (Units=GPa)
#
#
# Indices 1 2 3 4 5 6 
#
# 1 131.1306 51.9912 27.0951 0.0000 0.0000 0.0000
# 2 51.9912 109.4698 -8.6852 0.0000 0.0000 0.0000
# 3 27.0951 -8.6852 85.2108 0.0000 0.0000 0.0000
# 4 0.0000 0.0000 0.0000 39.0422 0.0000 0.0000
# 5 0.0000 0.0000 0.0000 0.0000 41.0820 0.0000
# 6 0.0000 0.0000 0.0000 0.0000 0.0000 56.2614
#
#
#
# Elastic Compliance Matrix: (Units=1/GPa)
#
#
# Indices 1 2 3 4 5 6 
#
# 1 0.010537 -0.005313 -0.003892 0.000000 0.000000 0.000000
# 2 -0.005313 0.011888 0.002901 0.000000 0.000000 0.000000
# 3 -0.003892 0.002901 0.013269 0.000000 0.000000 0.000000
# 4 0.000000 0.000000 0.000000 0.025613 0.000000 0.000000
# 5 0.000000 0.000000 0.000000 0.000000 0.024342 0.000000
# 6 0.000000 0.000000 0.000000 0.000000 0.000000 0.017774
#
#
# Mechanical properties :
#
#
# Convention : Reuss Voigt Hill
#
# Bulk Modulus (GPa) = 43.31560 51.84591 47.58075
# Shear Modulus (GPa) = 40.41180 44.30447 42.35813
#
# Velocity S-wave (km/s) = 3.88998 4.07303 3.98256
# Velocity P-wave (km/s) = 6.03285 6.44460 6.24212
#
# Compressibility (1/GPa) = 0.02308637
#
# Stress axis : x y z
#
# Youngs Moduli (GPa) = 94.90628 84.11504 75.36437
#
# Poissons Ratio (x) = 0.44691 0.29332
# Poissons Ratio (y) = 0.50424 -0.21865
# Poissons Ratio (z) = 0.36937 -0.24403
#
# Static dielectric constant tensor:
#      x y z
#    x 2.091530 0.000000 0.000000 
#    y 0.000000 2.217450 0.000000 
#    z 0.000000 0.000000 2.134950 
# 
# From -- ./inp_files/7974.got.cif
#   From: 2010.05.17/outbox.cif.g08.bks.cpg/sg54_4_cif.got.tgz:7974.got - 2010.06.03 13:09:01.
