data_PCOD9423045
_publ_section_title
;
Structure prediction by ZEFSAII (Michael W. Deem and Ramdas Pophale) SiO2 
 PCOD9423045
Probable space group: P C C A
;
_chemical_formula_sum "Si O2"
_cell_formula_units_Z 36
_cell_length_a 4.703951
_cell_length_b 26.808751
_cell_length_c 11.637714
_cell_angle_alpha 90.000000
_cell_angle_beta 90.000000
_cell_angle_gamma 90.000000
_cell_volume 1467.597794
_symmetry_space_group_name_H-M "P C C A"
_symmetry_group_IT_number 54
_symmetry_cell_setting 'orthorhombic'
loop_
_space_group_symop_operation_xyz
x,y,z
1/2-x,-y,z
1/2+x,-y,1/2-z
-x,y,1/2-z
-x,-y,-z
1/2+x,y,-z
1/2-x,y,1/2+z
x,-y,1/2+z
loop_
_atom_site_type_symbol
_atom_site_label
_atom_site_fract_x
_atom_site_fract_y
_atom_site_fract_z
Si Si1 0.000000 0.300320 0.250000
Si Si2 0.701325 0.443866 0.921627
Si Si3 0.280452 0.111054 0.077956
Si Si4 0.280663 0.776475 0.577955
Si Si5 0.500000 0.034217 0.750000
Si Si6 0.500000 0.368518 0.250000
O O1 0.833120 0.265527 0.338965
O O2 0.749183 0.334232 0.195795
O O3 0.750000 0.500000 0.876562
O O4 0.824820 0.402843 0.837726
O O5 0.375351 0.439580 0.958399
O O6 0.231159 0.167293 0.123014
O O7 0.166598 0.069072 0.161059
O O8 0.607288 0.106870 0.041906
O O9 0.607476 0.772311 0.541897
O O10 0.750000 0.000000 0.696624
#
# Coordination Sequence:
#
# PCOD9423045 Si02
#       6
#     4   8   8   8   4   4
#     4  12  25  39  60  94 128 159 195 246 310 364
#     4  10  23  43  65  88 118 160 205 246 290 348
#     4  10  22  41  63  86 116 159 207 250 295 357
#     4  10  22  41  64  87 118 162 206 248 295 357
#     4  12  25  38  59  90 123 158 195 250 314 364
#     4  12  26  39  63  96 127 161 196 250 310 360
#
# _framework density 24.529882000000001
#
# number of rings (size 3 to 8) (size 9 to 14) (size 15 to 20)
#    0.000    1.333    0.000    4.667    0.000   11.556 
#    0.000    8.889    0.000    0.000    0.000    0.000 
#    0.000    0.000    0.000    0.000    0.000    0.000 
#
# Total GULP energy -201622.147955 kJ/mol
# GULP energy per Si atom -5600.615221 kJ/mol
# Density = 2.447405 g / cm^3
# Si number density = 24.529882 Si / 1000 Ang^3
#
#
#
# Elastic Constant Matrix: (Units=GPa)
#
#
# Indices 1 2 3 4 5 6 
#
# 1 98.8203 24.1899 -9.3868 0.0000 0.0000 0.0000
# 2 24.1899 140.3587 33.8826 0.0000 0.0000 0.0000
# 3 -9.3868 33.8826 27.5621 0.0000 0.0000 0.0000
# 4 0.0000 0.0000 0.0000 39.8376 0.0000 0.0000
# 5 0.0000 0.0000 0.0000 0.0000 31.3107 0.0000
# 6 0.0000 0.0000 0.0000 0.0000 0.0000 21.1382
#
#
#
# Elastic Compliance Matrix: (Units=1/GPa)
#
#
# Indices 1 2 3 4 5 6 
#
# 1 0.012093 -0.004377 0.009500 0.000000 0.000000 0.000000
# 2 -0.004377 0.011716 -0.015893 0.000000 0.000000 0.000000
# 3 0.009500 -0.015893 0.059055 0.000000 0.000000 0.000000
# 4 0.000000 0.000000 0.000000 0.025102 0.000000 0.000000
# 5 0.000000 0.000000 0.000000 0.000000 0.031938 0.000000
# 6 0.000000 0.000000 0.000000 0.000000 0.000000 0.047308
#
#
# Mechanical properties :
#
#
# Convention : Reuss Voigt Hill
#
# Bulk Modulus (GPa) = 16.30725 40.45693 28.38209
# Shear Modulus (GPa) = 21.81568 32.99436 27.40502
#
# Velocity S-wave (km/s) = 2.98543 3.67150 3.34609
# Velocity P-wave (km/s) = 4.30652 5.87383 5.15015
#
# Compressibility (1/GPa) = 0.06132240
#
# Stress axis : x y z
#
# Youngs Moduli (GPa) = 82.69026 85.35621 16.93348
#
# Poissons Ratio (x) = 0.37365 -0.16087
# Poissons Ratio (y) = 0.36198 0.26912
# Poissons Ratio (z) = -0.78555 1.35657
#
# Static dielectric constant tensor:
#      x y z
#    x 1.880260 0.000000 0.000000 
#    y 0.000000 1.947260 0.000000 
#    z 0.000000 0.000000 1.933760 
# 
# From -- ./inp_files/6400.got.cif
#   From: 2010.05.17/outbox.cif.g08.bks.cpg/sg54_4_cif.got.tgz:6400.got - 2010.06.03 13:09:01.
