data_PCOD9423880
_publ_section_title
;
Structure prediction by ZEFSAII (Michael W. Deem and Ramdas Pophale) SiO2 
 PCOD9423880
Probable space group: P C C A
;
_chemical_formula_sum "Si O2"
_cell_formula_units_Z 24
_cell_length_a 12.538548
_cell_length_b 6.783453
_cell_length_c 11.637953
_cell_angle_alpha 90.000000
_cell_angle_beta 90.000000
_cell_angle_gamma 90.000000
_cell_volume 989.862031
_symmetry_space_group_name_H-M "P C C A"
_symmetry_group_IT_number 54
_symmetry_cell_setting 'orthorhombic'
loop_
_space_group_symop_operation_xyz
x,y,z
1/2-x,-y,z
1/2+x,-y,1/2-z
-x,y,1/2-z
-x,-y,-z
1/2+x,y,-z
1/2-x,y,1/2+z
x,-y,1/2+z
loop_
_atom_site_type_symbol
_atom_site_label
_atom_site_fract_x
_atom_site_fract_y
_atom_site_fract_z
Si Si1 0.957665 0.738246 0.897995
Si Si2 0.868311 0.507974 0.191599
Si Si3 0.870525 0.084333 0.628076
O O1 0.883520 0.639603 0.799324
O O2 0.048680 0.569785 0.901832
O O3 0.888206 0.810814 0.004310
O O4 0.035180 0.923981 0.867145
O O5 0.750000 0.500000 0.145612
O O6 0.885095 0.737835 0.218820
O O7 0.750000 0.000000 0.637123
#
# Coordination Sequence:
#
# PCOD9423880 Si02
#       3
#     8   8   8
#     4  10  25  46  70 108 141 198 236 298 364 436
#     4  11  23  46  72 105 146 184 243 300 363 420
#     4  11  23  49  74 103 150 189 244 296 364 435
#
# _framework density 24.245804
#
# number of rings (size 3 to 8) (size 9 to 14) (size 15 to 20)
#    0.000    1.333    3.333    1.000    0.000    6.667 
#   36.000    0.000    0.000    0.000    0.000    0.000 
#    0.000    0.000    0.000    0.000    0.000    0.000 
#
# Total GULP energy -133844.307730 kJ/mol
# GULP energy per Si atom -5576.846155 kJ/mol
# Density = 2.419062 g / cm^3
# Si number density = 24.245804 Si / 1000 Ang^3
#
#
#
# Elastic Constant Matrix: (Units=GPa)
#
#
# Indices 1 2 3 4 5 6 
#
# 1 105.0140 11.9753 40.5328 0.0000 0.0000 0.0000
# 2 11.9753 156.2921 35.7123 0.0000 0.0000 0.0000
# 3 40.5328 35.7123 98.7535 0.0000 0.0000 0.0000
# 4 0.0000 0.0000 0.0000 77.1853 0.0000 0.0000
# 5 0.0000 0.0000 0.0000 0.0000 12.7310 0.0000
# 6 0.0000 0.0000 0.0000 0.0000 0.0000 49.6312
#
#
#
# Elastic Compliance Matrix: (Units=1/GPa)
#
#
# Indices 1 2 3 4 5 6 
#
# 1 0.011322 0.000212 -0.004723 0.000000 0.000000 0.000000
# 2 0.000212 0.006979 -0.002611 0.000000 0.000000 0.000000
# 3 -0.004723 -0.002611 0.013009 0.000000 0.000000 0.000000
# 4 0.000000 0.000000 0.000000 0.012956 0.000000 0.000000
# 5 0.000000 0.000000 0.000000 0.000000 0.078548 0.000000
# 6 0.000000 0.000000 0.000000 0.000000 0.000000 0.020149
#
#
# Mechanical properties :
#
#
# Convention : Reuss Voigt Hill
#
# Bulk Modulus (GPa) = 58.60077 59.61117 59.10597
# Shear Modulus (GPa) = 30.69473 46.03210 38.36342
#
# Velocity S-wave (km/s) = 3.56192 4.36197 3.98209
# Velocity P-wave (km/s) = 6.41392 7.07168 6.75081
#
# Compressibility (1/GPa) = 0.01706462
#
# Stress axis : x y z
#
# Youngs Moduli (GPa) = 88.32730 143.29600 76.86975
#
# Poissons Ratio (x) = -0.03035 0.36309
# Poissons Ratio (y) = -0.01871 0.20068
# Poissons Ratio (z) = 0.41721 0.37409
#
# Static dielectric constant tensor:
#      x y z
#    x 1.826830 0.000000 0.000000 
#    y 0.000000 2.035680 0.000000 
#    z 0.000000 0.000000 2.023310 
# 
# From -- ./inp_files/12867.got.cif
#   From: 2010.05.17/outbox.cif.g08.bks.cpg/sg54_7_cif.got.tgz:12867.got - 2010.06.03 13:09:01.
