data_PCOD9423161
_publ_section_title
;
Structure prediction by ZEFSAII (Michael W. Deem and Ramdas Pophale) SiO2 
 PCOD9423161
Probable space group: P C C A
;
_chemical_formula_sum "Si O2"
_cell_formula_units_Z 24
_cell_length_a 5.391692
_cell_length_b 10.905322
_cell_length_c 18.652356
_cell_angle_alpha 90.000000
_cell_angle_beta 90.000000
_cell_angle_gamma 90.000000
_cell_volume 1096.723791
_symmetry_space_group_name_H-M "P C C A"
_symmetry_group_IT_number 54
_symmetry_cell_setting 'orthorhombic'
loop_
_space_group_symop_operation_xyz
x,y,z
1/2-x,-y,z
1/2+x,-y,1/2-z
-x,y,1/2-z
-x,-y,-z
1/2+x,y,-z
1/2-x,y,1/2+z
x,-y,1/2+z
loop_
_atom_site_type_symbol
_atom_site_label
_atom_site_fract_x
_atom_site_fract_y
_atom_site_fract_z
Si Si1 0.850697 0.265807 0.325530
Si Si2 0.500000 0.422646 0.250000
Si Si3 0.250000 0.000000 0.202054
Si Si4 0.989262 0.640432 0.529619
O O1 0.589092 0.334315 0.313688
O O2 0.804409 0.123637 0.341792
O O3 0.000000 0.265324 0.250000
O O4 0.991716 0.343167 0.385546
O O5 0.750000 0.500000 0.236081
O O6 0.500000 0.022623 0.250000
O O7 0.738811 0.698584 0.501191
O O8 0.000000 0.500000 0.500000
#
# Coordination Sequence:
#
# PCOD9423161 Si02
#       4
#     8   4   4   8
#     4  11  25  45  73 102 140 183 242 292 354 413
#     4  12  26  36  64 106 138 168 228 286 358 414
#     4  10  22  42  70 106 134 176 238 306 346 404
#     4  10  25  42  63  94 143 184 226 279 354 423
#
# _framework density 21.883358999999999
#
# number of rings (size 3 to 8) (size 9 to 14) (size 15 to 20)
#    0.000    1.333    3.333    0.000    9.333    2.667 
#    0.000    1.667    0.000    0.000    0.000    0.000 
#    0.000    0.000    0.000    0.000    0.000    0.000 
#
# Total GULP energy -133913.579493 kJ/mol
# GULP energy per Si atom -5579.732479 kJ/mol
# Density = 2.183355 g / cm^3
# Si number density = 21.883359 Si / 1000 Ang^3
#
#
#
# Elastic Constant Matrix: (Units=GPa)
#
#
# Indices 1 2 3 4 5 6 
#
# 1 170.8470 16.9911 37.2070 0.0000 0.0000 0.0000
# 2 16.9911 143.0726 33.5154 0.0000 0.0000 0.0000
# 3 37.2070 33.5154 116.9588 0.0000 0.0000 0.0000
# 4 0.0000 0.0000 0.0000 43.2760 0.0000 0.0000
# 5 0.0000 0.0000 0.0000 0.0000 37.1555 0.0000
# 6 0.0000 0.0000 0.0000 0.0000 0.0000 20.5214
#
#
#
# Elastic Compliance Matrix: (Units=1/GPa)
#
#
# Indices 1 2 3 4 5 6 
#
# 1 0.006301 -0.000299 -0.001919 0.000000 0.000000 0.000000
# 2 -0.000299 0.007507 -0.002056 0.000000 0.000000 0.000000
# 3 -0.001919 -0.002056 0.009750 0.000000 0.000000 0.000000
# 4 0.000000 0.000000 0.000000 0.023108 0.000000 0.000000
# 5 0.000000 0.000000 0.000000 0.000000 0.026914 0.000000
# 6 0.000000 0.000000 0.000000 0.000000 0.000000 0.048730
#
#
# Mechanical properties :
#
#
# Convention : Reuss Voigt Hill
#
# Bulk Modulus (GPa) = 66.62330 67.36727 66.99528
# Shear Modulus (GPa) = 36.80299 43.06823 39.93561
#
# Velocity S-wave (km/s) = 4.10540 4.44112 4.27656
# Velocity P-wave (km/s) = 7.27896 7.55973 7.42067
#
# Compressibility (1/GPa) = 0.01500976
#
# Stress axis : x y z
#
# Youngs Moduli (GPa) = 158.71060 133.21661 102.56845
#
# Poissons Ratio (x) = 0.03980 0.19681
# Poissons Ratio (y) = 0.04742 0.21088
# Poissons Ratio (z) = 0.30453 0.27390
#
# Static dielectric constant tensor:
#      x y z
#    x 1.867430 0.000000 0.000000 
#    y 0.000000 1.816810 0.000000 
#    z 0.000000 0.000000 1.902640 
# 
# From -- ./inp_files/19439.got.cif
#   From: 2010.05.17/outbox.cif.g08.bks.cpg/sg54_10_cif.got.tgz:19439.got - 2010.06.03 13:09:01.
