data_PCOD9423793
_publ_section_title
;
Structure prediction by ZEFSAII (Michael W. Deem and Ramdas Pophale) SiO2 
 PCOD9423793
Probable space group: P C C A
;
_chemical_formula_sum "Si O2"
_cell_formula_units_Z 56
_cell_length_a 14.196191
_cell_length_b 15.327064
_cell_length_c 11.757910
_cell_angle_alpha 90.000000
_cell_angle_beta 90.000000
_cell_angle_gamma 90.000000
_cell_volume 2558.355759
_symmetry_space_group_name_H-M "P C C A"
_symmetry_group_IT_number 54
_symmetry_cell_setting 'orthorhombic'
loop_
_space_group_symop_operation_xyz
x,y,z
1/2-x,-y,z
1/2+x,-y,1/2-z
-x,y,1/2-z
-x,-y,-z
1/2+x,y,-z
1/2-x,y,1/2+z
x,-y,1/2+z
loop_
_atom_site_type_symbol
_atom_site_label
_atom_site_fract_x
_atom_site_fract_y
_atom_site_fract_z
Si Si1 0.615960 0.357767 0.103851
Si Si2 0.000000 0.325114 0.250000
Si Si3 0.069437 0.395663 0.488258
Si Si4 0.623238 0.257714 0.333535
Si Si5 0.164040 0.234407 0.111843
Si Si6 0.250000 0.500000 0.945901
Si Si7 0.979958 0.924197 0.363365
Si Si8 0.154940 0.949553 0.501173
O O1 0.594893 0.308943 0.219946
O O2 0.702254 0.423000 0.124104
O O3 0.527320 0.414379 0.056927
O O4 0.645443 0.290268 0.003934
O O5 0.044277 0.381277 0.354970
O O6 0.080360 0.264426 0.194538
O O7 0.094267 0.303474 0.548121
O O8 0.161506 0.455393 0.510353
O O9 0.735912 0.257055 0.334382
O O10 0.575121 0.163810 0.335150
O O11 0.171819 0.131549 0.084801
O O12 0.000000 0.978760 0.250000
O O13 0.084612 0.907594 0.409469
O O14 0.911542 0.977375 0.443999
O O15 0.250000 0.000000 0.464896
#
# Coordination Sequence:
#
# PCOD9423793 Si02
#       8
#     8   4   8   8   8   4   8   8
#     4  11  25  46  71 101 143 190 237 297 357 429
#     4  10  24  46  70 102 144 190 236 294 362 436
#     4  11  24  46  72 103 140 184 231 296 359 427
#     4  12  23  46  74  99 141 192 240 288 361 432
#     4  11  23  44  70 100 141 190 240 294 358 427
#     4  12  24  46  70 108 138 182 240 300 358 432
#     4  11  24  44  69 101 140 183 236 289 350 426
#     4  11  24  45  66 102 140 183 233 296 354 418
#
# _framework density 21.889059
#
# number of rings (size 3 to 8) (size 9 to 14) (size 15 to 20)
#    0.000    0.857    2.857    5.143    1.000    1.143 
#   10.286    0.000    0.000    0.000    0.000    0.000 
#    0.000    0.000    0.000    0.000    0.000    0.000 
#
# Total GULP energy -312628.892596 kJ/mol
# GULP energy per Si atom -5582.658796 kJ/mol
# Density = 2.183924 g / cm^3
# Si number density = 21.889059 Si / 1000 Ang^3
#
#
#
# Elastic Constant Matrix: (Units=GPa)
#
#
# Indices 1 2 3 4 5 6 
#
# 1 187.0281 50.8597 52.8933 0.0000 0.0000 0.0000
# 2 50.8597 92.9802 32.3426 0.0000 0.0000 0.0000
# 3 52.8933 32.3426 111.2510 0.0000 0.0000 0.0000
# 4 0.0000 0.0000 0.0000 18.0349 0.0000 0.0000
# 5 0.0000 0.0000 0.0000 0.0000 25.7392 0.0000
# 6 0.0000 0.0000 0.0000 0.0000 0.0000 34.3290
#
#
#
# Elastic Compliance Matrix: (Units=1/GPa)
#
#
# Indices 1 2 3 4 5 6 
#
# 1 0.006811 -0.002892 -0.002398 0.000000 0.000000 0.000000
# 2 -0.002892 0.013193 -0.002460 0.000000 0.000000 0.000000
# 3 -0.002398 -0.002460 0.010844 0.000000 0.000000 0.000000
# 4 0.000000 0.000000 0.000000 0.055448 0.000000 0.000000
# 5 0.000000 0.000000 0.000000 0.000000 0.038851 0.000000
# 6 0.000000 0.000000 0.000000 0.000000 0.000000 0.029130
#
#
# Mechanical properties :
#
#
# Convention : Reuss Voigt Hill
#
# Bulk Modulus (GPa) = 65.15484 73.71673 69.43579
# Shear Modulus (GPa) = 28.58895 32.63154 30.61025
#
# Velocity S-wave (km/s) = 3.61790 3.86524 3.74361
# Velocity P-wave (km/s) = 6.87625 7.32602 7.10470
#
# Compressibility (1/GPa) = 0.01534805
#
# Stress axis : x y z
#
# Youngs Moduli (GPa) = 146.81637 75.80022 92.21743
#
# Poissons Ratio (x) = 0.21919 0.22111
# Poissons Ratio (y) = 0.42455 0.22690
# Poissons Ratio (z) = 0.35202 0.18650
#
# Static dielectric constant tensor:
#      x y z
#    x 1.857040 0.000000 0.000000 
#    y 0.000000 1.808280 0.000000 
#    z 0.000000 0.000000 1.827410 
# 
# From -- ./inp_files/8497.got.cif
#   From: 2010.05.17/outbox.cif.g08.bks.cpg/sg54_5_cif.got.tgz:8497.got - 2010.06.03 13:09:01.
