data_PCOD9423707
_publ_section_title
;
Structure prediction by ZEFSAII (Michael W. Deem and Ramdas Pophale) SiO2 
 PCOD9423707
Probable space group: P C C A
;
_chemical_formula_sum "Si O2"
_cell_formula_units_Z 48
_cell_length_a 11.788329
_cell_length_b 7.739011
_cell_length_c 23.951629
_cell_angle_alpha 90.000000
_cell_angle_beta 90.000000
_cell_angle_gamma 90.000000
_cell_volume 2185.107301
_symmetry_space_group_name_H-M "P C C A"
_symmetry_group_IT_number 54
_symmetry_cell_setting 'orthorhombic'
loop_
_space_group_symop_operation_xyz
x,y,z
1/2-x,-y,z
1/2+x,-y,1/2-z
-x,y,1/2-z
-x,-y,-z
1/2+x,y,-z
1/2-x,y,1/2+z
x,-y,1/2+z
loop_
_atom_site_type_symbol
_atom_site_label
_atom_site_fract_x
_atom_site_fract_y
_atom_site_fract_z
Si Si1 0.431064 0.594804 0.410264
Si Si2 0.428019 0.420091 0.701566
Si Si3 0.414640 0.139898 0.527997
Si Si4 0.301692 0.763419 0.718072
Si Si5 0.750000 0.000000 0.176161
Si Si6 0.813353 0.769048 0.083518
Si Si7 0.250000 0.000000 0.623834
O O1 0.500006 0.592627 0.353388
O O2 0.508953 0.692893 0.455575
O O3 0.396815 0.395085 0.417271
O O4 0.312870 0.698585 0.403920
O O5 0.500000 0.332383 0.750000
O O6 0.393803 0.612854 0.721242
O O7 0.310971 0.324132 0.694233
O O8 0.322592 0.169636 0.479670
O O9 0.341972 0.086916 0.582404
O O10 0.500000 0.000000 0.500000
O O11 0.265434 0.846532 0.777299
O O12 0.328454 0.896377 0.668651
O O13 0.662679 0.081341 0.129302
#
# Coordination Sequence:
#
# PCOD9423707 Si02
#       7
#     8   8   8   8   4   8   4
#     4  11  24  46  68 102 140 192 239 294 372 445
#     4  11  22  43  70 101 138 187 231 295 366 447
#     4  12  25  44  72 102 143 191 243 299 366 433
#     4  10  24  43  68 102 141 181 237 293 364 440
#     4  11  21  44  68  98 141 181 228 306 360 421
#     4  11  25  45  69 103 142 183 242 302 359 440
#     4  11  23  46  64 100 145 179 230 306 346 433
#
# _framework density 21.966884
#
# number of rings (size 3 to 8) (size 9 to 14) (size 15 to 20)
#    0.000    1.000    1.667    5.000    2.333    2.667 
#    9.000    3.333    0.000    0.000    0.000    0.000 
#    0.000    0.000    0.000    0.000    0.000    0.000 
#
# Total GULP energy -267351.890483 kJ/mol
# GULP energy per Si atom -5569.831052 kJ/mol
# Density = 2.191689 g / cm^3
# Si number density = 21.966884 Si / 1000 Ang^3
#
#
#
# Elastic Constant Matrix: (Units=GPa)
#
#
# Indices 1 2 3 4 5 6 
#
# 1 82.6174 12.4604 30.0544 0.0000 0.0000 0.0000
# 2 12.4604 83.8583 49.2459 0.0000 0.0000 0.0000
# 3 30.0544 49.2459 132.0215 0.0000 0.0000 0.0000
# 4 0.0000 0.0000 0.0000 39.7360 0.0000 0.0000
# 5 0.0000 0.0000 0.0000 0.0000 11.5947 0.0000
# 6 0.0000 0.0000 0.0000 0.0000 0.0000 31.9817
#
#
#
# Elastic Compliance Matrix: (Units=1/GPa)
#
#
# Indices 1 2 3 4 5 6 
#
# 1 0.013201 -0.000252 -0.002911 0.000000 0.000000 0.000000
# 2 -0.000252 0.015275 -0.005640 0.000000 0.000000 0.000000
# 3 -0.002911 -0.005640 0.010341 0.000000 0.000000 0.000000
# 4 0.000000 0.000000 0.000000 0.025166 0.000000 0.000000
# 5 0.000000 0.000000 0.000000 0.000000 0.086246 0.000000
# 6 0.000000 0.000000 0.000000 0.000000 0.000000 0.031268
#
#
# Mechanical properties :
#
#
# Convention : Reuss Voigt Hill
#
# Bulk Modulus (GPa) = 47.14776 53.55764 50.35270
# Shear Modulus (GPa) = 24.25138 30.44492 27.34815
#
# Velocity S-wave (km/s) = 3.32625 3.72687 3.53224
# Velocity P-wave (km/s) = 6.02176 6.55389 6.29345
#
# Compressibility (1/GPa) = 0.02120992
#
# Stress axis : x y z
#
# Youngs Moduli (GPa) = 75.75178 65.46827 96.70086
#
# Poissons Ratio (x) = 0.01649 0.28152
# Poissons Ratio (y) = 0.01908 0.54542
# Poissons Ratio (z) = 0.22053 0.36926
#
# Static dielectric constant tensor:
#      x y z
#    x 1.123270 0.000000 0.000000 
#    y 0.000000 1.986810 0.000000 
#    z 0.000000 0.000000 1.814710 
# 
# From -- ./inp_files/24097.got.cif
#   From: 2010.05.17/outbox.cif.g08.bks.cpg/sg54_13_cif.got.tgz:24097.got - 2010.06.03 13:09:01.
