data_PCOD9423580
_publ_section_title
;
Structure prediction by ZEFSAII (Michael W. Deem and Ramdas Pophale) SiO2 
 PCOD9423580
Probable space group: P C C A
;
_chemical_formula_sum "Si O2"
_cell_formula_units_Z 32
_cell_length_a 15.639799
_cell_length_b 5.621930
_cell_length_c 12.817358
_cell_angle_alpha 90.000000
_cell_angle_beta 90.000000
_cell_angle_gamma 90.000000
_cell_volume 1126.977163
_symmetry_space_group_name_H-M "P C C A"
_symmetry_group_IT_number 54
_symmetry_cell_setting 'orthorhombic'
loop_
_space_group_symop_operation_xyz
x,y,z
1/2-x,-y,z
1/2+x,-y,1/2-z
-x,y,1/2-z
-x,-y,-z
1/2+x,y,-z
1/2-x,y,1/2+z
x,-y,1/2+z
loop_
_atom_site_type_symbol
_atom_site_label
_atom_site_fract_x
_atom_site_fract_y
_atom_site_fract_z
Si Si1 0.407539 0.592638 0.226663
Si Si2 0.836315 0.352729 0.942195
Si Si3 0.343022 0.992656 0.380691
Si Si4 0.463703 0.727767 0.003299
O O1 0.500000 0.486474 0.250000
O O2 0.346081 0.385484 0.182000
O O3 0.387681 0.782771 0.314993
O O4 0.417977 0.742278 0.119196
O O5 0.750000 0.500000 0.970494
O O6 0.937856 0.410817 0.983103
O O7 0.825487 0.114546 0.004259
O O8 0.250000 0.000000 0.329806
O O9 0.395330 0.232799 0.405095
O O10 0.500000 0.000000 0.000000
#
# Coordination Sequence:
#
# PCOD9423580 Si02
#       4
#     8   8   8   8
#     4  10  25  46  68 114 143 199 258 314 390 465
#     4  10  23  47  69 107 160 191 257 327 389 460
#     4  12  24  48  82 111 149 214 260 325 406 473
#     4  10  24  49  72 111 156 198 253 325 395 465
#
# _framework density 28.394538000000001
#
# number of rings (size 3 to 8) (size 9 to 14) (size 15 to 20)
#    1.500    0.000    2.500    1.500    0.000    8.000 
#   13.500    0.000    0.000    0.000    0.000    0.000 
#    0.000    0.000    0.000    0.000    0.000    0.000 
#
# Total GULP energy -178169.658318 kJ/mol
# GULP energy per Si atom -5567.801822 kJ/mol
# Density = 2.832991 g / cm^3
# Si number density = 28.394538 Si / 1000 Ang^3
#
#
#
# Elastic Constant Matrix: (Units=GPa)
#
#
# Indices 1 2 3 4 5 6 
#
# 1 204.7279 61.6497 31.1338 0.0000 0.0000 0.0000
# 2 61.6497 168.0625 61.7174 0.0000 0.0000 0.0000
# 3 31.1338 61.7174 156.1430 0.0000 0.0000 0.0000
# 4 0.0000 0.0000 0.0000 56.4227 0.0000 0.0000
# 5 0.0000 0.0000 0.0000 0.0000 44.8608 0.0000
# 6 0.0000 0.0000 0.0000 0.0000 0.0000 72.4860
#
#
#
# Elastic Compliance Matrix: (Units=1/GPa)
#
#
# Indices 1 2 3 4 5 6 
#
# 1 0.005507 -0.001892 -0.000350 0.000000 0.000000 0.000000
# 2 -0.001892 0.007610 -0.002631 0.000000 0.000000 0.000000
# 3 -0.000350 -0.002631 0.007514 0.000000 0.000000 0.000000
# 4 0.000000 0.000000 0.000000 0.017723 0.000000 0.000000
# 5 0.000000 0.000000 0.000000 0.000000 0.022291 0.000000
# 6 0.000000 0.000000 0.000000 0.000000 0.000000 0.013796
#
#
# Mechanical properties :
#
#
# Convention : Reuss Voigt Hill
#
# Bulk Modulus (GPa) = 91.86138 93.10389 92.48264
# Shear Modulus (GPa) = 56.93692 59.71607 58.32649
#
# Velocity S-wave (km/s) = 4.48281 4.59091 4.53718
# Velocity P-wave (km/s) = 7.69520 7.80785 7.75173
#
# Compressibility (1/GPa) = 0.01088597
#
# Stress axis : x y z
#
# Youngs Moduli (GPa) = 181.57261 131.40318 133.08238
#
# Poissons Ratio (x) = 0.24856 0.04664
# Poissons Ratio (y) = 0.34346 0.35012
# Poissons Ratio (z) = 0.06364 0.34570
#
# Static dielectric constant tensor:
#      x y z
#    x 2.687190 0.000000 0.000000 
#    y 0.000000 2.301290 0.000000 
#    z 0.000000 0.000000 2.253800 
# 
# From -- ./inp_files/13781.got.cif
#   From: 2010.05.17/outbox.cif.g08.bks.cpg/sg54_7_cif.got.tgz:13781.got - 2010.06.03 13:09:01.
