data_PCOD9423660
_publ_section_title
;
Structure prediction by ZEFSAII (Michael W. Deem and Ramdas Pophale) SiO2 
 PCOD9423660
Probable space group: P C C A
;
_chemical_formula_sum "Si O2"
_cell_formula_units_Z 56
_cell_length_a 15.297837
_cell_length_b 8.049917
_cell_length_c 18.294983
_cell_angle_alpha 90.000000
_cell_angle_beta 90.000000
_cell_angle_gamma 90.000000
_cell_volume 2252.959797
_symmetry_space_group_name_H-M "P C C A"
_symmetry_group_IT_number 54
_symmetry_cell_setting 'orthorhombic'
loop_
_space_group_symop_operation_xyz
x,y,z
1/2-x,-y,z
1/2+x,-y,1/2-z
-x,y,1/2-z
-x,-y,-z
1/2+x,y,-z
1/2-x,y,1/2+z
x,-y,1/2+z
loop_
_atom_site_type_symbol
_atom_site_label
_atom_site_fract_x
_atom_site_fract_y
_atom_site_fract_z
Si Si1 0.136299 0.802812 0.803913
Si Si2 0.718045 0.812337 0.344478
Si Si3 0.674247 0.136373 0.998083
Si Si4 0.000000 0.071945 0.750000
Si Si5 0.465645 0.509808 0.832423
Si Si6 0.294723 0.326839 0.371774
Si Si7 0.000000 0.000000 0.000000
Si Si8 0.410435 0.743890 0.613183
O O1 0.167481 0.737218 0.723827
O O2 0.078969 0.667353 0.847566
O O3 0.229994 0.815405 0.842981
O O4 0.073327 0.955733 0.788156
O O5 0.653840 0.827937 0.413496
O O6 0.806617 0.727882 0.373656
O O7 0.750000 0.000000 0.323895
O O8 0.750000 0.000000 0.998213
O O9 0.700868 0.298870 0.042027
O O10 0.587599 0.073352 0.037218
O O11 0.948880 0.170808 0.812999
O O12 0.500000 0.498079 0.750000
O O13 0.389924 0.649845 0.837895
O O14 0.541221 0.566670 0.887245
O O15 0.250000 0.500000 0.352841
O O16 0.062436 0.860446 0.045775
#
# Coordination Sequence:
#
# PCOD9423660 Si02
#       8
#     8   8   8   4   8   8   4   8
#     4  11  24  41  66  97 138 178 230 289 353 422
#     4  11  22  43  67 100 142 180 234 294 357 429
#     4  11  23  43  69 100 139 183 232 290 354 420
#     4  12  24  38  66  96 134 168 228 298 348 412
#     4  11  22  43  66  97 134 182 228 289 353 433
#     4  10  24  42  64  95 136 181 230 276 349 428
#     4  12  22  40  70 100 140 180 234 294 352 426
#     4  12  24  41  69 102 136 184 235 292 361 425
#
# _framework density 24.856193000000001
#
# number of rings (size 3 to 8) (size 9 to 14) (size 15 to 20)
#    0.000    0.857    7.143    0.857    2.000    0.571 
#    0.000    3.571    0.000    4.286    0.000    0.000 
#    0.000    0.000    0.000    0.000    0.000    0.000 
#
# Total GULP energy -312215.230240 kJ/mol
# GULP energy per Si atom -5575.271969 kJ/mol
# Density = 2.479962 g / cm^3
# Si number density = 24.856193 Si / 1000 Ang^3
#
#
#
# Elastic Constant Matrix: (Units=GPa)
#
#
# Indices 1 2 3 4 5 6 
#
# 1 91.1013 7.2495 -26.7608 0.0000 0.0000 0.0000
# 2 7.2495 55.8370 3.0418 0.0000 0.0000 0.0000
# 3 -26.7608 3.0418 60.4122 0.0000 0.0000 0.0000
# 4 0.0000 0.0000 0.0000 27.9798 0.0000 0.0000
# 5 0.0000 0.0000 0.0000 0.0000 15.2358 0.0000
# 6 0.0000 0.0000 0.0000 0.0000 0.0000 25.7219
#
#
#
# Elastic Compliance Matrix: (Units=1/GPa)
#
#
# Indices 1 2 3 4 5 6 
#
# 1 0.012834 -0.001981 0.005785 0.000000 0.000000 0.000000
# 2 -0.001981 0.018264 -0.001797 0.000000 0.000000 0.000000
# 3 0.005785 -0.001797 0.019206 0.000000 0.000000 0.000000
# 4 0.000000 0.000000 0.000000 0.035740 0.000000 0.000000
# 5 0.000000 0.000000 0.000000 0.000000 0.065635 0.000000
# 6 0.000000 0.000000 0.000000 0.000000 0.000000 0.038877
#
#
# Mechanical properties :
#
#
# Convention : Reuss Voigt Hill
#
# Bulk Modulus (GPa) = 18.41074 19.37905 18.89490
# Shear Modulus (GPa) = 24.43201 28.70885 26.57043
#
# Velocity S-wave (km/s) = 3.13858 3.40221 3.27305
# Velocity P-wave (km/s) = 4.53401 4.82149 4.67996
#
# Compressibility (1/GPa) = 0.05431611
#
# Stress axis : x y z
#
# Youngs Moduli (GPa) = 77.91977 54.75122 52.06734
#
# Poissons Ratio (x) = 0.10848 -0.30120
# Poissons Ratio (y) = 0.15439 0.09358
# Poissons Ratio (z) = -0.45074 0.09841
#
# Static dielectric constant tensor:
#      x y z
#    x 1.974740 0.000000 0.000000 
#    y 0.000000 2.049840 0.000000 
#    z 0.000000 0.000000 1.892890 
# 
# From -- ./inp_files/21663.got.cif
#   From: 2010.05.17/outbox.cif.g08.bks.cpg/sg54_11_cif.got.tgz:21663.got - 2010.06.03 13:09:01.
