data_PCOD9423636
_publ_section_title
;
Structure prediction by ZEFSAII (Michael W. Deem and Ramdas Pophale) SiO2 
 PCOD9423636
Probable space group: P C C A
;
_chemical_formula_sum "Si O2"
_cell_formula_units_Z 28
_cell_length_a 9.345027
_cell_length_b 14.824107
_cell_length_c 9.020128
_cell_angle_alpha 90.000000
_cell_angle_beta 90.000000
_cell_angle_gamma 90.000000
_cell_volume 1249.573487
_symmetry_space_group_name_H-M "P C C A"
_symmetry_group_IT_number 54
_symmetry_cell_setting 'orthorhombic'
loop_
_space_group_symop_operation_xyz
x,y,z
1/2-x,-y,z
1/2+x,-y,1/2-z
-x,y,1/2-z
-x,-y,-z
1/2+x,y,-z
1/2-x,y,1/2+z
x,-y,1/2+z
loop_
_atom_site_type_symbol
_atom_site_label
_atom_site_fract_x
_atom_site_fract_y
_atom_site_fract_z
Si Si1 0.101422 0.054267 0.391573
Si Si2 0.250000 0.500000 0.193949
Si Si3 0.591733 0.260776 0.596635
Si Si4 0.131576 0.623027 0.433898
O O1 0.000000 0.061907 0.250000
O O2 0.122454 0.157017 0.445358
O O3 0.250000 0.000000 0.368114
O O4 0.000000 0.000000 0.500000
O O5 0.140097 0.548979 0.304920
O O6 0.327357 0.570235 0.084823
O O7 0.500000 0.263708 0.750000
O O8 0.506615 0.317749 0.472046
O O9 0.742799 0.309079 0.612232
#
# Coordination Sequence:
#
# PCOD9423636 Si02
#       4
#     8   4   8   8
#     4  11  24  45  72 104 140 184 232 291 361 429
#     4  10  24  40  70  98 132 192 228 278 344 402
#     4  11  24  44  67  99 138 176 228 282 340 415
#     4  11  23  43  65  99 138 178 231 281 335 402
#
# _framework density 22.407646
#
# number of rings (size 3 to 8) (size 9 to 14) (size 15 to 20)
#    0.000    1.143    2.857    2.571    0.000   10.286 
#    5.143    0.000    0.000    0.000    0.000    0.000 
#    0.000    0.000    0.000    0.000    0.000    0.000 
#
# Total GULP energy -156637.171803 kJ/mol
# GULP energy per Si atom -5594.184707 kJ/mol
# Density = 2.235665 g / cm^3
# Si number density = 22.407646 Si / 1000 Ang^3
#
#
#
# Elastic Constant Matrix: (Units=GPa)
#
#
# Indices 1 2 3 4 5 6 
#
# 1 113.0120 35.9974 6.7857 0.0000 0.0000 0.0000
# 2 35.9974 141.1954 50.3885 0.0000 0.0000 0.0000
# 3 6.7857 50.3885 85.0351 0.0000 0.0000 0.0000
# 4 0.0000 0.0000 0.0000 6.4480 0.0000 0.0000
# 5 0.0000 0.0000 0.0000 0.0000 26.6945 0.0000
# 6 0.0000 0.0000 0.0000 0.0000 0.0000 29.3364
#
#
#
# Elastic Compliance Matrix: (Units=1/GPa)
#
#
# Indices 1 2 3 4 5 6 
#
# 1 0.009682 -0.002781 0.000875 0.000000 0.000000 0.000000
# 2 -0.002781 0.009780 -0.005574 0.000000 0.000000 0.000000
# 3 0.000875 -0.005574 0.014993 0.000000 0.000000 0.000000
# 4 0.000000 0.000000 0.000000 0.155087 0.000000 0.000000
# 5 0.000000 0.000000 0.000000 0.000000 0.037461 0.000000
# 6 0.000000 0.000000 0.000000 0.000000 0.000000 0.034087
#
#
# Mechanical properties :
#
#
# Convention : Reuss Voigt Hill
#
# Bulk Modulus (GPa) = 51.29095 58.39841 54.84468
# Shear Modulus (GPa) = 17.69618 28.90053 23.29835
#
# Velocity S-wave (km/s) = 2.81328 3.59522 3.22801
# Velocity P-wave (km/s) = 5.78726 6.58427 6.19858
#
# Compressibility (1/GPa) = 0.01949662
#
# Stress axis : x y z
#
# Youngs Moduli (GPa) = 103.28680 102.24596 66.69923
#
# Poissons Ratio (x) = 0.28431 -0.05837
# Poissons Ratio (y) = 0.28720 0.37175
# Poissons Ratio (z) = -0.09039 0.56987
#
# Static dielectric constant tensor:
#      x y z
#    x 1.818040 0.000000 0.000000 
#    y 0.000000 1.851540 0.000000 
#    z 0.000000 0.000000 1.789980 
# 
# From -- ./inp_files/2454.got.cif
#   From: 2010.05.17/outbox.cif.g08.bks.cpg/sg54_2_cif.got.tgz:2454.got - 2010.06.03 13:09:01.
