data_PCOD9423371
_publ_section_title
;
Structure prediction by ZEFSAII (Michael W. Deem and Ramdas Pophale) SiO2 
 PCOD9423371
Probable space group: P C C A
;
_chemical_formula_sum "Si O2"
_cell_formula_units_Z 40
_cell_length_a 8.742038
_cell_length_b 17.474842
_cell_length_c 11.730607
_cell_angle_alpha 90.000000
_cell_angle_beta 90.000000
_cell_angle_gamma 90.000000
_cell_volume 1792.034775
_symmetry_space_group_name_H-M "P C C A"
_symmetry_group_IT_number 54
_symmetry_cell_setting 'orthorhombic'
loop_
_space_group_symop_operation_xyz
x,y,z
1/2-x,-y,z
1/2+x,-y,1/2-z
-x,y,1/2-z
-x,-y,-z
1/2+x,y,-z
1/2-x,y,1/2+z
x,-y,1/2+z
loop_
_atom_site_type_symbol
_atom_site_label
_atom_site_fract_x
_atom_site_fract_y
_atom_site_fract_z
Si Si1 0.404597 0.622356 0.352176
Si Si2 0.801273 0.210680 0.156865
Si Si3 0.142445 0.557148 0.514734
Si Si4 0.736952 0.083098 0.342624
Si Si5 0.539148 0.857651 0.522535
O O1 0.500000 0.581574 0.250000
O O2 0.342822 0.703473 0.308942
O O3 0.257740 0.582766 0.413270
O O4 0.547834 0.629799 0.440085
O O5 0.788686 0.151401 0.260353
O O6 0.642065 0.203334 0.089568
O O7 0.928935 0.182164 0.068442
O O8 0.250000 0.500000 0.589551
O O9 0.000000 0.500000 0.500000
O O10 0.566960 0.098813 0.387514
O O11 0.847611 0.087039 0.452859
O O12 0.750000 0.000000 0.286949
#
# Coordination Sequence:
#
# PCOD9423371 Si02
#       5
#     8   8   8   8   8
#     4  11  22  40  67  97 136 179 216 270 337 401
#     4  11  23  40  61  92 126 167 217 265 328 395
#     4   9  21  42  67 100 134 169 217 267 320 399
#     4  11  23  40  62  89 123 167 224 283 336 391
#     4  10  23  40  60  84 122 166 218 273 328 388
#
# _framework density 22.320993999999999
#
# number of rings (size 3 to 8) (size 9 to 14) (size 15 to 20)
#    0.000    1.600    0.000    4.200    0.000   10.400 
#    0.000    7.000    0.000    2.400    0.000    0.000 
#    0.000    0.000    0.000    0.000    0.000    0.000 
#
# Total GULP energy -222821.009495 kJ/mol
# GULP energy per Si atom -5570.525237 kJ/mol
# Density = 2.227019 g / cm^3
# Si number density = 22.320994 Si / 1000 Ang^3
#
#
#
# Elastic Constant Matrix: (Units=GPa)
#
#
# Indices 1 2 3 4 5 6 
#
# 1 170.1019 40.4884 57.5998 0.0000 0.0000 0.0000
# 2 40.4884 119.5400 34.7772 0.0000 0.0000 0.0000
# 3 57.5998 34.7772 86.9675 0.0000 0.0000 0.0000
# 4 0.0000 0.0000 0.0000 21.5619 0.0000 0.0000
# 5 0.0000 0.0000 0.0000 0.0000 33.9253 0.0000
# 6 0.0000 0.0000 0.0000 0.0000 0.0000 19.1326
#
#
#
# Elastic Compliance Matrix: (Units=1/GPa)
#
#
# Indices 1 2 3 4 5 6 
#
# 1 0.007748 -0.001280 -0.004620 0.000000 0.000000 0.000000
# 2 -0.001280 0.009678 -0.003022 0.000000 0.000000 0.000000
# 3 -0.004620 -0.003022 0.015767 0.000000 0.000000 0.000000
# 4 0.000000 0.000000 0.000000 0.046378 0.000000 0.000000
# 5 0.000000 0.000000 0.000000 0.000000 0.029477 0.000000
# 6 0.000000 0.000000 0.000000 0.000000 0.000000 0.052267
#
#
# Mechanical properties :
#
#
# Convention : Reuss Voigt Hill
#
# Bulk Modulus (GPa) = 65.15229 71.37111 68.26170
# Shear Modulus (GPa) = 27.13343 31.17357 29.15350
#
# Velocity S-wave (km/s) = 3.49033 3.74117 3.61792
# Velocity P-wave (km/s) = 6.74503 7.12082 6.93547
#
# Compressibility (1/GPa) = 0.01534865
#
# Stress axis : x y z
#
# Youngs Moduli (GPa) = 129.06839 103.32405 63.42479
#
# Poissons Ratio (x) = 0.13228 0.29299
# Poissons Ratio (y) = 0.16524 0.19169
# Poissons Ratio (z) = 0.59624 0.31227
#
# Static dielectric constant tensor:
#      x y z
#    x 1.876620 0.000000 0.000000 
#    y 0.000000 1.942240 0.000000 
#    z 0.000000 0.000000 1.936710 
# 
# From -- ./inp_files/6848.got.cif
#   From: 2010.05.17/outbox.cif.g08.bks.cpg/sg54_4_cif.got.tgz:6848.got - 2010.06.03 13:09:01.
