data_PCOD9423746
_publ_section_title
;
Structure prediction by ZEFSAII (Michael W. Deem and Ramdas Pophale) SiO2 
 PCOD9423746
Probable space group: P C C A
;
_chemical_formula_sum "Si O2"
_cell_formula_units_Z 28
_cell_length_a 24.894039
_cell_length_b 5.021366
_cell_length_c 7.976197
_cell_angle_alpha 90.000000
_cell_angle_beta 90.000000
_cell_angle_gamma 90.000000
_cell_volume 997.041224
_symmetry_space_group_name_H-M "P C C A"
_symmetry_group_IT_number 54
_symmetry_cell_setting 'orthorhombic'
loop_
_space_group_symop_operation_xyz
x,y,z
1/2-x,-y,z
1/2+x,-y,1/2-z
-x,y,1/2-z
-x,-y,-z
1/2+x,y,-z
1/2-x,y,1/2+z
x,-y,1/2+z
loop_
_atom_site_type_symbol
_atom_site_label
_atom_site_fract_x
_atom_site_fract_y
_atom_site_fract_z
Si Si1 0.500000 0.131060 0.250000
Si Si2 0.069717 0.726290 0.953016
Si Si3 0.640958 0.632119 0.759052
Si Si4 0.788147 0.753144 0.963616
O O1 0.522892 0.289737 0.408049
O O2 0.546884 0.937010 0.178749
O O3 0.090788 0.474045 0.850366
O O4 0.120729 0.783524 0.075198
O O5 0.671650 0.366803 0.823965
O O6 0.678656 0.792591 0.634583
O O7 0.750000 0.500000 0.997210
O O8 0.750000 0.000000 0.922889
#
# Coordination Sequence:
#
# PCOD9423746 Si02
#       4
#     4   8   8   8
#     4  10  24  44  72 102 142 192 244 300 372 444
#     4  10  24  45  68 104 140 188 242 304 368 442
#     4  10  25  45  72 106 146 194 250 307 371 442
#     4  11  26  48  75 109 150 199 251 310 374 445
#
# _framework density 28.083089999999999
#
# number of rings (size 3 to 8) (size 9 to 14) (size 15 to 20)
#    0.000    1.714    0.000    0.857    0.000   26.286 
#    0.000    4.286    0.000    0.000    0.000    0.000 
#    0.000    0.000    0.000    0.000    0.000    0.000 
#
# Total GULP energy -157049.554947 kJ/mol
# GULP energy per Si atom -5608.912677 kJ/mol
# Density = 2.801917 g / cm^3
# Si number density = 28.083090 Si / 1000 Ang^3
#
#
#
# Elastic Constant Matrix: (Units=GPa)
#
#
# Indices 1 2 3 4 5 6 
#
# 1 141.9866 89.1992 65.1199 0.0000 0.0000 0.0000
# 2 89.1992 138.3332 78.9796 0.0000 0.0000 0.0000
# 3 65.1199 78.9796 164.7974 0.0000 0.0000 0.0000
# 4 0.0000 0.0000 0.0000 -3.1333 0.0000 0.0000
# 5 0.0000 0.0000 0.0000 0.0000 89.5940 0.0000
# 6 0.0000 0.0000 0.0000 0.0000 0.0000 51.4198
#
#
#
# Elastic Compliance Matrix: (Units=1/GPa)
#
#
# Indices 1 2 3 4 5 6 
#
# 1 0.012079 -0.006971 -0.001432 0.000000 0.000000 0.000000
# 2 -0.006971 0.013975 -0.003943 0.000000 0.000000 0.000000
# 3 -0.001432 -0.003943 0.008524 0.000000 0.000000 0.000000
# 4 0.000000 0.000000 0.000000 -0.319156 0.000000 0.000000
# 5 0.000000 0.000000 0.000000 0.000000 0.011161 0.000000
# 6 0.000000 0.000000 0.000000 0.000000 0.000000 0.019448
#
#
# Mechanical properties :
#
#
# Convention : Reuss Voigt Hill
#
# Bulk Modulus (GPa) = 101.15881 101.30163 101.23022
# Shear Modulus (GPa) = -22.12576 41.69733 9.78579
#
# Velocity S-wave (km/s) = -2.80994 3.85747 1.86873
# Velocity P-wave (km/s) = 5.05685 7.48268 6.38601
#
# Compressibility (1/GPa) = 0.00988545
#
# Stress axis : x y z
#
# Youngs Moduli (GPa) = 82.78694 71.55513 117.32032
#
# Poissons Ratio (x) = 0.49882 0.16802
# Poissons Ratio (y) = 0.57712 0.46259
# Poissons Ratio (z) = 0.11856 0.28214
#
# Static dielectric constant tensor:
#      x y z
#    x 2.313570 0.000000 0.000000 
#    y 0.000000 2.107670 0.000000 
#    z 0.000000 0.000000 2.094730 
# 
# From -- ./inp_files/5638.got.cif
#   From: 2010.05.17/outbox.cif.g08.bks.cpg/sg54_3_cif.got.tgz:5638.got - 2010.06.03 13:09:01.
