data_PCOD9423521
_publ_section_title
;
Structure prediction by ZEFSAII (Michael W. Deem and Ramdas Pophale) SiO2 
 PCOD9423521
Probable space group: P C C A
;
_chemical_formula_sum "Si O2"
_cell_formula_units_Z 40
_cell_length_a 10.222169
_cell_length_b 11.042864
_cell_length_c 16.352208
_cell_angle_alpha 90.000000
_cell_angle_beta 90.000000
_cell_angle_gamma 90.000000
_cell_volume 1845.870304
_symmetry_space_group_name_H-M "P C C A"
_symmetry_group_IT_number 54
_symmetry_cell_setting 'orthorhombic'
loop_
_space_group_symop_operation_xyz
x,y,z
1/2-x,-y,z
1/2+x,-y,1/2-z
-x,y,1/2-z
-x,-y,-z
1/2+x,y,-z
1/2-x,y,1/2+z
x,-y,1/2+z
loop_
_atom_site_type_symbol
_atom_site_label
_atom_site_fract_x
_atom_site_fract_y
_atom_site_fract_z
Si Si1 0.658935 0.889470 0.161543
Si Si2 0.693056 0.350420 0.912416
Si Si3 0.454106 0.433212 0.157640
Si Si4 0.722286 0.363608 0.099455
Si Si5 0.861536 0.092934 0.356439
O O1 0.701689 0.755103 0.131421
O O2 0.664326 0.881639 0.260306
O O3 0.514284 0.935527 0.138324
O O4 0.750000 0.000000 0.134026
O O5 0.574871 0.440397 0.888794
O O6 0.812214 0.371039 0.849084
O O7 0.651039 0.214292 0.907086
O O8 0.746179 0.372654 0.002844
O O9 0.500000 0.453892 0.250000
O O10 0.566390 0.353446 0.115315
O O11 0.750000 0.500000 0.134750
O O12 0.750000 0.000000 0.383331
#
# Coordination Sequence:
#
# PCOD9423521 Si02
#       5
#     8   8   8   8   8
#     4  10  24  44  71 101 132 184 236 282 352 416
#     4  11  25  43  65 106 133 180 226 282 355 416
#     4  11  25  41  68  98 140 180 231 277 344 423
#     4  12  25  43  69  99 145 175 222 290 351 413
#     4  10  23  44  70  95 137 178 236 293 336 415
#
# _framework density 21.669996000000001
#
# number of rings (size 3 to 8) (size 9 to 14) (size 15 to 20)
#    0.000    1.200    2.000    3.000   14.000    0.800 
#    0.000    2.000    0.000    0.000    0.000    0.000 
#    0.000    0.000    0.000    0.000    0.000    0.000 
#
# Total GULP energy -223301.851269 kJ/mol
# GULP energy per Si atom -5582.546282 kJ/mol
# Density = 2.162067 g / cm^3
# Si number density = 21.669996 Si / 1000 Ang^3
#
#
#
# Elastic Constant Matrix: (Units=GPa)
#
#
# Indices 1 2 3 4 5 6 
#
# 1 114.6366 56.7424 34.2498 0.0000 0.0000 0.0000
# 2 56.7424 108.9458 25.0493 0.0000 0.0000 0.0000
# 3 34.2498 25.0493 43.9426 0.0000 0.0000 0.0000
# 4 0.0000 0.0000 0.0000 -32.0127 0.0000 0.0000
# 5 0.0000 0.0000 0.0000 0.0000 17.1754 0.0000
# 6 0.0000 0.0000 0.0000 0.0000 0.0000 43.4582
#
#
#
# Elastic Compliance Matrix: (Units=1/GPa)
#
#
# Indices 1 2 3 4 5 6 
#
# 1 0.013641 -0.005363 -0.007575 0.000000 0.000000 0.000000
# 2 -0.005363 0.012672 -0.003044 0.000000 0.000000 0.000000
# 3 -0.007575 -0.003044 0.030396 0.000000 0.000000 0.000000
# 4 0.000000 0.000000 0.000000 -0.031238 0.000000 0.000000
# 5 0.000000 0.000000 0.000000 0.000000 0.058223 0.000000
# 6 0.000000 0.000000 0.000000 0.000000 0.000000 0.023011
#
#
# Mechanical properties :
#
#
# Convention : Reuss Voigt Hill
#
# Bulk Modulus (GPa) = 40.41064 55.51200 47.96132
# Shear Modulus (GPa) = 34.03311 15.82309 24.92810
#
# Velocity S-wave (km/s) = 3.96728 2.70512 3.39536
# Velocity P-wave (km/s) = 6.29876 5.95227 6.12796
#
# Compressibility (1/GPa) = 0.02474596
#
# Stress axis : x y z
#
# Youngs Moduli (GPa) = 73.30902 78.91496 32.89912
#
# Poissons Ratio (x) = 0.42322 0.24921
# Poissons Ratio (y) = 0.39315 0.10013
# Poissons Ratio (z) = 0.55531 0.24018
#
# Static dielectric constant tensor:
#      x y z
#    x 1.863730 0.000000 0.000000 
#    y 0.000000 1.784540 0.000000 
#    z 0.000000 0.000000 1.785000 
# 
# From -- ./inp_files/16346.got.cif
#   From: 2010.05.17/outbox.cif.g08.bks.cpg/sg54_9_cif.got.tgz:16346.got - 2010.06.03 13:09:01.
