data_PCOD9423243
_publ_section_title
;
Structure prediction by ZEFSAII (Michael W. Deem and Ramdas Pophale) SiO2 
 PCOD9423243
Probable space group: P C C A
;
_chemical_formula_sum "Si O2"
_cell_formula_units_Z 32
_cell_length_a 11.134885
_cell_length_b 5.815711
_cell_length_c 21.790223
_cell_angle_alpha 90.000000
_cell_angle_beta 90.000000
_cell_angle_gamma 90.000000
_cell_volume 1411.075423
_symmetry_space_group_name_H-M "P C C A"
_symmetry_group_IT_number 54
_symmetry_cell_setting 'orthorhombic'
loop_
_space_group_symop_operation_xyz
x,y,z
1/2-x,-y,z
1/2+x,-y,1/2-z
-x,y,1/2-z
-x,-y,-z
1/2+x,y,-z
1/2-x,y,1/2+z
x,-y,1/2+z
loop_
_atom_site_type_symbol
_atom_site_label
_atom_site_fract_x
_atom_site_fract_y
_atom_site_fract_z
Si Si1 0.750000 0.500000 0.075806
Si Si2 0.461519 0.806032 0.951214
Si Si3 0.000000 0.131985 0.750000
Si Si4 0.912547 0.838177 0.652074
Si Si5 0.109463 0.456773 0.643651
O O1 0.649095 0.367451 0.035756
O O2 0.682745 0.666817 0.123351
O O3 0.569363 0.660325 0.920854
O O4 0.413918 0.954221 0.894922
O O5 0.500000 0.000000 0.000000
O O6 0.937422 0.292133 0.801120
O O7 0.905020 0.960642 0.717504
O O8 0.036404 0.694625 0.649660
O O9 0.250000 0.500000 0.647005
#
# Coordination Sequence:
#
# PCOD9423243 Si02
#       5
#     4   8   4   8   8
#     4  10  22  44  72 100 138 178 238 288 352 432
#     4  10  23  46  71 102 138 183 234 294 354 427
#     4  10  22  44  68 100 138 176 230 286 358 420
#     4  10  22  46  63 104 135 179 230 285 354 422
#     4  10  23  46  67 104 138 184 234 291 358 433
#
# _framework density 22.677738999999999
#
# number of rings (size 3 to 8) (size 9 to 14) (size 15 to 20)
#    0.000    2.000    0.000    1.500    0.000    8.000 
#   67.500    0.000    0.000    0.000    0.000    0.000 
#    0.000    0.000    0.000    0.000    0.000    0.000 
#
# Total GULP energy -178716.231439 kJ/mol
# GULP energy per Si atom -5584.882232 kJ/mol
# Density = 2.262612 g / cm^3
# Si number density = 22.677739 Si / 1000 Ang^3
#
#
#
# Elastic Constant Matrix: (Units=GPa)
#
#
# Indices 1 2 3 4 5 6 
#
# 1 177.5191 72.8499 52.2278 0.0000 0.0000 0.0000
# 2 72.8499 116.8563 43.2588 0.0000 0.0000 0.0000
# 3 52.2278 43.2588 101.3514 0.0000 0.0000 0.0000
# 4 0.0000 0.0000 0.0000 54.4074 0.0000 0.0000
# 5 0.0000 0.0000 0.0000 0.0000 5.1026 0.0000
# 6 0.0000 0.0000 0.0000 0.0000 0.0000 23.0236
#
#
#
# Elastic Compliance Matrix: (Units=1/GPa)
#
#
# Indices 1 2 3 4 5 6 
#
# 1 0.008024 -0.004123 -0.002375 0.000000 0.000000 0.000000
# 2 -0.004123 0.012282 -0.003118 0.000000 0.000000 0.000000
# 3 -0.002375 -0.003118 0.012421 0.000000 0.000000 0.000000
# 4 0.000000 0.000000 0.000000 0.018380 0.000000 0.000000
# 5 0.000000 0.000000 0.000000 0.000000 0.195979 0.000000
# 6 0.000000 0.000000 0.000000 0.000000 0.000000 0.043434
#
#
# Mechanical properties :
#
#
# Convention : Reuss Voigt Hill
#
# Bulk Modulus (GPa) = 74.09684 81.37776 77.73730
# Shear Modulus (GPa) = 15.91091 31.66607 23.78849
#
# Velocity S-wave (km/s) = 2.65166 3.74083 3.24231
# Velocity P-wave (km/s) = 6.48998 7.39058 6.95488
#
# Compressibility (1/GPa) = 0.01349585
#
# Stress axis : x y z
#
# Youngs Moduli (GPa) = 124.62661 81.42030 80.50759
#
# Poissons Ratio (x) = 0.33570 0.19121
# Poissons Ratio (y) = 0.51384 0.25098
# Poissons Ratio (z) = 0.29600 0.25383
#
# Static dielectric constant tensor:
#      x y z
#    x 1.871980 0.000000 0.000000 
#    y 0.000000 1.963390 0.000000 
#    z 0.000000 0.000000 1.896010 
# 
# From -- ./inp_files/20846.got.cif
#   From: 2010.05.17/outbox.cif.g08.bks.cpg/sg54_11_cif.got.tgz:20846.got - 2010.06.03 13:09:01.
