data_PCOD9423324
_publ_section_title
;
Structure prediction by ZEFSAII (Michael W. Deem and Ramdas Pophale) SiO2 
 PCOD9423324
Probable space group: P C C A
;
_chemical_formula_sum "Si O2"
_cell_formula_units_Z 44
_cell_length_a 22.091367
_cell_length_b 9.130868
_cell_length_c 10.230805
_cell_angle_alpha 90.000000
_cell_angle_beta 90.000000
_cell_angle_gamma 90.000000
_cell_volume 2063.690011
_symmetry_space_group_name_H-M "P C C A"
_symmetry_group_IT_number 54
_symmetry_cell_setting 'orthorhombic'
loop_
_space_group_symop_operation_xyz
x,y,z
1/2-x,-y,z
1/2+x,-y,1/2-z
-x,y,1/2-z
-x,-y,-z
1/2+x,y,-z
1/2-x,y,1/2+z
x,-y,1/2+z
loop_
_atom_site_type_symbol
_atom_site_label
_atom_site_fract_x
_atom_site_fract_y
_atom_site_fract_z
Si Si1 0.076803 0.729850 0.066993
Si Si2 0.304377 0.335356 0.750752
Si Si3 0.650122 0.475752 0.006980
Si Si4 0.829080 0.219789 0.698285
Si Si5 0.500000 0.890585 0.750000
Si Si6 0.884359 0.078170 0.177804
O O1 0.087671 0.562970 0.021203
O O2 0.127019 0.750932 0.179667
O O3 0.013814 0.783125 0.128467
O O4 0.094227 0.840900 0.952572
O O5 0.315914 0.443134 0.629166
O O6 0.238328 0.265260 0.761218
O O7 0.353437 0.205459 0.737909
O O8 0.315852 0.419029 0.888374
O O9 0.647180 0.322609 0.081988
O O10 0.835737 0.050909 0.657548
O O11 0.442609 0.996068 0.764887
#
# Coordination Sequence:
#
# PCOD9423324 Si02
#       6
#     8   8   8   8   4   8
#     4  10  23  44  67  97 134 175 233 275 339 401
#     4  11  25  42  67 103 138 178 223 268 346 410
#     4  11  24  41  66  99 139 178 218 273 332 410
#     4  11  24  39  69  98 141 177 217 276 340 413
#     4  10  22  46  72  92 126 180 228 294 342 384
#     4  10  24  45  68  99 130 176 231 285 337 405
#
# _framework density 21.321031999999999
#
# number of rings (size 3 to 8) (size 9 to 14) (size 15 to 20)
#    0.000    1.455    1.818    1.636   12.727    0.000 
#    0.000    4.545    0.000    0.000    0.000    0.000 
#    0.000    0.000    0.000    0.000    0.000    0.000 
#
# Total GULP energy -245718.604046 kJ/mol
# GULP energy per Si atom -5584.513728 kJ/mol
# Density = 2.127250 g / cm^3
# Si number density = 21.321032 Si / 1000 Ang^3
#
#
#
# Elastic Constant Matrix: (Units=GPa)
#
#
# Indices 1 2 3 4 5 6 
#
# 1 82.2033 44.9654 21.5870 0.0000 0.0000 0.0000
# 2 44.9654 117.5462 34.2069 0.0000 0.0000 0.0000
# 3 21.5870 34.2069 68.6746 0.0000 0.0000 0.0000
# 4 0.0000 0.0000 0.0000 61.6482 0.0000 0.0000
# 5 0.0000 0.0000 0.0000 0.0000 11.5013 0.0000
# 6 0.0000 0.0000 0.0000 0.0000 0.0000 28.5937
#
#
#
# Elastic Compliance Matrix: (Units=1/GPa)
#
#
# Indices 1 2 3 4 5 6 
#
# 1 0.015681 -0.005338 -0.002270 0.000000 0.000000 0.000000
# 2 -0.005338 0.011766 -0.004183 0.000000 0.000000 0.000000
# 3 -0.002270 -0.004183 0.017359 0.000000 0.000000 0.000000
# 4 0.000000 0.000000 0.000000 0.016221 0.000000 0.000000
# 5 0.000000 0.000000 0.000000 0.000000 0.086946 0.000000
# 6 0.000000 0.000000 0.000000 0.000000 0.000000 0.034973
#
#
# Mechanical properties :
#
#
# Convention : Reuss Voigt Hill
#
# Bulk Modulus (GPa) = 47.11705 52.21585 49.66645
# Shear Modulus (GPa) = 23.40788 31.52629 27.46708
#
# Velocity S-wave (km/s) = 3.31702 3.84949 3.59313
# Velocity P-wave (km/s) = 6.06770 6.65594 6.36862
#
# Compressibility (1/GPa) = 0.02122374
#
# Stress axis : x y z
#
# Youngs Moduli (GPa) = 63.77163 84.98721 57.60813
#
# Poissons Ratio (x) = 0.45364 0.13079
# Poissons Ratio (y) = 0.34040 0.24098
# Poissons Ratio (z) = 0.14478 0.35550
#
# Static dielectric constant tensor:
#      x y z
#    x 1.783250 0.000000 0.000000 
#    y 0.000000 1.790150 0.000000 
#    z 0.000000 0.000000 1.780760 
# 
# From -- ./inp_files/9842.got.cif
#   From: 2010.05.17/outbox.cif.g08.bks.cpg/sg54_5_cif.got.tgz:9842.got - 2010.06.03 13:09:01.
