data_PCOD9423283
_publ_section_title
;
Structure prediction by ZEFSAII (Michael W. Deem and Ramdas Pophale) SiO2 
 PCOD9423283
Probable space group: P C C A
;
_chemical_formula_sum "Si O2"
_cell_formula_units_Z 20
_cell_length_a 14.670294
_cell_length_b 5.236773
_cell_length_c 9.312513
_cell_angle_alpha 90.000000
_cell_angle_beta 90.000000
_cell_angle_gamma 90.000000
_cell_volume 715.433807
_symmetry_space_group_name_H-M "P C C A"
_symmetry_group_IT_number 54
_symmetry_cell_setting 'orthorhombic'
loop_
_space_group_symop_operation_xyz
x,y,z
1/2-x,-y,z
1/2+x,-y,1/2-z
-x,y,1/2-z
-x,-y,-z
1/2+x,y,-z
1/2-x,y,1/2+z
x,-y,1/2+z
loop_
_atom_site_type_symbol
_atom_site_label
_atom_site_fract_x
_atom_site_fract_y
_atom_site_fract_z
Si Si1 0.576840 0.213858 0.495831
Si Si2 0.847126 0.566941 0.744318
Si Si3 0.750000 0.000000 0.442034
O O1 0.428404 0.589433 0.373078
O O2 0.613418 0.347748 0.351769
O O3 0.500000 0.000000 0.500000
O O4 0.670004 0.083335 0.547679
O O5 0.750000 0.500000 0.671331
O O6 0.690444 0.204780 0.848512
#
# Coordination Sequence:
#
# PCOD9423283 Si02
#       3
#     8   8   4
#     4  11  25  47  76 112 155 202 259 322 391 471
#     4  10  22  46  78 111 153 204 257 322 398 471
#     4  10  22  44  78 108 150 200 252 322 394 472
#
# _framework density 27.955069000000002
#
# number of rings (size 3 to 8) (size 9 to 14) (size 15 to 20)
#    0.000    1.600    0.000    4.800    0.000    6.400 
#    0.000   22.000    0.000    0.000    0.000    0.000 
#    0.000    0.000    0.000    0.000    0.000    0.000 
#
# Total GULP energy -111473.585122 kJ/mol
# GULP energy per Si atom -5573.679256 kJ/mol
# Density = 2.789144 g / cm^3
# Si number density = 27.955069 Si / 1000 Ang^3
#
#
#
# Elastic Constant Matrix: (Units=GPa)
#
#
# Indices 1 2 3 4 5 6 
#
# 1 149.3293 55.8532 41.5930 0.0000 0.0000 0.0000
# 2 55.8532 96.5505 21.4877 0.0000 0.0000 0.0000
# 3 41.5930 21.4877 117.8836 0.0000 0.0000 0.0000
# 4 0.0000 0.0000 0.0000 20.9087 0.0000 0.0000
# 5 0.0000 0.0000 0.0000 0.0000 35.6080 0.0000
# 6 0.0000 0.0000 0.0000 0.0000 0.0000 62.4405
#
#
#
# Elastic Compliance Matrix: (Units=1/GPa)
#
#
# Indices 1 2 3 4 5 6 
#
# 1 0.009132 -0.004759 -0.002355 0.000000 0.000000 0.000000
# 2 -0.004759 0.013275 -0.000741 0.000000 0.000000 0.000000
# 3 -0.002355 -0.000741 0.009449 0.000000 0.000000 0.000000
# 4 0.000000 0.000000 0.000000 0.047827 0.000000 0.000000
# 5 0.000000 0.000000 0.000000 0.000000 0.028084 0.000000
# 6 0.000000 0.000000 0.000000 0.000000 0.000000 0.016015
#
#
# Mechanical properties :
#
#
# Convention : Reuss Voigt Hill
#
# Bulk Modulus (GPa) = 61.92872 66.84792 64.38832
# Shear Modulus (GPa) = 34.51287 40.11340 37.31314
#
# Velocity S-wave (km/s) = 3.51748 3.79215 3.65739
# Velocity P-wave (km/s) = 6.22076 6.56798 6.39673
#
# Compressibility (1/GPa) = 0.01614760
#
# Stress axis : x y z
#
# Youngs Moduli (GPa) = 109.49953 75.32897 105.83374
#
# Poissons Ratio (x) = 0.35849 0.24921
# Poissons Ratio (y) = 0.52110 0.07839
# Poissons Ratio (z) = 0.25785 0.05579
#
# Static dielectric constant tensor:
#      x y z
#    x 2.330690 0.000000 0.000000 
#    y 0.000000 3.007620 0.000000 
#    z 0.000000 0.000000 2.622410 
# 
# From -- ./inp_files/7693.got.cif
#   From: 2010.05.17/outbox.cif.g08.bks.cpg/sg54_4_cif.got.tgz:7693.got - 2010.06.03 13:09:01.
