data_PCOD9423723
_publ_section_title
;
Structure prediction by ZEFSAII (Michael W. Deem and Ramdas Pophale) SiO2 
 PCOD9423723
Probable space group: P C C A
;
_chemical_formula_sum "Si O2"
_cell_formula_units_Z 40
_cell_length_a 11.071253
_cell_length_b 16.801192
_cell_length_c 9.152843
_cell_angle_alpha 90.000000
_cell_angle_beta 90.000000
_cell_angle_gamma 90.000000
_cell_volume 1702.522590
_symmetry_space_group_name_H-M "P C C A"
_symmetry_group_IT_number 54
_symmetry_cell_setting 'orthorhombic'
loop_
_space_group_symop_operation_xyz
x,y,z
1/2-x,-y,z
1/2+x,-y,1/2-z
-x,y,1/2-z
-x,-y,-z
1/2+x,y,-z
1/2-x,y,1/2+z
x,-y,1/2+z
loop_
_atom_site_type_symbol
_atom_site_label
_atom_site_fract_x
_atom_site_fract_y
_atom_site_fract_z
Si Si1 0.252611 0.332730 0.004687
Si Si2 0.860731 0.437369 0.247889
Si Si3 0.359683 0.223987 0.258199
Si Si4 0.995494 0.085273 0.076158
Si Si5 0.256214 0.903426 0.580850
O O1 0.164597 0.386374 0.105147
O O2 0.326597 0.280637 0.120384
O O3 0.337904 0.384527 0.897642
O O4 0.179226 0.275449 0.896795
O O5 0.750000 0.500000 0.245372
O O6 0.000000 0.467257 0.250000
O O7 0.500000 0.205631 0.250000
O O8 0.288024 0.142054 0.229398
O O9 0.000000 0.077740 0.250000
O O10 0.122839 0.124369 0.034585
O O11 0.869601 0.119035 0.020370
O O12 0.000000 0.000000 0.000000
O O13 0.250000 0.000000 0.597574
#
# Coordination Sequence:
#
# PCOD9423723 Si02
#       5
#     8   8   8   8   8
#     4  10  25  46  69 109 153 193 244 300 369 450
#     4  11  24  45  77 113 152 194 243 298 360 439
#     4  11  25  45  74 100 146 200 250 307 382 445
#     4  10  24  44  68 100 138 178 236 311 377 439
#     4  10  25  44  71 101 141 187 253 311 373 434
#
# _framework density 23.494548000000002
#
# number of rings (size 3 to 8) (size 9 to 14) (size 15 to 20)
#    0.000    1.600    0.000    1.800    5.600   16.800 
#    0.000    0.000    0.000    0.000    0.000    0.000 
#    0.000    0.000    0.000    0.000    0.000    0.000 
#
# Total GULP energy -223716.007364 kJ/mol
# GULP energy per Si atom -5592.900184 kJ/mol
# Density = 2.344107 g / cm^3
# Si number density = 23.494548 Si / 1000 Ang^3
#
#
#
# Elastic Constant Matrix: (Units=GPa)
#
#
# Indices 1 2 3 4 5 6 
#
# 1 241.7498 55.4410 64.9243 0.0000 0.0000 0.0000
# 2 55.4410 92.7212 42.9814 0.0000 0.0000 0.0000
# 3 64.9243 42.9814 161.7300 0.0000 0.0000 0.0000
# 4 0.0000 0.0000 0.0000 28.9716 0.0000 0.0000
# 5 0.0000 0.0000 0.0000 0.0000 36.9505 0.0000
# 6 0.0000 0.0000 0.0000 0.0000 0.0000 36.1123
#
#
#
# Elastic Compliance Matrix: (Units=1/GPa)
#
#
# Indices 1 2 3 4 5 6 
#
# 1 0.005057 -0.002375 -0.001399 0.000000 0.000000 0.000000
# 2 -0.002375 0.013416 -0.002612 0.000000 0.000000 0.000000
# 3 -0.001399 -0.002612 0.007439 0.000000 0.000000 0.000000
# 4 0.000000 0.000000 0.000000 0.034517 0.000000 0.000000
# 5 0.000000 0.000000 0.000000 0.000000 0.027063 0.000000
# 6 0.000000 0.000000 0.000000 0.000000 0.000000 0.027691
#
#
# Mechanical properties :
#
#
# Convention : Reuss Voigt Hill
#
# Bulk Modulus (GPa) = 76.10465 91.43271 83.76868
# Shear Modulus (GPa) = 37.78294 42.59716 40.19005
#
# Velocity S-wave (km/s) = 4.01453 4.26263 4.14044
# Velocity P-wave (km/s) = 7.34516 7.95159 7.65438
#
# Compressibility (1/GPa) = 0.01313980
#
# Stress axis : x y z
#
# Youngs Moduli (GPa) = 197.75016 74.53762 134.43019
#
# Poissons Ratio (x) = 0.17705 0.18804
# Poissons Ratio (y) = 0.46971 0.35112
# Poissons Ratio (z) = 0.27661 0.19469
#
# Static dielectric constant tensor:
#      x y z
#    x 1.892130 0.000000 0.000000 
#    y 0.000000 1.934520 0.000000 
#    z 0.000000 0.000000 1.940170 
# 
# From -- ./inp_files/2923.got.cif
#   From: 2010.05.17/outbox.cif.g08.bks.cpg/sg54_2_cif.got.tgz:2923.got - 2010.06.03 13:09:01.
