data_PCOD9423615
_publ_section_title
;
Structure prediction by ZEFSAII (Michael W. Deem and Ramdas Pophale) SiO2 
 PCOD9423615
Probable space group: P C C A
;
_chemical_formula_sum "Si O2"
_cell_formula_units_Z 40
_cell_length_a 18.579205
_cell_length_b 12.353055
_cell_length_c 7.831430
_cell_angle_alpha 90.000000
_cell_angle_beta 90.000000
_cell_angle_gamma 90.000000
_cell_volume 1797.391039
_symmetry_space_group_name_H-M "P C C A"
_symmetry_group_IT_number 54
_symmetry_cell_setting 'orthorhombic'
loop_
_space_group_symop_operation_xyz
x,y,z
1/2-x,-y,z
1/2+x,-y,1/2-z
-x,y,1/2-z
-x,-y,-z
1/2+x,y,-z
1/2-x,y,1/2+z
x,-y,1/2+z
loop_
_atom_site_type_symbol
_atom_site_label
_atom_site_fract_x
_atom_site_fract_y
_atom_site_fract_z
Si Si1 0.250000 0.500000 0.571597
Si Si2 0.673704 0.629457 0.178027
Si Si3 0.851947 0.912577 0.329926
Si Si4 0.805931 0.135247 0.214959
Si Si5 0.500000 0.788499 0.750000
Si Si6 0.019497 0.377733 0.448298
O O1 0.237742 0.396467 0.452888
O O2 0.317854 0.468228 0.688344
O O3 0.678439 0.743204 0.270534
O O4 0.605024 0.628218 0.059842
O O5 0.780353 0.880809 0.222501
O O6 0.833825 0.876512 0.521837
O O7 0.927612 0.861071 0.272585
O O8 0.847543 0.043211 0.320665
O O9 0.508132 0.709756 0.584858
O O10 0.000000 0.356231 0.250000
O O11 0.000000 0.500000 0.500000
#
# Coordination Sequence:
#
# PCOD9423615 Si02
#       6
#     4   8   8   8   4   8
#     4  10  24  38  72  98 142 174 244 308 346 450
#     4  11  23  44  65 107 134 189 239 301 370 429
#     4  11  25  46  74 109 144 195 251 303 375 446
#     4  11  23  44  73 101 144 189 242 305 363 438
#     4  12  28  50  74 110 156 192 248 316 368 452
#     4  12  26  45  73 104 150 199 243 296 375 450
#
# _framework density 22.254477999999999
#
# number of rings (size 3 to 8) (size 9 to 14) (size 15 to 20)
#    0.000    0.800    3.000    4.800    0.000    7.200 
#    1.800    0.000    0.000    0.000    0.000    0.000 
#    0.000    0.000    0.000    0.000    0.000    0.000 
#
# Total GULP energy -223333.552285 kJ/mol
# GULP energy per Si atom -5583.338807 kJ/mol
# Density = 2.220383 g / cm^3
# Si number density = 22.254478 Si / 1000 Ang^3
#
#
#
# Elastic Constant Matrix: (Units=GPa)
#
#
# Indices 1 2 3 4 5 6 
#
# 1 86.0247 44.8153 25.1566 0.0000 0.0000 0.0000
# 2 44.8153 156.5873 36.5677 0.0000 0.0000 0.0000
# 3 25.1566 36.5677 104.7750 0.0000 0.0000 0.0000
# 4 0.0000 0.0000 0.0000 33.9305 0.0000 0.0000
# 5 0.0000 0.0000 0.0000 0.0000 36.4552 0.0000
# 6 0.0000 0.0000 0.0000 0.0000 0.0000 27.5634
#
#
#
# Elastic Compliance Matrix: (Units=1/GPa)
#
#
# Indices 1 2 3 4 5 6 
#
# 1 0.014093 -0.003531 -0.002151 0.000000 0.000000 0.000000
# 2 -0.003531 0.007838 -0.001888 0.000000 0.000000 0.000000
# 3 -0.002151 -0.001888 0.010720 0.000000 0.000000 0.000000
# 4 0.000000 0.000000 0.000000 0.029472 0.000000 0.000000
# 5 0.000000 0.000000 0.000000 0.000000 0.027431 0.000000
# 6 0.000000 0.000000 0.000000 0.000000 0.000000 0.036280
#
#
# Mechanical properties :
#
#
# Convention : Reuss Voigt Hill
#
# Bulk Modulus (GPa) = 57.10928 62.27404 59.69166
# Shear Modulus (GPa) = 34.05753 35.64631 34.85192
#
# Velocity S-wave (km/s) = 3.91624 4.00654 3.96165
# Velocity P-wave (km/s) = 6.79462 7.03183 6.91424
#
# Compressibility (1/GPa) = 0.01751029
#
# Stress axis : x y z
#
# Youngs Moduli (GPa) = 70.95590 127.58980 93.28689
#
# Poissons Ratio (x) = 0.45053 0.20070
# Poissons Ratio (y) = 0.25055 0.17609
# Poissons Ratio (z) = 0.15266 0.24084
#
# Static dielectric constant tensor:
#      x y z
#    x 1.894310 0.000000 0.000000 
#    y 0.000000 1.907250 0.000000 
#    z 0.000000 0.000000 1.898640 
# 
# From -- ./inp_files/4011.got.cif
#   From: 2010.05.17/outbox.cif.g08.bks.cpg/sg54_3_cif.got.tgz:4011.got - 2010.06.03 13:09:01.
