data_PCOD9423453
_publ_section_title
;
Structure prediction by ZEFSAII (Michael W. Deem and Ramdas Pophale) SiO2 
 PCOD9423453
Probable space group: P C C A
;
_chemical_formula_sum "Si O2"
_cell_formula_units_Z 60
_cell_length_a 24.300288
_cell_length_b 6.605400
_cell_length_c 18.256779
_cell_angle_alpha 90.000000
_cell_angle_beta 90.000000
_cell_angle_gamma 90.000000
_cell_volume 2930.452601
_symmetry_space_group_name_H-M "P C C A"
_symmetry_group_IT_number 54
_symmetry_cell_setting 'orthorhombic'
loop_
_space_group_symop_operation_xyz
x,y,z
1/2-x,-y,z
1/2+x,-y,1/2-z
-x,y,1/2-z
-x,-y,-z
1/2+x,y,-z
1/2-x,y,1/2+z
x,-y,1/2+z
loop_
_atom_site_type_symbol
_atom_site_label
_atom_site_fract_x
_atom_site_fract_y
_atom_site_fract_z
Si Si1 0.340407 0.107051 0.241291
Si Si2 0.691835 0.590879 0.636042
Si Si3 0.250000 0.000000 0.629824
Si Si4 0.302036 0.873520 0.987357
Si Si5 0.946799 0.375003 0.790148
Si Si6 0.104652 0.722528 0.803995
Si Si7 0.421423 0.974515 0.443915
Si Si8 0.010285 0.690235 0.050973
O O1 0.320252 0.208892 0.316557
O O2 0.393697 0.233362 0.217195
O O3 0.292150 0.117403 0.181825
O O4 0.358961 0.878057 0.256668
O O5 0.750000 0.500000 0.658775
O O6 0.694601 0.658448 0.551975
O O7 0.644436 0.432196 0.653495
O O8 0.212854 0.868721 0.573346
O O9 0.250000 0.000000 0.955524
O O10 0.358895 0.984828 0.968631
O O11 0.933003 0.585357 0.748656
O O12 0.963037 0.389221 0.874475
O O13 0.000000 0.282478 0.750000
O O14 0.075474 0.853996 0.867178
O O15 0.450456 0.845173 0.507483
O O16 0.454087 0.185414 0.434409
O O17 0.000000 0.500000 0.000000
#
# Coordination Sequence:
#
# PCOD9423453 Si02
#       8
#     8   8   4   8   8   8   8   8
#     4  11  23  45  70  98 146 177 237 294 353 421
#     4  11  23  40  69  98 127 180 234 287 337 418
#     4  10  24  40  68 100 136 190 220 290 364 418
#     4  10  23  42  66  98 136 179 235 281 355 425
#     4  11  25  43  68 105 137 183 239 294 356 425
#     4  11  24  41  72  99 132 185 234 292 349 418
#     4  11  23  45  71 100 140 190 234 291 367 417
#     4  11  26  44  71 102 143 183 236 297 351 437
#
# _framework density 20.474653
#
# number of rings (size 3 to 8) (size 9 to 14) (size 15 to 20)
#    0.400    0.800    1.333    4.000    4.667    4.800 
#    0.000    2.000    0.000    0.000    0.000    0.000 
#    0.000    0.000    0.000    0.000    0.000    0.000 
#
# Total GULP energy -335333.448786 kJ/mol
# GULP energy per Si atom -5588.890813 kJ/mol
# Density = 2.042805 g / cm^3
# Si number density = 20.474653 Si / 1000 Ang^3
#
#
#
# Elastic Constant Matrix: (Units=GPa)
#
#
# Indices 1 2 3 4 5 6 
#
# 1 127.6289 49.3903 40.0919 0.0000 0.0000 0.0000
# 2 49.3903 91.8100 40.9076 0.0000 0.0000 0.0000
# 3 40.0919 40.9076 122.7500 0.0000 0.0000 0.0000
# 4 0.0000 0.0000 0.0000 4.1998 0.0000 0.0000
# 5 0.0000 0.0000 0.0000 0.0000 30.9234 0.0000
# 6 0.0000 0.0000 0.0000 0.0000 0.0000 26.1046
#
#
#
# Elastic Compliance Matrix: (Units=1/GPa)
#
#
# Indices 1 2 3 4 5 6 
#
# 1 0.010211 -0.004706 -0.001767 0.000000 0.000000 0.000000
# 2 -0.004706 0.014960 -0.003449 0.000000 0.000000 0.000000
# 3 -0.001767 -0.003449 0.009873 0.000000 0.000000 0.000000
# 4 0.000000 0.000000 0.000000 0.238108 0.000000 0.000000
# 5 0.000000 0.000000 0.000000 0.000000 0.032338 0.000000
# 6 0.000000 0.000000 0.000000 0.000000 0.000000 0.038307
#
#
# Mechanical properties :
#
#
# Convention : Reuss Voigt Hill
#
# Bulk Modulus (GPa) = 65.78222 66.99649 66.38935
# Shear Modulus (GPa) = 13.56085 26.36551 19.96318
#
# Velocity S-wave (km/s) = 2.57636 3.59237 3.12592
# Velocity P-wave (km/s) = 6.40691 7.07103 6.74715
#
# Compressibility (1/GPa) = 0.01520168
#
# Stress axis : x y z
#
# Youngs Moduli (GPa) = 97.92965 66.84332 101.28640
#
# Poissons Ratio (x) = 0.31457 0.17896
# Poissons Ratio (y) = 0.46087 0.34930
# Poissons Ratio (z) = 0.17303 0.23052
#
# Static dielectric constant tensor:
#      x y z
#    x 1.740250 0.000000 0.000000 
#    y 0.000000 1.722650 0.000000 
#    z 0.000000 0.000000 1.746070 
# 
# From -- ./inp_files/22323.got.cif
#   From: 2010.05.17/outbox.cif.g08.bks.cpg/sg54_12_cif.got.tgz:22323.got - 2010.06.03 13:09:01.
