data_PCOD9423913
_publ_section_title
;
Structure prediction by ZEFSAII (Michael W. Deem and Ramdas Pophale) SiO2 
 PCOD9423913
Probable space group: P C C A
;
_chemical_formula_sum "Si O2"
_cell_formula_units_Z 56
_cell_length_a 29.631439
_cell_length_b 5.615441
_cell_length_c 14.202430
_cell_angle_alpha 90.000000
_cell_angle_beta 90.000000
_cell_angle_gamma 90.000000
_cell_volume 2363.193420
_symmetry_space_group_name_H-M "P C C A"
_symmetry_group_IT_number 54
_symmetry_cell_setting 'orthorhombic'
loop_
_space_group_symop_operation_xyz
x,y,z
1/2-x,-y,z
1/2+x,-y,1/2-z
-x,y,1/2-z
-x,-y,-z
1/2+x,y,-z
1/2-x,y,1/2+z
x,-y,1/2+z
loop_
_atom_site_type_symbol
_atom_site_label
_atom_site_fract_x
_atom_site_fract_y
_atom_site_fract_z
Si Si1 0.250000 0.500000 0.684351
Si Si2 0.500000 0.104724 0.750000
Si Si3 0.304326 0.251958 0.837840
Si Si4 0.205641 0.145285 0.555418
Si Si5 0.427606 0.215964 0.173094
Si Si6 0.610097 0.906388 0.474680
Si Si7 0.143980 0.756963 0.324937
Si Si8 0.974485 0.391422 0.412063
O O1 0.268322 0.303541 0.757004
O O2 0.210794 0.382440 0.619521
O O3 0.505430 0.209642 0.644490
O O4 0.548661 0.988606 0.767391
O O5 0.331810 0.503460 0.843090
O O6 0.327708 0.000989 0.810696
O O7 0.289067 0.216030 0.945561
O O8 0.250000 0.000000 0.580817
O O9 0.161090 0.975697 0.560281
O O10 0.384713 0.289190 0.231736
O O11 0.465496 0.411713 0.166072
O O12 0.415744 0.138107 0.066525
O O13 0.615466 0.832638 0.582652
O O14 0.575877 0.706867 0.434263
O O15 0.000000 0.500000 0.500000
#
# Coordination Sequence:
#
# PCOD9423913 Si02
#       8
#     4   4   8   8   8   8   8   8
#     4  12  28  44  84 106 152 208 270 330 400 486
#     4  10  26  46  72 114 148 196 256 324 394 482
#     4  11  29  48  74 113 152 204 264 320 398 464
#     4  11  28  49  78 109 161 203 264 329 399 479
#     4  11  26  46  74 108 151 197 262 314 403 472
#     4  10  27  46  73 109 149 201 259 317 395 471
#     4  11  28  48  78 107 159 200 257 329 391 471
#     4  11  27  46  80 109 156 202 265 325 407 478
#
# _framework density 23.696746000000001
#
# number of rings (size 3 to 8) (size 9 to 14) (size 15 to 20)
#    0.000    1.143    0.000    1.714   26.000    1.143 
#    0.000    0.000    0.000    0.000    0.000    0.000 
#    0.000    0.000    0.000    0.000    0.000    0.000 
#
# Total GULP energy -312113.335444 kJ/mol
# GULP energy per Si atom -5573.452419 kJ/mol
# Density = 2.364281 g / cm^3
# Si number density = 23.696746 Si / 1000 Ang^3
#
#
#
# Elastic Constant Matrix: (Units=GPa)
#
#
# Indices 1 2 3 4 5 6 
#
# 1 82.2418 39.9939 53.9546 0.0000 0.0000 0.0000
# 2 39.9939 77.8810 31.3010 0.0000 0.0000 0.0000
# 3 53.9546 31.3010 126.7132 0.0000 0.0000 0.0000
# 4 0.0000 0.0000 0.0000 27.1696 0.0000 0.0000
# 5 0.0000 0.0000 0.0000 0.0000 49.6056 0.0000
# 6 0.0000 0.0000 0.0000 0.0000 0.0000 -78.0265
#
#
#
# Elastic Compliance Matrix: (Units=1/GPa)
#
#
# Indices 1 2 3 4 5 6 
#
# 1 0.020354 -0.007737 -0.006755 0.000000 0.000000 0.000000
# 2 -0.007737 0.017196 -0.000953 0.000000 0.000000 0.000000
# 3 -0.006755 -0.000953 0.011004 0.000000 0.000000 0.000000
# 4 0.000000 0.000000 0.000000 0.036806 0.000000 0.000000
# 5 0.000000 0.000000 0.000000 0.000000 0.020159 0.000000
# 6 0.000000 0.000000 0.000000 0.000000 0.000000 -0.012816
#
#
# Mechanical properties :
#
#
# Convention : Reuss Voigt Hill
#
# Bulk Modulus (GPa) = 56.61836 59.70390 58.16113
# Shear Modulus (GPa) = 38.61543 10.52215 24.56879
#
# Velocity S-wave (km/s) = 4.04117 2.10950 3.22343
# Velocity P-wave (km/s) = 6.76162 5.58417 6.20091
#
# Compressibility (1/GPa) = 0.01766211
#
# Stress axis : x y z
#
# Youngs Moduli (GPa) = 49.13125 58.15138 90.87756
#
# Poissons Ratio (x) = 0.44992 0.61391
# Poissons Ratio (y) = 0.38013 0.08665
# Poissons Ratio (z) = 0.33190 0.05545
#
# Static dielectric constant tensor:
#      x y z
#    x 1.920430 0.000000 0.000000 
#    y 0.000000 0.631830 0.000000 
#    z 0.000000 0.000000 1.371980 
# 
# From -- ./inp_files/15372.got.cif
#   From: 2010.05.17/outbox.cif.g08.bks.cpg/sg54_8_cif.got.tgz:15372.got - 2010.06.03 13:09:01.
