data_PCOD9423633
_publ_section_title
;
Structure prediction by ZEFSAII (Michael W. Deem and Ramdas Pophale) SiO2 
 PCOD9423633
Probable space group: P C C A
;
_chemical_formula_sum "Si O2"
_cell_formula_units_Z 28
_cell_length_a 10.519703
_cell_length_b 8.531631
_cell_length_c 13.872314
_cell_angle_alpha 90.000000
_cell_angle_beta 90.000000
_cell_angle_gamma 90.000000
_cell_volume 1245.043292
_symmetry_space_group_name_H-M "P C C A"
_symmetry_group_IT_number 54
_symmetry_cell_setting 'orthorhombic'
loop_
_space_group_symop_operation_xyz
x,y,z
1/2-x,-y,z
1/2+x,-y,1/2-z
-x,y,1/2-z
-x,-y,-z
1/2+x,y,-z
1/2-x,y,1/2+z
x,-y,1/2+z
loop_
_atom_site_type_symbol
_atom_site_label
_atom_site_fract_x
_atom_site_fract_y
_atom_site_fract_z
Si Si1 0.127829 0.386286 0.149720
Si Si2 0.734779 0.178752 0.208138
Si Si3 0.500000 0.372018 0.250000
Si Si4 0.368593 0.103400 0.505018
O O1 0.250000 0.500000 0.131820
O O2 0.153460 0.288458 0.250057
O O3 0.012828 0.509171 0.160781
O O4 0.108247 0.253742 0.071040
O O5 0.617015 0.259347 0.258401
O O6 0.750000 0.000000 0.237652
O O7 0.689598 0.166326 0.096815
O O8 0.250000 0.000000 0.543561
O O9 0.500000 0.000000 0.500000
#
# Coordination Sequence:
#
# PCOD9423633 Si02
#       4
#     8   8   4   8
#     4  10  24  44  69 101 148 183 241 300 362 421
#     4  10  24  43  68 100 141 187 239 293 355 433
#     4  10  24  40  70 106 130 204 228 298 370 408
#     4  11  27  46  72 110 140 195 247 292 363 436
#
# _framework density 22.489179
#
# number of rings (size 3 to 8) (size 9 to 14) (size 15 to 20)
#    0.000    1.714    0.000    0.857   20.000    4.571 
#    0.000    0.000    0.000    0.000    0.000    0.000 
#    0.000    0.000    0.000    0.000    0.000    0.000 
#
# Total GULP energy -155911.245463 kJ/mol
# GULP energy per Si atom -5568.258767 kJ/mol
# Density = 2.243799 g / cm^3
# Si number density = 22.489179 Si / 1000 Ang^3
#
#
#
# Elastic Constant Matrix: (Units=GPa)
#
#
# Indices 1 2 3 4 5 6 
#
# 1 95.3086 72.8310 10.4600 0.0000 0.0000 0.0000
# 2 72.8310 206.3329 61.0195 0.0000 0.0000 0.0000
# 3 10.4600 61.0195 106.9195 0.0000 0.0000 0.0000
# 4 0.0000 0.0000 0.0000 14.8785 0.0000 0.0000
# 5 0.0000 0.0000 0.0000 0.0000 16.4013 0.0000
# 6 0.0000 0.0000 0.0000 0.0000 0.0000 33.8839
#
#
#
# Elastic Compliance Matrix: (Units=1/GPa)
#
#
# Indices 1 2 3 4 5 6 
#
# 1 0.014658 -0.005714 0.001827 0.000000 0.000000 0.000000
# 2 -0.005714 0.008058 -0.004040 0.000000 0.000000 0.000000
# 3 0.001827 -0.004040 0.011480 0.000000 0.000000 0.000000
# 4 0.000000 0.000000 0.000000 0.067211 0.000000 0.000000
# 5 0.000000 0.000000 0.000000 0.000000 0.060971 0.000000
# 6 0.000000 0.000000 0.000000 0.000000 0.000000 0.029513
#
#
# Mechanical properties :
#
#
# Convention : Reuss Voigt Hill
#
# Bulk Modulus (GPa) = 54.51907 77.46466 65.99187
# Shear Modulus (GPa) = 23.37984 30.64944 27.01464
#
# Velocity S-wave (km/s) = 3.22779 3.69569 3.46963
# Velocity P-wave (km/s) = 6.17952 7.26160 6.74231
#
# Compressibility (1/GPa) = 0.01834220
#
# Stress axis : x y z
#
# Youngs Moduli (GPa) = 68.21992 124.09470 87.11060
#
# Poissons Ratio (x) = 0.70914 -0.15917
# Poissons Ratio (y) = 0.38984 0.35192
# Poissons Ratio (z) = -0.12465 0.50133
#
# Static dielectric constant tensor:
#      x y z
#    x 2.089960 0.000000 0.000000 
#    y 0.000000 1.830830 0.000000 
#    z 0.000000 0.000000 1.952340 
# 
# From -- ./inp_files/12080.got.cif
#   From: 2010.05.17/outbox.cif.g08.bks.cpg/sg54_7_cif.got.tgz:12080.got - 2010.06.03 13:09:01.
