data_PCOD9423414
_publ_section_title
;
Structure prediction by ZEFSAII (Michael W. Deem and Ramdas Pophale) SiO2 
 PCOD9423414
Probable space group: P C C A
;
_chemical_formula_sum "Si O2"
_cell_formula_units_Z 40
_cell_length_a 11.957220
_cell_length_b 6.724489
_cell_length_c 24.100371
_cell_angle_alpha 90.000000
_cell_angle_beta 90.000000
_cell_angle_gamma 90.000000
_cell_volume 1937.819115
_symmetry_space_group_name_H-M "P C C A"
_symmetry_group_IT_number 54
_symmetry_cell_setting 'orthorhombic'
loop_
_space_group_symop_operation_xyz
x,y,z
1/2-x,-y,z
1/2+x,-y,1/2-z
-x,y,1/2-z
-x,-y,-z
1/2+x,y,-z
1/2-x,y,1/2+z
x,-y,1/2+z
loop_
_atom_site_type_symbol
_atom_site_label
_atom_site_fract_x
_atom_site_fract_y
_atom_site_fract_z
Si Si1 0.250000 0.500000 0.190128
Si Si2 0.071272 0.221653 0.941880
Si Si3 0.250000 0.000000 0.865900
Si Si4 0.657385 0.653038 0.202179
Si Si5 0.628243 0.099649 0.937562
Si Si6 0.043905 0.463410 0.131701
O O1 0.189415 0.348843 0.232929
O O2 0.151279 0.586927 0.152672
O O3 0.169428 0.132831 0.903733
O O4 0.026086 0.427160 0.916342
O O5 0.117879 0.220354 0.004303
O O6 0.966204 0.070878 0.939780
O O7 0.325032 0.137819 0.826816
O O8 0.750000 0.500000 0.178402
O O9 0.539083 0.569055 0.183253
O O10 0.594472 0.256862 0.890376
O O11 0.750000 0.000000 0.932237
#
# Coordination Sequence:
#
# PCOD9423414 Si02
#       6
#     4   8   4   8   8   8
#     4  10  24  44  62  94 132 158 222 278 314 398
#     4  11  23  40  66  94 131 172 216 268 324 407
#     4  12  20  44  66  94 124 174 222 266 326 394
#     4  10  23  41  66  90 123 171 217 270 321 386
#     4  11  24  40  62  99 135 170 216 273 327 397
#     4  12  22  44  66  93 131 176 212 269 339 387
#
# _framework density 20.641762
#
# number of rings (size 3 to 8) (size 9 to 14) (size 15 to 20)
#    0.600    0.400    5.000    2.400    0.000    0.000 
#    5.400    0.000    0.000    0.000    0.000    0.000 
#    0.000    0.000    0.000    0.000    0.000    0.000 
#
# Total GULP energy -223206.744958 kJ/mol
# GULP energy per Si atom -5580.168624 kJ/mol
# Density = 2.059478 g / cm^3
# Si number density = 20.641762 Si / 1000 Ang^3
#
#
#
# Elastic Constant Matrix: (Units=GPa)
#
#
# Indices 1 2 3 4 5 6 
#
# 1 142.9621 23.1631 28.1188 0.0000 0.0000 0.0000
# 2 23.1631 36.0579 10.1590 0.0000 0.0000 0.0000
# 3 28.1188 10.1590 69.1065 0.0000 0.0000 0.0000
# 4 0.0000 0.0000 0.0000 8.0691 0.0000 0.0000
# 5 0.0000 0.0000 0.0000 0.0000 33.7199 0.0000
# 6 0.0000 0.0000 0.0000 0.0000 0.0000 32.6388
#
#
#
# Elastic Compliance Matrix: (Units=1/GPa)
#
#
# Indices 1 2 3 4 5 6 
#
# 1 0.008261 -0.004548 -0.002693 0.000000 0.000000 0.000000
# 2 -0.004548 0.031435 -0.002770 0.000000 0.000000 0.000000
# 3 -0.002693 -0.002770 0.015973 0.000000 0.000000 0.000000
# 4 0.000000 0.000000 0.000000 0.123930 0.000000 0.000000
# 5 0.000000 0.000000 0.000000 0.000000 0.029656 0.000000
# 6 0.000000 0.000000 0.000000 0.000000 0.000000 0.030638
#
#
# Mechanical properties :
#
#
# Convention : Reuss Voigt Hill
#
# Bulk Modulus (GPa) = 28.05290 41.22314 34.63802
# Shear Modulus (GPa) = 18.39588 27.33128 22.86358
#
# Velocity S-wave (km/s) = 2.98853 3.64273 3.33173
# Velocity P-wave (km/s) = 5.05255 6.14058 5.62295
#
# Compressibility (1/GPa) = 0.03564693
#
# Stress axis : x y z
#
# Youngs Moduli (GPa) = 121.04409 31.81119 62.60410
#
# Poissons Ratio (x) = 0.14469 0.16859
# Poissons Ratio (y) = 0.55055 0.17344
# Poissons Ratio (z) = 0.32596 0.08813
#
# Static dielectric constant tensor:
#      x y z
#    x 1.777330 0.000000 0.000000 
#    y 0.000000 1.721690 0.000000 
#    z 0.000000 0.000000 1.757890 
# 
# From -- ./inp_files/26094.got.cif
#   From: 2010.05.17/outbox.cif.g08.bks.cpg/sg54_14_cif.got.tgz:26094.got - 2010.06.03 13:09:01.
