data_PCOD9423173
_publ_section_title
;
Structure prediction by ZEFSAII (Michael W. Deem and Ramdas Pophale) SiO2 
 PCOD9423173
Probable space group: P C C A
;
_chemical_formula_sum "Si O2"
_cell_formula_units_Z 52
_cell_length_a 8.960277
_cell_length_b 14.256538
_cell_length_c 19.087408
_cell_angle_alpha 90.000000
_cell_angle_beta 90.000000
_cell_angle_gamma 90.000000
_cell_volume 2438.273780
_symmetry_space_group_name_H-M "P C C A"
_symmetry_group_IT_number 54
_symmetry_cell_setting 'orthorhombic'
loop_
_space_group_symop_operation_xyz
x,y,z
1/2-x,-y,z
1/2+x,-y,1/2-z
-x,y,1/2-z
-x,-y,-z
1/2+x,y,-z
1/2-x,y,1/2+z
x,-y,1/2+z
loop_
_atom_site_type_symbol
_atom_site_label
_atom_site_fract_x
_atom_site_fract_y
_atom_site_fract_z
Si Si1 0.775919 0.213457 0.965343
Si Si2 0.822997 0.705112 0.611063
Si Si3 0.043289 0.916093 0.449047
Si Si4 0.750000 0.500000 0.651834
Si Si5 0.638688 0.307282 0.834658
Si Si6 0.500000 0.474336 0.750000
Si Si7 0.750000 0.000000 0.170525
Si Si8 0.170790 0.188898 0.773911
O O1 0.711583 0.288928 0.910615
O O2 0.898447 0.145623 0.930542
O O3 0.847453 0.264487 0.032024
O O4 0.653333 0.148176 0.003902
O O5 0.798827 0.593538 0.612594
O O6 0.689056 0.758660 0.650732
O O7 0.970368 0.730927 0.655369
O O8 0.119570 0.965908 0.382321
O O9 0.000000 0.000000 0.500000
O O10 0.611091 0.529732 0.700585
O O11 0.603380 0.408384 0.799920
O O12 0.744382 0.253439 0.781500
O O13 0.761076 0.091546 0.218479
O O14 0.000000 0.175023 0.750000
#
# Coordination Sequence:
#
# PCOD9423173 Si02
#       8
#     8   8   8   4   8   4   4   8
#     4  12  24  43  70  97 131 183 227 281 348 409
#     4  11  23  46  70  99 141 178 230 285 351 419
#     4  12  22  42  66  93 132 175 226 278 338 407
#     4  10  22  42  72  98 136 184 224 288 344 420
#     4  11  23  44  69  96 138 182 223 282 357 407
#     4  10  22  44  66 104 132 182 230 272 354 420
#     4  12  26  44  62 100 136 174 234 284 338 408
#     4  12  25  44  68  99 136 180 235 285 344 416
#
# _framework density 21.326561999999999
#
# number of rings (size 3 to 8) (size 9 to 14) (size 15 to 20)
#    0.000    0.615    7.692    0.923    1.077    1.231 
#    2.769    3.846    0.000    0.000    0.000    0.000 
#    0.000    0.000    0.000    0.000    0.000    0.000 
#
# Total GULP energy -290296.600510 kJ/mol
# GULP energy per Si atom -5582.626933 kJ/mol
# Density = 2.127802 g / cm^3
# Si number density = 21.326562 Si / 1000 Ang^3
#
#
#
# Elastic Constant Matrix: (Units=GPa)
#
#
# Indices 1 2 3 4 5 6 
#
# 1 86.1874 27.2967 19.9098 0.0000 0.0000 0.0000
# 2 27.2967 68.3619 7.8782 0.0000 0.0000 0.0000
# 3 19.9098 7.8782 74.4539 0.0000 0.0000 0.0000
# 4 0.0000 0.0000 0.0000 18.9128 0.0000 0.0000
# 5 0.0000 0.0000 0.0000 0.0000 22.9905 0.0000
# 6 0.0000 0.0000 0.0000 0.0000 0.0000 30.6939
#
#
#
# Elastic Compliance Matrix: (Units=1/GPa)
#
#
# Indices 1 2 3 4 5 6 
#
# 1 0.013993 -0.005220 -0.003189 0.000000 0.000000 0.000000
# 2 -0.005220 0.016756 -0.000377 0.000000 0.000000 0.000000
# 3 -0.003189 -0.000377 0.014324 0.000000 0.000000 0.000000
# 4 0.000000 0.000000 0.000000 0.052874 0.000000 0.000000
# 5 0.000000 0.000000 0.000000 0.000000 0.043496 0.000000
# 6 0.000000 0.000000 0.000000 0.000000 0.000000 0.032580
#
#
# Mechanical properties :
#
#
# Convention : Reuss Voigt Hill
#
# Bulk Modulus (GPa) = 36.36412 37.68584 37.02498
# Shear Modulus (GPa) = 24.90518 26.11400 25.50959
#
# Velocity S-wave (km/s) = 3.42102 3.50306 3.46228
# Velocity P-wave (km/s) = 5.71774 5.83704 5.77770
#
# Compressibility (1/GPa) = 0.02749964
#
# Stress axis : x y z
#
# Youngs Moduli (GPa) = 71.46665 59.68122 69.81323
#
# Poissons Ratio (x) = 0.31151 0.22267
# Poissons Ratio (y) = 0.37303 0.02633
# Poissons Ratio (z) = 0.22794 0.02251
#
# Static dielectric constant tensor:
#      x y z
#    x 1.805250 0.000000 0.000000 
#    y 0.000000 1.767500 0.000000 
#    z 0.000000 0.000000 1.798980 
# 
# From -- ./inp_files/20502.got.cif
#   From: 2010.05.17/outbox.cif.g08.bks.cpg/sg54_11_cif.got.tgz:20502.got - 2010.06.03 13:09:01.
