data_PCOD9423188
_publ_section_title
;
Structure prediction by ZEFSAII (Michael W. Deem and Ramdas Pophale) SiO2 
 PCOD9423188
Probable space group: P C C A
;
_chemical_formula_sum "Si O2"
_cell_formula_units_Z 48
_cell_length_a 27.256717
_cell_length_b 6.483577
_cell_length_c 14.067781
_cell_angle_alpha 90.000000
_cell_angle_beta 90.000000
_cell_angle_gamma 90.000000
_cell_volume 2486.072656
_symmetry_space_group_name_H-M "P C C A"
_symmetry_group_IT_number 54
_symmetry_cell_setting 'orthorhombic'
loop_
_space_group_symop_operation_xyz
x,y,z
1/2-x,-y,z
1/2+x,-y,1/2-z
-x,y,1/2-z
-x,-y,-z
1/2+x,y,-z
1/2-x,y,1/2+z
x,-y,1/2+z
loop_
_atom_site_type_symbol
_atom_site_label
_atom_site_fract_x
_atom_site_fract_y
_atom_site_fract_z
Si Si1 0.700799 0.122495 0.202279
Si Si2 0.341659 0.227725 0.665414
Si Si3 0.376586 0.255364 0.450583
Si Si4 0.082205 0.596977 0.821744
Si Si5 0.971998 0.994739 0.597671
Si Si6 0.500000 0.709835 0.750000
Si Si7 0.750000 0.500000 0.802028
O O1 0.667871 0.163044 0.110780
O O2 0.717859 0.341936 0.241239
O O3 0.750000 0.000000 0.176496
O O4 0.674075 0.990098 0.285798
O O5 0.367553 0.230691 0.562796
O O6 0.377954 0.324666 0.745108
O O7 0.291279 0.357910 0.648696
O O8 0.389921 0.483588 0.409637
O O9 0.422500 0.119490 0.419763
O O10 0.046052 0.777486 0.859449
O O11 0.046859 0.431325 0.770677
O O12 0.000000 0.000000 0.500000
O O13 0.006687 0.130649 0.664776
#
# Coordination Sequence:
#
# PCOD9423188 Si02
#       7
#     8   8   8   8   8   4   4
#     4  10  22  43  65  96 136 169 220 274 329 398
#     4  11  24  42  69  95 135 173 220 278 335 395
#     4  11  25  41  68 100 129 180 222 271 339 400
#     4  11  24  45  67  98 134 175 225 280 329 402
#     4  11  26  43  66  98 134 175 224 275 334 404
#     4  10  26  42  68  94 132 174 216 276 334 380
#     4  10  22  44  66  96 136 172 220 276 328 406
#
# _framework density 19.307562000000001
#
# number of rings (size 3 to 8) (size 9 to 14) (size 15 to 20)
#    0.000    1.333    3.333    0.500    7.000    5.333 
#    0.000    0.000    0.000    0.000    0.000    0.000 
#    0.000    0.000    0.000    0.000    0.000    0.000 
#
# Total GULP energy -267671.789437 kJ/mol
# GULP energy per Si atom -5576.495613 kJ/mol
# Density = 1.926362 g / cm^3
# Si number density = 19.307562 Si / 1000 Ang^3
#
#
#
# Elastic Constant Matrix: (Units=GPa)
#
#
# Indices 1 2 3 4 5 6 
#
# 1 57.8793 36.6231 37.2653 0.0000 0.0000 0.0000
# 2 36.6231 120.8097 67.9386 0.0000 0.0000 0.0000
# 3 37.2653 67.9386 125.9426 0.0000 0.0000 0.0000
# 4 0.0000 0.0000 0.0000 14.8936 0.0000 0.0000
# 5 0.0000 0.0000 0.0000 0.0000 54.3309 0.0000
# 6 0.0000 0.0000 0.0000 0.0000 0.0000 23.1431
#
#
#
# Elastic Compliance Matrix: (Units=1/GPa)
#
#
# Indices 1 2 3 4 5 6 
#
# 1 0.022931 -0.004501 -0.004357 0.000000 0.000000 0.000000
# 2 -0.004501 0.012766 -0.005554 0.000000 0.000000 0.000000
# 3 -0.004357 -0.005554 0.012226 0.000000 0.000000 0.000000
# 4 0.000000 0.000000 0.000000 0.067143 0.000000 0.000000
# 5 0.000000 0.000000 0.000000 0.000000 0.018406 0.000000
# 6 0.000000 0.000000 0.000000 0.000000 0.000000 0.043209
#
#
# Mechanical properties :
#
#
# Convention : Reuss Voigt Hill
#
# Bulk Modulus (GPa) = 52.36475 65.36508 58.86492
# Shear Modulus (GPa) = 23.59934 29.32716 26.46325
#
# Velocity S-wave (km/s) = 3.49991 3.90159 3.70620
# Velocity P-wave (km/s) = 6.59642 7.36374 6.99062
#
# Compressibility (1/GPa) = 0.01909682
#
# Stress axis : x y z
#
# Youngs Moduli (GPa) = 43.60987 78.33544 81.79593
#
# Poissons Ratio (x) = 0.35261 0.35637
# Poissons Ratio (y) = 0.19630 0.45433
# Poissons Ratio (z) = 0.19000 0.43511
#
# Static dielectric constant tensor:
#      x y z
#    x 1.673930 0.000000 0.000000 
#    y 0.000000 1.716230 0.000000 
#    z 0.000000 0.000000 0.758570 
# 
# From -- ./inp_files/15183.got.cif
#   From: 2010.05.17/outbox.cif.g08.bks.cpg/sg54_8_cif.got.tgz:15183.got - 2010.06.03 13:09:01.
