data_PCOD9423620
_publ_section_title
;
Structure prediction by ZEFSAII (Michael W. Deem and Ramdas Pophale) SiO2 
 PCOD9423620
Probable space group: P C C A
;
_chemical_formula_sum "Si O2"
_cell_formula_units_Z 36
_cell_length_a 15.311792
_cell_length_b 4.900375
_cell_length_c 22.173783
_cell_angle_alpha 90.000000
_cell_angle_beta 90.000000
_cell_angle_gamma 90.000000
_cell_volume 1663.777051
_symmetry_space_group_name_H-M "P C C A"
_symmetry_group_IT_number 54
_symmetry_cell_setting 'orthorhombic'
loop_
_space_group_symop_operation_xyz
x,y,z
1/2-x,-y,z
1/2+x,-y,1/2-z
-x,y,1/2-z
-x,-y,-z
1/2+x,y,-z
1/2-x,y,1/2+z
x,-y,1/2+z
loop_
_atom_site_type_symbol
_atom_site_label
_atom_site_fract_x
_atom_site_fract_y
_atom_site_fract_z
Si Si1 0.163447 0.833917 0.363198
Si Si2 0.750000 0.000000 0.019605
Si Si3 0.478847 0.221183 0.180502
Si Si4 0.250000 0.500000 0.769231
Si Si5 0.865847 0.267173 0.334910
Si Si6 0.750000 0.500000 0.939976
O O1 0.183888 0.845055 0.434277
O O2 0.174732 0.582536 0.317210
O O3 0.062079 0.892996 0.355512
O O4 0.250000 0.000000 0.340569
O O5 0.786374 0.248901 0.980027
O O6 0.500000 0.168806 0.250000
O O7 0.449649 0.534578 0.173670
O O8 0.395112 0.043546 0.162837
O O9 0.199314 0.692846 0.721695
O O10 0.820189 0.362326 0.396014
#
# Coordination Sequence:
#
# PCOD9423620 Si02
#       6
#     8   4   8   4   8   4
#     4  10  24  39  68  91 132 168 219 262 335 383
#     4  10  24  44  68  90 122 188 222 272 302 392
#     4  12  23  42  62 107 138 163 208 273 337 400
#     4  11  21  42  62 102 127 179 208 268 336 409
#     4  11  26  39  70  96 135 171 215 268 331 388
#     4  11  23  50  66  90 133 177 232 258 320 379
#
# _framework density 21.637512999999998
#
# number of rings (size 3 to 8) (size 9 to 14) (size 15 to 20)
#    0.667    0.444    2.222    4.000    3.111    1.778 
#    0.000    6.667    0.000    0.000    0.000    0.000 
#    0.000    0.000    0.000    0.000    0.000    0.000 
#
# Total GULP energy -200453.643562 kJ/mol
# GULP energy per Si atom -5568.156766 kJ/mol
# Density = 2.158827 g / cm^3
# Si number density = 21.637513 Si / 1000 Ang^3
#
#
#
# Elastic Constant Matrix: (Units=GPa)
#
#
# Indices 1 2 3 4 5 6 
#
# 1 64.6817 -2.0021 17.6465 0.0000 0.0000 0.0000
# 2 -2.0021 67.2536 22.5446 0.0000 0.0000 0.0000
# 3 17.6465 22.5446 132.2013 0.0000 0.0000 0.0000
# 4 0.0000 0.0000 0.0000 4.4618 0.0000 0.0000
# 5 0.0000 0.0000 0.0000 0.0000 44.0489 0.0000
# 6 0.0000 0.0000 0.0000 0.0000 0.0000 37.7403
#
#
#
# Elastic Compliance Matrix: (Units=1/GPa)
#
#
# Indices 1 2 3 4 5 6 
#
# 1 0.016147 0.001276 -0.002373 0.000000 0.000000 0.000000
# 2 0.001276 0.015871 -0.002877 0.000000 0.000000 0.000000
# 3 -0.002373 -0.002877 0.008372 0.000000 0.000000 0.000000
# 4 0.000000 0.000000 0.000000 0.224126 0.000000 0.000000
# 5 0.000000 0.000000 0.000000 0.000000 0.022702 0.000000
# 6 0.000000 0.000000 0.000000 0.000000 0.000000 0.026497
#
#
# Mechanical properties :
#
#
# Convention : Reuss Voigt Hill
#
# Bulk Modulus (GPa) = 30.82355 37.83496 34.32925
# Shear Modulus (GPa) = 15.03864 32.31336 23.67600
#
# Velocity S-wave (km/s) = 2.63919 3.86864 3.31147
# Velocity P-wave (km/s) = 4.85422 6.12200 5.52460
#
# Compressibility (1/GPa) = 0.03244273
#
# Stress axis : x y z
#
# Youngs Moduli (GPa) = 61.93011 63.00612 119.45165
#
# Poissons Ratio (x) = -0.08041 0.28346
# Poissons Ratio (y) = -0.07903 0.34366
# Poissons Ratio (z) = 0.14696 0.18127
#
# Static dielectric constant tensor:
#      x y z
#    x 0.412300 0.000000 0.000000 
#    y 0.000000 2.053700 0.000000 
#    z 0.000000 0.000000 1.763930 
# 
# From -- ./inp_files/21385.got.cif
#   From: 2010.05.17/outbox.cif.g08.bks.cpg/sg54_11_cif.got.tgz:21385.got - 2010.06.03 13:09:01.
