data_PCOD9423481
_publ_section_title
;
Structure prediction by ZEFSAII (Michael W. Deem and Ramdas Pophale) SiO2 
 PCOD9423481
Probable space group: P C C A
;
_chemical_formula_sum "Si O2"
_cell_formula_units_Z 40
_cell_length_a 8.919075
_cell_length_b 9.712142
_cell_length_c 22.544019
_cell_angle_alpha 90.000000
_cell_angle_beta 90.000000
_cell_angle_gamma 90.000000
_cell_volume 1952.837837
_symmetry_space_group_name_H-M "P C C A"
_symmetry_group_IT_number 54
_symmetry_cell_setting 'orthorhombic'
loop_
_space_group_symop_operation_xyz
x,y,z
1/2-x,-y,z
1/2+x,-y,1/2-z
-x,y,1/2-z
-x,-y,-z
1/2+x,y,-z
1/2-x,y,1/2+z
x,-y,1/2+z
loop_
_atom_site_type_symbol
_atom_site_label
_atom_site_fract_x
_atom_site_fract_y
_atom_site_fract_z
Si Si1 0.425739 0.495407 0.191009
Si Si2 0.427249 0.026862 0.934824
Si Si3 0.381967 0.715918 0.091880
Si Si4 0.448249 0.225976 0.126675
Si Si5 0.621802 0.403738 0.030402
O O1 0.250000 0.500000 0.202510
O O2 0.500000 0.553155 0.250000
O O3 0.439211 0.587587 0.131372
O O4 0.477866 0.338379 0.178362
O O5 0.481812 0.179696 0.917989
O O6 0.250000 0.000000 0.939103
O O7 0.492065 0.927845 0.882788
O O8 0.500000 0.000000 0.000000
O O9 0.232613 0.777276 0.122076
O O10 0.316604 0.674809 0.027388
O O11 0.536504 0.300513 0.072834
O O12 0.750000 0.500000 0.057919
O O13 0.500000 0.500000 0.000000
#
# Coordination Sequence:
#
# PCOD9423481 Si02
#       5
#     8   8   8   8   8
#     4  10  23  43  67  92 119 157 207 260 307 356
#     4  12  26  38  58  91 130 167 204 244 305 375
#     4  11  22  41  60  89 126 161 202 252 307 364
#     4  11  23  40  61  88 126 163 201 253 306 362
#     4  12  21  33  57  91 123 159 201 247 306 367
#
# _framework density 20.483011000000001
#
# number of rings (size 3 to 8) (size 9 to 14) (size 15 to 20)
#    0.000    0.800    6.000    2.400    2.800    2.400 
#    0.000    1.000    0.000    0.000    0.000    0.000 
#    0.000    0.000    0.000    0.000    0.000    0.000 
#
# Total GULP energy -223068.190039 kJ/mol
# GULP energy per Si atom -5576.704751 kJ/mol
# Density = 2.043639 g / cm^3
# Si number density = 20.483011 Si / 1000 Ang^3
#
#
#
# Elastic Constant Matrix: (Units=GPa)
#
#
# Indices 1 2 3 4 5 6 
#
# 1 105.0529 30.1369 17.5909 0.0000 0.0000 0.0000
# 2 30.1369 68.1159 13.9850 0.0000 0.0000 0.0000
# 3 17.5909 13.9850 77.5249 0.0000 0.0000 0.0000
# 4 0.0000 0.0000 0.0000 12.5836 0.0000 0.0000
# 5 0.0000 0.0000 0.0000 0.0000 24.0230 0.0000
# 6 0.0000 0.0000 0.0000 0.0000 0.0000 36.2572
#
#
#
# Elastic Compliance Matrix: (Units=1/GPa)
#
#
# Indices 1 2 3 4 5 6 
#
# 1 0.011114 -0.004569 -0.001698 0.000000 0.000000 0.000000
# 2 -0.004569 0.017124 -0.002052 0.000000 0.000000 0.000000
# 3 -0.001698 -0.002052 0.013655 0.000000 0.000000 0.000000
# 4 0.000000 0.000000 0.000000 0.079468 0.000000 0.000000
# 5 0.000000 0.000000 0.000000 0.000000 0.041627 0.000000
# 6 0.000000 0.000000 0.000000 0.000000 0.000000 0.027581
#
#
# Mechanical properties :
#
#
# Convention : Reuss Voigt Hill
#
# Bulk Modulus (GPa) = 39.59657 41.56884 40.58271
# Shear Modulus (GPa) = 23.18858 27.17149 25.18003
#
# Velocity S-wave (km/s) = 3.36830 3.64612 3.50996
# Velocity P-wave (km/s) = 5.87373 6.16960 6.02348
#
# Compressibility (1/GPa) = 0.02525471
#
# Stress axis : x y z
#
# Youngs Moduli (GPa) = 89.97739 58.39910 73.23586
#
# Poissons Ratio (x) = 0.26680 0.12433
# Poissons Ratio (y) = 0.41107 0.15030
# Poissons Ratio (z) = 0.15275 0.11985
#
# Static dielectric constant tensor:
#      x y z
#    x 1.721140 0.000000 0.000000 
#    y 0.000000 1.838720 0.000000 
#    z 0.000000 0.000000 1.822740 
# 
# From -- ./inp_files/23230.got.cif
#   From: 2010.05.17/outbox.cif.g08.bks.cpg/sg54_12_cif.got.tgz:23230.got - 2010.06.03 13:09:01.
