data_PCOD9423965
_publ_section_title
;
Structure prediction by ZEFSAII (Michael W. Deem and Ramdas Pophale) SiO2 
 PCOD9423965
Probable space group: P C C A
;
_chemical_formula_sum "Si O2"
_cell_formula_units_Z 40
_cell_length_a 11.088585
_cell_length_b 9.646122
_cell_length_c 15.467024
_cell_angle_alpha 90.000000
_cell_angle_beta 90.000000
_cell_angle_gamma 90.000000
_cell_volume 1654.381404
_symmetry_space_group_name_H-M "P C C A"
_symmetry_group_IT_number 54
_symmetry_cell_setting 'orthorhombic'
loop_
_space_group_symop_operation_xyz
x,y,z
1/2-x,-y,z
1/2+x,-y,1/2-z
-x,y,1/2-z
-x,-y,-z
1/2+x,y,-z
1/2-x,y,1/2+z
x,-y,1/2+z
loop_
_atom_site_type_symbol
_atom_site_label
_atom_site_fract_x
_atom_site_fract_y
_atom_site_fract_z
Si Si1 0.472596 0.187467 0.881522
Si Si2 0.500000 0.036026 0.250000
Si Si3 0.972343 0.652786 0.043478
Si Si4 0.500000 0.429895 0.750000
Si Si5 0.788118 0.774092 0.172376
Si Si6 0.685003 0.623207 0.834123
O O1 0.537445 0.067365 0.827622
O O2 0.483837 0.333310 0.831639
O O3 0.327982 0.161764 0.875737
O O4 0.529500 0.225438 0.972685
O O5 0.605925 0.126696 0.208117
O O6 0.088086 0.689460 0.103355
O O7 0.853943 0.669957 0.103919
O O8 0.000000 0.500000 0.000000
O O9 0.608602 0.532982 0.766464
O O10 0.742355 0.717073 0.266927
O O11 0.750000 0.500000 0.886190
#
# Coordination Sequence:
#
# PCOD9423965 Si02
#       6
#     8   4   8   4   8   8
#     4  11  26  42  70 101 141 186 239 295 352 421
#     4  11  25  52  70  90 135 193 248 284 348 431
#     4  12  25  41  69 111 147 174 232 304 365 426
#     4  11  19  40  60 100 139 185 220 286 344 429
#     4  12  24  47  70 100 141 192 238 292 358 429
#     4  12  22  39  70  99 142 188 229 285 367 433
#
# _framework density 24.17822
#
# number of rings (size 3 to 8) (size 9 to 14) (size 15 to 20)
#    0.000    0.400    8.000    0.600    2.800    0.800 
#    0.000    0.000    0.000    0.000    0.000    0.000 
#    0.000    0.000    0.000    0.000    0.000    0.000 
#
# Total GULP energy -223110.934485 kJ/mol
# GULP energy per Si atom -5577.773362 kJ/mol
# Density = 2.412319 g / cm^3
# Si number density = 24.178220 Si / 1000 Ang^3
#
#
#
# Elastic Constant Matrix: (Units=GPa)
#
#
# Indices 1 2 3 4 5 6 
#
# 1 73.0830 12.3434 5.9705 0.0000 0.0000 0.0000
# 2 12.3434 69.1598 31.3044 0.0000 0.0000 0.0000
# 3 5.9705 31.3044 111.5297 0.0000 0.0000 0.0000
# 4 0.0000 0.0000 0.0000 39.3091 0.0000 0.0000
# 5 0.0000 0.0000 0.0000 0.0000 30.7913 0.0000
# 6 0.0000 0.0000 0.0000 0.0000 0.0000 30.5971
#
#
#
# Elastic Compliance Matrix: (Units=1/GPa)
#
#
# Indices 1 2 3 4 5 6 
#
# 1 0.014109 -0.002493 -0.000056 0.000000 0.000000 0.000000
# 2 -0.002493 0.017004 -0.004639 0.000000 0.000000 0.000000
# 3 -0.000056 -0.004639 0.010271 0.000000 0.000000 0.000000
# 4 0.000000 0.000000 0.000000 0.025439 0.000000 0.000000
# 5 0.000000 0.000000 0.000000 0.000000 0.032477 0.000000
# 6 0.000000 0.000000 0.000000 0.000000 0.000000 0.032683
#
#
# Mechanical properties :
#
#
# Convention : Reuss Voigt Hill
#
# Bulk Modulus (GPa) = 37.02528 39.22326 38.12427
# Shear Modulus (GPa) = 32.18301 33.74979 32.96640
#
# Velocity S-wave (km/s) = 3.65235 3.74020 3.69653
# Velocity P-wave (km/s) = 5.75612 5.90846 5.83279
#
# Compressibility (1/GPa) = 0.02700857
#
# Stress axis : x y z
#
# Youngs Moduli (GPa) = 70.87848 58.80932 97.35810
#
# Poissons Ratio (x) = 0.14661 0.00541
# Poissons Ratio (y) = 0.17669 0.45167
# Poissons Ratio (z) = 0.00394 0.27283
#
# Static dielectric constant tensor:
#      x y z
#    x 2.101620 0.000000 0.000000 
#    y 0.000000 2.044050 0.000000 
#    z 0.000000 0.000000 1.926910 
# 
# From -- ./inp_files/12544.got.cif
#   From: 2010.05.17/outbox.cif.g08.bks.cpg/sg54_7_cif.got.tgz:12544.got - 2010.06.03 13:09:01.
