data_PCOD9423656
_publ_section_title
;
Structure prediction by ZEFSAII (Michael W. Deem and Ramdas Pophale) SiO2 
 PCOD9423656
Probable space group: P C C A
;
_chemical_formula_sum "Si O2"
_cell_formula_units_Z 28
_cell_length_a 11.944284
_cell_length_b 4.932415
_cell_length_c 21.239398
_cell_angle_alpha 90.000000
_cell_angle_beta 90.000000
_cell_angle_gamma 90.000000
_cell_volume 1251.301410
_symmetry_space_group_name_H-M "P C C A"
_symmetry_group_IT_number 54
_symmetry_cell_setting 'orthorhombic'
loop_
_space_group_symop_operation_xyz
x,y,z
1/2-x,-y,z
1/2+x,-y,1/2-z
-x,y,1/2-z
-x,-y,-z
1/2+x,y,-z
1/2-x,y,1/2+z
x,-y,1/2+z
loop_
_atom_site_type_symbol
_atom_site_label
_atom_site_fract_x
_atom_site_fract_y
_atom_site_fract_z
Si Si1 0.000000 0.509196 0.750000
Si Si2 0.474723 0.133098 0.066894
Si Si3 0.869442 0.359044 0.373095
Si Si4 0.673116 0.244712 0.159738
O O1 0.059719 0.656718 0.691777
O O2 0.095547 0.334700 0.783035
O O3 0.381694 0.939517 0.098820
O O4 0.429837 0.438419 0.076596
O O5 0.591144 0.138117 0.105330
O O6 0.500000 0.000000 0.000000
O O7 0.750000 0.500000 0.361187
O O8 0.750000 0.500000 0.140043
O O9 0.750000 0.000000 0.180576
#
# Coordination Sequence:
#
# PCOD9423656 Si02
#       4
#     4   8   8   8
#     4  10  24  42  64  94 130 160 210 264 312 380
#     4  11  25  44  64  94 130 165 214 263 308 376
#     4  11  24  42  67  95 127 168 208 259 320 374
#     4  11  24  41  65  93 126 170 211 260 322 378
#
# _framework density 22.376705000000001
#
# number of rings (size 3 to 8) (size 9 to 14) (size 15 to 20)
#    0.000    1.143    0.000    6.000    0.000   18.286 
#    0.000    0.000    0.000    0.000    0.000    0.000 
#    0.000    0.000    0.000    0.000    0.000    0.000 
#
# Total GULP energy -156544.775678 kJ/mol
# GULP energy per Si atom -5590.884846 kJ/mol
# Density = 2.232577 g / cm^3
# Si number density = 22.376705 Si / 1000 Ang^3
#
#
#
# Elastic Constant Matrix: (Units=GPa)
#
#
# Indices 1 2 3 4 5 6 
#
# 1 112.1225 17.9655 18.4741 0.0000 0.0000 0.0000
# 2 17.9655 92.9937 27.1919 0.0000 0.0000 0.0000
# 3 18.4741 27.1919 96.3904 0.0000 0.0000 0.0000
# 4 0.0000 0.0000 0.0000 -6.5240 0.0000 0.0000
# 5 0.0000 0.0000 0.0000 0.0000 0.5354 0.0000
# 6 0.0000 0.0000 0.0000 0.0000 0.0000 34.0809
#
#
#
# Elastic Compliance Matrix: (Units=1/GPa)
#
#
# Indices 1 2 3 4 5 6 
#
# 1 0.009374 -0.001401 -0.001401 0.000000 0.000000 0.000000
# 2 -0.001401 0.011930 -0.003097 0.000000 0.000000 0.000000
# 3 -0.001401 -0.003097 0.011517 0.000000 0.000000 0.000000
# 4 0.000000 0.000000 0.000000 -0.153281 0.000000 0.000000
# 5 0.000000 0.000000 0.000000 0.000000 1.867751 0.000000
# 6 0.000000 0.000000 0.000000 0.000000 0.000000 0.029342
#
#
# Mechanical properties :
#
#
# Convention : Reuss Voigt Hill
#
# Bulk Modulus (GPa) = 47.56987 47.64108 47.60548
# Shear Modulus (GPa) = 2.78483 21.47680 12.13082
#
# Velocity S-wave (km/s) = 1.11679 3.10140 2.33087
# Velocity P-wave (km/s) = 4.79247 5.84479 5.34459
#
# Compressibility (1/GPa) = 0.02102171
#
# Stress axis : x y z
#
# Youngs Moduli (GPa) = 106.67534 83.82473 86.83063
#
# Poissons Ratio (x) = 0.11746 0.12168
# Poissons Ratio (y) = 0.14948 0.26890
# Poissons Ratio (z) = 0.14949 0.25959
#
# Static dielectric constant tensor:
#      x y z
#    x 1.759830 0.000000 0.000000 
#    y 0.000000 3.255410 0.000000 
#    z 0.000000 0.000000 1.802640 
# 
# From -- ./inp_files/20731.got.cif
#   From: 2010.05.17/outbox.cif.g08.bks.cpg/sg54_11_cif.got.tgz:20731.got - 2010.06.03 13:09:01.
