data_PCOD9423425
_publ_section_title
;
Structure prediction by ZEFSAII (Michael W. Deem and Ramdas Pophale) SiO2 
 PCOD9423425
Probable space group: P C C A
;
_chemical_formula_sum "Si O2"
_cell_formula_units_Z 40
_cell_length_a 15.930276
_cell_length_b 7.475042
_cell_length_c 14.560396
_cell_angle_alpha 90.000000
_cell_angle_beta 90.000000
_cell_angle_gamma 90.000000
_cell_volume 1733.844416
_symmetry_space_group_name_H-M "P C C A"
_symmetry_group_IT_number 54
_symmetry_cell_setting 'orthorhombic'
loop_
_space_group_symop_operation_xyz
x,y,z
1/2-x,-y,z
1/2+x,-y,1/2-z
-x,y,1/2-z
-x,-y,-z
1/2+x,y,-z
1/2-x,y,1/2+z
x,-y,1/2+z
loop_
_atom_site_type_symbol
_atom_site_label
_atom_site_fract_x
_atom_site_fract_y
_atom_site_fract_z
Si Si1 0.928321 0.026707 0.576465
Si Si2 0.078170 0.469546 0.136407
Si Si3 0.500000 0.173965 0.750000
Si Si4 0.750000 0.000000 0.639308
Si Si5 0.310810 0.638309 0.764649
Si Si6 0.898104 0.446389 0.563797
O O1 0.831471 0.955451 0.575576
O O2 0.962908 0.947399 0.670417
O O3 0.917182 0.237793 0.574869
O O4 0.000000 0.000000 0.500000
O O5 0.106053 0.635495 0.200155
O O6 0.072562 0.298437 0.203660
O O7 0.983783 0.460076 0.094982
O O8 0.128145 0.478179 0.040564
O O9 0.723850 0.830290 0.703635
O O10 0.250000 0.500000 0.711670
O O11 0.333525 0.523676 0.855410
#
# Coordination Sequence:
#
# PCOD9423425 Si02
#       6
#     8   8   4   4   8   8
#     4  11  24  45  69 102 145 195 246 324 379 451
#     4  11  22  41  68 102 132 187 246 299 381 456
#     4  12  22  38  74 102 138 188 256 312 386 462
#     4  10  26  42  70 108 144 194 254 302 386 456
#     4  11  23  43  68  97 147 183 235 313 368 450
#     4  10  23  41  68  98 133 186 244 300 382 454
#
# _framework density 23.070121
#
# number of rings (size 3 to 8) (size 9 to 14) (size 15 to 20)
#    0.000    1.200    4.000    1.200    5.600    0.800 
#    0.000    3.000    0.000    0.000    0.000    0.000 
#    0.000    0.000    0.000    0.000    0.000    0.000 
#
# Total GULP energy -222871.818438 kJ/mol
# GULP energy per Si atom -5571.795461 kJ/mol
# Density = 2.301761 g / cm^3
# Si number density = 23.070121 Si / 1000 Ang^3
#
#
#
# Elastic Constant Matrix: (Units=GPa)
#
#
# Indices 1 2 3 4 5 6 
#
# 1 111.1119 12.7415 66.9069 0.0000 0.0000 0.0000
# 2 12.7415 48.5745 33.4107 0.0000 0.0000 0.0000
# 3 66.9069 33.4107 179.6971 0.0000 0.0000 0.0000
# 4 0.0000 0.0000 0.0000 26.0064 0.0000 0.0000
# 5 0.0000 0.0000 0.0000 0.0000 32.9605 0.0000
# 6 0.0000 0.0000 0.0000 0.0000 0.0000 35.0844
#
#
#
# Elastic Compliance Matrix: (Units=1/GPa)
#
#
# Indices 1 2 3 4 5 6 
#
# 1 0.011601 -0.000083 -0.004304 0.000000 0.000000 0.000000
# 2 -0.000083 0.023606 -0.004358 0.000000 0.000000 0.000000
# 3 -0.004304 -0.004358 0.007978 0.000000 0.000000 0.000000
# 4 0.000000 0.000000 0.000000 0.038452 0.000000 0.000000
# 5 0.000000 0.000000 0.000000 0.000000 0.030339 0.000000
# 6 0.000000 0.000000 0.000000 0.000000 0.000000 0.028503
#
#
# Mechanical properties :
#
#
# Convention : Reuss Voigt Hill
#
# Bulk Modulus (GPa) = 38.91773 62.83354 50.87563
# Shear Modulus (GPa) = 30.02378 33.89855 31.96117
#
# Velocity S-wave (km/s) = 3.61143 3.83740 3.72612
# Velocity P-wave (km/s) = 5.85626 6.85049 6.37279
#
# Compressibility (1/GPa) = 0.02569523
#
# Stress axis : x y z
#
# Youngs Moduli (GPa) = 86.19816 42.36145 125.34760
#
# Poissons Ratio (x) = 0.00350 0.53951
# Poissons Ratio (y) = 0.00712 0.54631
# Poissons Ratio (z) = 0.37101 0.18463
#
# Static dielectric constant tensor:
#      x y z
#    x 2.353920 0.000000 0.000000 
#    y 0.000000 1.881180 0.000000 
#    z 0.000000 0.000000 2.005270 
# 
# From -- ./inp_files/13281.got.cif
#   From: 2010.05.17/outbox.cif.g08.bks.cpg/sg54_7_cif.got.tgz:13281.got - 2010.06.03 13:09:01.
