data_PCOD9423248
_publ_section_title
;
Structure prediction by ZEFSAII (Michael W. Deem and Ramdas Pophale) SiO2 
 PCOD9423248
Probable space group: P C C A
;
_chemical_formula_sum "Si O2"
_cell_formula_units_Z 56
_cell_length_a 14.456340
_cell_length_b 7.542631
_cell_length_c 21.495789
_cell_angle_alpha 90.000000
_cell_angle_beta 90.000000
_cell_angle_gamma 90.000000
_cell_volume 2343.875859
_symmetry_space_group_name_H-M "P C C A"
_symmetry_group_IT_number 54
_symmetry_cell_setting 'orthorhombic'
loop_
_space_group_symop_operation_xyz
x,y,z
1/2-x,-y,z
1/2+x,-y,1/2-z
-x,y,1/2-z
-x,-y,-z
1/2+x,y,-z
1/2-x,y,1/2+z
x,-y,1/2+z
loop_
_atom_site_type_symbol
_atom_site_label
_atom_site_fract_x
_atom_site_fract_y
_atom_site_fract_z
Si Si1 0.527937 0.060202 0.319401
Si Si2 0.647309 0.079306 0.619702
Si Si3 0.790149 0.198402 0.881370
Si Si4 0.609411 0.287517 0.498498
Si Si5 0.856198 0.551319 0.696662
Si Si6 0.468438 0.568027 0.912456
Si Si7 0.894161 0.339984 0.331070
O O1 0.500000 0.108310 0.250000
O O2 0.612743 0.178408 0.344618
O O3 0.433910 0.049690 0.358470
O O4 0.565077 0.857201 0.321842
O O5 0.624315 0.136183 0.549272
O O6 0.640297 0.254530 0.663626
O O7 0.750000 0.000000 0.624654
O O8 0.809203 0.278381 0.948897
O O9 0.712974 0.310485 0.846745
O O10 0.750000 0.000000 0.888315
O O11 0.597450 0.463581 0.539380
O O12 0.517364 0.284861 0.455396
O O13 0.750000 0.500000 0.701486
O O14 0.909178 0.418609 0.650371
O O15 0.899120 0.562910 0.765034
O O16 0.551308 0.438661 0.886599
#
# Coordination Sequence:
#
# PCOD9423248 Si02
#       7
#     8   8   8   8   8   8   8
#     4  11  21  42  68  95 135 175 221 284 346 401
#     4  11  24  43  72  99 135 186 229 282 350 412
#     4  10  25  40  64 100 130 171 224 278 337 407
#     4  10  22  45  62  98 131 175 229 273 339 401
#     4  11  24  41  67 105 134 174 230 287 339 411
#     4  10  22  44  68  92 131 183 221 276 344 406
#     4  11  21  44  69  96 133 177 225 275 352 412
#
# _framework density 23.892052
#
# number of rings (size 3 to 8) (size 9 to 14) (size 15 to 20)
#    0.000    1.429    4.286    0.857    4.000    1.714 
#   18.000    0.000    0.000    0.000    0.000    0.000 
#    0.000    0.000    0.000    0.000    0.000    0.000 
#
# Total GULP energy -313339.106916 kJ/mol
# GULP energy per Si atom -5595.341195 kJ/mol
# Density = 2.383767 g / cm^3
# Si number density = 23.892052 Si / 1000 Ang^3
#
#
#
# Elastic Constant Matrix: (Units=GPa)
#
#
# Indices 1 2 3 4 5 6 
#
# 1 171.4341 29.6061 69.3091 0.0000 0.0000 0.0000
# 2 29.6061 81.1717 33.7057 0.0000 0.0000 0.0000
# 3 69.3091 33.7057 176.7427 0.0000 0.0000 0.0000
# 4 0.0000 0.0000 0.0000 9.4486 0.0000 0.0000
# 5 0.0000 0.0000 0.0000 0.0000 46.5554 0.0000
# 6 0.0000 0.0000 0.0000 0.0000 0.0000 35.0746
#
#
#
# Elastic Compliance Matrix: (Units=1/GPa)
#
#
# Indices 1 2 3 4 5 6 
#
# 1 0.007109 -0.001559 -0.002491 0.000000 0.000000 0.000000
# 2 -0.001559 0.013721 -0.002005 0.000000 0.000000 0.000000
# 3 -0.002491 -0.002005 0.007017 0.000000 0.000000 0.000000
# 4 0.000000 0.000000 0.000000 0.105835 0.000000 0.000000
# 5 0.000000 0.000000 0.000000 0.000000 0.021480 0.000000
# 6 0.000000 0.000000 0.000000 0.000000 0.000000 0.028511
#
#
# Mechanical properties :
#
#
# Convention : Reuss Voigt Hill
#
# Bulk Modulus (GPa) = 63.54196 77.17669 70.35933
# Shear Modulus (GPa) = 24.87210 37.99755 31.43483
#
# Velocity S-wave (km/s) = 3.22998 3.99229 3.63120
# Velocity P-wave (km/s) = 6.36895 7.32281 6.86247
#
# Compressibility (1/GPa) = 0.01573763
#
# Stress axis : x y z
#
# Youngs Moduli (GPa) = 140.66132 72.88205 142.50985
#
# Poissons Ratio (x) = 0.11361 0.35494
# Poissons Ratio (y) = 0.21926 0.28578
# Poissons Ratio (z) = 0.35033 0.14615
#
# Static dielectric constant tensor:
#      x y z
#    x 1.893920 0.000000 0.000000 
#    y 0.000000 1.998190 0.000000 
#    z 0.000000 0.000000 1.863090 
# 
# From -- ./inp_files/21600.got.cif
#   From: 2010.05.17/outbox.cif.g08.bks.cpg/sg54_11_cif.got.tgz:21600.got - 2010.06.03 13:09:01.
