data_PCOD9423940
_publ_section_title
;
Structure prediction by ZEFSAII (Michael W. Deem and Ramdas Pophale) SiO2 
 PCOD9423940
Probable space group: P C C A
;
_chemical_formula_sum "Si O2"
_cell_formula_units_Z 40
_cell_length_a 7.503459
_cell_length_b 11.372445
_cell_length_c 22.892246
_cell_angle_alpha 90.000000
_cell_angle_beta 90.000000
_cell_angle_gamma 90.000000
_cell_volume 1953.456583
_symmetry_space_group_name_H-M "P C C A"
_symmetry_group_IT_number 54
_symmetry_cell_setting 'orthorhombic'
loop_
_space_group_symop_operation_xyz
x,y,z
1/2-x,-y,z
1/2+x,-y,1/2-z
-x,y,1/2-z
-x,-y,-z
1/2+x,y,-z
1/2-x,y,1/2+z
x,-y,1/2+z
loop_
_atom_site_type_symbol
_atom_site_label
_atom_site_fract_x
_atom_site_fract_y
_atom_site_fract_z
Si Si1 0.750000 0.500000 0.168489
Si Si2 0.535204 0.853290 0.923749
Si Si3 0.750000 0.000000 0.519414
Si Si4 0.913032 0.922144 0.193716
Si Si5 0.199739 0.288116 0.248034
Si Si6 0.121669 0.609019 0.127541
O O1 0.677651 0.600109 0.210620
O O2 0.576709 0.445033 0.136974
O O3 0.552569 0.902473 0.857942
O O4 0.592129 0.717610 0.917401
O O5 0.336746 0.896514 0.941202
O O6 0.636432 0.923030 0.973820
O O7 0.831257 0.800740 0.218506
O O8 0.000000 0.979751 0.250000
O O9 0.750000 0.000000 0.173224
O O10 0.287314 0.334324 0.186883
O O11 0.000000 0.236526 0.250000
O O12 0.250000 0.500000 0.110109
#
# Coordination Sequence:
#
# PCOD9423940 Si02
#       6
#     4   8   4   8   8   8
#     4  12  20  38  64  96 150 192 224 258 344 430
#     4  11  24  48  74  98 131 183 242 292 352 423
#     4  10  26  52  76  90 128 188 246 302 352 404
#     4  12  24  38  62 106 146 174 226 291 364 432
#     4  12  21  37  61  98 150 190 218 265 351 438
#     4  12  24  42  68 105 143 189 231 281 348 433
#
# _framework density 20.476524000000001
#
# number of rings (size 3 to 8) (size 9 to 14) (size 15 to 20)
#    0.000    0.400    8.000    1.200    1.400    1.600 
#    7.200    1.000    0.000    0.000    0.000    0.000 
#    0.000    0.000    0.000    0.000    0.000    0.000 
#
# Total GULP energy -222693.430466 kJ/mol
# GULP energy per Si atom -5567.335762 kJ/mol
# Density = 2.042992 g / cm^3
# Si number density = 20.476524 Si / 1000 Ang^3
#
#
#
# Elastic Constant Matrix: (Units=GPa)
#
#
# Indices 1 2 3 4 5 6 
#
# 1 87.2574 31.6390 29.5484 0.0000 0.0000 0.0000
# 2 31.6390 150.3239 44.8408 0.0000 0.0000 0.0000
# 3 29.5484 44.8408 83.2649 0.0000 0.0000 0.0000
# 4 0.0000 0.0000 0.0000 37.8794 0.0000 0.0000
# 5 0.0000 0.0000 0.0000 0.0000 53.8319 0.0000
# 6 0.0000 0.0000 0.0000 0.0000 0.0000 35.1885
#
#
#
# Elastic Compliance Matrix: (Units=1/GPa)
#
#
# Indices 1 2 3 4 5 6 
#
# 1 0.013367 -0.001666 -0.003846 0.000000 0.000000 0.000000
# 2 -0.001666 0.008133 -0.003789 0.000000 0.000000 0.000000
# 3 -0.003846 -0.003789 0.015415 0.000000 0.000000 0.000000
# 4 0.000000 0.000000 0.000000 0.026400 0.000000 0.000000
# 5 0.000000 0.000000 0.000000 0.000000 0.018576 0.000000
# 6 0.000000 0.000000 0.000000 0.000000 0.000000 0.028418
#
#
# Mechanical properties :
#
#
# Convention : Reuss Voigt Hill
#
# Bulk Modulus (GPa) = 54.60588 59.21140 56.90864
# Shear Modulus (GPa) = 37.03264 39.70117 38.36690
#
# Velocity S-wave (km/s) = 4.25731 4.40803 4.33332
# Velocity P-wave (km/s) = 7.13384 7.40858 7.27251
#
# Compressibility (1/GPa) = 0.01831305
#
# Stress axis : x y z
#
# Youngs Moduli (GPa) = 74.81143 122.95434 64.87117
#
# Poissons Ratio (x) = 0.20484 0.24952
# Poissons Ratio (y) = 0.12464 0.24578
# Poissons Ratio (z) = 0.28775 0.46584
#
# Static dielectric constant tensor:
#      x y z
#    x 1.939560 0.000000 0.000000 
#    y 0.000000 2.045680 0.000000 
#    z 0.000000 0.000000 1.739890 
# 
# From -- ./inp_files/20342.got.cif
#   From: 2010.05.17/outbox.cif.g08.bks.cpg/sg54_11_cif.got.tgz:20342.got - 2010.06.03 13:09:01.
