data_PCOD9423072
_publ_section_title
;
Structure prediction by ZEFSAII (Michael W. Deem and Ramdas Pophale) SiO2 
 PCOD9423072
Probable space group: P C C A
;
_chemical_formula_sum "Si O2"
_cell_formula_units_Z 48
_cell_length_a 8.775190
_cell_length_b 7.853003
_cell_length_c 30.809110
_cell_angle_alpha 90.000000
_cell_angle_beta 90.000000
_cell_angle_gamma 90.000000
_cell_volume 2123.104861
_symmetry_space_group_name_H-M "P C C A"
_symmetry_group_IT_number 54
_symmetry_cell_setting 'orthorhombic'
loop_
_space_group_symop_operation_xyz
x,y,z
1/2-x,-y,z
1/2+x,-y,1/2-z
-x,y,1/2-z
-x,-y,-z
1/2+x,y,-z
1/2-x,y,1/2+z
x,-y,1/2+z
loop_
_atom_site_type_symbol
_atom_site_label
_atom_site_fract_x
_atom_site_fract_y
_atom_site_fract_z
Si Si1 0.071721 0.797030 0.703296
Si Si2 0.069018 0.296404 0.881619
Si Si3 0.411171 0.299181 0.888075
Si Si4 0.578415 0.208891 0.293983
Si Si5 0.354566 0.833596 0.546094
Si Si6 0.943014 0.681722 0.980042
O O1 0.246534 0.735615 0.701430
O O2 0.000000 0.742299 0.750000
O O3 0.986149 0.749461 0.658309
O O4 0.075400 0.003000 0.704690
O O5 0.026231 0.274772 0.832123
O O6 0.930459 0.213385 0.908143
O O7 0.238988 0.228834 0.890054
O O8 0.081765 0.496017 0.890894
O O9 0.492905 0.257557 0.933283
O O10 0.500000 0.266492 0.250000
O O11 0.237115 0.693808 0.526998
O O12 0.498941 0.819694 0.514588
O O13 0.250000 0.000000 0.548237
O O14 0.000000 0.500000 0.000000
#
# Coordination Sequence:
#
# PCOD9423072 Si02
#       6
#     8   8   8   8   8   8
#     4  10  22  42  70 101 137 181 231 285 351 414
#     4  11  25  43  68  99 139 178 234 284 350 412
#     4  11  25  44  68 101 133 186 231 285 343 419
#     4  10  22  41  67 100 139 181 227 287 351 417
#     4  12  27  46  70 103 139 182 235 297 354 420
#     4  12  25  45  72  98 139 184 232 286 353 420
#
# _framework density 22.608398000000001
#
# number of rings (size 3 to 8) (size 9 to 14) (size 15 to 20)
#    0.000    1.000    1.667    4.000    7.000    4.667 
#    0.000    0.000    0.000    0.000    0.000    0.000 
#    0.000    0.000    0.000    0.000    0.000    0.000 
#
# Total GULP energy -268162.091559 kJ/mol
# GULP energy per Si atom -5586.710241 kJ/mol
# Density = 2.255694 g / cm^3
# Si number density = 22.608398 Si / 1000 Ang^3
#
#
#
# Elastic Constant Matrix: (Units=GPa)
#
#
# Indices 1 2 3 4 5 6 
#
# 1 117.0188 7.5100 22.4820 0.0000 0.0000 0.0000
# 2 7.5100 62.5256 -0.7926 0.0000 0.0000 0.0000
# 3 22.4820 -0.7926 141.6741 0.0000 0.0000 0.0000
# 4 0.0000 0.0000 0.0000 28.2998 0.0000 0.0000
# 5 0.0000 0.0000 0.0000 0.0000 50.7646 0.0000
# 6 0.0000 0.0000 0.0000 0.0000 0.0000 -5.6760
#
#
#
# Elastic Compliance Matrix: (Units=1/GPa)
#
#
# Indices 1 2 3 4 5 6 
#
# 1 0.008887 -0.001085 -0.001416 0.000000 0.000000 0.000000
# 2 -0.001085 0.016127 0.000262 0.000000 0.000000 0.000000
# 3 -0.001416 0.000262 0.007285 0.000000 0.000000 0.000000
# 4 0.000000 0.000000 0.000000 0.035336 0.000000 0.000000
# 5 0.000000 0.000000 0.000000 0.000000 0.019699 0.000000
# 6 0.000000 0.000000 0.000000 0.000000 0.000000 -0.176180
#
#
# Mechanical properties :
#
#
# Convention : Reuss Voigt Hill
#
# Bulk Modulus (GPa) = 35.94466 42.17969 39.06218
# Shear Modulus (GPa) = -66.58332 34.14563 -16.21884
#
# Velocity S-wave (km/s) = -5.43274 3.89048 -2.68130
# Velocity P-wave (km/s) = 4.83937 6.23525 2.78018
#
# Compressibility (1/GPa) = 0.02782054
#
# Stress axis : x y z
#
# Youngs Moduli (GPa) = 112.51860 62.00720 137.27430
#
# Poissons Ratio (x) = 0.06730 0.19443
# Poissons Ratio (y) = 0.12213 -0.03603
# Poissons Ratio (z) = 0.15937 -0.01627
#
# Static dielectric constant tensor:
#      x y z
#    x 1.853980 0.000000 0.000000 
#    y 0.000000 2.113760 0.000000 
#    z 0.000000 0.000000 1.802460 
# 
# From -- ./inp_files/27736.got.cif
#   From: 2010.05.17/outbox.cif.g08.bks.cpg/sg54_14_cif.got.tgz:27736.got - 2010.06.03 13:09:01.
