data_PCOD9423297
_publ_section_title
;
Structure prediction by ZEFSAII (Michael W. Deem and Ramdas Pophale) SiO2 
 PCOD9423297
Probable space group: P C C A
;
_chemical_formula_sum "Si O2"
_cell_formula_units_Z 32
_cell_length_a 14.510092
_cell_length_b 11.073545
_cell_length_c 7.935234
_cell_angle_alpha 90.000000
_cell_angle_beta 90.000000
_cell_angle_gamma 90.000000
_cell_volume 1275.018772
_symmetry_space_group_name_H-M "P C C A"
_symmetry_group_IT_number 54
_symmetry_cell_setting 'orthorhombic'
loop_
_space_group_symop_operation_xyz
x,y,z
1/2-x,-y,z
1/2+x,-y,1/2-z
-x,y,1/2-z
-x,-y,-z
1/2+x,y,-z
1/2-x,y,1/2+z
x,-y,1/2+z
loop_
_atom_site_type_symbol
_atom_site_label
_atom_site_fract_x
_atom_site_fract_y
_atom_site_fract_z
Si Si1 0.845528 0.195952 0.649719
Si Si2 0.103950 0.977183 0.671661
Si Si3 0.645147 0.262358 0.672260
Si Si4 0.529223 0.361841 0.990830
O O1 0.877769 0.099768 0.501045
O O2 0.751828 0.273808 0.628652
O O3 0.920272 0.301358 0.646680
O O4 0.847352 0.106263 0.809787
O O5 0.145046 0.880126 0.798085
O O6 0.000000 0.990525 0.750000
O O7 0.602206 0.332574 0.836642
O O8 0.565590 0.292505 0.542422
O O9 0.500000 0.500000 0.000000
#
# Coordination Sequence:
#
# PCOD9423297 Si02
#       4
#     8   8   8   8
#     4  11  24  43  74 108 146 197 248 315 385 473
#     4  11  22  45  71 106 152 193 242 312 397 470
#     4  10  22  45  71 104 145 192 249 316 394 464
#     4  10  23  49  72  97 147 200 258 321 377 456
#
# _framework density 25.097670999999998
#
# number of rings (size 3 to 8) (size 9 to 14) (size 15 to 20)
#    0.000    1.500    5.000    1.500    0.000    9.000 
#    4.500    7.500    0.000    0.000    0.000    0.000 
#    0.000    0.000    0.000    0.000    0.000    0.000 
#
# Total GULP energy -178363.948788 kJ/mol
# GULP energy per Si atom -5573.873400 kJ/mol
# Density = 2.504055 g / cm^3
# Si number density = 25.097671 Si / 1000 Ang^3
#
#
#
# Elastic Constant Matrix: (Units=GPa)
#
#
# Indices 1 2 3 4 5 6 
#
# 1 237.0972 47.0532 52.0802 0.0000 0.0000 0.0000
# 2 47.0532 132.3541 25.6953 0.0000 0.0000 0.0000
# 3 52.0802 25.6953 94.3550 0.0000 0.0000 0.0000
# 4 0.0000 0.0000 0.0000 22.3165 0.0000 0.0000
# 5 0.0000 0.0000 0.0000 0.0000 28.1880 0.0000
# 6 0.0000 0.0000 0.0000 0.0000 0.0000 -2.3906
#
#
#
# Elastic Compliance Matrix: (Units=1/GPa)
#
#
# Indices 1 2 3 4 5 6 
#
# 1 0.005007 -0.001313 -0.002406 0.000000 0.000000 0.000000
# 2 -0.001313 0.008321 -0.001542 0.000000 0.000000 0.000000
# 3 -0.002406 -0.001542 0.012346 0.000000 0.000000 0.000000
# 4 0.000000 0.000000 0.000000 0.044810 0.000000 0.000000
# 5 0.000000 0.000000 0.000000 0.000000 0.035476 0.000000
# 6 0.000000 0.000000 0.000000 0.000000 0.000000 -0.418309
#
#
# Mechanical properties :
#
#
# Convention : Reuss Voigt Hill
#
# Bulk Modulus (GPa) = 65.99099 79.27375 72.63237
# Shear Modulus (GPa) = -16.84768 32.22128 7.68680
#
# Velocity S-wave (km/s) = -2.59373 3.58695 1.75197
# Velocity P-wave (km/s) = 4.16904 6.98639 5.75285
#
# Compressibility (1/GPa) = 0.01515358
#
# Stress axis : x y z
#
# Youngs Moduli (GPa) = 199.73185 120.17087 80.99737
#
# Poissons Ratio (x) = 0.15776 0.19488
# Poissons Ratio (y) = 0.26221 0.12486
# Poissons Ratio (z) = 0.48055 0.18525
#
# Static dielectric constant tensor:
#      x y z
#    x 2.222270 0.000000 0.000000 
#    y 0.000000 1.920840 0.000000 
#    z 0.000000 0.000000 2.278080 
# 
# From -- ./inp_files/3310.got.cif
#   From: 2010.05.17/outbox.cif.g08.bks.cpg/sg54_2_cif.got.tgz:3310.got - 2010.06.03 13:09:01.
