data_PCOD9423522
_publ_section_title
;
Structure prediction by ZEFSAII (Michael W. Deem and Ramdas Pophale) SiO2 
 PCOD9423522
Probable space group: P C C A
;
_chemical_formula_sum "Si O2"
_cell_formula_units_Z 32
_cell_length_a 5.017911
_cell_length_b 9.666751
_cell_length_c 32.415968
_cell_angle_alpha 90.000000
_cell_angle_beta 90.000000
_cell_angle_gamma 90.000000
_cell_volume 1572.397994
_symmetry_space_group_name_H-M "P C C A"
_symmetry_group_IT_number 54
_symmetry_cell_setting 'orthorhombic'
loop_
_space_group_symop_operation_xyz
x,y,z
1/2-x,-y,z
1/2+x,-y,1/2-z
-x,y,1/2-z
-x,-y,-z
1/2+x,y,-z
1/2-x,y,1/2+z
x,-y,1/2+z
loop_
_atom_site_type_symbol
_atom_site_label
_atom_site_fract_x
_atom_site_fract_y
_atom_site_fract_z
Si Si1 0.750000 0.500000 0.531454
Si Si2 0.772787 0.167063 0.355371
Si Si3 0.494226 0.404035 0.700493
Si Si4 0.750000 0.000000 0.529577
Si Si5 0.227308 0.239279 0.907841
O O1 0.500000 0.500000 0.500000
O O2 0.729553 0.625821 0.563823
O O3 0.486702 0.227301 0.370466
O O4 0.914311 0.254822 0.318587
O O5 0.978820 0.202957 0.391655
O O6 0.750000 0.000000 0.348638
O O7 0.750000 0.500000 0.688577
O O8 0.500000 0.389242 0.750000
O O9 0.250000 0.500000 0.687895
O O10 0.666922 0.879409 0.560184
O O11 0.500000 0.000000 0.500000
#
# Coordination Sequence:
#
# PCOD9423522 Si02
#       5
#     4   8   8   4   8
#     4  12  26  46  64  94 132 172 228 284 338 398
#     4  12  24  44  67 103 137 175 221 276 333 403
#     4  10  23  44  71 103 136 178 225 271 333 405
#     4  12  22  40  64  90 128 176 218 270 336 396
#     4  12  25  42  66  99 131 173 225 278 333 399
#
# _framework density 20.351078999999999
#
# number of rings (size 3 to 8) (size 9 to 14) (size 15 to 20)
#    0.000    0.500    2.500    6.000    5.250    0.000 
#    0.000    6.250    0.000    0.000    0.000    0.000 
#    0.000    0.000    0.000    0.000    0.000    0.000 
#
# Total GULP energy -178285.796801 kJ/mol
# GULP energy per Si atom -5571.431150 kJ/mol
# Density = 2.030476 g / cm^3
# Si number density = 20.351079 Si / 1000 Ang^3
#
#
#
# Elastic Constant Matrix: (Units=GPa)
#
#
# Indices 1 2 3 4 5 6 
#
# 1 151.6628 38.3883 21.8515 0.0000 0.0000 0.0000
# 2 38.3883 186.0608 60.5485 0.0000 0.0000 0.0000
# 3 21.8515 60.5485 57.4018 0.0000 0.0000 0.0000
# 4 0.0000 0.0000 0.0000 44.7211 0.0000 0.0000
# 5 0.0000 0.0000 0.0000 0.0000 28.7782 0.0000
# 6 0.0000 0.0000 0.0000 0.0000 0.0000 25.7920
#
#
#
# Elastic Compliance Matrix: (Units=1/GPa)
#
#
# Indices 1 2 3 4 5 6 
#
# 1 0.007071 -0.000888 -0.001756 0.000000 0.000000 0.000000
# 2 -0.000888 0.008295 -0.008412 0.000000 0.000000 0.000000
# 3 -0.001756 -0.008412 0.026963 0.000000 0.000000 0.000000
# 4 0.000000 0.000000 0.000000 0.022361 0.000000 0.000000
# 5 0.000000 0.000000 0.000000 0.000000 0.034749 0.000000
# 6 0.000000 0.000000 0.000000 0.000000 0.000000 0.038772
#
#
# Mechanical properties :
#
#
# Convention : Reuss Voigt Hill
#
# Bulk Modulus (GPa) = 49.45964 70.74466 60.10215
# Shear Modulus (GPa) = 29.92938 38.14739 34.03838
#
# Velocity S-wave (km/s) = 3.83907 4.33421 4.09413
# Velocity P-wave (km/s) = 6.63380 7.73852 7.20736
#
# Compressibility (1/GPa) = 0.02021851
#
# Stress axis : x y z
#
# Youngs Moduli (GPa) = 141.41900 120.55167 37.08852
#
# Poissons Ratio (x) = 0.10701 0.06511
# Poissons Ratio (y) = 0.12553 0.31199
# Poissons Ratio (z) = 0.24826 1.01408
#
# Static dielectric constant tensor:
#      x y z
#    x -10.223800 0.000000 0.000000 
#    y 0.000000 1.810010 0.000000 
#    z 0.000000 0.000000 1.735040 
# 
# From -- ./inp_files/26897.got.cif
#   From: 2010.05.17/outbox.cif.g08.bks.cpg/sg54_14_cif.got.tgz:26897.got - 2010.06.03 13:09:01.
