data_PCOD9423062
_publ_section_title
;
Structure prediction by ZEFSAII (Michael W. Deem and Ramdas Pophale) SiO2 
 PCOD9423062
Probable space group: P C C A
;
_chemical_formula_sum "Si O2"
_cell_formula_units_Z 40
_cell_length_a 15.165294
_cell_length_b 13.530937
_cell_length_c 9.064203
_cell_angle_alpha 90.000000
_cell_angle_beta 90.000000
_cell_angle_gamma 90.000000
_cell_volume 1859.980236
_symmetry_space_group_name_H-M "P C C A"
_symmetry_group_IT_number 54
_symmetry_cell_setting 'orthorhombic'
loop_
_space_group_symop_operation_xyz
x,y,z
1/2-x,-y,z
1/2+x,-y,1/2-z
-x,y,1/2-z
-x,-y,-z
1/2+x,y,-z
1/2-x,y,1/2+z
x,-y,1/2+z
loop_
_atom_site_type_symbol
_atom_site_label
_atom_site_fract_x
_atom_site_fract_y
_atom_site_fract_z
Si Si1 0.337968 0.297654 0.565973
Si Si2 0.327220 0.081126 0.632373
Si Si3 0.438745 0.964012 0.865453
Si Si4 0.287875 0.608913 0.357221
Si Si5 0.016136 0.395439 0.423132
O O1 0.312317 0.196910 0.649319
O O2 0.283965 0.315335 0.418330
O O3 0.307866 0.380186 0.684052
O O4 0.442269 0.313865 0.535550
O O5 0.360841 0.081211 0.461740
O O6 0.250000 0.000000 0.642002
O O7 0.396970 0.047001 0.757911
O O8 0.500000 0.903959 0.750000
O O9 0.500000 0.000000 0.000000
O O10 0.250000 0.500000 0.385578
O O11 0.380955 0.630091 0.438900
O O12 0.000000 0.410568 0.250000
O O13 0.000000 0.500000 0.500000
#
# Coordination Sequence:
#
# PCOD9423062 Si02
#       5
#     8   8   8   8   8
#     4  11  26  42  68 101 135 184 232 282 359 420
#     4  11  24  43  69  98 140 180 236 293 352 421
#     4   9  21  42  68  93 133 174 224 287 355 408
#     4  11  23  42  69  99 138 176 228 286 347 422
#     4  10  22  41  65  94 134 177 216 280 348 408
#
# _framework density 21.505604999999999
#
# number of rings (size 3 to 8) (size 9 to 14) (size 15 to 20)
#    0.000    1.600    2.000    1.200    8.400    7.200 
#    3.600    1.000    0.000    0.000    0.000    0.000 
#    0.000    0.000    0.000    0.000    0.000    0.000 
#
# Total GULP energy -222806.534578 kJ/mol
# GULP energy per Si atom -5570.163364 kJ/mol
# Density = 2.145666 g / cm^3
# Si number density = 21.505605 Si / 1000 Ang^3
#
#
#
# Elastic Constant Matrix: (Units=GPa)
#
#
# Indices 1 2 3 4 5 6 
#
# 1 127.3170 38.2996 33.2555 0.0000 0.0000 0.0000
# 2 38.2996 80.4222 3.4567 0.0000 0.0000 0.0000
# 3 33.2555 3.4567 85.1488 0.0000 0.0000 0.0000
# 4 0.0000 0.0000 0.0000 28.3848 0.0000 0.0000
# 5 0.0000 0.0000 0.0000 0.0000 42.7761 0.0000
# 6 0.0000 0.0000 0.0000 0.0000 0.0000 13.2595
#
#
#
# Elastic Compliance Matrix: (Units=1/GPa)
#
#
# Indices 1 2 3 4 5 6 
#
# 1 0.010275 -0.004729 -0.003821 0.000000 0.000000 0.000000
# 2 -0.004729 0.014633 0.001253 0.000000 0.000000 0.000000
# 3 -0.003821 0.001253 0.013186 0.000000 0.000000 0.000000
# 4 0.000000 0.000000 0.000000 0.035230 0.000000 0.000000
# 5 0.000000 0.000000 0.000000 0.000000 0.023378 0.000000
# 6 0.000000 0.000000 0.000000 0.000000 0.000000 0.075418
#
#
# Mechanical properties :
#
#
# Convention : Reuss Voigt Hill
#
# Bulk Modulus (GPa) = 42.55493 49.21239 45.88366
# Shear Modulus (GPa) = 25.70084 31.40916 28.55500
#
# Velocity S-wave (km/s) = 3.46074 3.82581 3.64784
# Velocity P-wave (km/s) = 5.98329 6.51529 6.25495
#
# Compressibility (1/GPa) = 0.02349904
#
# Stress axis : x y z
#
# Youngs Moduli (GPa) = 97.32283 68.34022 75.84026
#
# Poissons Ratio (x) = 0.32319 0.28979
# Poissons Ratio (y) = 0.46025 -0.09502
# Poissons Ratio (z) = 0.37187 -0.08563
#
# Static dielectric constant tensor:
#      x y z
#    x 2.007650 0.000000 0.000000 
#    y 0.000000 1.927750 0.000000 
#    z 0.000000 0.000000 1.765840 
# 
# From -- ./inp_files/3422.got.cif
#   From: 2010.05.17/outbox.cif.g08.bks.cpg/sg54_2_cif.got.tgz:3422.got - 2010.06.03 13:09:01.
