data_PCOD9423550
_publ_section_title
;
Structure prediction by ZEFSAII (Michael W. Deem and Ramdas Pophale) SiO2 
 PCOD9423550
Probable space group: P C C A
;
_chemical_formula_sum "Si O2"
_cell_formula_units_Z 56
_cell_length_a 9.273219
_cell_length_b 13.886512
_cell_length_c 19.673026
_cell_angle_alpha 90.000000
_cell_angle_beta 90.000000
_cell_angle_gamma 90.000000
_cell_volume 2533.348024
_symmetry_space_group_name_H-M "P C C A"
_symmetry_group_IT_number 54
_symmetry_cell_setting 'orthorhombic'
loop_
_space_group_symop_operation_xyz
x,y,z
1/2-x,-y,z
1/2+x,-y,1/2-z
-x,y,1/2-z
-x,-y,-z
1/2+x,y,-z
1/2-x,y,1/2+z
x,-y,1/2+z
loop_
_atom_site_type_symbol
_atom_site_label
_atom_site_fract_x
_atom_site_fract_y
_atom_site_fract_z
Si Si1 0.052811 0.767562 0.408016
Si Si2 0.872103 0.070631 0.486937
Si Si3 0.131335 0.434336 0.969875
Si Si4 0.257093 0.325947 0.098518
Si Si5 0.327603 0.596405 0.740371
Si Si6 0.727967 0.800926 0.207930
Si Si7 0.588677 0.164532 0.847000
O O1 0.108995 0.831732 0.470454
O O2 0.089815 0.655338 0.422307
O O3 0.131422 0.811879 0.341060
O O4 0.879287 0.757820 0.408374
O O5 0.870329 0.093836 0.407356
O O6 0.750000 0.000000 0.511998
O O7 0.000000 0.000000 0.500000
O O8 0.250000 0.500000 0.933701
O O9 0.218176 0.385103 0.032194
O O10 0.000000 0.500000 0.000000
O O11 0.307389 0.393316 0.159390
O O12 0.115817 0.271330 0.123940
O O13 0.250000 0.500000 0.763835
O O14 0.500000 0.599879 0.750000
O O15 0.246735 0.688039 0.773349
O O16 0.581430 0.833956 0.170295
O O17 0.695455 0.847697 0.282151
#
# Coordination Sequence:
#
# PCOD9423550 Si02
#       7
#     8   8   8   8   8   8   8
#     4  12  25  45  70 105 144 184 242 299 358 444
#     4  12  26  46  76 109 137 180 235 304 380 439
#     4  12  26  41  63 103 143 193 236 295 363 423
#     4  11  23  43  65  93 145 191 236 297 354 416
#     4  11  24  41  63  97 140 190 252 292 345 426
#     4  10  24  44  68  97 138 195 234 287 369 430
#     4  10  23  45  70  98 139 182 232 295 362 432
#
# _framework density 22.105136000000002
#
# number of rings (size 3 to 8) (size 9 to 14) (size 15 to 20)
#    0.000    0.857    4.286    2.143    8.000    0.571 
#    0.000    3.571    0.000    0.000    0.000    0.000 
#    0.000    0.000    0.000    0.000    0.000    0.000 
#
# Total GULP energy -312317.078304 kJ/mol
# GULP energy per Si atom -5577.090684 kJ/mol
# Density = 2.205482 g / cm^3
# Si number density = 22.105136 Si / 1000 Ang^3
#
#
#
# Elastic Constant Matrix: (Units=GPa)
#
#
# Indices 1 2 3 4 5 6 
#
# 1 75.2280 17.1360 -1.7192 0.0000 0.0000 0.0000
# 2 17.1360 65.4206 11.9188 0.0000 0.0000 0.0000
# 3 -1.7192 11.9188 89.2476 0.0000 0.0000 0.0000
# 4 0.0000 0.0000 0.0000 12.2783 0.0000 0.0000
# 5 0.0000 0.0000 0.0000 0.0000 34.8627 0.0000
# 6 0.0000 0.0000 0.0000 0.0000 0.0000 32.8351
#
#
#
# Elastic Compliance Matrix: (Units=1/GPa)
#
#
# Indices 1 2 3 4 5 6 
#
# 1 0.014190 -0.003861 0.000789 0.000000 0.000000 0.000000
# 2 -0.003861 0.016717 -0.002307 0.000000 0.000000 0.000000
# 3 0.000789 -0.002307 0.011528 0.000000 0.000000 0.000000
# 4 0.000000 0.000000 0.000000 0.081445 0.000000 0.000000
# 5 0.000000 0.000000 0.000000 0.000000 0.028684 0.000000
# 6 0.000000 0.000000 0.000000 0.000000 0.000000 0.030455
#
#
# Mechanical properties :
#
#
# Convention : Reuss Voigt Hill
#
# Bulk Modulus (GPa) = 31.56731 31.61859 31.59295
# Shear Modulus (GPa) = 24.46946 29.49925 26.98435
#
# Velocity S-wave (km/s) = 3.33071 3.65704 3.49768
# Velocity P-wave (km/s) = 5.39472 5.67157 5.53488
#
# Compressibility (1/GPa) = 0.03167834
#
# Stress axis : x y z
#
# Youngs Moduli (GPa) = 70.47026 59.81848 86.74480
#
# Poissons Ratio (x) = 0.23094 -0.06844
# Poissons Ratio (y) = 0.27206 0.20011
# Poissons Ratio (z) = -0.05560 0.13800
#
# Static dielectric constant tensor:
#      x y z
#    x 1.844120 0.000000 0.000000 
#    y 0.000000 1.778160 0.000000 
#    z 0.000000 0.000000 1.854450 
# 
# From -- ./inp_files/20525.got.cif
#   From: 2010.05.17/outbox.cif.g08.bks.cpg/sg54_11_cif.got.tgz:20525.got - 2010.06.03 13:09:01.
