data_PCOD9423025
_publ_section_title
;
Structure prediction by ZEFSAII (Michael W. Deem and Ramdas Pophale) SiO2 
 PCOD9423025
Probable space group: P C C A
;
_chemical_formula_sum "Si O2"
_cell_formula_units_Z 48
_cell_length_a 11.389186
_cell_length_b 13.948005
_cell_length_c 13.300089
_cell_angle_alpha 90.000000
_cell_angle_beta 90.000000
_cell_angle_gamma 90.000000
_cell_volume 2112.804568
_symmetry_space_group_name_H-M "P C C A"
_symmetry_group_IT_number 54
_symmetry_cell_setting 'orthorhombic'
loop_
_space_group_symop_operation_xyz
x,y,z
1/2-x,-y,z
1/2+x,-y,1/2-z
-x,y,1/2-z
-x,-y,-z
1/2+x,y,-z
1/2-x,y,1/2+z
x,-y,1/2+z
loop_
_atom_site_type_symbol
_atom_site_label
_atom_site_fract_x
_atom_site_fract_y
_atom_site_fract_z
Si Si1 0.513096 0.112452 0.010803
Si Si2 0.654402 0.259792 0.371612
Si Si3 0.043136 0.246159 0.358263
Si Si4 0.682182 0.769614 0.642849
Si Si5 0.116821 0.523083 0.182074
Si Si6 0.377065 0.359862 0.525665
O O1 0.408809 0.177129 0.062160
O O2 0.623471 0.147627 0.076161
O O3 0.520418 0.150966 0.896912
O O4 0.500000 0.000000 0.000000
O O5 0.651138 0.219373 0.258664
O O6 0.604053 0.366562 0.349999
O O7 0.780877 0.291418 0.417304
O O8 0.179275 0.230130 0.358544
O O9 0.000000 0.276971 0.250000
O O10 0.004375 0.323431 0.440181
O O11 0.644307 0.668491 0.589757
O O12 0.250000 0.500000 0.228202
O O13 0.125890 0.462453 0.077838
O O14 0.000000 0.498701 0.250000
#
# Coordination Sequence:
#
# PCOD9423025 Si02
#       6
#     8   8   8   8   8   8
#     4  11  26  46  69 100 142 184 243 302 375 455
#     4  11  22  46  73 102 149 193 246 306 377 442
#     4  11  22  42  69 102 141 181 242 300 373 428
#     4  11  23  43  75 103 142 196 237 314 372 441
#     4  10  22  40  70 108 153 204 259 306 374 459
#     4  10  22  42  68 104 150 190 239 306 366 448
#
# _framework density 22.718617999999999
#
# number of rings (size 3 to 8) (size 9 to 14) (size 15 to 20)
#    0.000    1.333    3.333    2.000    2.333    2.000 
#    0.000   16.667    0.000    0.000    0.000    0.000 
#    0.000    0.000    0.000    0.000    0.000    0.000 
#
# Total GULP energy -267602.381239 kJ/mol
# GULP energy per Si atom -5575.049609 kJ/mol
# Density = 2.266691 g / cm^3
# Si number density = 22.718618 Si / 1000 Ang^3
#
#
#
# Elastic Constant Matrix: (Units=GPa)
#
#
# Indices 1 2 3 4 5 6 
#
# 1 140.2605 44.5185 30.9308 0.0000 0.0000 0.0000
# 2 44.5185 132.4238 22.4529 0.0000 0.0000 0.0000
# 3 30.9308 22.4529 110.5281 0.0000 0.0000 0.0000
# 4 0.0000 0.0000 0.0000 10.8018 0.0000 0.0000
# 5 0.0000 0.0000 0.0000 0.0000 9.7204 0.0000
# 6 0.0000 0.0000 0.0000 0.0000 0.0000 14.6255
#
#
#
# Elastic Compliance Matrix: (Units=1/GPa)
#
#
# Indices 1 2 3 4 5 6 
#
# 1 0.008321 -0.002488 -0.001823 0.000000 0.000000 0.000000
# 2 -0.002488 0.008565 -0.001044 0.000000 0.000000 0.000000
# 3 -0.001823 -0.001044 0.009770 0.000000 0.000000 0.000000
# 4 0.000000 0.000000 0.000000 0.092577 0.000000 0.000000
# 5 0.000000 0.000000 0.000000 0.000000 0.102877 0.000000
# 6 0.000000 0.000000 0.000000 0.000000 0.000000 0.068374
#
#
# Mechanical properties :
#
#
# Convention : Reuss Voigt Hill
#
# Bulk Modulus (GPa) = 62.71236 64.33520 63.52378
# Shear Modulus (GPa) = 16.31269 26.05020 21.18145
#
# Velocity S-wave (km/s) = 2.68252 3.38989 3.05673
# Velocity P-wave (km/s) = 6.10397 6.61071 6.36239
#
# Compressibility (1/GPa) = 0.01594582
#
# Stress axis : x y z
#
# Youngs Moduli (GPa) = 120.17111 116.75415 102.35747
#
# Poissons Ratio (x) = 0.29053 0.18662
# Poissons Ratio (y) = 0.29903 0.10682
# Poissons Ratio (z) = 0.21910 0.12184
#
# Static dielectric constant tensor:
#      x y z
#    x 1.995270 0.000000 0.000000 
#    y 0.000000 1.839150 0.000000 
#    z 0.000000 0.000000 1.909580 
# 
# From -- ./inp_files/12620.got.cif
#   From: 2010.05.17/outbox.cif.g08.bks.cpg/sg54_7_cif.got.tgz:12620.got - 2010.06.03 13:09:01.
