data_PCOD9423451
_publ_section_title
;
Structure prediction by ZEFSAII (Michael W. Deem and Ramdas Pophale) SiO2 
 PCOD9423451
Probable space group: P C C A
;
_chemical_formula_sum "Si O2"
_cell_formula_units_Z 32
_cell_length_a 13.819574
_cell_length_b 9.818135
_cell_length_c 8.390072
_cell_angle_alpha 90.000000
_cell_angle_beta 90.000000
_cell_angle_gamma 90.000000
_cell_volume 1138.385467
_symmetry_space_group_name_H-M "P C C A"
_symmetry_group_IT_number 54
_symmetry_cell_setting 'orthorhombic'
loop_
_space_group_symop_operation_xyz
x,y,z
1/2-x,-y,z
1/2+x,-y,1/2-z
-x,y,1/2-z
-x,-y,-z
1/2+x,y,-z
1/2-x,y,1/2+z
x,-y,1/2+z
loop_
_atom_site_type_symbol
_atom_site_label
_atom_site_fract_x
_atom_site_fract_y
_atom_site_fract_z
Si Si1 0.637209 0.480641 0.472091
Si Si2 0.319628 0.130106 0.463813
Si Si3 0.852614 0.255527 0.195098
Si Si4 0.496880 0.263954 0.452240
O O1 0.750000 0.500000 0.431746
O O2 0.629161 0.416000 0.653856
O O3 0.580829 0.359353 0.375952
O O4 0.574775 0.618674 0.475546
O O5 0.250139 0.242721 0.390337
O O6 0.424164 0.151729 0.382035
O O7 0.250000 0.000000 0.451612
O O8 0.338947 0.167541 0.647252
O O9 0.939886 0.193408 0.090721
#
# Coordination Sequence:
#
# PCOD9423451 Si02
#       4
#     8   8   8   8
#     4   9  17  39  69 100 128 165 221 291 352 406
#     4  12  24  43  65  93 137 186 230 278 340 419
#     4  10  23  42  66  97 131 175 230 284 348 411
#     4   9  19  40  68  96 130 171 224 281 349 407
#
# _framework density 28.109988000000001
#
# number of rings (size 3 to 8) (size 9 to 14) (size 15 to 20)
#    1.500    0.500    2.500    1.500    0.000    1.000 
#    4.500    6.250    0.000    0.000    0.000    0.000 
#    0.000    0.000    0.000    0.000    0.000    0.000 
#
# Total GULP energy -178249.984243 kJ/mol
# GULP energy per Si atom -5570.312008 kJ/mol
# Density = 2.804601 g / cm^3
# Si number density = 28.109988 Si / 1000 Ang^3
#
#
#
# Elastic Constant Matrix: (Units=GPa)
#
#
# Indices 1 2 3 4 5 6 
#
# 1 263.1945 50.6260 37.3982 0.0000 0.0000 0.0000
# 2 50.6260 113.4390 17.1502 0.0000 0.0000 0.0000
# 3 37.3982 17.1502 51.3503 0.0000 0.0000 0.0000
# 4 0.0000 0.0000 0.0000 26.9115 0.0000 0.0000
# 5 0.0000 0.0000 0.0000 0.0000 43.3605 0.0000
# 6 0.0000 0.0000 0.0000 0.0000 0.0000 56.7806
#
#
#
# Elastic Compliance Matrix: (Units=1/GPa)
#
#
# Indices 1 2 3 4 5 6 
#
# 1 0.004495 -0.001592 -0.002742 0.000000 0.000000 0.000000
# 2 -0.001592 0.009848 -0.002130 0.000000 0.000000 0.000000
# 3 -0.002742 -0.002130 0.022183 0.000000 0.000000 0.000000
# 4 0.000000 0.000000 0.000000 0.037159 0.000000 0.000000
# 5 0.000000 0.000000 0.000000 0.000000 0.023062 0.000000
# 6 0.000000 0.000000 0.000000 0.000000 0.000000 0.017612
#
#
# Mechanical properties :
#
#
# Convention : Reuss Voigt Hill
#
# Bulk Modulus (GPa) = 42.37629 70.92583 56.65106
# Shear Modulus (GPa) = 36.99540 46.93115 41.96327
#
# Velocity S-wave (km/s) = 3.63174 4.09045 3.86790
# Velocity P-wave (km/s) = 5.71786 6.89894 6.33598
#
# Compressibility (1/GPa) = 0.02359810
#
# Stress axis : x y z
#
# Youngs Moduli (GPa) = 222.45553 101.54758 45.08030
#
# Poissons Ratio (x) = 0.16162 0.12363
# Poissons Ratio (y) = 0.35405 0.09601
# Poissons Ratio (z) = 0.61005 0.21628
#
# Static dielectric constant tensor:
#      x y z
#    x 2.180950 0.000000 0.000000 
#    y 0.000000 2.286390 0.000000 
#    z 0.000000 0.000000 2.491900 
# 
# From -- ./inp_files/3268.got.cif
#   From: 2010.05.17/outbox.cif.g08.bks.cpg/sg54_2_cif.got.tgz:3268.got - 2010.06.03 13:09:01.
