data_PCOD9423230
_publ_section_title
;
Structure prediction by ZEFSAII (Michael W. Deem and Ramdas Pophale) SiO2 
 PCOD9423230
Probable space group: P C C A
;
_chemical_formula_sum "Si O2"
_cell_formula_units_Z 40
_cell_length_a 12.098426
_cell_length_b 10.550723
_cell_length_c 14.672807
_cell_angle_alpha 90.000000
_cell_angle_beta 90.000000
_cell_angle_gamma 90.000000
_cell_volume 1872.941871
_symmetry_space_group_name_H-M "P C C A"
_symmetry_group_IT_number 54
_symmetry_cell_setting 'orthorhombic'
loop_
_space_group_symop_operation_xyz
x,y,z
1/2-x,-y,z
1/2+x,-y,1/2-z
-x,y,1/2-z
-x,-y,-z
1/2+x,y,-z
1/2-x,y,1/2+z
x,-y,1/2+z
loop_
_atom_site_type_symbol
_atom_site_label
_atom_site_fract_x
_atom_site_fract_y
_atom_site_fract_z
Si Si1 0.010954 0.362869 0.045460
Si Si2 0.002163 0.942639 0.353979
Si Si3 0.750000 0.500000 0.698899
Si Si4 0.174047 0.256119 0.912542
Si Si5 0.368195 0.873583 0.490081
Si Si6 0.000000 0.564463 0.750000
O O1 0.917640 0.268373 0.009743
O O2 0.004825 0.365372 0.153707
O O3 0.124753 0.311534 0.005510
O O4 0.000000 0.500000 0.000000
O O5 0.073963 0.811861 0.358145
O O6 0.000000 0.984559 0.250000
O O7 0.886381 0.921008 0.406916
O O8 0.059770 0.044970 0.419476
O O9 0.735346 0.630443 0.640687
O O10 0.626465 0.496560 0.746201
O O11 0.250222 0.142225 0.945852
#
# Coordination Sequence:
#
# PCOD9423230 Si02
#       6
#     8   8   4   8   8   4
#     4  11  23  42  68  97 140 183 231 292 363 431
#     4  10  24  41  69  99 135 183 241 297 359 435
#     4  12  26  42  72 106 146 186 250 292 380 438
#     4  11  22  43  68  95 143 187 233 303 364 436
#     4  10  22  44  65  97 140 180 233 297 364 427
#     4  12  26  44  68 110 142 190 240 300 362 448
#
# _framework density 21.356774999999999
#
# number of rings (size 3 to 8) (size 9 to 14) (size 15 to 20)
#    0.000    1.200    4.000    0.600    2.800    4.000 
#    0.000    6.000    0.000    0.000    0.000    0.000 
#    0.000    0.000    0.000    0.000    0.000    0.000 
#
# Total GULP energy -222738.362343 kJ/mol
# GULP energy per Si atom -5568.459059 kJ/mol
# Density = 2.130817 g / cm^3
# Si number density = 21.356775 Si / 1000 Ang^3
#
#
#
# Elastic Constant Matrix: (Units=GPa)
#
#
# Indices 1 2 3 4 5 6 
#
# 1 96.5143 -1.0476 2.7731 0.0000 0.0000 0.0000
# 2 -1.0476 72.0267 -9.6424 0.0000 0.0000 0.0000
# 3 2.7731 -9.6424 93.4203 0.0000 0.0000 0.0000
# 4 0.0000 0.0000 0.0000 23.0245 0.0000 0.0000
# 5 0.0000 0.0000 0.0000 0.0000 28.5692 0.0000
# 6 0.0000 0.0000 0.0000 0.0000 0.0000 28.8353
#
#
#
# Elastic Compliance Matrix: (Units=1/GPa)
#
#
# Indices 1 2 3 4 5 6 
#
# 1 0.010371 0.000111 -0.000296 0.000000 0.000000 0.000000
# 2 0.000111 0.014079 0.001450 0.000000 0.000000 0.000000
# 3 -0.000296 0.001450 0.010863 0.000000 0.000000 0.000000
# 4 0.000000 0.000000 0.000000 0.043432 0.000000 0.000000
# 5 0.000000 0.000000 0.000000 0.000000 0.035003 0.000000
# 6 0.000000 0.000000 0.000000 0.000000 0.000000 0.034680
#
#
# Mechanical properties :
#
#
# Convention : Reuss Voigt Hill
#
# Bulk Modulus (GPa) = 26.42530 27.34749 26.88640
# Shear Modulus (GPa) = 31.54330 34.07768 32.81049
#
# Velocity S-wave (km/s) = 3.84731 3.99888 3.92382
# Velocity P-wave (km/s) = 5.66884 5.84416 5.75717
#
# Compressibility (1/GPa) = 0.03784252
#
# Stress axis : x y z
#
# Youngs Moduli (GPa) = 96.42378 71.02542 92.05758
#
# Poissons Ratio (x) = -0.00790 0.02728
# Poissons Ratio (y) = -0.01072 -0.13348
# Poissons Ratio (z) = 0.02858 -0.10298
#
# Static dielectric constant tensor:
#      x y z
#    x 1.811030 0.000000 0.000000 
#    y 0.000000 1.855500 0.000000 
#    z 0.000000 0.000000 1.710230 
# 
# From -- ./inp_files/12543.got.cif
#   From: 2010.05.17/outbox.cif.g08.bks.cpg/sg54_7_cif.got.tgz:12543.got - 2010.06.03 13:09:01.
