data_PCOD9423404
_publ_section_title
;
Structure prediction by ZEFSAII (Michael W. Deem and Ramdas Pophale) SiO2 
 PCOD9423404
Probable space group: P C C A
;
_chemical_formula_sum "Si O2"
_cell_formula_units_Z 40
_cell_length_a 15.217072
_cell_length_b 9.911625
_cell_length_c 13.968957
_cell_angle_alpha 90.000000
_cell_angle_beta 90.000000
_cell_angle_gamma 90.000000
_cell_volume 2106.880669
_symmetry_space_group_name_H-M "P C C A"
_symmetry_group_IT_number 54
_symmetry_cell_setting 'orthorhombic'
loop_
_space_group_symop_operation_xyz
x,y,z
1/2-x,-y,z
1/2+x,-y,1/2-z
-x,y,1/2-z
-x,-y,-z
1/2+x,y,-z
1/2-x,y,1/2+z
x,-y,1/2+z
loop_
_atom_site_type_symbol
_atom_site_label
_atom_site_fract_x
_atom_site_fract_y
_atom_site_fract_z
Si Si1 0.025856 0.848409 0.534721
Si Si2 0.366769 0.726868 0.565157
Si Si3 0.750000 0.500000 0.003366
Si Si4 0.790948 0.784503 0.056768
Si Si5 0.670614 0.910292 0.759826
Si Si6 0.500000 0.095733 0.750000
O O1 0.964130 0.747158 0.474654
O O2 0.008495 0.829982 0.647917
O O3 0.127290 0.826585 0.508752
O O4 0.000000 0.000000 0.500000
O O5 0.324683 0.577851 0.557574
O O6 0.301953 0.812401 0.494622
O O7 0.355845 0.791429 0.668595
O O8 0.791434 0.621326 0.063952
O O9 0.798172 0.852351 0.158806
O O10 0.750000 0.000000 0.800824
O O11 0.586109 0.003014 0.744248
#
# Coordination Sequence:
#
# PCOD9423404 Si02
#       6
#     8   8   4   8   8   4
#     4  12  22  39  64  89 133 152 204 268 318 364
#     4  10  23  41  59  91 125 167 206 256 297 378
#     4   8  24  44  58  88 124 176 216 234 308 356
#     4  10  23  41  59  91 125 167 206 256 297 378
#     4  12  22  35  66  91 126 160 203 260 328 358
#     4  12  24  36  56 106 114 162 198 240 342 376
#
# _framework density 18.985413999999999
#
# number of rings (size 3 to 8) (size 9 to 14) (size 15 to 20)
#    1.200    0.000    4.000    2.400    0.000    1.600 
#    0.000    0.000    0.000    0.000    0.000    0.000 
#    0.000    0.000    0.000    0.000    0.000    0.000 
#
# Total GULP energy -223096.393845 kJ/mol
# GULP energy per Si atom -5577.409846 kJ/mol
# Density = 1.894220 g / cm^3
# Si number density = 18.985414 Si / 1000 Ang^3
#
#
#
# Elastic Constant Matrix: (Units=GPa)
#
#
# Indices 1 2 3 4 5 6 
#
# 1 51.1937 -2.4722 -15.5096 0.0000 0.0000 0.0000
# 2 -2.4722 59.7858 -5.6387 0.0000 0.0000 0.0000
# 3 -15.5096 -5.6387 84.1894 0.0000 0.0000 0.0000
# 4 0.0000 0.0000 0.0000 -9.0082 0.0000 0.0000
# 5 0.0000 0.0000 0.0000 0.0000 26.3582 0.0000
# 6 0.0000 0.0000 0.0000 0.0000 0.0000 39.6324
#
#
#
# Elastic Compliance Matrix: (Units=1/GPa)
#
#
# Indices 1 2 3 4 5 6 
#
# 1 0.020777 0.001228 0.003910 0.000000 0.000000 0.000000
# 2 0.001228 0.016905 0.001358 0.000000 0.000000 0.000000
# 3 0.003910 0.001358 0.012689 0.000000 0.000000 0.000000
# 4 0.000000 0.000000 0.000000 -0.111010 0.000000 0.000000
# 5 0.000000 0.000000 0.000000 0.000000 0.037939 0.000000
# 6 0.000000 0.000000 0.000000 0.000000 0.000000 0.025232
#
#
# Mechanical properties :
#
#
# Convention : Reuss Voigt Hill
#
# Bulk Modulus (GPa) = 15.78166 16.43644 16.10905
# Shear Modulus (GPa) = 468.95710 25.98243 247.46977
#
# Velocity S-wave (km/s) = 15.73358 3.70340 11.42936
# Velocity P-wave (km/s) = 18.39541 5.19260 13.51581
#
# Compressibility (1/GPa) = 0.06336468
#
# Stress axis : x y z
#
# Youngs Moduli (GPa) = 48.12903 59.15312 78.80680
#
# Poissons Ratio (x) = -0.07264 -0.30813
# Poissons Ratio (y) = -0.05910 -0.10706
# Poissons Ratio (z) = -0.18818 -0.08036
#
# Static dielectric constant tensor:
#      x y z
#    x 1.647420 0.000000 0.000000 
#    y 0.000000 1.661880 0.000000 
#    z 0.000000 0.000000 1.664010 
# 
# From -- ./inp_files/13317.got.cif
#   From: 2010.05.17/outbox.cif.g08.bks.cpg/sg54_7_cif.got.tgz:13317.got - 2010.06.03 13:09:01.
