data_PCOD9423422
_publ_section_title
;
Structure prediction by ZEFSAII (Michael W. Deem and Ramdas Pophale) SiO2 
 PCOD9423422
Probable space group: P C C A
;
_chemical_formula_sum "Si O2"
_cell_formula_units_Z 56
_cell_length_a 14.440424
_cell_length_b 14.494255
_cell_length_c 11.859064
_cell_angle_alpha 90.000000
_cell_angle_beta 90.000000
_cell_angle_gamma 90.000000
_cell_volume 2482.139899
_symmetry_space_group_name_H-M "P C C A"
_symmetry_group_IT_number 54
_symmetry_cell_setting 'orthorhombic'
loop_
_space_group_symop_operation_xyz
x,y,z
1/2-x,-y,z
1/2+x,-y,1/2-z
-x,y,1/2-z
-x,-y,-z
1/2+x,y,-z
1/2-x,y,1/2+z
x,-y,1/2+z
loop_
_atom_site_type_symbol
_atom_site_label
_atom_site_fract_x
_atom_site_fract_y
_atom_site_fract_z
Si Si1 0.140976 0.242576 0.866964
Si Si2 0.850705 0.381762 0.834956
Si Si3 0.847658 0.301615 0.076684
Si Si4 0.864010 0.585667 0.788282
Si Si5 0.896900 0.959178 0.875443
Si Si6 0.459879 0.754246 0.092052
Si Si7 0.109236 0.972190 0.366279
O O1 0.126489 0.310047 0.762755
O O2 0.246376 0.258808 0.909527
O O3 0.125531 0.135626 0.842258
O O4 0.069432 0.266666 0.964821
O O5 0.894159 0.482290 0.815142
O O6 0.739615 0.398490 0.834215
O O7 0.869854 0.335629 0.953002
O O8 0.854600 0.391104 0.156698
O O9 0.930636 0.232403 0.108514
O O10 0.926974 0.665269 0.839954
O O11 0.907858 0.848549 0.878859
O O12 0.855226 0.980831 0.750788
O O13 0.858204 0.988150 0.001407
O O14 0.999820 0.003798 0.872462
#
# Coordination Sequence:
#
# PCOD9423422 Si02
#       7
#     8   8   8   8   8   8   8
#     4  10  23  45  66  99 140 178 234 292 349 419
#     4  10  23  42  69  97 140 181 229 289 346 410
#     4  11  24  41  67  99 137 183 235 283 347 416
#     4  10  23  41  67  99 133 186 227 280 347 416
#     4   9  20  37  67  99 128 182 225 283 355 412
#     4  11  23  43  72  97 139 184 231 287 347 423
#     4   9  19  38  66  96 131 178 227 282 356 414
#
# _framework density 22.561178000000002
#
# number of rings (size 3 to 8) (size 9 to 14) (size 15 to 20)
#    0.000    2.000    1.429    0.429    6.000    8.000 
#    2.571    0.714    0.000    3.429    0.000    0.000 
#    0.000    0.000    0.000    0.000    0.000    0.000 
#
# Total GULP energy -312684.283124 kJ/mol
# GULP energy per Si atom -5583.647913 kJ/mol
# Density = 2.250983 g / cm^3
# Si number density = 22.561178 Si / 1000 Ang^3
#
#
#
# Elastic Constant Matrix: (Units=GPa)
#
#
# Indices 1 2 3 4 5 6 
#
# 1 73.8793 23.0352 15.9269 0.0000 0.0000 0.0000
# 2 23.0352 113.5487 55.1890 0.0000 0.0000 0.0000
# 3 15.9269 55.1890 144.5054 0.0000 0.0000 0.0000
# 4 0.0000 0.0000 0.0000 20.3766 0.0000 0.0000
# 5 0.0000 0.0000 0.0000 0.0000 4.8365 0.0000
# 6 0.0000 0.0000 0.0000 0.0000 0.0000 36.1751
#
#
#
# Elastic Compliance Matrix: (Units=1/GPa)
#
#
# Indices 1 2 3 4 5 6 
#
# 1 0.014489 -0.002656 -0.000582 0.000000 0.000000 0.000000
# 2 -0.002656 0.011301 -0.004023 0.000000 0.000000 0.000000
# 3 -0.000582 -0.004023 0.008521 0.000000 0.000000 0.000000
# 4 0.000000 0.000000 0.000000 0.049076 0.000000 0.000000
# 5 0.000000 0.000000 0.000000 0.000000 0.206761 0.000000
# 6 0.000000 0.000000 0.000000 0.000000 0.000000 0.027643
#
#
# Mechanical properties :
#
#
# Convention : Reuss Voigt Hill
#
# Bulk Modulus (GPa) = 50.53758 57.80394 54.17076
# Shear Modulus (GPa) = 14.75309 28.12978 21.44144
#
# Velocity S-wave (km/s) = 2.55995 3.53487 3.08615
# Velocity P-wave (km/s) = 5.58450 6.50669 6.06315
#
# Compressibility (1/GPa) = 0.01978726
#
# Stress axis : x y z
#
# Youngs Moduli (GPa) = 69.01601 88.48646 117.35803
#
# Poissons Ratio (x) = 0.23505 0.06836
# Poissons Ratio (y) = 0.18333 0.47217
# Poissons Ratio (z) = 0.04020 0.35601
#
# Static dielectric constant tensor:
#      x y z
#    x 1.840540 0.000000 0.000000 
#    y 0.000000 1.808890 0.000000 
#    z 0.000000 0.000000 1.911590 
# 
# From -- ./inp_files/8440.got.cif
#   From: 2010.05.17/outbox.cif.g08.bks.cpg/sg54_5_cif.got.tgz:8440.got - 2010.06.03 13:09:01.
