data_PCOD9423837
_publ_section_title
;
Structure prediction by ZEFSAII (Michael W. Deem and Ramdas Pophale) SiO2 
 PCOD9423837
Probable space group: P C C A
;
_chemical_formula_sum "Si O2"
_cell_formula_units_Z 32
_cell_length_a 11.969425
_cell_length_b 5.563552
_cell_length_c 20.410726
_cell_angle_alpha 90.000000
_cell_angle_beta 90.000000
_cell_angle_gamma 90.000000
_cell_volume 1359.201647
_symmetry_space_group_name_H-M "P C C A"
_symmetry_group_IT_number 54
_symmetry_cell_setting 'orthorhombic'
loop_
_space_group_symop_operation_xyz
x,y,z
1/2-x,-y,z
1/2+x,-y,1/2-z
-x,y,1/2-z
-x,-y,-z
1/2+x,y,-z
1/2-x,y,1/2+z
x,-y,1/2+z
loop_
_atom_site_type_symbol
_atom_site_label
_atom_site_fract_x
_atom_site_fract_y
_atom_site_fract_z
Si Si1 0.794728 0.249486 0.948419
Si Si2 0.750000 0.000000 0.211642
Si Si3 0.967385 0.742079 0.105568
Si Si4 0.500000 0.128585 0.250000
Si Si5 0.662491 0.247612 0.593603
O O1 0.750000 0.500000 0.919917
O O2 0.926421 0.253891 0.941294
O O3 0.750000 0.000000 0.918893
O O4 0.769148 0.244700 0.025913
O O5 0.872709 0.991116 0.246539
O O6 0.735807 0.779050 0.159893
O O7 0.003963 0.732576 0.181671
O O8 0.905843 0.491682 0.093179
O O9 0.912672 0.006473 0.095939
#
# Coordination Sequence:
#
# PCOD9423837 Si02
#       5
#     8   4   8   4   8
#     4  12  24  41  71 106 144 188 242 312 369 440
#     4  10  24  48  76 108 150 198 258 302 374 442
#     4  11  25  45  68 106 142 198 240 305 364 444
#     4  10  26  46  76 108 150 202 248 306 362 454
#     4  11  23  45  72 100 143 192 248 299 376 441
#
# _framework density 23.543233000000001
#
# number of rings (size 3 to 8) (size 9 to 14) (size 15 to 20)
#    0.000    1.000    1.250    4.500    5.250    4.000 
#    4.500    0.000    0.000    0.000    0.000    0.000 
#    0.000    0.000    0.000    0.000    0.000    0.000 
#
# Total GULP energy -178398.476842 kJ/mol
# GULP energy per Si atom -5574.952401 kJ/mol
# Density = 2.348965 g / cm^3
# Si number density = 23.543233 Si / 1000 Ang^3
#
#
#
# Elastic Constant Matrix: (Units=GPa)
#
#
# Indices 1 2 3 4 5 6 
#
# 1 148.3997 87.4007 9.5031 0.0000 0.0000 0.0000
# 2 87.4007 234.1852 9.5865 0.0000 0.0000 0.0000
# 3 9.5031 9.5865 51.4186 0.0000 0.0000 0.0000
# 4 0.0000 0.0000 0.0000 150.4834 0.0000 0.0000
# 5 0.0000 0.0000 0.0000 0.0000 50.4947 0.0000
# 6 0.0000 0.0000 0.0000 0.0000 0.0000 51.8633
#
#
#
# Elastic Compliance Matrix: (Units=1/GPa)
#
#
# Indices 1 2 3 4 5 6 
#
# 1 0.008689 -0.003201 -0.001009 0.000000 0.000000 0.000000
# 2 -0.003201 0.005483 -0.000430 0.000000 0.000000 0.000000
# 3 -0.001009 -0.000430 0.019715 0.000000 0.000000 0.000000
# 4 0.000000 0.000000 0.000000 0.006645 0.000000 0.000000
# 5 0.000000 0.000000 0.000000 0.000000 0.019804 0.000000
# 6 0.000000 0.000000 0.000000 0.000000 0.000000 0.019281
#
#
# Mechanical properties :
#
#
# Convention : Reuss Voigt Hill
#
# Bulk Modulus (GPa) = 40.64305 71.88712 56.26509
# Shear Modulus (GPa) = 51.49326 72.40250 61.94788
#
# Velocity S-wave (km/s) = 4.68180 5.55155 5.13513
# Velocity P-wave (km/s) = 6.82102 8.46719 7.68829
#
# Compressibility (1/GPa) = 0.02460445
#
# Stress axis : x y z
#
# Youngs Moduli (GPa) = 115.09263 182.39686 50.72294
#
# Poissons Ratio (x) = 0.58393 0.05118
# Poissons Ratio (y) = 0.36846 0.02184
# Poissons Ratio (z) = 0.11612 0.07852
#
# Static dielectric constant tensor:
#      x y z
#    x 2.090280 0.000000 0.000000 
#    y 0.000000 1.900650 0.000000 
#    z 0.000000 0.000000 1.882560 
# 
# From -- ./inp_files/23788.got.cif
#   From: 2010.05.17/outbox.cif.g08.bks.cpg/sg54_12_cif.got.tgz:23788.got - 2010.06.03 13:09:01.
