data_PCOD9423857
_publ_section_title
;
Structure prediction by ZEFSAII (Michael W. Deem and Ramdas Pophale) SiO2 
 PCOD9423857
Probable space group: P C C A
;
_chemical_formula_sum "Si O2"
_cell_formula_units_Z 24
_cell_length_a 7.936157
_cell_length_b 11.611568
_cell_length_c 9.055603
_cell_angle_alpha 90.000000
_cell_angle_beta 90.000000
_cell_angle_gamma 90.000000
_cell_volume 834.484925
_symmetry_space_group_name_H-M "P C C A"
_symmetry_group_IT_number 54
_symmetry_cell_setting 'orthorhombic'
loop_
_space_group_symop_operation_xyz
x,y,z
1/2-x,-y,z
1/2+x,-y,1/2-z
-x,y,1/2-z
-x,-y,-z
1/2+x,y,-z
1/2-x,y,1/2+z
x,-y,1/2+z
loop_
_atom_site_type_symbol
_atom_site_label
_atom_site_fract_x
_atom_site_fract_y
_atom_site_fract_z
Si Si1 0.111819 0.849062 0.002057
Si Si2 0.323600 0.614733 0.330012
Si Si3 0.000000 0.267677 0.750000
Si Si4 0.250000 0.000000 0.757739
O O1 0.956429 0.813703 0.109481
O O2 0.224159 0.897254 0.138248
O O3 0.139491 0.726231 0.927246
O O4 0.115095 0.945222 0.874733
O O5 0.250000 0.500000 0.406949
O O6 0.500000 0.589541 0.250000
O O7 0.334709 0.345432 0.228578
#
# Coordination Sequence:
#
# PCOD9423857 Si02
#       4
#     8   8   4   4
#     4  11  26  52  86 132 174 230 299 359 440 524
#     4  12  29  56  91 130 176 229 294 366 441 532
#     4  12  28  52  84 134 170 228 292 360 448 518
#     4  10  24  54  88 126 180 236 294 364 432 532
#
# _framework density 28.760256999999999
#
# number of rings (size 3 to 8) (size 9 to 14) (size 15 to 20)
#    0.000    0.667    5.000    0.000    4.667    4.000 
#    3.000    0.000    0.000    0.000    0.000    0.000 
#    0.000    0.000    0.000    0.000    0.000    0.000 
#
# Total GULP energy -133958.795543 kJ/mol
# GULP energy per Si atom -5581.616481 kJ/mol
# Density = 2.869480 g / cm^3
# Si number density = 28.760257 Si / 1000 Ang^3
#
#
#
# Elastic Constant Matrix: (Units=GPa)
#
#
# Indices 1 2 3 4 5 6 
#
# 1 139.2766 54.1894 58.6516 0.0000 0.0000 0.0000
# 2 54.1894 248.6760 71.0678 0.0000 0.0000 0.0000
# 3 58.6516 71.0678 185.1411 0.0000 0.0000 0.0000
# 4 0.0000 0.0000 0.0000 49.2720 0.0000 0.0000
# 5 0.0000 0.0000 0.0000 0.0000 40.3777 0.0000
# 6 0.0000 0.0000 0.0000 0.0000 0.0000 49.4789
#
#
#
# Elastic Compliance Matrix: (Units=1/GPa)
#
#
# Indices 1 2 3 4 5 6 
#
# 1 0.008609 -0.001232 -0.002254 0.000000 0.000000 0.000000
# 2 -0.001232 0.004693 -0.001411 0.000000 0.000000 0.000000
# 3 -0.002254 -0.001411 0.006657 0.000000 0.000000 0.000000
# 4 0.000000 0.000000 0.000000 0.020295 0.000000 0.000000
# 5 0.000000 0.000000 0.000000 0.000000 0.024766 0.000000
# 6 0.000000 0.000000 0.000000 0.000000 0.000000 0.020211
#
#
# Mechanical properties :
#
#
# Convention : Reuss Voigt Hill
#
# Bulk Modulus (GPa) = 98.38481 104.54571 101.46526
# Shear Modulus (GPa) = 50.80604 53.77139 52.28871
#
# Velocity S-wave (km/s) = 4.20758 4.32863 4.26853
# Velocity P-wave (km/s) = 7.60840 7.83660 7.72335
#
# Compressibility (1/GPa) = 0.01016417
#
# Stress axis : x y z
#
# Youngs Moduli (GPa) = 116.16425 213.08313 150.21383
#
# Poissons Ratio (x) = 0.26244 0.33863
# Poissons Ratio (y) = 0.14307 0.21199
# Poissons Ratio (z) = 0.26188 0.30072
#
# Static dielectric constant tensor:
#      x y z
#    x 2.567150 0.000000 0.000000 
#    y 0.000000 2.242960 0.000000 
#    z 0.000000 0.000000 2.213110 
# 
# From -- ./inp_files/2712.got.cif
#   From: 2010.05.17/outbox.cif.g08.bks.cpg/sg54_2_cif.got.tgz:2712.got - 2010.06.03 13:09:01.
