data_PCOD9423460
_publ_section_title
;
Structure prediction by ZEFSAII (Michael W. Deem and Ramdas Pophale) SiO2 
 PCOD9423460
Probable space group: P C C A
;
_chemical_formula_sum "Si O2"
_cell_formula_units_Z 28
_cell_length_a 5.219790
_cell_length_b 17.104615
_cell_length_c 13.811188
_cell_angle_alpha 90.000000
_cell_angle_beta 90.000000
_cell_angle_gamma 90.000000
_cell_volume 1233.097370
_symmetry_space_group_name_H-M "P C C A"
_symmetry_group_IT_number 54
_symmetry_cell_setting 'orthorhombic'
loop_
_space_group_symop_operation_xyz
x,y,z
1/2-x,-y,z
1/2+x,-y,1/2-z
-x,y,1/2-z
-x,-y,-z
1/2+x,y,-z
1/2-x,y,1/2+z
x,-y,1/2+z
loop_
_atom_site_type_symbol
_atom_site_label
_atom_site_fract_x
_atom_site_fract_y
_atom_site_fract_z
Si Si1 0.000000 0.866807 0.750000
Si Si2 0.526308 0.912314 0.040769
Si Si3 0.637019 0.343855 0.066225
Si Si4 0.500000 0.763365 0.750000
Si Si5 0.750000 0.500000 0.184140
O O1 0.948103 0.916343 0.654683
O O2 0.250683 0.815620 0.729031
O O3 0.768822 0.871369 0.993835
O O4 0.500000 0.000000 0.000000
O O5 0.580210 0.287218 0.156794
O O6 0.656096 0.429267 0.116214
O O7 0.905767 0.333935 0.010124
O O8 0.500000 0.522164 0.250000
#
# Coordination Sequence:
#
# PCOD9423460 Si02
#       5
#     4   8   8   4   4
#     4  12  26  44  70 100 140 186 230 284 370 416
#     4  10  23  42  69 101 134 172 226 285 347 419
#     4  12  26  46  72 103 141 190 242 296 356 419
#     4  12  28  46  68 102 144 190 234 294 348 444
#     4  12  24  44  76 104 146 184 244 304 362 414
#
# _framework density 22.707045999999998
#
# number of rings (size 3 to 8) (size 9 to 14) (size 15 to 20)
#    0.000    0.571    1.429    6.000    2.000   11.429 
#    0.000    0.000    0.000    0.000    0.000    0.000 
#    0.000    0.000    0.000    0.000    0.000    0.000 
#
# Total GULP energy -156708.850302 kJ/mol
# GULP energy per Si atom -5596.744654 kJ/mol
# Density = 2.265536 g / cm^3
# Si number density = 22.707046 Si / 1000 Ang^3
#
#
#
# Elastic Constant Matrix: (Units=GPa)
#
#
# Indices 1 2 3 4 5 6 
#
# 1 197.6061 20.1745 40.9375 0.0000 0.0000 0.0000
# 2 20.1745 82.6500 47.8510 0.0000 0.0000 0.0000
# 3 40.9375 47.8510 177.3796 0.0000 0.0000 0.0000
# 4 0.0000 0.0000 0.0000 42.4939 0.0000 0.0000
# 5 0.0000 0.0000 0.0000 0.0000 51.7043 0.0000
# 6 0.0000 0.0000 0.0000 0.0000 0.0000 15.8955
#
#
#
# Elastic Compliance Matrix: (Units=1/GPa)
#
#
# Indices 1 2 3 4 5 6 
#
# 1 0.005349 -0.000700 -0.001046 0.000000 0.000000 0.000000
# 2 -0.000700 0.014430 -0.003731 0.000000 0.000000 0.000000
# 3 -0.001046 -0.003731 0.006885 0.000000 0.000000 0.000000
# 4 0.000000 0.000000 0.000000 0.023533 0.000000 0.000000
# 5 0.000000 0.000000 0.000000 0.000000 0.019341 0.000000
# 6 0.000000 0.000000 0.000000 0.000000 0.000000 0.062911
#
#
# Mechanical properties :
#
#
# Convention : Reuss Voigt Hill
#
# Bulk Modulus (GPa) = 63.65163 75.06242 69.35703
# Shear Modulus (GPa) = 33.63838 45.26358 39.45098
#
# Velocity S-wave (km/s) = 3.85308 4.46956 4.17272
# Velocity P-wave (km/s) = 6.92008 7.73076 7.33662
#
# Compressibility (1/GPa) = 0.01571052
#
# Stress axis : x y z
#
# Youngs Moduli (GPa) = 186.96265 69.29826 145.23328
#
# Poissons Ratio (x) = 0.04853 0.15184
# Poissons Ratio (y) = 0.13093 0.54190
# Poissons Ratio (z) = 0.19547 0.25857
#
# Static dielectric constant tensor:
#      x y z
#    x 1.894960 0.000000 0.000000 
#    y 0.000000 1.788050 0.000000 
#    z 0.000000 0.000000 1.811410 
# 
# From -- ./inp_files/6248.got.cif
#   From: 2010.05.17/outbox.cif.g08.bks.cpg/sg54_4_cif.got.tgz:6248.got - 2010.06.03 13:09:01.
