data_PCOD9423511
_publ_section_title
;
Structure prediction by ZEFSAII (Michael W. Deem and Ramdas Pophale) SiO2 
 PCOD9423511
Probable space group: P C C A
;
_chemical_formula_sum "Si O2"
_cell_formula_units_Z 48
_cell_length_a 13.476381
_cell_length_b 7.520883
_cell_length_c 19.701000
_cell_angle_alpha 90.000000
_cell_angle_beta 90.000000
_cell_angle_gamma 90.000000
_cell_volume 1996.780764
_symmetry_space_group_name_H-M "P C C A"
_symmetry_group_IT_number 54
_symmetry_cell_setting 'orthorhombic'
loop_
_space_group_symop_operation_xyz
x,y,z
1/2-x,-y,z
1/2+x,-y,1/2-z
-x,y,1/2-z
-x,-y,-z
1/2+x,y,-z
1/2-x,y,1/2+z
x,-y,1/2+z
loop_
_atom_site_type_symbol
_atom_site_label
_atom_site_fract_x
_atom_site_fract_y
_atom_site_fract_z
Si Si1 0.875397 0.155716 0.061712
Si Si2 0.206383 0.300365 0.717021
Si Si3 0.759694 0.208615 0.936718
Si Si4 0.813002 0.213256 0.636820
Si Si5 0.058102 0.373345 0.051519
Si Si6 0.494187 0.574981 0.680342
O O1 0.789959 0.267219 0.100738
O O2 0.989538 0.204223 0.070280
O O3 0.853692 0.957242 0.092762
O O4 0.855907 0.221991 0.984111
O O5 0.250000 0.500000 0.730686
O O6 0.243705 0.248785 0.642747
O O7 0.223305 0.188552 0.785083
O O8 0.086792 0.284695 0.706897
O O9 0.667147 0.312762 0.969565
O O10 0.750000 0.000000 0.943525
O O11 0.904643 0.349680 0.648120
O O12 0.064302 0.476500 0.121859
O O13 0.000000 0.500000 0.000000
O O14 0.500000 0.459795 0.750000
#
# Coordination Sequence:
#
# PCOD9423511 Si02
#       6
#     8   8   8   8   8   8
#     4  11  26  47  70 102 146 185 247 296 374 442
#     4  11  24  46  73 101 147 187 241 299 364 443
#     4  12  27  46  68 105 146 190 240 301 378 444
#     4  10  24  47  69 102 140 194 235 300 363 438
#     4  12  27  44  74 106 142 190 248 304 372 444
#     4  10  23  44  68 103 137 182 242 297 363 432
#
# _framework density 24.038692999999999
#
# number of rings (size 3 to 8) (size 9 to 14) (size 15 to 20)
#    0.000    1.000    3.333    2.000    9.333    2.000 
#    0.000    0.000    0.000    0.000    0.000    0.000 
#    0.000    0.000    0.000    0.000    0.000    0.000 
#
# Total GULP energy -267258.657101 kJ/mol
# GULP energy per Si atom -5567.888690 kJ/mol
# Density = 2.398398 g / cm^3
# Si number density = 24.038693 Si / 1000 Ang^3
#
#
#
# Elastic Constant Matrix: (Units=GPa)
#
#
# Indices 1 2 3 4 5 6 
#
# 1 50.1984 3.4320 -22.8284 0.0000 0.0000 0.0000
# 2 3.4320 65.6455 10.2979 0.0000 0.0000 0.0000
# 3 -22.8284 10.2979 117.7961 0.0000 0.0000 0.0000
# 4 0.0000 0.0000 0.0000 -26.3801 0.0000 0.0000
# 5 0.0000 0.0000 0.0000 0.0000 39.2516 0.0000
# 6 0.0000 0.0000 0.0000 0.0000 0.0000 31.7465
#
#
#
# Elastic Compliance Matrix: (Units=1/GPa)
#
#
# Indices 1 2 3 4 5 6 
#
# 1 0.022066 -0.001850 0.004438 0.000000 0.000000 0.000000
# 2 -0.001850 0.015600 -0.001722 0.000000 0.000000 0.000000
# 3 0.004438 -0.001722 0.009500 0.000000 0.000000 0.000000
# 4 0.000000 0.000000 0.000000 -0.037907 0.000000 0.000000
# 5 0.000000 0.000000 0.000000 0.000000 0.025477 0.000000
# 6 0.000000 0.000000 0.000000 0.000000 0.000000 0.031500
#
#
# Mechanical properties :
#
#
# Convention : Reuss Voigt Hill
#
# Bulk Modulus (GPa) = 20.45096 23.93811 22.19454
# Shear Modulus (GPa) = 61.87957 25.10615 43.49286
#
# Velocity S-wave (km/s) = 5.07913 3.23523 4.25818
# Velocity P-wave (km/s) = 6.55154 4.89238 5.78179
#
# Compressibility (1/GPa) = 0.04889746
#
# Stress axis : x y z
#
# Youngs Moduli (GPa) = 45.31930 64.10161 105.26463
#
# Poissons Ratio (x) = 0.11858 -0.46716
# Poissons Ratio (y) = 0.08383 0.18130
# Poissons Ratio (z) = -0.20112 0.11040
#
# Static dielectric constant tensor:
#      x y z
#    x 2.205680 0.000000 0.000000 
#    y 0.000000 0.233930 0.000000 
#    z 0.000000 0.000000 2.404140 
# 
# From -- ./inp_files/18034.got.cif
#   From: 2010.05.17/outbox.cif.g08.bks.cpg/sg54_10_cif.got.tgz:18034.got - 2010.06.03 13:09:01.
