data_PCOD9423922
_publ_section_title
;
Structure prediction by ZEFSAII (Michael W. Deem and Ramdas Pophale) SiO2 
 PCOD9423922
Probable space group: P C C A
;
_chemical_formula_sum "Si O2"
_cell_formula_units_Z 56
_cell_length_a 13.480227
_cell_length_b 8.340528
_cell_length_c 20.271115
_cell_angle_alpha 90.000000
_cell_angle_beta 90.000000
_cell_angle_gamma 90.000000
_cell_volume 2279.126274
_symmetry_space_group_name_H-M "P C C A"
_symmetry_group_IT_number 54
_symmetry_cell_setting 'orthorhombic'
loop_
_space_group_symop_operation_xyz
x,y,z
1/2-x,-y,z
1/2+x,-y,1/2-z
-x,y,1/2-z
-x,-y,-z
1/2+x,y,-z
1/2-x,y,1/2+z
x,-y,1/2+z
loop_
_atom_site_type_symbol
_atom_site_label
_atom_site_fract_x
_atom_site_fract_y
_atom_site_fract_z
Si Si1 0.250000 0.000000 0.684488
Si Si2 0.776582 0.686062 0.393679
Si Si3 0.000000 0.684262 0.750000
Si Si4 0.285634 0.313907 0.956365
Si Si5 0.980712 0.238572 0.459535
Si Si6 0.473096 0.030483 0.661005
Si Si7 0.898339 0.758300 0.108931
Si Si8 0.456310 0.518883 0.637793
O O1 0.237409 0.825895 0.651171
O O2 0.128854 0.011109 0.700683
O O3 0.750000 0.500000 0.380045
O O4 0.756647 0.731134 0.468793
O O5 0.893504 0.674840 0.379315
O O6 0.975119 0.810933 0.692481
O O7 0.067684 0.563543 0.707341
O O8 0.250000 0.500000 0.951711
O O9 0.401181 0.270903 0.954718
O O10 0.218999 0.226106 0.902000
O O11 0.951978 0.085542 0.414982
O O12 0.942290 0.231981 0.534004
O O13 0.938468 0.394505 0.421430
O O14 0.552930 0.890736 0.654964
O O15 0.931382 0.583886 0.136432
#
# Coordination Sequence:
#
# PCOD9423922 Si02
#       8
#     4   8   4   8   8   8   8   8
#     4  12  22  44  70 106 136 184 254 294 350 430
#     4  11  22  38  67 105 144 190 233 298 358 449
#     4  10  26  48  70  94 134 200 246 310 350 432
#     4  11  21  35  63 104 150 183 231 285 373 456
#     4  11  21  39  65 100 145 184 227 294 372 445
#     4  11  25  44  70  99 147 183 241 301 368 430
#     4  12  22  38  67 106 139 186 229 296 377 444
#     4  11  21  42  68  94 139 189 240 290 366 424
#
# _framework density 24.570817999999999
#
# number of rings (size 3 to 8) (size 9 to 14) (size 15 to 20)
#    0.000    0.857    4.286    5.143    0.000    2.286 
#    0.000    2.857   12.571    0.000    0.000    0.000 
#    0.000    0.000    0.000    0.000    0.000    0.000 
#
# Total GULP energy -312055.845840 kJ/mol
# GULP energy per Si atom -5572.425819 kJ/mol
# Density = 2.451489 g / cm^3
# Si number density = 24.570818 Si / 1000 Ang^3
#
#
#
# Elastic Constant Matrix: (Units=GPa)
#
#
# Indices 1 2 3 4 5 6 
#
# 1 122.3262 -1.1203 16.8719 0.0000 0.0000 0.0000
# 2 -1.1203 61.8151 17.3254 0.0000 0.0000 0.0000
# 3 16.8719 17.3254 80.9147 0.0000 0.0000 0.0000
# 4 0.0000 0.0000 0.0000 23.3173 0.0000 0.0000
# 5 0.0000 0.0000 0.0000 0.0000 5.8445 0.0000
# 6 0.0000 0.0000 0.0000 0.0000 0.0000 33.8956
#
#
#
# Elastic Compliance Matrix: (Units=1/GPa)
#
#
# Indices 1 2 3 4 5 6 
#
# 1 0.008444 0.000688 -0.001908 0.000000 0.000000 0.000000
# 2 0.000688 0.017266 -0.003840 0.000000 0.000000 0.000000
# 3 -0.001908 -0.003840 0.013579 0.000000 0.000000 0.000000
# 4 0.000000 0.000000 0.000000 0.042887 0.000000 0.000000
# 5 0.000000 0.000000 0.000000 0.000000 0.171102 0.000000
# 6 0.000000 0.000000 0.000000 0.000000 0.000000 0.029502
#
#
# Mechanical properties :
#
#
# Convention : Reuss Voigt Hill
#
# Bulk Modulus (GPa) = 34.28414 36.80112 35.54263
# Shear Modulus (GPa) = 16.52215 28.07673 22.29944
#
# Velocity S-wave (km/s) = 2.59594 3.38403 3.01584
# Velocity P-wave (km/s) = 4.79257 5.50263 5.15983
#
# Compressibility (1/GPa) = 0.02916801
#
# Stress axis : x y z
#
# Youngs Moduli (GPa) = 118.42265 57.91684 73.64385
#
# Poissons Ratio (x) = -0.03984 0.14052
# Poissons Ratio (y) = -0.08145 0.28283
# Poissons Ratio (z) = 0.22596 0.22243
#
# Static dielectric constant tensor:
#      x y z
#    x 2.205680 0.000000 0.000000 
#    y 0.000000 2.023850 0.000000 
#    z 0.000000 0.000000 1.932520 
# 
# From -- ./inp_files/21683.got.cif
#   From: 2010.05.17/outbox.cif.g08.bks.cpg/sg54_11_cif.got.tgz:21683.got - 2010.06.03 13:09:01.
