data_PCOD9423939
_publ_section_title
;
Structure prediction by ZEFSAII (Michael W. Deem and Ramdas Pophale) SiO2 
 PCOD9423939
Probable space group: P C C A
;
_chemical_formula_sum "Si O2"
_cell_formula_units_Z 28
_cell_length_a 19.964397
_cell_length_b 5.547889
_cell_length_c 9.229805
_cell_angle_alpha 90.000000
_cell_angle_beta 90.000000
_cell_angle_gamma 90.000000
_cell_volume 1022.295588
_symmetry_space_group_name_H-M "P C C A"
_symmetry_group_IT_number 54
_symmetry_cell_setting 'orthorhombic'
loop_
_space_group_symop_operation_xyz
x,y,z
1/2-x,-y,z
1/2+x,-y,1/2-z
-x,y,1/2-z
-x,-y,-z
1/2+x,y,-z
1/2-x,y,1/2+z
x,-y,1/2+z
loop_
_atom_site_type_symbol
_atom_site_label
_atom_site_fract_x
_atom_site_fract_y
_atom_site_fract_z
Si Si1 0.102257 0.482134 0.441516
Si Si2 0.000000 0.187199 0.250000
Si Si3 0.890637 0.829215 0.280284
Si Si4 0.750000 0.500000 0.044143
Si Si5 0.250000 0.000000 0.128820
O O1 0.043077 0.338761 0.363935
O O2 0.091389 0.749919 0.382268
O O3 0.105819 0.394531 0.606708
O O4 0.178781 0.441673 0.381300
O O5 0.054685 0.020451 0.173428
O O6 0.816838 0.938240 0.284292
O O7 0.763281 0.750307 0.958091
#
# Coordination Sequence:
#
# PCOD9423939 Si02
#       5
#     8   4   8   4   4
#     4  11  28  49  81 116 164 212 278 335 413 484
#     4  12  28  46  80 120 170 216 270 336 416 496
#     4  11  28  50  83 117 167 216 275 339 414 489
#     4  10  26  50  84 120 158 214 276 342 404 486
#     4  10  26  50  86 118 164 210 278 338 410 480
#
# _framework density 27.389337999999999
#
# number of rings (size 3 to 8) (size 9 to 14) (size 15 to 20)
#    0.000    1.143    0.000    1.714   20.000    5.714 
#    0.000    0.000    0.000    0.000    0.000    0.000 
#    0.000    0.000    0.000    0.000    0.000    0.000 
#
# Total GULP energy -156810.712635 kJ/mol
# GULP energy per Si atom -5600.382594 kJ/mol
# Density = 2.732700 g / cm^3
# Si number density = 27.389338 Si / 1000 Ang^3
#
#
#
# Elastic Constant Matrix: (Units=GPa)
#
#
# Indices 1 2 3 4 5 6 
#
# 1 209.0882 62.5471 56.5654 0.0000 0.0000 0.0000
# 2 62.5471 156.9653 77.6567 0.0000 0.0000 0.0000
# 3 56.5654 77.6567 127.7440 0.0000 0.0000 0.0000
# 4 0.0000 0.0000 0.0000 19.9513 0.0000 0.0000
# 5 0.0000 0.0000 0.0000 0.0000 40.5737 0.0000
# 6 0.0000 0.0000 0.0000 0.0000 0.0000 60.9900
#
#
#
# Elastic Compliance Matrix: (Units=1/GPa)
#
#
# Indices 1 2 3 4 5 6 
#
# 1 0.005656 -0.001451 -0.001622 0.000000 0.000000 0.000000
# 2 -0.001451 0.009483 -0.005122 0.000000 0.000000 0.000000
# 3 -0.001622 -0.005122 0.011660 0.000000 0.000000 0.000000
# 4 0.000000 0.000000 0.000000 0.050122 0.000000 0.000000
# 5 0.000000 0.000000 0.000000 0.000000 0.024647 0.000000
# 6 0.000000 0.000000 0.000000 0.000000 0.000000 0.016396
#
#
# Mechanical properties :
#
#
# Convention : Reuss Voigt Hill
#
# Bulk Modulus (GPa) = 96.08052 98.59287 97.33669
# Shear Modulus (GPa) = 36.27794 44.10488 40.19141
#
# Velocity S-wave (km/s) = 3.64335 4.01720 3.83484
# Velocity P-wave (km/s) = 7.27010 7.58895 7.43124
#
# Compressibility (1/GPa) = 0.01040794
#
# Stress axis : x y z
#
# Youngs Moduli (GPa) = 176.81566 105.44815 85.75985
#
# Poissons Ratio (x) = 0.15301 0.13912
# Poissons Ratio (y) = 0.25657 0.43930
# Poissons Ratio (z) = 0.28683 0.54015
#
# Static dielectric constant tensor:
#      x y z
#    x 2.099090 0.000000 0.000000 
#    y 0.000000 2.163140 0.000000 
#    z 0.000000 0.000000 2.153750 
# 
# From -- ./inp_files/8629.got.cif
#   From: 2010.05.17/outbox.cif.g08.bks.cpg/sg54_5_cif.got.tgz:8629.got - 2010.06.03 13:09:01.
