data_PCOD9423473
_publ_section_title
;
Structure prediction by ZEFSAII (Michael W. Deem and Ramdas Pophale) SiO2 
 PCOD9423473
Probable space group: P C C A
;
_chemical_formula_sum "Si O2"
_cell_formula_units_Z 56
_cell_length_a 9.449588
_cell_length_b 14.510509
_cell_length_c 22.201558
_cell_angle_alpha 90.000000
_cell_angle_beta 90.000000
_cell_angle_gamma 90.000000
_cell_volume 3044.240595
_symmetry_space_group_name_H-M "P C C A"
_symmetry_group_IT_number 54
_symmetry_cell_setting 'orthorhombic'
loop_
_space_group_symop_operation_xyz
x,y,z
1/2-x,-y,z
1/2+x,-y,1/2-z
-x,y,1/2-z
-x,-y,-z
1/2+x,y,-z
1/2-x,y,1/2+z
x,-y,1/2+z
loop_
_atom_site_type_symbol
_atom_site_label
_atom_site_fract_x
_atom_site_fract_y
_atom_site_fract_z
Si Si1 0.025333 0.254173 0.571014
Si Si2 0.265453 0.109244 0.118007
Si Si3 0.668968 0.406288 0.744236
Si Si4 0.974667 0.245827 0.428986
Si Si5 0.250000 0.750000 0.350309
Si Si6 0.331032 0.093712 0.255764
Si Si7 0.765453 0.390756 0.381993
O O1 0.000000 0.250000 0.500000
O O2 0.882249 0.272738 0.607273
O O3 0.094075 0.156889 0.591498
O O4 0.137003 0.333312 0.589339
O O5 0.137004 0.166688 0.089339
O O6 0.272875 0.123491 0.190112
O O7 0.250000 0.000000 0.107109
O O8 0.750000 0.500000 0.728806
O O9 0.500000 0.419996 0.750000
O O10 0.703859 0.332221 0.693630
O O11 0.727125 0.376509 0.809888
O O12 0.905925 0.343111 0.408503
O O13 0.117750 0.227262 0.392727
O O14 0.203859 0.832221 0.306370
O O15 0.500000 0.080004 0.250000
O O16 0.250000 0.000000 0.271194
O O17 0.750000 0.500000 0.392891
#
# Coordination Sequence:
#
# PCOD9423473 Si02
#       7
#     8   8   8   8   8   8   8
#     4  11  24  43  64  93 126 169 217 258 306 378
#     4  10  23  43  65  89 131 165 204 266 322 366
#     4  11  25  41  66  98 127 163 209 261 322 383
#     4  11  24  43  64  93 126 169 217 258 306 378
#     4  12  24  38  68  94 126 166 212 256 322 372
#     4  11  25  41  66  98 127 163 209 261 322 383
#     4  10  23  43  65  89 131 165 204 266 322 366
#
# _framework density 18.395392999999999
#
# number of rings (size 3 to 8) (size 9 to 14) (size 15 to 20)
#    0.000    1.143    2.857    3.429    8.000    1.143 
#    0.000    2.857    0.000    0.000    0.000    0.000 
#    0.000    0.000    0.000    0.000    0.000    0.000 
#
# Total GULP energy -312927.871892 kJ/mol
# GULP energy per Si atom -5587.997712 kJ/mol
# Density = 1.835352 g / cm^3
# Si number density = 18.395393 Si / 1000 Ang^3
#
#
#
# Elastic Constant Matrix: (Units=GPa)
#
#
# Indices 1 2 3 4 5 6 
#
# 1 149.2006 56.9036 51.8635 0.0000 0.0000 0.0000
# 2 56.9036 103.3116 58.7541 0.0000 0.0000 0.0000
# 3 51.8635 58.7541 127.6103 0.0000 0.0000 0.0000
# 4 0.0000 0.0000 0.0000 -2.5066 0.0000 0.0000
# 5 0.0000 0.0000 0.0000 0.0000 42.0597 0.0000
# 6 0.0000 0.0000 0.0000 0.0000 0.0000 32.4897
#
#
#
# Elastic Compliance Matrix: (Units=1/GPa)
#
#
# Indices 1 2 3 4 5 6 
#
# 1 0.008786 -0.003805 -0.001819 0.000000 0.000000 0.000000
# 2 -0.003805 0.014761 -0.005250 0.000000 0.000000 0.000000
# 3 -0.001819 -0.005250 0.010993 0.000000 0.000000 0.000000
# 4 0.000000 0.000000 0.000000 -0.398953 0.000000 0.000000
# 5 0.000000 0.000000 0.000000 0.000000 0.023776 0.000000
# 6 0.000000 0.000000 0.000000 0.000000 0.000000 0.030779
#
#
# Mechanical properties :
#
#
# Convention : Reuss Voigt Hill
#
# Bulk Modulus (GPa) = 78.17225 79.46277 78.81751
# Shear Modulus (GPa) = -17.61507 28.58198 5.48346
#
# Velocity S-wave (km/s) = -3.09784 3.94605 1.72840
# Velocity P-wave (km/s) = 5.45824 8.00329 6.85000
#
# Compressibility (1/GPa) = 0.01279226
#
# Stress axis : x y z
#
# Youngs Moduli (GPa) = 113.82076 67.74769 90.96946
#
# Poissons Ratio (x) = 0.25776 0.16547
# Poissons Ratio (y) = 0.43305 0.47757
# Poissons Ratio (z) = 0.20703 0.35566
#
# Static dielectric constant tensor:
#      x y z
#    x 1.637750 0.000000 0.000000 
#    y 0.000000 1.651350 0.000000 
#    z 0.000000 0.000000 1.608100 
# 
# From -- ./inp_files/20529.got.cif
#   From: 2010.05.17/outbox.cif.g08.bks.cpg/sg54_11_cif.got.tgz:20529.got - 2010.06.03 13:09:01.
