data_PCOD9423830
_publ_section_title
;
Structure prediction by ZEFSAII (Michael W. Deem and Ramdas Pophale) SiO2 
 PCOD9423830
Probable space group: P C C A
;
_chemical_formula_sum "Si O2"
_cell_formula_units_Z 32
_cell_length_a 14.146032
_cell_length_b 10.952298
_cell_length_c 8.136002
_cell_angle_alpha 90.000000
_cell_angle_beta 90.000000
_cell_angle_gamma 90.000000
_cell_volume 1260.523466
_symmetry_space_group_name_H-M "P C C A"
_symmetry_group_IT_number 54
_symmetry_cell_setting 'orthorhombic'
loop_
_space_group_symop_operation_xyz
x,y,z
1/2-x,-y,z
1/2+x,-y,1/2-z
-x,y,1/2-z
-x,-y,-z
1/2+x,y,-z
1/2-x,y,1/2+z
x,-y,1/2+z
loop_
_atom_site_type_symbol
_atom_site_label
_atom_site_fract_x
_atom_site_fract_y
_atom_site_fract_z
Si Si1 0.874269 0.877217 0.974863
Si Si2 0.000000 0.829199 0.250000
Si Si3 0.143357 0.632375 0.700790
Si Si4 0.862692 0.367324 0.908613
Si Si5 0.250000 0.000000 0.286579
O O1 0.782727 0.889357 0.096289
O O2 0.959161 0.904607 0.098074
O O3 0.897515 0.746045 0.899154
O O4 0.837826 0.960824 0.826316
O O5 0.080657 0.739158 0.180827
O O6 0.254314 0.636185 0.652675
O O7 0.103108 0.502776 0.641647
O O8 0.133039 0.644569 0.895392
#
# Coordination Sequence:
#
# PCOD9423830 Si02
#       5
#     8   4   8   8   4
#     4  11  24  43  69  95 129 172 221 275 324 377
#     4  12  26  42  66 104 138 164 210 280 336 376
#     4  11  22  43  68  93 132 181 215 254 323 409
#     4  11  23  39  67 102 134 169 216 260 324 407
#     4  10  24  48  70  90 124 180 234 262 314 398
#
# _framework density 25.386278999999998
#
# number of rings (size 3 to 8) (size 9 to 14) (size 15 to 20)
#    0.000    1.000    0.000    9.000    0.000    8.000 
#    0.000    0.000    0.000    0.000    0.000    0.000 
#    0.000    0.000    0.000    0.000    0.000    0.000 
#
# Total GULP energy -179315.103937 kJ/mol
# GULP energy per Si atom -5603.596998 kJ/mol
# Density = 2.532850 g / cm^3
# Si number density = 25.386279 Si / 1000 Ang^3
#
#
#
# Elastic Constant Matrix: (Units=GPa)
#
#
# Indices 1 2 3 4 5 6 
#
# 1 67.0148 22.6563 43.8979 0.0000 0.0000 0.0000
# 2 22.6563 102.5276 80.1013 0.0000 0.0000 0.0000
# 3 43.8979 80.1013 211.1607 0.0000 0.0000 0.0000
# 4 0.0000 0.0000 0.0000 34.8211 0.0000 0.0000
# 5 0.0000 0.0000 0.0000 0.0000 13.2894 0.0000
# 6 0.0000 0.0000 0.0000 0.0000 0.0000 30.9676
#
#
#
# Elastic Compliance Matrix: (Units=1/GPa)
#
#
# Indices 1 2 3 4 5 6 
#
# 1 0.017425 -0.001450 -0.003072 0.000000 0.000000 0.000000
# 2 -0.001450 0.013982 -0.005003 0.000000 0.000000 0.000000
# 3 -0.003072 -0.005003 0.007272 0.000000 0.000000 0.000000
# 4 0.000000 0.000000 0.000000 0.028718 0.000000 0.000000
# 5 0.000000 0.000000 0.000000 0.000000 0.075248 0.000000
# 6 0.000000 0.000000 0.000000 0.000000 0.000000 0.032292
#
#
# Mechanical properties :
#
#
# Convention : Reuss Voigt Hill
#
# Bulk Modulus (GPa) = 50.94475 74.89046 62.91760
# Shear Modulus (GPa) = 24.93386 31.41877 28.17632
#
# Velocity S-wave (km/s) = 3.13737 3.52181 3.33514
# Velocity P-wave (km/s) = 5.76503 6.78984 6.29831
#
# Compressibility (1/GPa) = 0.01962911
#
# Stress axis : x y z
#
# Youngs Moduli (GPa) = 57.38919 71.51935 137.51244
#
# Poissons Ratio (x) = 0.10372 0.42248
# Poissons Ratio (y) = 0.08323 0.68791
# Poissons Ratio (z) = 0.17632 0.35778
#
# Static dielectric constant tensor:
#      x y z
#    x 2.020270 0.000000 0.000000 
#    y 0.000000 1.987420 0.000000 
#    z 0.000000 0.000000 1.931020 
# 
# From -- ./inp_files/3290.got.cif
#   From: 2010.05.17/outbox.cif.g08.bks.cpg/sg54_2_cif.got.tgz:3290.got - 2010.06.03 13:09:01.
