data_PCOD9423976
_publ_section_title
;
Structure prediction by ZEFSAII (Michael W. Deem and Ramdas Pophale) SiO2 
 PCOD9423976
Probable space group: P C C A
;
_chemical_formula_sum "Si O2"
_cell_formula_units_Z 56
_cell_length_a 13.021785
_cell_length_b 7.021185
_cell_length_c 25.469372
_cell_angle_alpha 90.000000
_cell_angle_beta 90.000000
_cell_angle_gamma 90.000000
_cell_volume 2328.622951
_symmetry_space_group_name_H-M "P C C A"
_symmetry_group_IT_number 54
_symmetry_cell_setting 'orthorhombic'
loop_
_space_group_symop_operation_xyz
x,y,z
1/2-x,-y,z
1/2+x,-y,1/2-z
-x,y,1/2-z
-x,-y,-z
1/2+x,y,-z
1/2-x,y,1/2+z
x,-y,1/2+z
loop_
_atom_site_type_symbol
_atom_site_label
_atom_site_fract_x
_atom_site_fract_y
_atom_site_fract_z
Si Si1 0.881287 0.695707 0.346305
Si Si2 0.054805 0.725964 0.845110
Si Si3 0.045931 0.185289 0.933120
Si Si4 0.657636 0.750563 0.369386
Si Si5 0.227366 0.729673 0.363920
Si Si6 0.514364 0.756452 0.453268
Si Si7 0.863521 0.589906 0.232757
O O1 0.772353 0.800588 0.354134
O O2 0.857507 0.474964 0.359675
O O3 0.907358 0.684528 0.284917
O O4 0.966275 0.769490 0.386435
O O5 0.075007 0.577800 0.798024
O O6 0.944388 0.829275 0.838690
O O7 0.039331 0.641228 0.905130
O O8 0.163746 0.828843 0.852728
O O9 0.161025 0.221188 0.913939
O O10 0.036718 0.963464 0.947693
O O11 0.630068 0.781969 0.430426
O O12 0.250000 0.500000 0.366571
O O13 0.015313 0.703595 0.486267
O O14 0.159174 0.744584 0.311751
O O15 0.750000 0.500000 0.247178
#
# Coordination Sequence:
#
# PCOD9423976 Si02
#       7
#     8   8   8   8   8   8   8
#     4  11  20  36  64  95 118 162 212 268 309 381
#     4   8  18  38  58  84 123 160 204 253 313 390
#     4  11  23  39  65  89 128 168 220 262 308 395
#     4   9  20  38  56  92 123 158 205 254 324 374
#     4   9  19  36  59  95 119 156 207 269 312 362
#     4   9  23  44  57  90 126 178 207 254 336 373
#     4   9  17  36  61  91 118 156 203 255 324 357
#
# _framework density 24.048546999999999
#
# number of rings (size 3 to 8) (size 9 to 14) (size 15 to 20)
#    0.857    2.000    1.429    1.714    0.000    5.143 
#    2.571    2.857    6.286    1.714    0.000    0.000 
#    0.000    0.000    0.000    0.000    0.000    0.000 
#
# Total GULP energy -311944.468434 kJ/mol
# GULP energy per Si atom -5570.436936 kJ/mol
# Density = 2.399381 g / cm^3
# Si number density = 24.048547 Si / 1000 Ang^3
#
#
#
# Elastic Constant Matrix: (Units=GPa)
#
#
# Indices 1 2 3 4 5 6 
#
# 1 160.0843 3.8775 67.4725 0.0000 0.0000 0.0000
# 2 3.8775 64.3945 20.8517 0.0000 0.0000 0.0000
# 3 67.4725 20.8517 196.5263 0.0000 0.0000 0.0000
# 4 0.0000 0.0000 0.0000 11.0247 0.0000 0.0000
# 5 0.0000 0.0000 0.0000 0.0000 33.1969 0.0000
# 6 0.0000 0.0000 0.0000 0.0000 0.0000 14.7825
#
#
#
# Elastic Compliance Matrix: (Units=1/GPa)
#
#
# Indices 1 2 3 4 5 6 
#
# 1 0.007313 0.000386 -0.002552 0.000000 0.000000 0.000000
# 2 0.000386 0.016102 -0.001841 0.000000 0.000000 0.000000
# 3 -0.002552 -0.001841 0.006160 0.000000 0.000000 0.000000
# 4 0.000000 0.000000 0.000000 0.090705 0.000000 0.000000
# 5 0.000000 0.000000 0.000000 0.000000 0.030123 0.000000
# 6 0.000000 0.000000 0.000000 0.000000 0.000000 0.067647
#
#
# Mechanical properties :
#
#
# Convention : Reuss Voigt Hill
#
# Bulk Modulus (GPa) = 46.37921 67.26760 56.82341
# Shear Modulus (GPa) = 21.43612 33.72106 27.57859
#
# Velocity S-wave (km/s) = 2.98882 3.74867 3.39010
# Velocity P-wave (km/s) = 5.58912 6.83879 6.24529
#
# Compressibility (1/GPa) = 0.02156138
#
# Stress axis : x y z
#
# Youngs Moduli (GPa) = 136.74604 62.10352 162.34440
#
# Poissons Ratio (x) = -0.02397 0.41424
# Poissons Ratio (y) = -0.05277 0.29887
# Poissons Ratio (z) = 0.34892 0.11433
#
# Static dielectric constant tensor:
#      x y z
#    x 2.102100 0.000000 0.000000 
#    y 0.000000 2.064490 0.000000 
#    z 0.000000 0.000000 1.910180 
# 
# From -- ./inp_files/21619.got.cif
#   From: 2010.05.17/outbox.cif.g08.bks.cpg/sg54_11_cif.got.tgz:21619.got - 2010.06.03 13:09:01.
