data_PCOD9423054
_publ_section_title
;
Structure prediction by ZEFSAII (Michael W. Deem and Ramdas Pophale) SiO2 
 PCOD9423054
Probable space group: P C C A
;
_chemical_formula_sum "Si O2"
_cell_formula_units_Z 64
_cell_length_a 17.561536
_cell_length_b 14.943241
_cell_length_c 11.361271
_cell_angle_alpha 90.000000
_cell_angle_beta 90.000000
_cell_angle_gamma 90.000000
_cell_volume 2981.495912
_symmetry_space_group_name_H-M "P C C A"
_symmetry_group_IT_number 54
_symmetry_cell_setting 'orthorhombic'
loop_
_space_group_symop_operation_xyz
x,y,z
1/2-x,-y,z
1/2+x,-y,1/2-z
-x,y,1/2-z
-x,-y,-z
1/2+x,y,-z
1/2-x,y,1/2+z
x,-y,1/2+z
loop_
_atom_site_type_symbol
_atom_site_label
_atom_site_fract_x
_atom_site_fract_y
_atom_site_fract_z
Si Si1 0.426954 0.607719 0.484623
Si Si2 0.679055 0.936653 0.659621
Si Si3 0.878864 0.895882 0.775932
Si Si4 0.804030 0.588046 0.305919
Si Si5 0.560078 0.428213 0.145360
Si Si6 0.535375 0.902808 0.496735
Si Si7 0.735133 0.790039 0.830282
Si Si8 0.892532 0.805863 0.524580
O O1 0.365293 0.579933 0.586065
O O2 0.429185 0.531672 0.387472
O O3 0.512935 0.613714 0.537139
O O4 0.401090 0.703095 0.439161
O O5 0.613480 0.913008 0.567710
O O6 0.704930 0.842612 0.714888
O O7 0.750000 0.000000 0.616695
O O8 0.644227 0.999877 0.763449
O O9 0.949896 0.882991 0.859902
O O10 0.815568 0.837431 0.842674
O O11 0.883226 0.863295 0.641890
O O12 0.750000 0.500000 0.300013
O O13 0.857650 0.601926 0.190740
O O14 0.760901 0.682653 0.320711
O O15 0.500000 0.416748 0.250000
O O16 0.470460 0.835323 0.540783
O O17 0.500000 0.000000 0.500000
O O18 0.678032 0.812539 0.936537
#
# Coordination Sequence:
#
# PCOD9423054 Si02
#       8
#     8   8   8   8   8   8   8   8
#     4   9  21  41  61  94 128 172 214 277 333 401
#     4  10  24  43  69  93 131 181 220 270 339 406
#     4  11  25  43  67  97 136 175 223 276 342 400
#     4  10  22  41  64  96 129 172 221 278 326 403
#     4   9  19  39  65  89 126 168 216 265 344 395
#     4  12  25  41  69  98 135 172 223 279 335 396
#     4  10  25  45  67  94 135 177 229 272 344 406
#     4  11  24  42  66  98 134 170 227 282 327 408
#
# _framework density 21.465734999999999
#
# number of rings (size 3 to 8) (size 9 to 14) (size 15 to 20)
#    0.000    1.750    1.250    1.125    7.000    3.500 
#    6.750    0.000    0.000    0.000    0.000    0.000 
#    0.000    0.000    0.000    0.000    0.000    0.000 
#
# Total GULP energy -357084.204642 kJ/mol
# GULP energy per Si atom -5579.440698 kJ/mol
# Density = 2.141688 g / cm^3
# Si number density = 21.465735 Si / 1000 Ang^3
#
#
#
# Elastic Constant Matrix: (Units=GPa)
#
#
# Indices 1 2 3 4 5 6 
#
# 1 97.1892 28.0564 30.2558 0.0000 0.0000 0.0000
# 2 28.0564 88.6789 11.8251 0.0000 0.0000 0.0000
# 3 30.2558 11.8251 32.5106 0.0000 0.0000 0.0000
# 4 0.0000 0.0000 0.0000 19.2899 0.0000 0.0000
# 5 0.0000 0.0000 0.0000 0.0000 37.2280 0.0000
# 6 0.0000 0.0000 0.0000 0.0000 0.0000 20.1004
#
#
#
# Elastic Compliance Matrix: (Units=1/GPa)
#
#
# Indices 1 2 3 4 5 6 
#
# 1 0.015247 -0.003081 -0.013069 0.000000 0.000000 0.000000
# 2 -0.003081 0.012474 -0.001670 0.000000 0.000000 0.000000
# 3 -0.013069 -0.001670 0.043529 0.000000 0.000000 0.000000
# 4 0.000000 0.000000 0.000000 0.051841 0.000000 0.000000
# 5 0.000000 0.000000 0.000000 0.000000 0.026861 0.000000
# 6 0.000000 0.000000 0.000000 0.000000 0.000000 0.049750
#
#
# Mechanical properties :
#
#
# Convention : Reuss Voigt Hill
#
# Bulk Modulus (GPa) = 28.08155 39.85038 33.96596
# Shear Modulus (GPa) = 20.22549 25.20641 22.71595
#
# Velocity S-wave (km/s) = 3.07289 3.43047 3.25659
# Velocity P-wave (km/s) = 5.06958 5.85626 5.47706
#
# Compressibility (1/GPa) = 0.03561058
#
# Stress axis : x y z
#
# Youngs Moduli (GPa) = 65.58605 80.16590 22.97318
#
# Poissons Ratio (x) = 0.24701 0.30023
# Poissons Ratio (y) = 0.20208 0.03836
# Poissons Ratio (z) = 0.85714 0.13386
#
# Static dielectric constant tensor:
#      x y z
#    x 1.972450 0.000000 0.000000 
#    y 0.000000 1.803040 0.000000 
#    z 0.000000 0.000000 1.787080 
# 
# From -- ./inp_files/9081.got.cif
#   From: 2010.05.17/outbox.cif.g08.bks.cpg/sg54_5_cif.got.tgz:9081.got - 2010.06.03 13:09:01.
