data_PCOD9423588
_publ_section_title
;
Structure prediction by ZEFSAII (Michael W. Deem and Ramdas Pophale) SiO2 
 PCOD9423588
Probable space group: P C C A
;
_chemical_formula_sum "Si O2"
_cell_formula_units_Z 48
_cell_length_a 8.574566
_cell_length_b 9.160263
_cell_length_c 26.526239
_cell_angle_alpha 90.000000
_cell_angle_beta 90.000000
_cell_angle_gamma 90.000000
_cell_volume 2083.510861
_symmetry_space_group_name_H-M "P C C A"
_symmetry_group_IT_number 54
_symmetry_cell_setting 'orthorhombic'
loop_
_space_group_symop_operation_xyz
x,y,z
1/2-x,-y,z
1/2+x,-y,1/2-z
-x,y,1/2-z
-x,-y,-z
1/2+x,y,-z
1/2-x,y,1/2+z
x,-y,1/2+z
loop_
_atom_site_type_symbol
_atom_site_label
_atom_site_fract_x
_atom_site_fract_y
_atom_site_fract_z
Si Si1 0.894504 0.403222 0.208851
Si Si2 0.597074 0.908633 0.959764
Si Si3 0.116181 0.226477 0.884695
Si Si4 0.847868 0.647454 0.533127
Si Si5 0.567452 0.531378 0.386395
Si Si6 0.177262 0.845980 0.270368
O O1 0.750000 0.500000 0.190489
O O2 0.809630 0.275631 0.240474
O O3 0.000000 0.485307 0.250000
O O4 0.000772 0.372315 0.160205
O O5 0.497549 0.888957 0.910020
O O6 0.750000 0.000000 0.949570
O O7 0.627668 0.749919 0.984966
O O8 0.500000 0.000000 0.000000
O O9 0.251211 0.260969 0.925110
O O10 0.169941 0.170075 0.831014
O O11 0.020144 0.376846 0.879416
O O12 0.750000 0.500000 0.523276
O O13 0.007072 0.600497 0.561243
O O14 0.750000 0.500000 0.384450
O O15 0.000000 0.828227 0.250000
O O16 0.250000 0.000000 0.254825
#
# Coordination Sequence:
#
# PCOD9423588 Si02
#       6
#     8   8   8   8   8   8
#     4  12  23  43  74 105 139 184 234 298 351 427
#     4  12  27  45  72 107 140 190 250 295 363 433
#     4  11  25  47  72 101 149 187 238 299 357 434
#     4  10  23  48  72  99 147 196 233 295 368 427
#     4  11  24  41  72 112 139 184 242 292 366 428
#     4  12  28  50  74 103 146 191 236 292 367 434
#
# _framework density 23.038036999999999
#
# number of rings (size 3 to 8) (size 9 to 14) (size 15 to 20)
#    0.000    0.667    5.000    2.000    7.000    4.000 
#    0.000    0.000    0.000    0.000    0.000    0.000 
#    0.000    0.000    0.000    0.000    0.000    0.000 
#
# Total GULP energy -268667.672360 kJ/mol
# GULP energy per Si atom -5597.243174 kJ/mol
# Density = 2.298560 g / cm^3
# Si number density = 23.038037 Si / 1000 Ang^3
#
#
#
# Elastic Constant Matrix: (Units=GPa)
#
#
# Indices 1 2 3 4 5 6 
#
# 1 145.6847 24.2430 22.2321 0.0000 0.0000 0.0000
# 2 24.2430 78.2419 -5.9154 0.0000 0.0000 0.0000
# 3 22.2321 -5.9154 68.6835 0.0000 0.0000 0.0000
# 4 0.0000 0.0000 0.0000 16.5800 0.0000 0.0000
# 5 0.0000 0.0000 0.0000 0.0000 41.3377 0.0000
# 6 0.0000 0.0000 0.0000 0.0000 0.0000 36.8769
#
#
#
# Elastic Compliance Matrix: (Units=1/GPa)
#
#
# Indices 1 2 3 4 5 6 
#
# 1 0.007711 -0.002595 -0.002719 0.000000 0.000000 0.000000
# 2 -0.002595 0.013738 0.002023 0.000000 0.000000 0.000000
# 3 -0.002719 0.002023 0.015614 0.000000 0.000000 0.000000
# 4 0.000000 0.000000 0.000000 0.060314 0.000000 0.000000
# 5 0.000000 0.000000 0.000000 0.000000 0.024191 0.000000
# 6 0.000000 0.000000 0.000000 0.000000 0.000000 0.027117
#
#
# Mechanical properties :
#
#
# Convention : Reuss Voigt Hill
#
# Bulk Modulus (GPa) = 32.80787 41.52550 37.16668
# Shear Modulus (GPa) = 30.22477 35.76227 32.99352
#
# Velocity S-wave (km/s) = 3.62602 3.94422 3.78846
# Velocity P-wave (km/s) = 5.63935 6.22947 5.94174
#
# Compressibility (1/GPa) = 0.03048049
#
# Stress axis : x y z
#
# Youngs Moduli (GPa) = 129.68607 72.79177 64.04501
#
# Poissons Ratio (x) = 0.18888 0.17417
# Poissons Ratio (y) = 0.33651 -0.12957
# Poissons Ratio (z) = 0.35267 -0.14726
#
# Static dielectric constant tensor:
#      x y z
#    x 1.910470 0.000000 0.000000 
#    y 0.000000 1.909850 0.000000 
#    z 0.000000 0.000000 1.808970 
# 
# From -- ./inp_files/27702.got.cif
#   From: 2010.05.17/outbox.cif.g08.bks.cpg/sg54_14_cif.got.tgz:27702.got - 2010.06.03 13:09:01.
