data_PCOD9423049
_publ_section_title
;
Structure prediction by ZEFSAII (Michael W. Deem and Ramdas Pophale) SiO2 
 PCOD9423049
Probable space group: P C C A
;
_chemical_formula_sum "Si O2"
_cell_formula_units_Z 48
_cell_length_a 27.212031
_cell_length_b 5.113068
_cell_length_c 14.426340
_cell_angle_alpha 90.000000
_cell_angle_beta 90.000000
_cell_angle_gamma 90.000000
_cell_volume 2007.237163
_symmetry_space_group_name_H-M "P C C A"
_symmetry_group_IT_number 54
_symmetry_cell_setting 'orthorhombic'
loop_
_space_group_symop_operation_xyz
x,y,z
1/2-x,-y,z
1/2+x,-y,1/2-z
-x,y,1/2-z
-x,-y,-z
1/2+x,y,-z
1/2-x,y,1/2+z
x,-y,1/2+z
loop_
_atom_site_type_symbol
_atom_site_label
_atom_site_fract_x
_atom_site_fract_y
_atom_site_fract_z
Si Si1 0.144379 0.696484 0.409091
Si Si2 0.350167 0.494502 0.724039
Si Si3 0.034222 0.088098 0.118071
Si Si4 0.783923 0.753583 0.922991
Si Si5 0.910921 0.613436 0.444481
Si Si6 0.572383 0.109194 0.684471
O O1 0.172991 0.633337 0.313487
O O2 0.179507 0.797692 0.490550
O O3 0.117675 0.450872 0.460733
O O4 0.104098 0.904795 0.374348
O O5 0.314617 0.299225 0.670373
O O6 0.371250 0.664564 0.638104
O O7 0.395163 0.345551 0.774583
O O8 0.049202 0.842266 0.055379
O O9 0.052818 0.989550 0.218682
O O10 0.978192 0.173090 0.132809
O O11 0.063645 0.339778 0.082767
O O12 0.750000 0.500000 0.941111
O O13 0.750000 0.000000 0.910869
#
# Coordination Sequence:
#
# PCOD9423049 Si02
#       6
#     8   8   8   8   8   8
#     4  11  25  43  74 102 140 180 238 286 353 431
#     4  10  24  46  71  99 142 185 229 287 368 413
#     4  10  22  41  63  98 148 189 238 275 328 404
#     4  11  29  53  75 105 140 175 232 309 373 437
#     4  10  23  41  65  98 146 188 225 286 335 396
#     4  10  23  39  69  98 139 192 235 278 337 414
#
# _framework density 23.913468999999999
#
# number of rings (size 3 to 8) (size 9 to 14) (size 15 to 20)
#    0.000    1.667    1.667    0.000    9.333    6.000 
#    0.000    0.000    0.000    0.000    0.000    0.000 
#    0.000    0.000    0.000    0.000    0.000    0.000 
#
# Total GULP energy -268364.302381 kJ/mol
# GULP energy per Si atom -5590.922966 kJ/mol
# Density = 2.385904 g / cm^3
# Si number density = 23.913469 Si / 1000 Ang^3
#
#
#
# Elastic Constant Matrix: (Units=GPa)
#
#
# Indices 1 2 3 4 5 6 
#
# 1 85.0593 11.4652 36.4722 0.0000 0.0000 0.0000
# 2 11.4652 58.2930 0.5870 0.0000 0.0000 0.0000
# 3 36.4722 0.5870 194.3493 0.0000 0.0000 0.0000
# 4 0.0000 0.0000 0.0000 -121.4188 0.0000 0.0000
# 5 0.0000 0.0000 0.0000 0.0000 21.4935 0.0000
# 6 0.0000 0.0000 0.0000 0.0000 0.0000 28.8484
#
#
#
# Elastic Compliance Matrix: (Units=1/GPa)
#
#
# Indices 1 2 3 4 5 6 
#
# 1 0.013157 -0.002563 -0.002461 0.000000 0.000000 0.000000
# 2 -0.002563 0.017655 0.000428 0.000000 0.000000 0.000000
# 3 -0.002461 0.000428 0.005606 0.000000 0.000000 0.000000
# 4 0.000000 0.000000 0.000000 -0.008236 0.000000 0.000000
# 5 0.000000 0.000000 0.000000 0.000000 0.046526 0.000000
# 6 0.000000 0.000000 0.000000 0.000000 0.000000 0.034664
#
#
# Mechanical properties :
#
#
# Convention : Reuss Voigt Hill
#
# Bulk Modulus (GPa) = 36.73183 48.30558 42.51870
# Shear Modulus (GPa) = 39.17268 5.06310 22.11789
#
# Velocity S-wave (km/s) = 4.05174 1.45666 3.04454
# Velocity P-wave (km/s) = 6.10593 4.80345 5.49343
#
# Compressibility (1/GPa) = 0.02722434
#
# Stress axis : x y z
#
# Youngs Moduli (GPa) = 76.00291 56.64273 178.38028
#
# Poissons Ratio (x) = 0.14518 0.43907
# Poissons Ratio (y) = 0.19480 -0.07629
# Poissons Ratio (z) = 0.18707 -0.02422
#
# Static dielectric constant tensor:
#      x y z
#    x 1.926630 0.000000 0.000000 
#    y 0.000000 1.910910 0.000000 
#    z 0.000000 0.000000 1.956630 
# 
# From -- ./inp_files/15133.got.cif
#   From: 2010.05.17/outbox.cif.g08.bks.cpg/sg54_8_cif.got.tgz:15133.got - 2010.06.03 13:09:01.
