data_PCOD9423163
_publ_section_title
;
Structure prediction by ZEFSAII (Michael W. Deem and Ramdas Pophale) SiO2 
 PCOD9423163
Probable space group: P C C A
;
_chemical_formula_sum "Si O2"
_cell_formula_units_Z 40
_cell_length_a 9.282764
_cell_length_b 16.997937
_cell_length_c 12.098762
_cell_angle_alpha 90.000000
_cell_angle_beta 90.000000
_cell_angle_gamma 90.000000
_cell_volume 1909.037494
_symmetry_space_group_name_H-M "P C C A"
_symmetry_group_IT_number 54
_symmetry_cell_setting 'orthorhombic'
loop_
_space_group_symop_operation_xyz
x,y,z
1/2-x,-y,z
1/2+x,-y,1/2-z
-x,y,1/2-z
-x,-y,-z
1/2+x,y,-z
1/2-x,y,1/2+z
x,-y,1/2+z
loop_
_atom_site_type_symbol
_atom_site_label
_atom_site_fract_x
_atom_site_fract_y
_atom_site_fract_z
Si Si1 0.828167 0.351719 0.544061
Si Si2 0.966060 0.725777 0.626273
Si Si3 0.455271 0.927746 0.868817
Si Si4 0.000000 0.580778 0.250000
Si Si5 0.870325 0.102283 0.081120
Si Si6 0.250000 0.500000 0.108260
O O1 0.675784 0.317659 0.581898
O O2 0.922481 0.369380 0.653230
O O3 0.803424 0.430565 0.472369
O O4 0.908430 0.293002 0.460546
O O5 0.936138 0.818591 0.628686
O O6 0.000000 0.697619 0.750000
O O7 0.500000 0.897439 0.750000
O O8 0.301467 0.895255 0.907675
O O9 0.429891 0.022011 0.864855
O O10 0.579215 0.906864 0.954921
O O11 0.120730 0.529639 0.186680
#
# Coordination Sequence:
#
# PCOD9423163 Si02
#       6
#     8   8   8   4   8   4
#     4  12  27  48  70 105 138 182 229 282 346 418
#     4  12  27  46  70 101 146 184 227 287 352 414
#     4  10  22  42  71  96 136 180 235 292 340 400
#     4  12  26  46  76 100 136 174 232 286 340 408
#     4  10  23  43  66 102 133 181 238 282 344 416
#     4  12  26  48  76 104 134 178 234 280 346 410
#
# _framework density 20.952967999999998
#
# number of rings (size 3 to 8) (size 9 to 14) (size 15 to 20)
#    0.000    0.800    2.000    4.200    4.200    9.600 
#    3.600    0.000    0.000    0.000    0.000    0.000 
#    0.000    0.000    0.000    0.000    0.000    0.000 
#
# Total GULP energy -223897.633709 kJ/mol
# GULP energy per Si atom -5597.440843 kJ/mol
# Density = 2.090528 g / cm^3
# Si number density = 20.952968 Si / 1000 Ang^3
#
#
#
# Elastic Constant Matrix: (Units=GPa)
#
#
# Indices 1 2 3 4 5 6 
#
# 1 109.2195 8.5706 89.8693 0.0000 0.0000 0.0000
# 2 8.5706 60.0821 20.4414 0.0000 0.0000 0.0000
# 3 89.8693 20.4414 161.9949 0.0000 0.0000 0.0000
# 4 0.0000 0.0000 0.0000 8.1212 0.0000 0.0000
# 5 0.0000 0.0000 0.0000 0.0000 14.6633 0.0000
# 6 0.0000 0.0000 0.0000 0.0000 0.0000 57.7956
#
#
#
# Elastic Compliance Matrix: (Units=1/GPa)
#
#
# Indices 1 2 3 4 5 6 
#
# 1 0.016883 0.000813 -0.009469 0.000000 0.000000 0.000000
# 2 0.000813 0.017430 -0.002650 0.000000 0.000000 0.000000
# 3 -0.009469 -0.002650 0.011761 0.000000 0.000000 0.000000
# 4 0.000000 0.000000 0.000000 0.123134 0.000000 0.000000
# 5 0.000000 0.000000 0.000000 0.000000 0.068197 0.000000
# 6 0.000000 0.000000 0.000000 0.000000 0.000000 0.017302
#
#
# Mechanical properties :
#
#
# Convention : Reuss Voigt Hill
#
# Bulk Modulus (GPa) = 42.62379 63.22878 52.92628
# Shear Modulus (GPa) = 17.53521 30.27705 23.90613
#
# Velocity S-wave (km/s) = 2.89603 3.80544 3.38145
# Velocity P-wave (km/s) = 5.61867 7.03921 6.36867
#
# Compressibility (1/GPa) = 0.02346108
#
# Stress axis : x y z
#
# Youngs Moduli (GPa) = 59.22966 57.37351 85.03002
#
# Poissons Ratio (x) = -0.04666 0.80515
# Poissons Ratio (y) = -0.04816 0.22537
# Poissons Ratio (z) = 0.56084 0.15207
#
# Static dielectric constant tensor:
#      x y z
#    x 1.724040 0.000000 0.000000 
#    y 0.000000 1.750900 0.000000 
#    z 0.000000 0.000000 1.645340 
# 
# From -- ./inp_files/6903.got.cif
#   From: 2010.05.17/outbox.cif.g08.bks.cpg/sg54_4_cif.got.tgz:6903.got - 2010.06.03 13:09:01.
