data_PCOD9423424
_publ_section_title
;
Structure prediction by ZEFSAII (Michael W. Deem and Ramdas Pophale) SiO2 
 PCOD9423424
Probable space group: P C C A
;
_chemical_formula_sum "Si O2"
_cell_formula_units_Z 56
_cell_length_a 10.850818
_cell_length_b 15.001011
_cell_length_c 15.788432
_cell_angle_alpha 90.000000
_cell_angle_beta 90.000000
_cell_angle_gamma 90.000000
_cell_volume 2569.934234
_symmetry_space_group_name_H-M "P C C A"
_symmetry_group_IT_number 54
_symmetry_cell_setting 'orthorhombic'
loop_
_space_group_symop_operation_xyz
x,y,z
1/2-x,-y,z
1/2+x,-y,1/2-z
-x,y,1/2-z
-x,-y,-z
1/2+x,y,-z
1/2-x,y,1/2+z
x,-y,1/2+z
loop_
_atom_site_type_symbol
_atom_site_label
_atom_site_fract_x
_atom_site_fract_y
_atom_site_fract_z
Si Si1 0.143870 0.620481 0.840413
Si Si2 0.869310 0.898395 0.835478
Si Si3 0.269457 0.802444 0.011053
Si Si4 0.472991 0.693485 0.513118
Si Si5 0.500000 0.061547 0.250000
Si Si6 0.000000 0.241963 0.250000
Si Si7 0.929100 0.415034 0.665523
Si Si8 0.774211 0.105400 0.663796
O O1 0.290776 0.621480 0.846494
O O2 0.094003 0.520987 0.825688
O O3 0.109436 0.689595 0.766914
O O4 0.075731 0.652646 0.925189
O O5 0.802009 0.881625 0.922949
O O6 0.977443 0.825089 0.827949
O O7 0.789885 0.873423 0.752821
O O8 0.920898 0.995068 0.810673
O O9 0.144885 0.753350 0.041585
O O10 0.395348 0.743638 0.001819
O O11 0.240413 0.840360 0.918259
O O12 0.496571 0.617421 0.583348
O O13 0.417032 0.116813 0.313326
O O14 0.000000 0.384208 0.750000
O O15 0.750000 0.000000 0.647942
#
# Coordination Sequence:
#
# PCOD9423424 Si02
#       8
#     8   8   8   8   4   4   8   8
#     4  11  23  46  69 100 136 186 229 297 345 419
#     4  10  23  41  68  98 131 182 227 279 356 411
#     4  12  27  43  72 101 138 187 233 279 357 418
#     4  12  26  47  66 105 143 183 230 292 345 420
#     4   9  22  44  68  93 136 178 228 291 350 410
#     4  11  20  40  70  93 134 172 232 281 338 414
#     4  11  26  45  70 103 138 182 243 288 357 412
#     4  10  24  44  65 101 138 175 231 295 342 420
#
# _framework density 21.79044
#
# number of rings (size 3 to 8) (size 9 to 14) (size 15 to 20)
#    0.000    1.143    3.571    1.286    8.000    2.286 
#    0.000    0.000    0.000    0.000    0.000    0.000 
#    0.000    0.000    0.000    0.000    0.000    0.000 
#
# Total GULP energy -312689.879531 kJ/mol
# GULP energy per Si atom -5583.747849 kJ/mol
# Density = 2.174084 g / cm^3
# Si number density = 21.790440 Si / 1000 Ang^3
#
#
#
# Elastic Constant Matrix: (Units=GPa)
#
#
# Indices 1 2 3 4 5 6 
#
# 1 123.2736 27.7251 38.2824 0.0000 0.0000 0.0000
# 2 27.7251 46.7734 7.6230 0.0000 0.0000 0.0000
# 3 38.2824 7.6230 88.5891 0.0000 0.0000 0.0000
# 4 0.0000 0.0000 0.0000 18.9948 0.0000 0.0000
# 5 0.0000 0.0000 0.0000 0.0000 40.4632 0.0000
# 6 0.0000 0.0000 0.0000 0.0000 0.0000 28.8437
#
#
#
# Elastic Compliance Matrix: (Units=1/GPa)
#
#
# Indices 1 2 3 4 5 6 
#
# 1 0.010662 -0.005648 -0.004122 0.000000 0.000000 0.000000
# 2 -0.005648 0.024676 0.000318 0.000000 0.000000 0.000000
# 3 -0.004122 0.000318 0.013042 0.000000 0.000000 0.000000
# 4 0.000000 0.000000 0.000000 0.052646 0.000000 0.000000
# 5 0.000000 0.000000 0.000000 0.000000 0.024714 0.000000
# 6 0.000000 0.000000 0.000000 0.000000 0.000000 0.034670
#
#
# Mechanical properties :
#
#
# Convention : Reuss Voigt Hill
#
# Bulk Modulus (GPa) = 33.92664 45.09967 39.51316
# Shear Modulus (GPa) = 26.43550 29.99404 28.21477
#
# Velocity S-wave (km/s) = 3.48684 3.71412 3.60227
# Velocity P-wave (km/s) = 5.64039 6.25578 5.95604
#
# Compressibility (1/GPa) = 0.02947536
#
# Stress axis : x y z
#
# Youngs Moduli (GPa) = 93.78804 40.52508 76.67657
#
# Poissons Ratio (x) = 0.22890 0.31602
# Poissons Ratio (y) = 0.52976 -0.02435
# Poissons Ratio (z) = 0.38655 -0.01287
#
# Static dielectric constant tensor:
#      x y z
#    x 1.927290 0.000000 0.000000 
#    y 0.000000 1.813600 0.000000 
#    z 0.000000 0.000000 1.767750 
# 
# From -- ./inp_files/12752.got.cif
#   From: 2010.05.17/outbox.cif.g08.bks.cpg/sg54_7_cif.got.tgz:12752.got - 2010.06.03 13:09:01.
