data_PCOD9423632
_publ_section_title
;
Structure prediction by ZEFSAII (Michael W. Deem and Ramdas Pophale) SiO2 
 PCOD9423632
Probable space group: P C C A
;
_chemical_formula_sum "Si O2"
_cell_formula_units_Z 36
_cell_length_a 8.817991
_cell_length_b 18.775864
_cell_length_c 8.934476
_cell_angle_alpha 90.000000
_cell_angle_beta 90.000000
_cell_angle_gamma 90.000000
_cell_volume 1479.240091
_symmetry_space_group_name_H-M "P C C A"
_symmetry_group_IT_number 54
_symmetry_cell_setting 'orthorhombic'
loop_
_space_group_symop_operation_xyz
x,y,z
1/2-x,-y,z
1/2+x,-y,1/2-z
-x,y,1/2-z
-x,-y,-z
1/2+x,y,-z
1/2-x,y,1/2+z
x,-y,1/2+z
loop_
_atom_site_type_symbol
_atom_site_label
_atom_site_fract_x
_atom_site_fract_y
_atom_site_fract_z
Si Si1 0.378181 0.399686 0.580434
Si Si2 0.904816 0.853886 0.399161
Si Si3 0.882896 0.058962 0.382478
Si Si4 0.905374 0.693861 0.407303
Si Si5 0.250000 0.500000 0.825635
O O1 0.528777 0.359306 0.531972
O O2 0.353399 0.454242 0.714740
O O3 0.338881 0.446448 0.433484
O O4 0.261795 0.335909 0.616365
O O5 0.732903 0.875423 0.357227
O O6 0.000000 0.848320 0.250000
O O7 0.999321 0.912475 0.493679
O O8 0.904828 0.774778 0.466394
O O9 0.000000 0.038697 0.250000
O O10 0.750000 0.000000 0.411873
O O11 0.000000 0.689886 0.250000
#
# Coordination Sequence:
#
# PCOD9423632 Si02
#       5
#     8   8   8   8   4
#     4  11  23  43  66 100 139 185 240 302 357 436
#     4  11  25  46  73 107 149 195 251 302 359 434
#     4  12  26  48  76 113 152 196 240 298 364 431
#     4  11  24  45  68 100 141 188 237 295 358 429
#     4  10  24  40  70 102 134 188 242 298 376 424
#
# _framework density 24.336821
#
# number of rings (size 3 to 8) (size 9 to 14) (size 15 to 20)
#    0.000    0.889    2.222    4.000    0.000    9.778 
#    4.000    0.000    0.000    0.000    0.000    0.000 
#    0.000    0.000    0.000    0.000    0.000    0.000 
#
# Total GULP energy -201187.257522 kJ/mol
# GULP energy per Si atom -5588.534931 kJ/mol
# Density = 2.428143 g / cm^3
# Si number density = 24.336821 Si / 1000 Ang^3
#
#
#
# Elastic Constant Matrix: (Units=GPa)
#
#
# Indices 1 2 3 4 5 6 
#
# 1 139.5571 44.8122 22.9359 0.0000 0.0000 0.0000
# 2 44.8122 153.7534 57.3827 0.0000 0.0000 0.0000
# 3 22.9359 57.3827 87.5585 0.0000 0.0000 0.0000
# 4 0.0000 0.0000 0.0000 35.4947 0.0000 0.0000
# 5 0.0000 0.0000 0.0000 0.0000 36.8721 0.0000
# 6 0.0000 0.0000 0.0000 0.0000 0.0000 -64.5981
#
#
#
# Elastic Compliance Matrix: (Units=1/GPa)
#
#
# Indices 1 2 3 4 5 6 
#
# 1 0.007942 -0.002036 -0.000746 0.000000 0.000000 0.000000
# 2 -0.002036 0.009132 -0.005451 0.000000 0.000000 0.000000
# 3 -0.000746 -0.005451 0.015189 0.000000 0.000000 0.000000
# 4 0.000000 0.000000 0.000000 0.028173 0.000000 0.000000
# 5 0.000000 0.000000 0.000000 0.000000 0.027121 0.000000
# 6 0.000000 0.000000 0.000000 0.000000 0.000000 -0.015480
#
#
# Mechanical properties :
#
#
# Convention : Reuss Voigt Hill
#
# Bulk Modulus (GPa) = 63.30807 70.12564 66.71685
# Shear Modulus (GPa) = 53.29989 18.60294 35.95141
#
# Velocity S-wave (km/s) = 4.68492 2.76777 3.84766
# Velocity P-wave (km/s) = 7.43871 6.25230 6.87116
#
# Compressibility (1/GPa) = 0.01579577
#
# Stress axis : x y z
#
# Youngs Moduli (GPa) = 125.91305 109.50587 65.83759
#
# Poissons Ratio (x) = 0.22300 0.04910
# Poissons Ratio (y) = 0.25641 0.35890
# Poissons Ratio (z) = 0.09391 0.59695
#
# Static dielectric constant tensor:
#      x y z
#    x 1.981580 0.000000 0.000000 
#    y 0.000000 1.974850 0.000000 
#    z 0.000000 0.000000 2.008720 
# 
# From -- ./inp_files/2489.got.cif
#   From: 2010.05.17/outbox.cif.g08.bks.cpg/sg54_2_cif.got.tgz:2489.got - 2010.06.03 13:09:01.
