data_PCOD9423004
_publ_section_title
;
Structure prediction by ZEFSAII (Michael W. Deem and Ramdas Pophale) SiO2 
 PCOD9423004
Probable space group: P C C A
;
_chemical_formula_sum "Si O2"
_cell_formula_units_Z 48
_cell_length_a 5.270662
_cell_length_b 26.477873
_cell_length_c 16.755030
_cell_angle_alpha 90.000000
_cell_angle_beta 90.000000
_cell_angle_gamma 90.000000
_cell_volume 2338.263611
_symmetry_space_group_name_H-M "P C C A"
_symmetry_group_IT_number 54
_symmetry_cell_setting 'orthorhombic'
loop_
_space_group_symop_operation_xyz
x,y,z
1/2-x,-y,z
1/2+x,-y,1/2-z
-x,y,1/2-z
-x,-y,-z
1/2+x,y,-z
1/2-x,y,1/2+z
x,-y,1/2+z
loop_
_atom_site_type_symbol
_atom_site_label
_atom_site_fract_x
_atom_site_fract_y
_atom_site_fract_z
Si Si1 0.859980 0.307371 0.826242
Si Si2 0.320266 0.610277 0.055430
Si Si3 0.500000 0.223859 0.750000
Si Si4 0.350090 0.147302 0.332839
Si Si5 0.250000 0.500000 0.054940
Si Si6 0.772950 0.941033 0.552730
Si Si7 0.002904 0.231179 0.947580
O O1 0.704104 0.347259 0.877470
O O2 0.698170 0.261052 0.791127
O O3 0.041695 0.278321 0.887873
O O4 0.000000 0.330836 0.750000
O O5 0.276198 0.554766 0.095150
O O6 0.586756 0.614631 0.008157
O O7 0.625599 0.186292 0.686950
O O8 0.500000 0.139920 0.250000
O O9 0.258517 0.095834 0.372470
O O10 0.503483 0.178856 0.398786
O O11 0.500000 0.500000 0.000000
O O12 0.540597 0.931999 0.491183
O O13 0.750000 0.000000 0.575775
O O14 0.735248 0.234205 0.991770
#
# Coordination Sequence:
#
# PCOD9423004 Si02
#       7
#     8   8   4   8   4   8   8
#     4  12  25  41  61  90 135 176 212 272 328 385
#     4  10  22  40  67  97 124 168 221 270 324 387
#     4  12  24  44  62  88 142 174 218 256 330 382
#     4  12  25  43  66  98 131 177 212 268 327 392
#     4   8  16  36  64  92 124 156 210 274 320 376
#     4  10  24  48  73 101 132 168 216 271 325 382
#     4  12  24  40  63  91 123 167 221 262 309 377
#
# _framework density 20.528054000000001
#
# number of rings (size 3 to 8) (size 9 to 14) (size 15 to 20)
#    0.000    1.000    3.333    3.000    4.667    0.000 
#    1.500    0.000    1.833    0.000    0.000    0.000 
#    0.000    0.000    0.000    0.000    0.000    0.000 
#
# Total GULP energy -268267.128092 kJ/mol
# GULP energy per Si atom -5588.898502 kJ/mol
# Density = 2.048133 g / cm^3
# Si number density = 20.528054 Si / 1000 Ang^3
#
#
#
# Elastic Constant Matrix: (Units=GPa)
#
#
# Indices 1 2 3 4 5 6 
#
# 1 74.0727 -0.7569 2.8170 0.0000 0.0000 0.0000
# 2 -0.7569 97.1669 33.0371 0.0000 0.0000 0.0000
# 3 2.8170 33.0371 65.3703 0.0000 0.0000 0.0000
# 4 0.0000 0.0000 0.0000 17.8753 0.0000 0.0000
# 5 0.0000 0.0000 0.0000 0.0000 13.4245 0.0000
# 6 0.0000 0.0000 0.0000 0.0000 0.0000 17.9436
#
#
#
# Elastic Compliance Matrix: (Units=1/GPa)
#
#
# Indices 1 2 3 4 5 6 
#
# 1 0.013533 0.000367 -0.000769 0.000000 0.000000 0.000000
# 2 0.000367 0.012437 -0.006301 0.000000 0.000000 0.000000
# 3 -0.000769 -0.006301 0.018515 0.000000 0.000000 0.000000
# 4 0.000000 0.000000 0.000000 0.055943 0.000000 0.000000
# 5 0.000000 0.000000 0.000000 0.000000 0.074490 0.000000
# 6 0.000000 0.000000 0.000000 0.000000 0.000000 0.055730
#
#
# Mechanical properties :
#
#
# Convention : Reuss Voigt Hill
#
# Bulk Modulus (GPa) = 32.17586 34.08937 33.13262
# Shear Modulus (GPa) = 19.65298 23.28289 21.46793
#
# Velocity S-wave (km/s) = 3.09750 3.37144 3.23737
# Velocity P-wave (km/s) = 5.33861 5.63895 5.49084
#
# Compressibility (1/GPa) = 0.03107920
#
# Stress axis : x y z
#
# Youngs Moduli (GPa) = 73.89225 80.40626 54.01001
#
# Poissons Ratio (x) = -0.02949 0.04151
# Poissons Ratio (y) = -0.02710 0.34033
# Poissons Ratio (z) = 0.05679 0.50665
#
# Static dielectric constant tensor:
#      x y z
#    x 1.693270 0.000000 0.000000 
#    y 0.000000 1.759360 0.000000 
#    z 0.000000 0.000000 1.773910 
# 
# From -- ./inp_files/10928.got.cif
#   From: 2010.05.17/outbox.cif.g08.bks.cpg/sg54_6_cif.got.tgz:10928.got - 2010.06.03 13:09:01.
