data_PCOD9423262
_publ_section_title
;
Structure prediction by ZEFSAII (Michael W. Deem and Ramdas Pophale) SiO2 
 PCOD9423262
Probable space group: P C C A
;
_chemical_formula_sum "Si O2"
_cell_formula_units_Z 40
_cell_length_a 8.367304
_cell_length_b 9.216908
_cell_length_c 24.299147
_cell_angle_alpha 90.000000
_cell_angle_beta 90.000000
_cell_angle_gamma 90.000000
_cell_volume 1873.966526
_symmetry_space_group_name_H-M "P C C A"
_symmetry_group_IT_number 54
_symmetry_cell_setting 'orthorhombic'
loop_
_space_group_symop_operation_xyz
x,y,z
1/2-x,-y,z
1/2+x,-y,1/2-z
-x,y,1/2-z
-x,-y,-z
1/2+x,y,-z
1/2-x,y,1/2+z
x,-y,1/2+z
loop_
_atom_site_type_symbol
_atom_site_label
_atom_site_fract_x
_atom_site_fract_y
_atom_site_fract_z
Si Si1 0.563056 0.523561 0.439818
Si Si2 0.750000 0.000000 0.482372
Si Si3 0.449329 0.848812 0.425567
Si Si4 0.418074 0.589660 0.838225
Si Si5 0.000000 0.379422 0.250000
Si Si6 0.727051 0.843683 0.192314
O O1 0.750000 0.500000 0.436928
O O2 0.500000 0.500000 0.500000
O O3 0.508816 0.683973 0.422973
O O4 0.480065 0.410821 0.399461
O O5 0.603806 0.943270 0.444522
O O6 0.821051 0.879699 0.525311
O O7 0.368805 0.872028 0.365441
O O8 0.250000 0.500000 0.837397
O O9 0.531690 0.491390 0.799915
O O10 0.387286 0.753586 0.820369
O O11 0.863889 0.269063 0.231406
O O12 0.750000 0.000000 0.218493
#
# Coordination Sequence:
#
# PCOD9423262 Si02
#       6
#     8   4   8   8   4   8
#     4  12  25  38  65 101 139 182 237 281 339 427
#     4  10  24  38  72  94 152 184 216 292 356 420
#     4  11  22  44  63 103 137 187 230 280 355 422
#     4  10  22  44  71  93 135 182 227 295 350 407
#     4  10  22  46  66  98 130 178 236 286 358 412
#     4  11  24  44  73 101 137 179 232 295 353 423
#
# _framework density 21.345099000000001
#
# number of rings (size 3 to 8) (size 9 to 14) (size 15 to 20)
#    0.000    1.200    5.000    1.800    2.800    4.800 
#    1.800    0.000    0.000    0.000    0.000    0.000 
#    0.000    0.000    0.000    0.000    0.000    0.000 
#
# Total GULP energy -223304.954179 kJ/mol
# GULP energy per Si atom -5582.623854 kJ/mol
# Density = 2.129652 g / cm^3
# Si number density = 21.345099 Si / 1000 Ang^3
#
#
#
# Elastic Constant Matrix: (Units=GPa)
#
#
# Indices 1 2 3 4 5 6 
#
# 1 54.3246 43.6738 19.1314 0.0000 0.0000 0.0000
# 2 43.6738 110.3582 17.4704 0.0000 0.0000 0.0000
# 3 19.1314 17.4704 80.7293 0.0000 0.0000 0.0000
# 4 0.0000 0.0000 0.0000 14.6676 0.0000 0.0000
# 5 0.0000 0.0000 0.0000 0.0000 32.2212 0.0000
# 6 0.0000 0.0000 0.0000 0.0000 0.0000 32.2597
#
#
#
# Elastic Compliance Matrix: (Units=1/GPa)
#
#
# Indices 1 2 3 4 5 6 
#
# 1 0.028469 -0.010560 -0.004461 0.000000 0.000000 0.000000
# 2 -0.010560 0.013300 -0.000376 0.000000 0.000000 0.000000
# 3 -0.004461 -0.000376 0.013526 0.000000 0.000000 0.000000
# 4 0.000000 0.000000 0.000000 0.068177 0.000000 0.000000
# 5 0.000000 0.000000 0.000000 0.000000 0.031035 0.000000
# 6 0.000000 0.000000 0.000000 0.000000 0.000000 0.030998
#
#
# Mechanical properties :
#
#
# Convention : Reuss Voigt Hill
#
# Bulk Modulus (GPa) = 40.81600 45.10701 42.96150
# Shear Modulus (GPa) = 22.27503 26.83879 24.55691
#
# Velocity S-wave (km/s) = 3.23393 3.54980 3.39554
# Velocity P-wave (km/s) = 5.75395 6.16275 5.96185
#
# Compressibility (1/GPa) = 0.02450020
#
# Stress axis : x y z
#
# Youngs Moduli (GPa) = 35.12631 75.18803 73.93381
#
# Poissons Ratio (x) = 0.79399 0.32984
# Poissons Ratio (y) = 0.37094 0.02777
# Poissons Ratio (z) = 0.15671 0.02824
#
# Static dielectric constant tensor:
#      x y z
#    x 1.855070 0.000000 0.000000 
#    y 0.000000 1.798810 0.000000 
#    z 0.000000 0.000000 1.791980 
# 
# From -- ./inp_files/23289.got.cif
#   From: 2010.05.17/outbox.cif.g08.bks.cpg/sg54_12_cif.got.tgz:23289.got - 2010.06.03 13:09:01.
