data_PCOD9423155
_publ_section_title
;
Structure prediction by ZEFSAII (Michael W. Deem and Ramdas Pophale) SiO2 
 PCOD9423155
Probable space group: P C C A
;
_chemical_formula_sum "Si O2"
_cell_formula_units_Z 56
_cell_length_a 13.604556
_cell_length_b 15.482847
_cell_length_c 11.583418
_cell_angle_alpha 90.000000
_cell_angle_beta 90.000000
_cell_angle_gamma 90.000000
_cell_volume 2439.899418
_symmetry_space_group_name_H-M "P C C A"
_symmetry_group_IT_number 54
_symmetry_cell_setting 'orthorhombic'
loop_
_space_group_symop_operation_xyz
x,y,z
1/2-x,-y,z
1/2+x,-y,1/2-z
-x,y,1/2-z
-x,-y,-z
1/2+x,y,-z
1/2-x,y,1/2+z
x,-y,1/2+z
loop_
_atom_site_type_symbol
_atom_site_label
_atom_site_fract_x
_atom_site_fract_y
_atom_site_fract_z
Si Si1 0.041628 0.580087 0.127737
Si Si2 0.239970 0.906914 0.440092
Si Si3 0.962134 0.238319 0.959954
Si Si4 0.481249 0.057339 0.381428
Si Si5 0.821703 0.257804 0.433839
Si Si6 0.107190 0.187611 0.300274
Si Si7 0.834898 0.551676 0.998242
O O1 0.068933 0.681244 0.117616
O O2 0.131564 0.517556 0.098107
O O3 0.000000 0.556673 0.250000
O O4 0.942515 0.569146 0.051618
O O5 0.132562 0.914346 0.384380
O O6 0.240897 0.823644 0.522302
O O7 0.324555 0.890542 0.344860
O O8 0.250000 0.000000 0.500889
O O9 0.954650 0.144316 0.902257
O O10 0.911552 0.243030 0.085112
O O11 0.076333 0.246404 0.996214
O O12 0.500000 0.025035 0.250000
O O13 0.500000 0.000000 0.500000
O O14 0.840548 0.241690 0.299180
O O15 0.793319 0.355744 0.459951
O O16 0.000000 0.162806 0.250000
O O17 0.750000 0.500000 0.067354
#
# Coordination Sequence:
#
# PCOD9423155 Si02
#       7
#     8   8   8   8   8   8   8
#     4  10  22  42  69  98 133 179 229 287 358 434
#     4  11  25  41  65 103 137 182 243 294 351 434
#     4   9  20  41  67  94 134 180 229 292 360 431
#     4  11  25  45  68 100 144 189 241 305 370 433
#     4   9  22  43  62  96 138 178 236 287 354 430
#     4  10  22  43  72  99 137 191 235 295 366 437
#     4  10  23  43  64  99 136 176 231 288 352 432
#
# _framework density 22.951765999999999
#
# number of rings (size 3 to 8) (size 9 to 14) (size 15 to 20)
#    0.000    2.000    0.000    1.286    2.000   14.286 
#    7.714    0.000    0.000    0.000    0.000    0.000 
#    0.000    0.000    0.000    0.000    0.000    0.000 
#
# Total GULP energy -312210.407762 kJ/mol
# GULP energy per Si atom -5575.185853 kJ/mol
# Density = 2.289953 g / cm^3
# Si number density = 22.951766 Si / 1000 Ang^3
#
#
#
# Elastic Constant Matrix: (Units=GPa)
#
#
# Indices 1 2 3 4 5 6 
#
# 1 96.8755 23.6935 7.2720 0.0000 0.0000 0.0000
# 2 23.6935 154.0464 13.4661 0.0000 0.0000 0.0000
# 3 7.2720 13.4661 47.0009 0.0000 0.0000 0.0000
# 4 0.0000 0.0000 0.0000 6.8820 0.0000 0.0000
# 5 0.0000 0.0000 0.0000 0.0000 16.7719 0.0000
# 6 0.0000 0.0000 0.0000 0.0000 0.0000 35.3158
#
#
#
# Elastic Compliance Matrix: (Units=1/GPa)
#
#
# Indices 1 2 3 4 5 6 
#
# 1 0.010794 -0.001553 -0.001225 0.000000 0.000000 0.000000
# 2 -0.001553 0.006882 -0.001731 0.000000 0.000000 0.000000
# 3 -0.001225 -0.001731 0.021962 0.000000 0.000000 0.000000
# 4 0.000000 0.000000 0.000000 0.145307 0.000000 0.000000
# 5 0.000000 0.000000 0.000000 0.000000 0.059623 0.000000
# 6 0.000000 0.000000 0.000000 0.000000 0.000000 0.028316
#
#
# Mechanical properties :
#
#
# Convention : Reuss Voigt Hill
#
# Bulk Modulus (GPa) = 32.65986 42.97622 37.81804
# Shear Modulus (GPa) = 17.11685 28.69336 22.90511
#
# Velocity S-wave (km/s) = 2.73385 3.53959 3.16249
# Velocity P-wave (km/s) = 4.92198 5.95569 5.46334
#
# Compressibility (1/GPa) = 0.03061862
#
# Stress axis : x y z
#
# Youngs Moduli (GPa) = 92.64098 145.31112 45.53366
#
# Poissons Ratio (x) = 0.22569 0.05578
# Poissons Ratio (y) = 0.14389 0.07884
# Poissons Ratio (z) = 0.11350 0.25159
#
# Static dielectric constant tensor:
#      x y z
#    x 1.622860 0.000000 0.000000 
#    y 0.000000 1.906140 0.000000 
#    z 0.000000 0.000000 1.851760 
# 
# From -- ./inp_files/8417.got.cif
#   From: 2010.05.17/outbox.cif.g08.bks.cpg/sg54_5_cif.got.tgz:8417.got - 2010.06.03 13:09:01.
