data_PCOD9423695
_publ_section_title
;
Structure prediction by ZEFSAII (Michael W. Deem and Ramdas Pophale) SiO2 
 PCOD9423695
Probable space group: P C C A
;
_chemical_formula_sum "Si O2"
_cell_formula_units_Z 36
_cell_length_a 9.621569
_cell_length_b 18.488493
_cell_length_c 8.790464
_cell_angle_alpha 90.000000
_cell_angle_beta 90.000000
_cell_angle_gamma 90.000000
_cell_volume 1563.720795
_symmetry_space_group_name_H-M "P C C A"
_symmetry_group_IT_number 54
_symmetry_cell_setting 'orthorhombic'
loop_
_space_group_symop_operation_xyz
x,y,z
1/2-x,-y,z
1/2+x,-y,1/2-z
-x,y,1/2-z
-x,-y,-z
1/2+x,y,-z
1/2-x,y,1/2+z
x,-y,1/2+z
loop_
_atom_site_type_symbol
_atom_site_label
_atom_site_fract_x
_atom_site_fract_y
_atom_site_fract_z
Si Si1 0.365125 0.397588 0.581868
Si Si2 0.873090 0.857242 0.363150
Si Si3 0.349310 0.069055 0.819704
Si Si4 0.917662 0.690818 0.409514
Si Si5 0.250000 0.500000 0.829010
O O1 0.496744 0.347867 0.544261
O O2 0.348382 0.451120 0.723870
O O3 0.341992 0.449186 0.436185
O O4 0.232014 0.345696 0.596327
O O5 0.866308 0.910762 0.504700
O O6 0.731173 0.866549 0.268422
O O7 0.000000 0.873881 0.250000
O O8 0.898230 0.776587 0.425429
O O9 0.500000 0.056728 0.750000
O O10 0.250000 0.000000 0.803499
O O11 0.000000 0.679889 0.250000
#
# Coordination Sequence:
#
# PCOD9423695 Si02
#       5
#     8   8   8   8   4
#     4  11  24  45  69 103 144 186 245 307 365 446
#     4  11  27  48  75 112 153 200 258 304 376 448
#     4  12  27  49  80 114 155 202 249 312 369 440
#     4  11  26  46  70 107 147 193 246 305 368 447
#     4  10  24  42  74 106 134 196 242 300 378 440
#
# _framework density 23.022015
#
# number of rings (size 3 to 8) (size 9 to 14) (size 15 to 20)
#    0.000    0.889    2.222    2.667    9.333    8.889 
#    0.000    1.111    0.000    0.000    0.000    0.000 
#    0.000    0.000    0.000    0.000    0.000    0.000 
#
# Total GULP energy -201829.856601 kJ/mol
# GULP energy per Si atom -5606.384906 kJ/mol
# Density = 2.296962 g / cm^3
# Si number density = 23.022015 Si / 1000 Ang^3
#
#
#
# Elastic Constant Matrix: (Units=GPa)
#
#
# Indices 1 2 3 4 5 6 
#
# 1 143.9057 52.9002 42.5711 0.0000 0.0000 0.0000
# 2 52.9002 102.8358 47.7542 0.0000 0.0000 0.0000
# 3 42.5711 47.7542 125.2661 0.0000 0.0000 0.0000
# 4 0.0000 0.0000 0.0000 57.3685 0.0000 0.0000
# 5 0.0000 0.0000 0.0000 0.0000 34.8756 0.0000
# 6 0.0000 0.0000 0.0000 0.0000 0.0000 9.0499
#
#
#
# Elastic Compliance Matrix: (Units=1/GPa)
#
#
# Indices 1 2 3 4 5 6 
#
# 1 0.008807 -0.003816 -0.001538 0.000000 0.000000 0.000000
# 2 -0.003816 0.013470 -0.003838 0.000000 0.000000 0.000000
# 3 -0.001538 -0.003838 0.009969 0.000000 0.000000 0.000000
# 4 0.000000 0.000000 0.000000 0.017431 0.000000 0.000000
# 5 0.000000 0.000000 0.000000 0.000000 0.028673 0.000000
# 6 0.000000 0.000000 0.000000 0.000000 0.000000 0.110498
#
#
# Mechanical properties :
#
#
# Convention : Reuss Voigt Hill
#
# Bulk Modulus (GPa) = 72.14632 73.16207 72.65420
# Shear Modulus (GPa) = 23.60128 35.51094 29.55611
#
# Velocity S-wave (km/s) = 3.20529 3.93170 3.58693
# Velocity P-wave (km/s) = 6.71599 7.24287 6.98440
#
# Compressibility (1/GPa) = 0.01386072
#
# Stress axis : x y z
#
# Youngs Moduli (GPa) = 113.54820 74.24156 100.31206
#
# Poissons Ratio (x) = 0.28331 0.15430
# Poissons Ratio (y) = 0.43331 0.38500
# Poissons Ratio (z) = 0.17466 0.28494
#
# Static dielectric constant tensor:
#      x y z
#    x 1.857270 0.000000 0.000000 
#    y 0.000000 -6.011640 0.000000 
#    z 0.000000 0.000000 1.871060 
# 
# From -- ./inp_files/2479.got.cif
#   From: 2010.05.17/outbox.cif.g08.bks.cpg/sg54_2_cif.got.tgz:2479.got - 2010.06.03 13:09:01.
