data_PCOD9423680
_publ_section_title
;
Structure prediction by ZEFSAII (Michael W. Deem and Ramdas Pophale) SiO2 
 PCOD9423680
Probable space group: P C C A
;
_chemical_formula_sum "Si O2"
_cell_formula_units_Z 28
_cell_length_a 26.369176
_cell_length_b 5.041943
_cell_length_c 8.820279
_cell_angle_alpha 90.000000
_cell_angle_beta 90.000000
_cell_angle_gamma 90.000000
_cell_volume 1172.672696
_symmetry_space_group_name_H-M "P C C A"
_symmetry_group_IT_number 54
_symmetry_cell_setting 'orthorhombic'
loop_
_space_group_symop_operation_xyz
x,y,z
1/2-x,-y,z
1/2+x,-y,1/2-z
-x,y,1/2-z
-x,-y,-z
1/2+x,y,-z
1/2-x,y,1/2+z
x,-y,1/2+z
loop_
_atom_site_type_symbol
_atom_site_label
_atom_site_fract_x
_atom_site_fract_y
_atom_site_fract_z
Si Si1 0.840497 0.140245 0.097829
Si Si2 0.548588 0.182603 0.505353
Si Si3 0.000000 0.560617 0.250000
Si Si4 0.694209 0.626670 0.775910
O O1 0.840343 0.378761 0.221290
O O2 0.813440 0.879505 0.164864
O O3 0.897802 0.067227 0.050740
O O4 0.816026 0.264824 0.945305
O O5 0.545590 0.290294 0.335507
O O6 0.530953 0.397530 0.626471
O O7 0.500000 0.000000 0.500000
O O8 0.750000 0.500000 0.766817
#
# Coordination Sequence:
#
# PCOD9423680 Si02
#       4
#     8   8   4   8
#     4  12  28  48  83 112 156 204 257 315 399 456
#     4  11  25  42  72 107 155 196 251 301 374 456
#     4  10  24  42  68 104 160 196 246 302 366 440
#     4  12  28  52  79 114 149 199 263 327 387 461
#
# _framework density 23.877078999999998
#
# number of rings (size 3 to 8) (size 9 to 14) (size 15 to 20)
#    0.000    0.571    0.000    6.000   16.000    2.286 
#    0.000    1.429    0.000    0.000    0.000    0.000 
#    0.000    0.000    0.000    0.000    0.000    0.000 
#
# Total GULP energy -156661.616787 kJ/mol
# GULP energy per Si atom -5595.057742 kJ/mol
# Density = 2.382273 g / cm^3
# Si number density = 23.877079 Si / 1000 Ang^3
#
#
#
# Elastic Constant Matrix: (Units=GPa)
#
#
# Indices 1 2 3 4 5 6 
#
# 1 120.5818 40.7751 25.8937 0.0000 0.0000 0.0000
# 2 40.7751 138.6604 53.0665 0.0000 0.0000 0.0000
# 3 25.8937 53.0665 113.2853 0.0000 0.0000 0.0000
# 4 0.0000 0.0000 0.0000 -28.6907 0.0000 0.0000
# 5 0.0000 0.0000 0.0000 0.0000 29.6690 0.0000
# 6 0.0000 0.0000 0.0000 0.0000 0.0000 37.9660
#
#
#
# Elastic Compliance Matrix: (Units=1/GPa)
#
#
# Indices 1 2 3 4 5 6 
#
# 1 0.009306 -0.002343 -0.001030 0.000000 0.000000 0.000000
# 2 -0.002343 0.009377 -0.003857 0.000000 0.000000 0.000000
# 3 -0.001030 -0.003857 0.010869 0.000000 0.000000 0.000000
# 4 0.000000 0.000000 0.000000 -0.034855 0.000000 0.000000
# 5 0.000000 0.000000 0.000000 0.000000 0.033705 0.000000
# 6 0.000000 0.000000 0.000000 0.000000 0.000000 0.026339
#
#
# Mechanical properties :
#
#
# Convention : Reuss Voigt Hill
#
# Bulk Modulus (GPa) = 66.25196 67.99978 67.12587
# Shear Modulus (GPa) = 67.35578 24.64169 45.99874
#
# Velocity S-wave (km/s) = 5.31701 3.21600 4.39393
# Velocity P-wave (km/s) = 8.09330 6.50624 7.34277
#
# Compressibility (1/GPa) = 0.01509389
#
# Stress axis : x y z
#
# Youngs Moduli (GPa) = 107.45277 106.64592 92.00149
#
# Poissons Ratio (x) = 0.24982 0.09475
# Poissons Ratio (y) = 0.25171 0.35485
# Poissons Ratio (z) = 0.11066 0.41133
#
# Static dielectric constant tensor:
#      x y z
#    x 6.971870 0.000000 0.000000 
#    y 0.000000 1.732350 0.000000 
#    z 0.000000 0.000000 2.064470 
# 
# From -- ./inp_files/5361.got.cif
#   From: 2010.05.17/outbox.cif.g08.bks.cpg/sg54_3_cif.got.tgz:5361.got - 2010.06.03 13:09:01.
