data_PCOD9423958
_publ_section_title
;
Structure prediction by ZEFSAII (Michael W. Deem and Ramdas Pophale) SiO2 
 PCOD9423958
Probable space group: P C C A
;
_chemical_formula_sum "Si O2"
_cell_formula_units_Z 48
_cell_length_a 9.019799
_cell_length_b 11.227368
_cell_length_c 21.543527
_cell_angle_alpha 90.000000
_cell_angle_beta 90.000000
_cell_angle_gamma 90.000000
_cell_volume 2181.682876
_symmetry_space_group_name_H-M "P C C A"
_symmetry_group_IT_number 54
_symmetry_cell_setting 'orthorhombic'
loop_
_space_group_symop_operation_xyz
x,y,z
1/2-x,-y,z
1/2+x,-y,1/2-z
-x,y,1/2-z
-x,-y,-z
1/2+x,y,-z
1/2-x,y,1/2+z
x,-y,1/2+z
loop_
_atom_site_type_symbol
_atom_site_label
_atom_site_fract_x
_atom_site_fract_y
_atom_site_fract_z
Si Si1 0.845403 0.280052 0.472978
Si Si2 0.148021 0.115786 0.789792
Si Si3 0.872065 0.604296 0.564934
Si Si4 0.873954 0.907993 0.874267
Si Si5 0.601034 0.076133 0.066650
Si Si6 0.910147 0.264768 0.195683
O O1 0.703119 0.319283 0.510667
O O2 0.809447 0.205299 0.410971
O O3 0.919460 0.184903 0.520215
O O4 0.954231 0.390731 0.456154
O O5 0.117370 0.125486 0.863270
O O6 0.255695 0.224621 0.774560
O O7 0.000000 0.112140 0.750000
O O8 0.250000 0.000000 0.782590
O O9 0.750000 0.500000 0.571640
O O10 0.880860 0.666754 0.632098
O O11 0.990904 0.851365 0.825630
O O12 0.750000 0.000000 0.850631
O O13 0.966413 0.984649 0.924709
O O14 0.750000 0.000000 0.052019
O O15 0.000000 0.329206 0.250000
#
# Coordination Sequence:
#
# PCOD9423958 Si02
#       6
#     8   8   8   8   8   8
#     4  11  21  40  64  93 124 164 203 257 316 377
#     4  11  22  36  59  86 128 172 211 250 300 378
#     4  11  24  45  68  89 118 159 214 280 329 369
#     4  11  22  34  59  95 131 168 198 242 301 387
#     4  11  19  35  56  90 132 169 199 240 304 377
#     4  11  24  42  61  89 127 168 214 261 322 376
#
# _framework density 22.001365
#
# number of rings (size 3 to 8) (size 9 to 14) (size 15 to 20)
#    0.000    1.000    5.000    4.000    2.333    0.000 
#    0.000    0.833    0.000    4.000    0.000    0.000 
#    0.000    0.000    0.000    0.000    0.000    0.000 
#
# Total GULP energy -267962.919624 kJ/mol
# GULP energy per Si atom -5582.560825 kJ/mol
# Density = 2.195129 g / cm^3
# Si number density = 22.001365 Si / 1000 Ang^3
#
#
#
# Elastic Constant Matrix: (Units=GPa)
#
#
# Indices 1 2 3 4 5 6 
#
# 1 107.3315 25.8265 48.3305 0.0000 0.0000 0.0000
# 2 25.8265 42.0691 17.2365 0.0000 0.0000 0.0000
# 3 48.3305 17.2365 86.4891 0.0000 0.0000 0.0000
# 4 0.0000 0.0000 0.0000 -46.8832 0.0000 0.0000
# 5 0.0000 0.0000 0.0000 0.0000 43.6028 0.0000
# 6 0.0000 0.0000 0.0000 0.0000 0.0000 33.4497
#
#
#
# Elastic Compliance Matrix: (Units=1/GPa)
#
#
# Indices 1 2 3 4 5 6 
#
# 1 0.013599 -0.005700 -0.006463 0.000000 0.000000 0.000000
# 2 -0.005700 0.028273 -0.002449 0.000000 0.000000 0.000000
# 3 -0.006463 -0.002449 0.015662 0.000000 0.000000 0.000000
# 4 0.000000 0.000000 0.000000 -0.021330 0.000000 0.000000
# 5 0.000000 0.000000 0.000000 0.000000 0.022934 0.000000
# 6 0.000000 0.000000 0.000000 0.000000 0.000000 0.029896
#
#
# Mechanical properties :
#
#
# Convention : Reuss Voigt Hill
#
# Bulk Modulus (GPa) = 35.32479 46.51964 40.92222
# Shear Modulus (GPa) = 39.15550 15.66695 27.41122
#
# Velocity S-wave (km/s) = 4.22321 2.67140 3.53354
# Velocity P-wave (km/s) = 6.31437 5.54121 5.94038
#
# Compressibility (1/GPa) = 0.02830873
#
# Stress axis : x y z
#
# Youngs Moduli (GPa) = 73.53571 35.36897 63.84942
#
# Poissons Ratio (x) = 0.20162 0.41266
# Poissons Ratio (y) = 0.41918 0.15638
# Poissons Ratio (z) = 0.47527 0.08663
#
# Static dielectric constant tensor:
#      x y z
#    x 2.004140 0.000000 0.000000 
#    y 0.000000 1.842680 0.000000 
#    z 0.000000 0.000000 1.849000 
# 
# From -- ./inp_files/23513.got.cif
#   From: 2010.05.17/outbox.cif.g08.bks.cpg/sg54_12_cif.got.tgz:23513.got - 2010.06.03 13:09:01.
