data_PCOD9423931
_publ_section_title
;
Structure prediction by ZEFSAII (Michael W. Deem and Ramdas Pophale) SiO2 
 PCOD9423931
Probable space group: P C C A
;
_chemical_formula_sum "Si O2"
_cell_formula_units_Z 32
_cell_length_a 15.432998
_cell_length_b 10.875366
_cell_length_c 9.029251
_cell_angle_alpha 90.000000
_cell_angle_beta 90.000000
_cell_angle_gamma 90.000000
_cell_volume 1515.464989
_symmetry_space_group_name_H-M "P C C A"
_symmetry_group_IT_number 54
_symmetry_cell_setting 'orthorhombic'
loop_
_space_group_symop_operation_xyz
x,y,z
1/2-x,-y,z
1/2+x,-y,1/2-z
-x,y,1/2-z
-x,-y,-z
1/2+x,y,-z
1/2-x,y,1/2+z
x,-y,1/2+z
loop_
_atom_site_type_symbol
_atom_site_label
_atom_site_fract_x
_atom_site_fract_y
_atom_site_fract_z
Si Si1 0.250000 0.000000 0.080021
Si Si2 0.500000 0.730616 0.250000
Si Si3 0.305406 0.619300 0.766904
Si Si4 0.593386 0.455557 0.953636
Si Si5 0.671197 0.840379 0.177980
O O1 0.179703 0.061179 0.188979
O O2 0.291869 0.100895 0.972115
O O3 0.430203 0.642760 0.170964
O O4 0.569777 0.807392 0.155805
O O5 0.250000 0.500000 0.802705
O O6 0.353026 0.571639 0.615444
O O7 0.240476 0.734155 0.771886
O O8 0.368466 0.618855 0.907612
O O9 0.500000 0.500000 0.000000
#
# Coordination Sequence:
#
# PCOD9423931 Si02
#       5
#     4   4   8   8   8
#     4  10  26  50  70  92 130 188 242 266 342 392
#     4  12  24  40  70 100 144 164 232 286 336 404
#     4  12  24  40  70 101 141 179 217 273 357 410
#     4  12  23  40  61 108 144 174 213 270 349 422
#     4  11  25  46  71  98 133 184 227 288 327 408
#
# _framework density 21.115629999999999
#
# number of rings (size 3 to 8) (size 9 to 14) (size 15 to 20)
#    0.000    0.500    5.000    2.250    7.000    1.000 
#    0.000    0.000    0.000    0.000    0.000    0.000 
#    0.000    0.000    0.000    0.000    0.000    0.000 
#
# Total GULP energy -178305.332076 kJ/mol
# GULP energy per Si atom -5572.041627 kJ/mol
# Density = 2.106757 g / cm^3
# Si number density = 21.115630 Si / 1000 Ang^3
#
#
#
# Elastic Constant Matrix: (Units=GPa)
#
#
# Indices 1 2 3 4 5 6 
#
# 1 105.9567 23.4538 19.6415 0.0000 0.0000 0.0000
# 2 23.4538 67.0548 14.7514 0.0000 0.0000 0.0000
# 3 19.6415 14.7514 82.1501 0.0000 0.0000 0.0000
# 4 0.0000 0.0000 0.0000 -366.4383 0.0000 0.0000
# 5 0.0000 0.0000 0.0000 0.0000 24.2665 0.0000
# 6 0.0000 0.0000 0.0000 0.0000 0.0000 8.0750
#
#
#
# Elastic Compliance Matrix: (Units=1/GPa)
#
#
# Indices 1 2 3 4 5 6 
#
# 1 0.010516 -0.003254 -0.001930 0.000000 0.000000 0.000000
# 2 -0.003254 0.016533 -0.002191 0.000000 0.000000 0.000000
# 3 -0.001930 -0.002191 0.013028 0.000000 0.000000 0.000000
# 4 0.000000 0.000000 0.000000 -0.002729 0.000000 0.000000
# 5 0.000000 0.000000 0.000000 0.000000 0.041209 0.000000
# 6 0.000000 0.000000 0.000000 0.000000 0.000000 0.123838
#
#
# Mechanical properties :
#
#
# Convention : Reuss Voigt Hill
#
# Bulk Modulus (GPa) = 39.48240 41.20608 40.34424
# Shear Modulus (GPa) = 22.16446 -53.66502 -15.75028
#
# Velocity S-wave (km/s) = 3.24338 -5.04678 -2.73409
# Velocity P-wave (km/s) = 5.72405 3.79515 3.02998
#
# Compressibility (1/GPa) = 0.02532774
#
# Stress axis : x y z
#
# Youngs Moduli (GPa) = 95.09533 60.48455 76.75947
#
# Poissons Ratio (x) = 0.19679 0.14815
# Poissons Ratio (y) = 0.30939 0.16817
# Poissons Ratio (z) = 0.18354 0.13252
#
# Static dielectric constant tensor:
#      x y z
#    x 1.841440 0.000000 0.000000 
#    y 0.000000 2.006100 0.000000 
#    z 0.000000 0.000000 0.207000 
# 
# From -- ./inp_files/3270.got.cif
#   From: 2010.05.17/outbox.cif.g08.bks.cpg/sg54_2_cif.got.tgz:3270.got - 2010.06.03 13:09:01.
