data_PCOD9423760
_publ_section_title
;
Structure prediction by ZEFSAII (Michael W. Deem and Ramdas Pophale) SiO2 
 PCOD9423760
Probable space group: P C C A
;
_chemical_formula_sum "Si O2"
_cell_formula_units_Z 28
_cell_length_a 9.067725
_cell_length_b 7.636327
_cell_length_c 15.858674
_cell_angle_alpha 90.000000
_cell_angle_beta 90.000000
_cell_angle_gamma 90.000000
_cell_volume 1098.119818
_symmetry_space_group_name_H-M "P C C A"
_symmetry_group_IT_number 54
_symmetry_cell_setting 'orthorhombic'
loop_
_space_group_symop_operation_xyz
x,y,z
1/2-x,-y,z
1/2+x,-y,1/2-z
-x,y,1/2-z
-x,-y,-z
1/2+x,y,-z
1/2-x,y,1/2+z
x,-y,1/2+z
loop_
_atom_site_type_symbol
_atom_site_label
_atom_site_fract_x
_atom_site_fract_y
_atom_site_fract_z
Si Si1 0.329007 0.192017 0.229811
Si Si2 0.250000 0.000000 0.946553
Si Si3 0.814270 0.671565 0.938216
Si Si4 0.914641 0.251616 0.161085
O O1 0.500000 0.182226 0.250000
O O2 0.289983 0.286418 0.142444
O O3 0.248525 0.295369 0.306262
O O4 0.250000 0.000000 0.223698
O O5 0.383526 0.071341 0.889176
O O6 0.194874 0.160657 0.002510
O O7 0.750000 0.500000 0.981163
O O8 0.977485 0.643867 0.900148
O O9 0.000000 0.235713 0.250000
#
# Coordination Sequence:
#
# PCOD9423760 Si02
#       4
#     8   4   8   8
#     4  11  22  41  75 110 143 200 261 311 379 453
#     4  12  24  42  80 102 150 198 248 320 394 454
#     4  11  26  46  70 109 154 195 253 315 388 462
#     4  10  24  44  75 108 144 202 264 309 383 463
#
# _framework density 25.498128999999999
#
# number of rings (size 3 to 8) (size 9 to 14) (size 15 to 20)
#    0.000    1.143    2.857    3.429    0.000    6.857 
#    0.000    5.714    0.000    0.000    0.000    0.000 
#    0.000    0.000    0.000    0.000    0.000    0.000 
#
# Total GULP energy -156692.937640 kJ/mol
# GULP energy per Si atom -5596.176344 kJ/mol
# Density = 2.544009 g / cm^3
# Si number density = 25.498129 Si / 1000 Ang^3
#
#
#
# Elastic Constant Matrix: (Units=GPa)
#
#
# Indices 1 2 3 4 5 6 
#
# 1 185.2248 20.7050 29.9410 0.0000 0.0000 0.0000
# 2 20.7050 97.2602 21.0027 0.0000 0.0000 0.0000
# 3 29.9410 21.0027 107.6816 0.0000 0.0000 0.0000
# 4 0.0000 0.0000 0.0000 -14.5941 0.0000 0.0000
# 5 0.0000 0.0000 0.0000 0.0000 26.1137 0.0000
# 6 0.0000 0.0000 0.0000 0.0000 0.0000 32.3577
#
#
#
# Elastic Compliance Matrix: (Units=1/GPa)
#
#
# Indices 1 2 3 4 5 6 
#
# 1 0.005730 -0.000914 -0.001415 0.000000 0.000000 0.000000
# 2 -0.000914 0.010880 -0.001868 0.000000 0.000000 0.000000
# 3 -0.001415 -0.001868 0.010044 0.000000 0.000000 0.000000
# 4 0.000000 0.000000 0.000000 -0.068521 0.000000 0.000000
# 5 0.000000 0.000000 0.000000 0.000000 0.038294 0.000000
# 6 0.000000 0.000000 0.000000 0.000000 0.000000 0.030905
#
#
# Mechanical properties :
#
#
# Convention : Reuss Voigt Hill
#
# Bulk Modulus (GPa) = 54.76463 59.27378 57.01920
# Shear Modulus (GPa) = 119.58228 30.00997 74.79613
#
# Velocity S-wave (km/s) = 6.85567 3.43439 5.42196
# Velocity P-wave (km/s) = 9.17560 6.24688 7.84905
#
# Compressibility (1/GPa) = 0.01825996
#
# Stress axis : x y z
#
# Youngs Moduli (GPa) = 174.52776 91.91461 99.55857
#
# Poissons Ratio (x) = 0.08403 0.14086
# Poissons Ratio (y) = 0.15956 0.18596
# Poissons Ratio (z) = 0.24693 0.17168
#
# Static dielectric constant tensor:
#      x y z
#    x 2.039490 0.000000 0.000000 
#    y 0.000000 2.098380 0.000000 
#    z 0.000000 0.000000 2.024880 
# 
# From -- ./inp_files/16121.got.cif
#   From: 2010.05.17/outbox.cif.g08.bks.cpg/sg54_9_cif.got.tgz:16121.got - 2010.06.03 13:09:01.
