data_PCOD9423592
_publ_section_title
;
Structure prediction by ZEFSAII (Michael W. Deem and Ramdas Pophale) SiO2 
 PCOD9423592
Probable space group: P C C A
;
_chemical_formula_sum "Si O2"
_cell_formula_units_Z 32
_cell_length_a 8.098527
_cell_length_b 5.168233
_cell_length_c 28.961426
_cell_angle_alpha 90.000000
_cell_angle_beta 90.000000
_cell_angle_gamma 90.000000
_cell_volume 1212.182643
_symmetry_space_group_name_H-M "P C C A"
_symmetry_group_IT_number 54
_symmetry_cell_setting 'orthorhombic'
loop_
_space_group_symop_operation_xyz
x,y,z
1/2-x,-y,z
1/2+x,-y,1/2-z
-x,y,1/2-z
-x,-y,-z
1/2+x,y,-z
1/2-x,y,1/2+z
x,-y,1/2+z
loop_
_atom_site_type_symbol
_atom_site_label
_atom_site_fract_x
_atom_site_fract_y
_atom_site_fract_z
Si Si1 0.516105 0.650401 0.593535
Si Si2 0.023524 0.351993 0.183157
Si Si3 0.250000 0.500000 0.982235
Si Si4 0.750000 0.000000 0.453349
Si Si5 0.250000 0.500000 0.754970
Si Si6 0.750000 0.000000 0.148357
O O1 0.437902 0.470437 0.633204
O O2 0.587042 0.492403 0.550163
O O3 0.396831 0.884564 0.578236
O O4 0.677357 0.778681 0.615946
O O5 0.902203 0.551834 0.210713
O O6 0.174448 0.300268 0.217537
O O7 0.902589 0.112336 0.176582
O O8 0.275029 0.754851 0.013022
#
# Coordination Sequence:
#
# PCOD9423592 Si02
#       6
#     8   8   4   4   4   4
#     4  12  26  47  72 107 152 201 253 324 410 474
#     4  11  24  48  73 107 153 203 253 333 396 490
#     4  12  25  51  74 112 154 202 262 339 395 478
#     4  12  31  44  79 114 148 204 272 327 390 487
#     4  10  23  49  70 108 154 192 264 323 397 482
#     4  12  23  46  73 104 146 210 246 319 404 479
#
# _framework density 26.398662000000002
#
# number of rings (size 3 to 8) (size 9 to 14) (size 15 to 20)
#    0.000    0.500    5.000    2.250    7.000    0.000 
#    9.000    0.000    0.000    0.000    0.000    0.000 
#    0.000    0.000    0.000    0.000    0.000    0.000 
#
# Total GULP energy -179040.882800 kJ/mol
# GULP energy per Si atom -5595.027588 kJ/mol
# Density = 2.633858 g / cm^3
# Si number density = 26.398662 Si / 1000 Ang^3
#
#
#
# Elastic Constant Matrix: (Units=GPa)
#
#
# Indices 1 2 3 4 5 6 
#
# 1 89.7599 52.4459 43.2023 0.0000 0.0000 0.0000
# 2 52.4459 158.6308 77.1775 0.0000 0.0000 0.0000
# 3 43.2023 77.1775 162.9470 0.0000 0.0000 0.0000
# 4 0.0000 0.0000 0.0000 -50.0606 0.0000 0.0000
# 5 0.0000 0.0000 0.0000 0.0000 48.1926 0.0000
# 6 0.0000 0.0000 0.0000 0.0000 0.0000 50.5608
#
#
#
# Elastic Compliance Matrix: (Units=1/GPa)
#
#
# Indices 1 2 3 4 5 6 
#
# 1 0.014301 -0.003747 -0.002017 0.000000 0.000000 0.000000
# 2 -0.003747 0.009173 -0.003351 0.000000 0.000000 0.000000
# 3 -0.002017 -0.003351 0.008259 0.000000 0.000000 0.000000
# 4 0.000000 0.000000 0.000000 -0.019976 0.000000 0.000000
# 5 0.000000 0.000000 0.000000 0.000000 0.020750 0.000000
# 6 0.000000 0.000000 0.000000 0.000000 0.000000 0.019778
#
#
# Mechanical properties :
#
#
# Convention : Reuss Voigt Hill
#
# Bulk Modulus (GPa) = 74.05855 84.10991 79.08423
# Shear Modulus (GPa) = 66.65178 25.63936 46.14557
#
# Velocity S-wave (km/s) = 5.03021 3.11985 4.18548
# Velocity P-wave (km/s) = 7.86461 6.70138 7.30618
#
# Compressibility (1/GPa) = 0.01350283
#
# Stress axis : x y z
#
# Youngs Moduli (GPa) = 69.92604 109.01315 121.07914
#
# Poissons Ratio (x) = 0.40845 0.24422
# Poissons Ratio (y) = 0.26200 0.40578
# Poissons Ratio (z) = 0.14104 0.36534
#
# Static dielectric constant tensor:
#      x y z
#    x 2.122280 0.000000 0.000000 
#    y 0.000000 2.075480 0.000000 
#    z 0.000000 0.000000 2.126960 
# 
# From -- ./inp_files/27473.got.cif
#   From: 2010.05.17/outbox.cif.g08.bks.cpg/sg54_14_cif.got.tgz:27473.got - 2010.06.03 13:09:01.
