data_PCOD9423208
_publ_section_title
;
Structure prediction by ZEFSAII (Michael W. Deem and Ramdas Pophale) SiO2 
 PCOD9423208
Probable space group: P C C A
;
_chemical_formula_sum "Si O2"
_cell_formula_units_Z 32
_cell_length_a 20.651243
_cell_length_b 5.214986
_cell_length_c 12.022587
_cell_angle_alpha 90.000000
_cell_angle_beta 90.000000
_cell_angle_gamma 90.000000
_cell_volume 1294.783846
_symmetry_space_group_name_H-M "P C C A"
_symmetry_group_IT_number 54
_symmetry_cell_setting 'orthorhombic'
loop_
_space_group_symop_operation_xyz
x,y,z
1/2-x,-y,z
1/2+x,-y,1/2-z
-x,y,1/2-z
-x,-y,-z
1/2+x,y,-z
1/2-x,y,1/2+z
x,-y,1/2+z
loop_
_atom_site_type_symbol
_atom_site_label
_atom_site_fract_x
_atom_site_fract_y
_atom_site_fract_z
Si Si1 0.278211 0.259784 0.880080
Si Si2 0.415900 0.567055 0.445066
Si Si3 0.898671 0.051435 0.411579
Si Si4 0.500000 0.713739 0.250000
Si Si5 0.750000 0.000000 0.333987
O O1 0.250000 0.500000 0.945072
O O2 0.353103 0.316164 0.882962
O O3 0.251942 0.235031 0.755036
O O4 0.250000 0.000000 0.930673
O O5 0.597587 0.702783 0.494781
O O6 0.470400 0.552017 0.351415
O O7 0.428176 0.797049 0.531986
O O8 0.942492 0.120651 0.305276
O O9 0.823131 0.998302 0.382812
#
# Coordination Sequence:
#
# PCOD9423208 Si02
#       5
#     8   8   8   4   4
#     4  10  22  43  70 105 148 197 241 309 384 438
#     4  12  28  47  77 115 148 207 260 316 388 468
#     4  12  29  46  79 114 152 204 264 317 390 470
#     4  12  26  58  74 112 164 204 262 324 392 466
#     4  10  26  46  74 112 150 204 246 324 390 446
#
# _framework density 24.714551
#
# number of rings (size 3 to 8) (size 9 to 14) (size 15 to 20)
#    0.750    0.000    2.500    3.000    8.750    4.000 
#    0.000    0.000    0.000    0.000    0.000    0.000 
#    0.000    0.000    0.000    0.000    0.000    0.000 
#
# Total GULP energy -178697.220704 kJ/mol
# GULP energy per Si atom -5584.288147 kJ/mol
# Density = 2.465830 g / cm^3
# Si number density = 24.714551 Si / 1000 Ang^3
#
#
#
# Elastic Constant Matrix: (Units=GPa)
#
#
# Indices 1 2 3 4 5 6 
#
# 1 193.8612 55.6498 94.7003 0.0000 0.0000 0.0000
# 2 55.6498 177.0152 48.1151 0.0000 0.0000 0.0000
# 3 94.7003 48.1151 121.5315 0.0000 0.0000 0.0000
# 4 0.0000 0.0000 0.0000 -196.9318 0.0000 0.0000
# 5 0.0000 0.0000 0.0000 0.0000 87.6954 0.0000
# 6 0.0000 0.0000 0.0000 0.0000 0.0000 24.9273
#
#
#
# Elastic Compliance Matrix: (Units=1/GPa)
#
#
# Indices 1 2 3 4 5 6 
#
# 1 0.008476 -0.000974 -0.006219 0.000000 0.000000 0.000000
# 2 -0.000974 0.006442 -0.001791 0.000000 0.000000 0.000000
# 3 -0.006219 -0.001791 0.013784 0.000000 0.000000 0.000000
# 4 0.000000 0.000000 0.000000 -0.005078 0.000000 0.000000
# 5 0.000000 0.000000 0.000000 0.000000 0.011403 0.000000
# 6 0.000000 0.000000 0.000000 0.000000 0.000000 0.040117
#
#
# Mechanical properties :
#
#
# Convention : Reuss Voigt Hill
#
# Bulk Modulus (GPa) = 93.17389 98.81537 95.99463
# Shear Modulus (GPa) = 51.71138 2.73436 27.22287
#
# Velocity S-wave (km/s) = 4.57918 1.05298 3.32247
# Velocity P-wave (km/s) = 8.10804 6.44576 7.32421
#
# Compressibility (1/GPa) = 0.01073262
#
# Stress axis : x y z
#
# Youngs Moduli (GPa) = 117.98128 155.22028 72.55049
#
# Poissons Ratio (x) = 0.15123 0.45119
# Poissons Ratio (y) = 0.11494 0.12997
# Poissons Ratio (z) = 0.73372 0.27807
#
# Static dielectric constant tensor:
#      x y z
#    x 1.710900 0.000000 0.000000 
#    y 0.000000 2.215210 0.000000 
#    z 0.000000 0.000000 2.081090 
# 
# From -- ./inp_files/13814.got.cif
#   From: 2010.05.17/outbox.cif.g08.bks.cpg/sg54_7_cif.got.tgz:13814.got - 2010.06.03 13:09:01.
