data_PCOD9423619
_publ_section_title
;
Structure prediction by ZEFSAII (Michael W. Deem and Ramdas Pophale) SiO2 
 PCOD9423619
Probable space group: P C C A
;
_chemical_formula_sum "Si O2"
_cell_formula_units_Z 40
_cell_length_a 10.332232
_cell_length_b 12.659225
_cell_length_c 15.736668
_cell_angle_alpha 90.000000
_cell_angle_beta 90.000000
_cell_angle_gamma 90.000000
_cell_volume 2058.325482
_symmetry_space_group_name_H-M "P C C A"
_symmetry_group_IT_number 54
_symmetry_cell_setting 'orthorhombic'
loop_
_space_group_symop_operation_xyz
x,y,z
1/2-x,-y,z
1/2+x,-y,1/2-z
-x,y,1/2-z
-x,-y,-z
1/2+x,y,-z
1/2-x,y,1/2+z
x,-y,1/2+z
loop_
_atom_site_type_symbol
_atom_site_label
_atom_site_fract_x
_atom_site_fract_y
_atom_site_fract_z
Si Si1 0.226363 0.739814 0.422457
Si Si2 0.224087 0.623952 0.599565
Si Si3 0.008075 0.767952 0.649664
Si Si4 0.377671 0.070919 0.523031
Si Si5 0.146826 0.595715 0.268094
O O1 0.253991 0.677841 0.510199
O O2 0.364436 0.773264 0.386267
O O3 0.145184 0.842004 0.449613
O O4 0.157274 0.667230 0.352022
O O5 0.250000 0.500000 0.590925
O O6 0.077921 0.658911 0.621802
O O7 0.306341 0.657110 0.682806
O O8 0.091727 0.861076 0.607273
O O9 0.000000 0.773982 0.750000
O O10 0.250000 0.000000 0.531844
O O11 0.500000 0.000000 0.500000
O O12 0.250000 0.500000 0.278182
O O13 0.000000 0.559898 0.250000
#
# Coordination Sequence:
#
# PCOD9423619 Si02
#       5
#     8   8   8   8   8
#     4  11  24  43  70  96 139 177 225 284 340 402
#     4  10  24  39  64  99 138 182 224 266 331 399
#     4  11  23  44  68  99 138 175 222 285 341 400
#     4  11  24  47  72  97 130 172 226 286 350 411
#     4  11  26  43  66 100 141 183 230 273 330 402
#
# _framework density 19.433271999999999
#
# number of rings (size 3 to 8) (size 9 to 14) (size 15 to 20)
#    0.000    1.200    4.000    0.600   11.200    0.800 
#    3.600    0.000    0.000    0.000    0.000    0.000 
#    0.000    0.000    0.000    0.000    0.000    0.000 
#
# Total GULP energy -223426.968083 kJ/mol
# GULP energy per Si atom -5585.674202 kJ/mol
# Density = 1.938904 g / cm^3
# Si number density = 19.433272 Si / 1000 Ang^3
#
#
#
# Elastic Constant Matrix: (Units=GPa)
#
#
# Indices 1 2 3 4 5 6 
#
# 1 132.2834 66.0168 52.8564 0.0000 0.0000 0.0000
# 2 66.0168 130.5889 67.4402 0.0000 0.0000 0.0000
# 3 52.8564 67.4402 172.6444 0.0000 0.0000 0.0000
# 4 0.0000 0.0000 0.0000 14.8077 0.0000 0.0000
# 5 0.0000 0.0000 0.0000 0.0000 43.0367 0.0000
# 6 0.0000 0.0000 0.0000 0.0000 0.0000 39.2807
#
#
#
# Elastic Compliance Matrix: (Units=1/GPa)
#
#
# Indices 1 2 3 4 5 6 
#
# 1 0.010378 -0.004517 -0.001413 0.000000 0.000000 0.000000
# 2 -0.004517 0.011559 -0.003132 0.000000 0.000000 0.000000
# 3 -0.001413 -0.003132 0.007448 0.000000 0.000000 0.000000
# 4 0.000000 0.000000 0.000000 0.067532 0.000000 0.000000
# 5 0.000000 0.000000 0.000000 0.000000 0.023236 0.000000
# 6 0.000000 0.000000 0.000000 0.000000 0.000000 0.025458
#
#
# Mechanical properties :
#
#
# Convention : Reuss Voigt Hill
#
# Bulk Modulus (GPa) = 88.80116 89.79372 89.29744
# Shear Modulus (GPa) = 29.85264 36.03857 32.94561
#
# Velocity S-wave (km/s) = 3.92364 4.31104 4.12189
# Velocity P-wave (km/s) = 8.14379 8.43128 8.28878
#
# Compressibility (1/GPa) = 0.01126111
#
# Stress axis : x y z
#
# Youngs Moduli (GPa) = 96.35524 86.51539 134.25677
#
# Poissons Ratio (x) = 0.39078 0.18970
# Poissons Ratio (y) = 0.43522 0.42053
# Poissons Ratio (z) = 0.13615 0.27099
#
# Static dielectric constant tensor:
#      x y z
#    x 1.676300 0.000000 0.000000 
#    y 0.000000 1.697270 0.000000 
#    z 0.000000 0.000000 1.676200 
# 
# From -- ./inp_files/11474.got.cif
#   From: 2010.05.17/outbox.cif.g08.bks.cpg/sg54_6_cif.got.tgz:11474.got - 2010.06.03 13:09:01.
