data_PCOD9423937
_publ_section_title
;
Structure prediction by ZEFSAII (Michael W. Deem and Ramdas Pophale) SiO2 
 PCOD9423937
Probable space group: P C C A
;
_chemical_formula_sum "Si O2"
_cell_formula_units_Z 20
_cell_length_a 5.658265
_cell_length_b 5.208251
_cell_length_c 26.366610
_cell_angle_alpha 90.000000
_cell_angle_beta 90.000000
_cell_angle_gamma 90.000000
_cell_volume 777.015147
_symmetry_space_group_name_H-M "P C C A"
_symmetry_group_IT_number 54
_symmetry_cell_setting 'orthorhombic'
loop_
_space_group_symop_operation_xyz
x,y,z
1/2-x,-y,z
1/2+x,-y,1/2-z
-x,y,1/2-z
-x,-y,-z
1/2+x,y,-z
1/2-x,y,1/2+z
x,-y,1/2+z
loop_
_atom_site_type_symbol
_atom_site_label
_atom_site_fract_x
_atom_site_fract_y
_atom_site_fract_z
Si Si1 0.501332 0.396515 0.058014
Si Si2 0.250000 0.000000 0.114538
Si Si3 0.410164 0.252948 0.807425
O O1 0.750000 0.500000 0.077475
O O2 0.250000 0.500000 0.076556
O O3 0.456378 0.104238 0.076181
O O4 0.500000 0.500000 0.000000
O O5 0.376500 0.805172 0.154009
O O6 0.250000 0.500000 0.818148
O O7 0.500000 0.281463 0.750000
O O8 0.250000 0.000000 0.810037
#
# Coordination Sequence:
#
# PCOD9423937 Si02
#       3
#     8   4   8
#     4  10  26  50  80 119 170 228 297 371 438 523
#     4  12  30  48  84 126 172 236 296 372 454 538
#     4  12  29  53  84 124 179 231 295 371 457 549
#
# _framework density 25.739526999999999
#
# number of rings (size 3 to 8) (size 9 to 14) (size 15 to 20)
#    0.000    0.800    2.000    1.200   11.200    6.400 
#    0.000    0.000    0.000    2.400    0.000    0.000 
#    0.000    0.000    0.000    0.000    0.000    0.000 
#
# Total GULP energy -111671.003935 kJ/mol
# GULP energy per Si atom -5583.550197 kJ/mol
# Density = 2.568094 g / cm^3
# Si number density = 25.739527 Si / 1000 Ang^3
#
#
#
# Elastic Constant Matrix: (Units=GPa)
#
#
# Indices 1 2 3 4 5 6 
#
# 1 216.8404 86.3016 74.1260 0.0000 0.0000 0.0000
# 2 86.3016 159.9364 85.6417 0.0000 0.0000 0.0000
# 3 74.1260 85.6417 261.2552 0.0000 0.0000 0.0000
# 4 0.0000 0.0000 0.0000 -120.6091 0.0000 0.0000
# 5 0.0000 0.0000 0.0000 0.0000 25.1326 0.0000
# 6 0.0000 0.0000 0.0000 0.0000 0.0000 72.3747
#
#
#
# Elastic Compliance Matrix: (Units=1/GPa)
#
#
# Indices 1 2 3 4 5 6 
#
# 1 0.006000 -0.002821 -0.000778 0.000000 0.000000 0.000000
# 2 -0.002821 0.008910 -0.002120 0.000000 0.000000 0.000000
# 3 -0.000778 -0.002120 0.004743 0.000000 0.000000 0.000000
# 4 0.000000 0.000000 0.000000 -0.008291 0.000000 0.000000
# 5 0.000000 0.000000 0.000000 0.000000 0.039789 0.000000
# 6 0.000000 0.000000 0.000000 0.000000 0.000000 0.013817
#
#
# Mechanical properties :
#
#
# Convention : Reuss Voigt Hill
#
# Bulk Modulus (GPa) = 121.72372 125.57450 123.64911
# Shear Modulus (GPa) = 63.17433 21.51048 42.34240
#
# Velocity S-wave (km/s) = 4.95953 2.89398 4.06030
# Velocity P-wave (km/s) = 8.95484 7.74980 8.37403
#
# Compressibility (1/GPa) = 0.00821533
#
# Stress axis : x y z
#
# Youngs Moduli (GPa) = 166.65467 112.22930 210.82031
#
# Poissons Ratio (x) = 0.31665 0.16394
# Poissons Ratio (y) = 0.47021 0.44701
# Poissons Ratio (z) = 0.12959 0.23797
#
# Static dielectric constant tensor:
#      x y z
#    x 1.993830 0.000000 0.000000 
#    y 0.000000 3.403250 0.000000 
#    z 0.000000 0.000000 2.257510 
# 
# From -- ./inp_files/24917.got.cif
#   From: 2010.05.17/outbox.cif.g08.bks.cpg/sg54_13_cif.got.tgz:24917.got - 2010.06.03 13:09:01.
