data_PCOD9423609
_publ_section_title
;
Structure prediction by ZEFSAII (Michael W. Deem and Ramdas Pophale) SiO2 
 PCOD9423609
Probable space group: P C C A
;
_chemical_formula_sum "Si O2"
_cell_formula_units_Z 44
_cell_length_a 24.260028
_cell_length_b 8.712753
_cell_length_c 9.025447
_cell_angle_alpha 90.000000
_cell_angle_beta 90.000000
_cell_angle_gamma 90.000000
_cell_volume 1907.723460
_symmetry_space_group_name_H-M "P C C A"
_symmetry_group_IT_number 54
_symmetry_cell_setting 'orthorhombic'
loop_
_space_group_symop_operation_xyz
x,y,z
1/2-x,-y,z
1/2+x,-y,1/2-z
-x,y,1/2-z
-x,-y,-z
1/2+x,y,-z
1/2-x,y,1/2+z
x,-y,1/2+z
loop_
_atom_site_type_symbol
_atom_site_label
_atom_site_fract_x
_atom_site_fract_y
_atom_site_fract_z
Si Si1 0.175414 0.572525 0.603530
Si Si2 0.421763 0.805826 0.083882
Si Si3 0.250000 0.500000 0.356531
Si Si4 0.145669 0.775996 0.069694
Si Si5 0.018108 0.337279 0.576097
Si Si6 0.869589 0.996642 0.676241
O O1 0.116243 0.653871 0.607422
O O2 0.211287 0.607820 0.458278
O O3 0.210362 0.598173 0.750516
O O4 0.172224 0.388424 0.592964
O O5 0.416177 0.908660 0.228806
O O6 0.482042 0.774566 0.025559
O O7 0.393101 0.894404 0.949548
O O8 0.080550 0.725702 0.069565
O O9 0.158604 0.894234 0.202466
O O10 0.160086 0.864416 0.918393
O O11 0.000000 0.340927 0.750000
O O12 0.000000 0.500000 0.500000
#
# Coordination Sequence:
#
# PCOD9423609 Si02
#       6
#     8   8   4   8   8   8
#     4  11  22  43  70  92 124 165 212 279 312 398
#     4  11  23  42  66  92 136 169 217 261 322 375
#     4  10  24  38  68 102 116 154 224 268 340 368
#     4  11  23  42  66  92 136 169 217 261 322 375
#     4  12  26  39  63 102 130 174 219 262 310 382
#     4  10  24  39  62  97 130 178 210 261 318 387
#
# _framework density 23.064139000000001
#
# number of rings (size 3 to 8) (size 9 to 14) (size 15 to 20)
#    0.000    1.091    3.636    2.182    2.545    4.364 
#    0.000    0.000    0.000   76.364    0.000    0.000 
#    0.000    0.000    0.000    0.000    0.000    0.000 
#
# Total GULP energy -245678.836144 kJ/mol
# GULP energy per Si atom -5583.609912 kJ/mol
# Density = 2.301164 g / cm^3
# Si number density = 23.064139 Si / 1000 Ang^3
#
#
#
# Elastic Constant Matrix: (Units=GPa)
#
#
# Indices 1 2 3 4 5 6 
#
# 1 63.2114 5.0872 3.2591 0.0000 0.0000 0.0000
# 2 5.0872 122.0030 36.2799 0.0000 0.0000 0.0000
# 3 3.2591 36.2799 112.2093 0.0000 0.0000 0.0000
# 4 0.0000 0.0000 0.0000 35.5424 0.0000 0.0000
# 5 0.0000 0.0000 0.0000 0.0000 -20.0161 0.0000
# 6 0.0000 0.0000 0.0000 0.0000 0.0000 15.8883
#
#
#
# Elastic Compliance Matrix: (Units=1/GPa)
#
#
# Indices 1 2 3 4 5 6 
#
# 1 0.015881 -0.000581 -0.000273 0.000000 0.000000 0.000000
# 2 -0.000581 0.009090 -0.002922 0.000000 0.000000 0.000000
# 3 -0.000273 -0.002922 0.009865 0.000000 0.000000 0.000000
# 4 0.000000 0.000000 0.000000 0.028135 0.000000 0.000000
# 5 0.000000 0.000000 0.000000 0.000000 -0.049960 0.000000
# 6 0.000000 0.000000 0.000000 0.000000 0.000000 0.062939
#
#
# Mechanical properties :
#
#
# Convention : Reuss Voigt Hill
#
# Bulk Modulus (GPa) = 36.65372 42.96401 39.80886
# Shear Modulus (GPa) = 53.99756 23.13609 38.56682
#
# Velocity S-wave (km/s) = 4.84384 3.17064 4.09364
# Velocity P-wave (km/s) = 6.87097 5.66326 6.29614
#
# Compressibility (1/GPa) = 0.02728236
#
# Stress axis : x y z
#
# Youngs Moduli (GPa) = 62.96922 110.01506 101.37239
#
# Poissons Ratio (x) = 0.06391 0.02772
# Poissons Ratio (y) = 0.03658 0.29621
# Poissons Ratio (z) = 0.01722 0.32147
#
# Static dielectric constant tensor:
#      x y z
#    x 1.845560 0.000000 0.000000 
#    y 0.000000 1.906870 0.000000 
#    z 0.000000 0.000000 1.902530 
# 
# From -- ./inp_files/5788.got.cif
#   From: 2010.05.17/outbox.cif.g08.bks.cpg/sg54_3_cif.got.tgz:5788.got - 2010.06.03 13:09:01.
