data_PCOD9423408
_publ_section_title
;
Structure prediction by ZEFSAII (Michael W. Deem and Ramdas Pophale) SiO2 
 PCOD9423408
Probable space group: P C C A
;
_chemical_formula_sum "Si O2"
_cell_formula_units_Z 60
_cell_length_a 5.350083
_cell_length_b 25.782614
_cell_length_c 18.959605
_cell_angle_alpha 90.000000
_cell_angle_beta 90.000000
_cell_angle_gamma 90.000000
_cell_volume 2615.271321
_symmetry_space_group_name_H-M "P C C A"
_symmetry_group_IT_number 54
_symmetry_cell_setting 'orthorhombic'
loop_
_space_group_symop_operation_xyz
x,y,z
1/2-x,-y,z
1/2+x,-y,1/2-z
-x,y,1/2-z
-x,-y,-z
1/2+x,y,-z
1/2-x,y,1/2+z
x,-y,1/2+z
loop_
_atom_site_type_symbol
_atom_site_label
_atom_site_fract_x
_atom_site_fract_y
_atom_site_fract_z
Si Si1 0.310887 0.060734 0.473233
Si Si2 0.086239 0.661969 0.169143
Si Si3 0.247020 0.556140 0.702106
Si Si4 0.827596 0.060345 0.683136
Si Si5 0.500000 0.145181 0.750000
Si Si6 0.134897 0.222950 0.675069
Si Si7 0.171736 0.211224 0.963077
Si Si8 0.218287 0.664420 0.462855
O O1 0.527887 0.081449 0.523582
O O2 0.427894 0.066486 0.395617
O O3 0.250000 0.000000 0.487702
O O4 0.245504 0.609938 0.159826
O O5 0.212090 0.718142 0.152555
O O6 0.848048 0.655494 0.118536
O O7 0.000000 0.663855 0.250000
O O8 0.250000 0.500000 0.664199
O O9 0.500000 0.556027 0.750000
O O10 0.000000 0.557820 0.750000
O O11 0.626824 0.104611 0.696385
O O12 0.000000 0.068910 0.750000
O O13 0.750000 0.000000 0.686858
O O14 0.346689 0.182765 0.697429
O O15 0.944834 0.202739 0.614906
O O16 0.000000 0.228942 0.750000
O O17 0.206509 0.273217 0.970183
O O18 0.949567 0.193081 0.015748
O O19 0.980170 0.644916 0.507775
#
# Coordination Sequence:
#
# PCOD9423408 Si02
#       8
#     8   8   8   8   4   8   8   8
#     4   9  20  38  66 101 133 160 202 263 315 363
#     4   9  19  36  60  90 117 163 210 254 306 375
#     4   9  18  32  52  83 121 156 201 260 310 358
#     4  11  24  43  72  96 125 169 219 255 313 387
#     4  12  26  42  64  94 132 164 208 268 316 374
#     4  10  23  41  62  91 131 167 202 262 323 375
#     4   9  19  37  62  87 118 164 214 253 302 376
#     4   9  18  33  52  81 117 157 202 253 306 366
#
# _framework density 22.942171999999999
#
# number of rings (size 3 to 8) (size 9 to 14) (size 15 to 20)
#    0.000    2.400    0.667    0.400    4.667    2.667 
#    4.800    1.333    0.000    0.800    0.000    0.000 
#    0.000    0.000    0.000    0.000    0.000    0.000 
#
# Total GULP energy -334489.583442 kJ/mol
# GULP energy per Si atom -5574.826391 kJ/mol
# Density = 2.288995 g / cm^3
# Si number density = 22.942172 Si / 1000 Ang^3
#
#
#
# Elastic Constant Matrix: (Units=GPa)
#
#
# Indices 1 2 3 4 5 6 
#
# 1 69.6434 6.2981 -5.0267 0.0000 0.0000 0.0000
# 2 6.2981 145.8938 -16.1333 0.0000 0.0000 0.0000
# 3 -5.0267 -16.1333 82.3254 0.0000 0.0000 0.0000
# 4 0.0000 0.0000 0.0000 21.3622 0.0000 0.0000
# 5 0.0000 0.0000 0.0000 0.0000 34.7574 0.0000
# 6 0.0000 0.0000 0.0000 0.0000 0.0000 46.9150
#
#
#
# Elastic Compliance Matrix: (Units=1/GPa)
#
#
# Indices 1 2 3 4 5 6 
#
# 1 0.014464 -0.000538 0.000778 0.000000 0.000000 0.000000
# 2 -0.000538 0.007026 0.001344 0.000000 0.000000 0.000000
# 3 0.000778 0.001344 0.012458 0.000000 0.000000 0.000000
# 4 0.000000 0.000000 0.000000 0.046812 0.000000 0.000000
# 5 0.000000 0.000000 0.000000 0.000000 0.028771 0.000000
# 6 0.000000 0.000000 0.000000 0.000000 0.000000 0.021315
#
#
# Mechanical properties :
#
#
# Convention : Reuss Voigt Hill
#
# Bulk Modulus (GPa) = 26.94386 29.79319 28.36853
# Shear Modulus (GPa) = 35.70152 41.45523 38.57837
#
# Velocity S-wave (km/s) = 3.94909 4.25543 4.10512
# Velocity P-wave (km/s) = 5.70644 6.09584 5.90435
#
# Compressibility (1/GPa) = 0.03711421
#
# Stress axis : x y z
#
# Youngs Moduli (GPa) = 69.13870 142.32500 80.27105
#
# Poissons Ratio (x) = 0.07663 -0.06242
# Poissons Ratio (y) = 0.03722 -0.10789
# Poissons Ratio (z) = -0.05376 -0.19129
#
# Static dielectric constant tensor:
#      x y z
#    x 1.931920 0.000000 0.000000 
#    y 0.000000 2.002620 0.000000 
#    z 0.000000 0.000000 1.904990 
# 
# From -- ./inp_files/15978.got.cif
#   From: 2010.05.17/outbox.cif.g08.bks.cpg/sg54_8_cif.got.tgz:15978.got - 2010.06.03 13:09:01.
