data_PCOD9423383
_publ_section_title
;
Structure prediction by ZEFSAII (Michael W. Deem and Ramdas Pophale) SiO2 
 PCOD9423383
Probable space group: P C C A
;
_chemical_formula_sum "Si O2"
_cell_formula_units_Z 48
_cell_length_a 23.907261
_cell_length_b 5.536034
_cell_length_c 14.714128
_cell_angle_alpha 90.000000
_cell_angle_beta 90.000000
_cell_angle_gamma 90.000000
_cell_volume 1947.435584
_symmetry_space_group_name_H-M "P C C A"
_symmetry_group_IT_number 54
_symmetry_cell_setting 'orthorhombic'
loop_
_space_group_symop_operation_xyz
x,y,z
1/2-x,-y,z
1/2+x,-y,1/2-z
-x,y,1/2-z
-x,-y,-z
1/2+x,y,-z
1/2-x,y,1/2+z
x,-y,1/2+z
loop_
_atom_site_type_symbol
_atom_site_label
_atom_site_fract_x
_atom_site_fract_y
_atom_site_fract_z
Si Si1 0.922899 0.071980 0.064781
Si Si2 0.359047 0.558305 0.527723
Si Si3 0.196380 0.850368 0.167942
Si Si4 0.891410 0.160715 0.249571
Si Si5 0.963163 0.706790 0.908725
Si Si6 0.313507 0.428102 0.348849
O O1 0.867263 0.190933 0.025318
O O2 0.909746 0.985803 0.166832
O O3 0.969826 0.283941 0.083576
O O4 0.946066 0.891942 0.989557
O O5 0.315653 0.616431 0.606920
O O6 0.419759 0.509071 0.571280
O O7 0.341723 0.378831 0.446984
O O8 0.198491 0.773591 0.273229
O O9 0.250000 0.000000 0.139334
O O10 0.144216 0.031483 0.171569
O O11 0.945786 0.233481 0.306144
O O12 0.853208 0.373734 0.204477
O O13 0.250000 0.500000 0.373267
#
# Coordination Sequence:
#
# PCOD9423383 Si02
#       6
#     8   8   8   8   8   8
#     4  10  23  40  64  97 126 175 215 274 329 399
#     4  11  24  42  66  97 132 169 222 272 335 400
#     4  12  24  43  69  96 132 177 223 276 338 401
#     4  11  22  41  64  93 131 170 220 270 331 397
#     4  11  21  41  68  90 133 166 218 272 334 396
#     4  11  24  43  64  94 130 171 215 274 331 397
#
# _framework density 24.647798000000002
#
# number of rings (size 3 to 8) (size 9 to 14) (size 15 to 20)
#    0.000    1.000    5.000    2.000    0.000    2.000 
#    6.000    0.000    0.000    0.000    0.000    0.000 
#    0.000    0.000    0.000    0.000    0.000    0.000 
#
# Total GULP energy -267622.092933 kJ/mol
# GULP energy per Si atom -5575.460269 kJ/mol
# Density = 2.459170 g / cm^3
# Si number density = 24.647798 Si / 1000 Ang^3
#
#
#
# Elastic Constant Matrix: (Units=GPa)
#
#
# Indices 1 2 3 4 5 6 
#
# 1 86.2591 -2.5902 31.1924 0.0000 0.0000 0.0000
# 2 -2.5902 33.2110 11.0041 0.0000 0.0000 0.0000
# 3 31.1924 11.0041 150.4209 0.0000 0.0000 0.0000
# 4 0.0000 0.0000 0.0000 13.9117 0.0000 0.0000
# 5 0.0000 0.0000 0.0000 0.0000 28.6280 0.0000
# 6 0.0000 0.0000 0.0000 0.0000 0.0000 30.3993
#
#
#
# Elastic Compliance Matrix: (Units=1/GPa)
#
#
# Indices 1 2 3 4 5 6 
#
# 1 0.012649 0.001902 -0.002762 0.000000 0.000000 0.000000
# 2 0.001902 0.031144 -0.002673 0.000000 0.000000 0.000000
# 3 -0.002762 -0.002673 0.007416 0.000000 0.000000 0.000000
# 4 0.000000 0.000000 0.000000 0.071882 0.000000 0.000000
# 5 0.000000 0.000000 0.000000 0.000000 0.034931 0.000000
# 6 0.000000 0.000000 0.000000 0.000000 0.000000 0.032895
#
#
# Mechanical properties :
#
#
# Convention : Reuss Voigt Hill
#
# Bulk Modulus (GPa) = 22.65349 38.78931 30.72140
# Shear Modulus (GPa) = 23.50746 29.94012 26.72379
#
# Velocity S-wave (km/s) = 3.09161 3.48906 3.29633
# Velocity P-wave (km/s) = 4.68561 5.65712 5.19413
#
# Compressibility (1/GPa) = 0.04414330
#
# Stress axis : x y z
#
# Youngs Moduli (GPa) = 79.05835 32.10853 134.83801
#
# Poissons Ratio (x) = -0.06106 0.37243
# Poissons Ratio (y) = -0.15034 0.36039
# Poissons Ratio (z) = 0.21837 0.08582
#
# Static dielectric constant tensor:
#      x y z
#    x 1.987570 0.000000 0.000000 
#    y 0.000000 2.102420 0.000000 
#    z 0.000000 0.000000 1.986580 
# 
# From -- ./inp_files/15174.got.cif
#   From: 2010.05.17/outbox.cif.g08.bks.cpg/sg54_8_cif.got.tgz:15174.got - 2010.06.03 13:09:01.
