data_PCOD9423512
_publ_section_title
;
Structure prediction by ZEFSAII (Michael W. Deem and Ramdas Pophale) SiO2 
 PCOD9423512
Probable space group: P C C A
;
_chemical_formula_sum "Si O2"
_cell_formula_units_Z 44
_cell_length_a 15.895611
_cell_length_b 9.149837
_cell_length_c 15.153111
_cell_angle_alpha 90.000000
_cell_angle_beta 90.000000
_cell_angle_gamma 90.000000
_cell_volume 2203.902553
_symmetry_space_group_name_H-M "P C C A"
_symmetry_group_IT_number 54
_symmetry_cell_setting 'orthorhombic'
loop_
_space_group_symop_operation_xyz
x,y,z
1/2-x,-y,z
1/2+x,-y,1/2-z
-x,y,1/2-z
-x,-y,-z
1/2+x,y,-z
1/2-x,y,1/2+z
x,-y,1/2+z
loop_
_atom_site_type_symbol
_atom_site_label
_atom_site_fract_x
_atom_site_fract_y
_atom_site_fract_z
Si Si1 0.010484 0.643683 0.939288
Si Si2 0.500000 0.493162 0.750000
Si Si3 0.793288 0.153154 0.635637
Si Si4 0.682356 0.630415 0.794369
Si Si5 0.827932 0.801370 0.476471
Si Si6 0.085257 0.909215 0.500973
O O1 0.020336 0.599385 0.837751
O O2 0.091753 0.727793 0.976086
O O3 0.000000 0.500000 0.000000
O O4 0.932775 0.756644 0.950814
O O5 0.585705 0.579940 0.775757
O O6 0.791809 0.265218 0.714195
O O7 0.745943 0.210749 0.548052
O O8 0.886618 0.123350 0.599186
O O9 0.750000 0.000000 0.660035
O O10 0.750000 0.500000 0.798130
O O11 0.686543 0.718250 0.885851
O O12 0.848321 0.973380 0.461211
O O13 0.000000 0.000000 0.500000
#
# Coordination Sequence:
#
# PCOD9423512 Si02
#       6
#     8   4   8   8   8   8
#     4  11  21  42  66  96 137 174 226 280 334 414
#     4  12  26  42  68 106 136 184 230 278 352 416
#     4  10  23  44  68  94 134 175 228 282 340 413
#     4  12  27  44  70 103 138 183 232 284 358 415
#     4  10  23  45  67  96 137 178 224 287 347 405
#     4   9  21  41  66  96 131 178 221 278 346 406
#
# _framework density 19.964583999999999
#
# number of rings (size 3 to 8) (size 9 to 14) (size 15 to 20)
#    0.000    1.455    1.818    2.182    5.091    4.364 
#    9.818    0.000    0.000    0.000    0.000    0.000 
#    0.000    0.000    0.000    0.000    0.000    0.000 
#
# Total GULP energy -245680.084572 kJ/mol
# GULP energy per Si atom -5583.638286 kJ/mol
# Density = 1.991914 g / cm^3
# Si number density = 19.964584 Si / 1000 Ang^3
#
#
#
# Elastic Constant Matrix: (Units=GPa)
#
#
# Indices 1 2 3 4 5 6 
#
# 1 95.0089 45.4514 54.5328 0.0000 0.0000 0.0000
# 2 45.4514 138.2252 104.9626 0.0000 0.0000 0.0000
# 3 54.5328 104.9626 181.7589 0.0000 0.0000 0.0000
# 4 0.0000 0.0000 0.0000 32.1758 0.0000 0.0000
# 5 0.0000 0.0000 0.0000 0.0000 25.2071 0.0000
# 6 0.0000 0.0000 0.0000 0.0000 0.0000 23.6173
#
#
#
# Elastic Compliance Matrix: (Units=1/GPa)
#
#
# Indices 1 2 3 4 5 6 
#
# 1 0.013134 -0.002362 -0.002576 0.000000 0.000000 0.000000
# 2 -0.002362 0.013310 -0.006977 0.000000 0.000000 0.000000
# 3 -0.002576 -0.006977 0.010304 0.000000 0.000000 0.000000
# 4 0.000000 0.000000 0.000000 0.031079 0.000000 0.000000
# 5 0.000000 0.000000 0.000000 0.000000 0.039671 0.000000
# 6 0.000000 0.000000 0.000000 0.000000 0.000000 0.042342
#
#
# Mechanical properties :
#
#
# Convention : Reuss Voigt Hill
#
# Bulk Modulus (GPa) = 77.42480 91.65406 84.53943
# Shear Modulus (GPa) = 28.09338 30.20313 29.14826
#
# Velocity S-wave (km/s) = 3.75528 3.89374 3.82514
# Velocity P-wave (km/s) = 7.59395 8.13775 7.87055
#
# Compressibility (1/GPa) = 0.01291576
#
# Stress axis : x y z
#
# Youngs Moduli (GPa) = 76.13662 75.13331 97.04905
#
# Poissons Ratio (x) = 0.17750 0.25004
# Poissons Ratio (y) = 0.17987 0.67714
# Poissons Ratio (z) = 0.19616 0.52423
#
# Static dielectric constant tensor:
#      x y z
#    x 1.679750 0.000000 0.000000 
#    y 0.000000 1.718570 0.000000 
#    z 0.000000 0.000000 1.636990 
# 
# From -- ./inp_files/13980.got.cif
#   From: 2010.05.17/outbox.cif.g08.bks.cpg/sg54_7_cif.got.tgz:13980.got - 2010.06.03 13:09:01.
