data_PCOD9423554
_publ_section_title
;
Structure prediction by ZEFSAII (Michael W. Deem and Ramdas Pophale) SiO2 
 PCOD9423554
Probable space group: P C C A
;
_chemical_formula_sum "Si O2"
_cell_formula_units_Z 56
_cell_length_a 20.096013
_cell_length_b 5.176238
_cell_length_c 23.000249
_cell_angle_alpha 90.000000
_cell_angle_beta 90.000000
_cell_angle_gamma 90.000000
_cell_volume 2392.526063
_symmetry_space_group_name_H-M "P C C A"
_symmetry_group_IT_number 54
_symmetry_cell_setting 'orthorhombic'
loop_
_space_group_symop_operation_xyz
x,y,z
1/2-x,-y,z
1/2+x,-y,1/2-z
-x,y,1/2-z
-x,-y,-z
1/2+x,y,-z
1/2-x,y,1/2+z
x,-y,1/2+z
loop_
_atom_site_type_symbol
_atom_site_label
_atom_site_fract_x
_atom_site_fract_y
_atom_site_fract_z
Si Si1 0.676117 0.982142 0.525881
Si Si2 0.383301 0.529776 0.521715
Si Si3 0.179753 0.429185 0.753597
Si Si4 0.053771 0.172390 0.615317
Si Si5 0.949971 0.820409 0.577440
Si Si6 0.462171 0.502767 0.307721
Si Si7 0.679838 0.932483 0.324961
O O1 0.667061 0.230028 0.484673
O O2 0.618053 0.015117 0.573556
O O3 0.750000 0.000000 0.550087
O O4 0.656097 0.728751 0.490551
O O5 0.418755 0.573122 0.582833
O O6 0.435299 0.595441 0.469413
O O7 0.250000 0.500000 0.783627
O O8 0.113725 0.446340 0.791325
O O9 0.176027 0.643936 0.701384
O O10 0.181681 0.142446 0.727373
O O11 0.004582 0.263979 0.666332
O O12 0.114798 0.007665 0.639333
O O13 0.012883 0.005490 0.568083
O O14 0.960315 0.706047 0.640630
O O15 0.500000 0.594969 0.250000
O O16 0.750000 0.000000 0.356314
#
# Coordination Sequence:
#
# PCOD9423554 Si02
#       7
#     8   8   8   8   8   8   8
#     4  10  23  49  74 106 147 190 247 302 362 446
#     4  10  25  45  74 106 145 189 244 297 380 436
#     4  10  23  47  68 101 144 191 245 302 360 430
#     4  12  25  43  74 111 149 190 242 310 370 446
#     4  10  26  43  72 103 147 190 240 299 369 429
#     4  12  25  43  72 107 144 192 248 302 366 436
#     4  10  23  45  73 101 144 193 240 300 369 435
#
# _framework density 23.406223000000001
#
# number of rings (size 3 to 8) (size 9 to 14) (size 15 to 20)
#    0.857    0.571    1.429    2.571    4.000    2.286 
#    5.143    2.857    0.000    0.000    0.000    0.000 
#    0.000    0.000    0.000    0.000    0.000    0.000 
#
# Total GULP energy -313100.075481 kJ/mol
# GULP energy per Si atom -5591.072776 kJ/mol
# Density = 2.335295 g / cm^3
# Si number density = 23.406223 Si / 1000 Ang^3
#
#
#
# Elastic Constant Matrix: (Units=GPa)
#
#
# Indices 1 2 3 4 5 6 
#
# 1 161.6449 45.7830 29.7989 0.0000 0.0000 0.0000
# 2 45.7830 121.3479 19.2461 0.0000 0.0000 0.0000
# 3 29.7989 19.2461 60.3801 0.0000 0.0000 0.0000
# 4 0.0000 0.0000 0.0000 17.0942 0.0000 0.0000
# 5 0.0000 0.0000 0.0000 0.0000 39.7022 0.0000
# 6 0.0000 0.0000 0.0000 0.0000 0.0000 19.2550
#
#
#
# Elastic Compliance Matrix: (Units=1/GPa)
#
#
# Indices 1 2 3 4 5 6 
#
# 1 0.007379 -0.002324 -0.002901 0.000000 0.000000 0.000000
# 2 -0.002324 0.009411 -0.001853 0.000000 0.000000 0.000000
# 3 -0.002901 -0.001853 0.018584 0.000000 0.000000 0.000000
# 4 0.000000 0.000000 0.000000 0.058499 0.000000 0.000000
# 5 0.000000 0.000000 0.000000 0.000000 0.025188 0.000000
# 6 0.000000 0.000000 0.000000 0.000000 0.000000 0.051934
#
#
# Mechanical properties :
#
#
# Convention : Reuss Voigt Hill
#
# Bulk Modulus (GPa) = 47.12788 59.22541 53.17664
# Shear Modulus (GPa) = 26.01112 31.77996 28.89554
#
# Velocity S-wave (km/s) = 3.33722 3.68877 3.51739
# Velocity P-wave (km/s) = 5.91843 6.59552 6.26613
#
# Compressibility (1/GPa) = 0.02121886
#
# Stress axis : x y z
#
# Youngs Moduli (GPa) = 135.51125 106.25318 53.80929
#
# Poissons Ratio (x) = 0.24694 0.15611
# Poissons Ratio (y) = 0.31493 0.09971
# Poissons Ratio (z) = 0.39314 0.19688
#
# Static dielectric constant tensor:
#      x y z
#    x 1.954160 0.000000 0.000000 
#    y 0.000000 1.900440 0.000000 
#    z 0.000000 0.000000 1.867960 
# 
# From -- ./inp_files/24737.got.cif
#   From: 2010.05.17/outbox.cif.g08.bks.cpg/sg54_13_cif.got.tgz:24737.got - 2010.06.03 13:09:01.
