data_PCOD9423597
_publ_section_title
;
Structure prediction by ZEFSAII (Michael W. Deem and Ramdas Pophale) SiO2 
 PCOD9423597
Probable space group: P C C A
;
_chemical_formula_sum "Si O2"
_cell_formula_units_Z 60
_cell_length_a 23.954233
_cell_length_b 15.079556
_cell_length_c 8.549036
_cell_angle_alpha 90.000000
_cell_angle_beta 90.000000
_cell_angle_gamma 90.000000
_cell_volume 3088.075927
_symmetry_space_group_name_H-M "P C C A"
_symmetry_group_IT_number 54
_symmetry_cell_setting 'orthorhombic'
loop_
_space_group_symop_operation_xyz
x,y,z
1/2-x,-y,z
1/2+x,-y,1/2-z
-x,y,1/2-z
-x,-y,-z
1/2+x,y,-z
1/2-x,y,1/2+z
x,-y,1/2+z
loop_
_atom_site_type_symbol
_atom_site_label
_atom_site_fract_x
_atom_site_fract_y
_atom_site_fract_z
Si Si1 0.869653 0.749137 0.371606
Si Si2 0.797207 0.893117 0.509774
Si Si3 0.071572 0.578897 0.115418
Si Si4 0.969489 0.125122 0.958498
Si Si5 0.500000 0.971722 0.250000
Si Si6 0.823439 0.073013 0.371910
Si Si7 0.950066 0.392269 0.513435
Si Si8 0.407740 0.795500 0.968125
O O1 0.819077 0.798218 0.454337
O O2 0.877709 0.646213 0.413610
O O3 0.925731 0.798872 0.428431
O O4 0.872106 0.770145 0.186241
O O5 0.732080 0.902195 0.470806
O O6 0.809975 0.911720 0.690449
O O7 0.829710 0.968706 0.409751
O O8 0.060437 0.593921 0.300331
O O9 0.017603 0.606928 0.010821
O O10 0.075854 0.475114 0.078404
O O11 0.962585 0.037457 0.853335
O O12 0.965883 0.090110 0.134443
O O13 0.032331 0.160378 0.927375
O O14 0.873355 0.135342 0.429113
O O15 0.924747 0.299205 0.458895
#
# Coordination Sequence:
#
# PCOD9423597 Si02
#       8
#     8   8   8   8   4   8   8   8
#     4  11  21  36  58  81 114 150 189 230 279 337
#     4  11  24  41  60  83 111 149 193 236 282 329
#     4   9  18  34  54  80 113 150 185 227 278 333
#     4  11  22  36  49  78 113 150 190 221 279 331
#     4  10  24  34  48  70 116 156 184 226 270 340
#     4  11  24  41  60  83 111 149 193 236 282 329
#     4   9  18  34  54  80 113 150 185 227 278 333
#     4  11  21  36  58  81 114 150 189 230 279 337
#
# _framework density 19.429575
#
# number of rings (size 3 to 8) (size 9 to 14) (size 15 to 20)
#    0.000    1.600    2.667    3.200    5.600    1.067 
#    0.000    0.000    0.000    0.800    0.000    5.600 
#    0.000    0.000    0.000    0.000    0.000    0.000 
#
# Total GULP energy -335101.369198 kJ/mol
# GULP energy per Si atom -5585.022820 kJ/mol
# Density = 1.938535 g / cm^3
# Si number density = 19.429575 Si / 1000 Ang^3
#
#
#
# Elastic Constant Matrix: (Units=GPa)
#
#
# Indices 1 2 3 4 5 6 
#
# 1 43.8035 11.5708 -9.8188 0.0000 0.0000 0.0000
# 2 11.5708 103.8037 -4.4304 0.0000 0.0000 0.0000
# 3 -9.8188 -4.4304 36.6445 0.0000 0.0000 0.0000
# 4 0.0000 0.0000 0.0000 28.9137 0.0000 0.0000
# 5 0.0000 0.0000 0.0000 0.0000 20.6951 0.0000
# 6 0.0000 0.0000 0.0000 0.0000 0.0000 29.0318
#
#
#
# Elastic Compliance Matrix: (Units=1/GPa)
#
#
# Indices 1 2 3 4 5 6 
#
# 1 0.024920 -0.002506 0.006374 0.000000 0.000000 0.000000
# 2 -0.002506 0.009935 0.000530 0.000000 0.000000 0.000000
# 3 0.006374 0.000530 0.029061 0.000000 0.000000 0.000000
# 4 0.000000 0.000000 0.000000 0.034586 0.000000 0.000000
# 5 0.000000 0.000000 0.000000 0.000000 0.048321 0.000000
# 6 0.000000 0.000000 0.000000 0.000000 0.000000 0.034445
#
#
# Mechanical properties :
#
#
# Convention : Reuss Voigt Hill
#
# Bulk Modulus (GPa) = 13.75260 19.87721 16.81490
# Shear Modulus (GPa) = 25.41826 28.19014 26.80420
#
# Velocity S-wave (km/s) = 3.62086 3.81318 3.71827
# Velocity P-wave (km/s) = 4.95726 5.44424 5.20645
#
# Compressibility (1/GPa) = 0.07271352
#
# Stress axis : x y z
#
# Youngs Moduli (GPa) = 40.12847 100.64931 34.41009
#
# Poissons Ratio (x) = 0.25220 -0.21934
# Poissons Ratio (y) = 0.10055 -0.01823
# Poissons Ratio (z) = -0.25579 -0.05333
#
# Static dielectric constant tensor:
#      x y z
#    x 1.692750 0.000000 0.000000 
#    y 0.000000 1.689690 0.000000 
#    z 0.000000 0.000000 1.717290 
# 
# From -- ./inp_files/5273.got.cif
#   From: 2010.05.17/outbox.cif.g08.bks.cpg/sg54_3_cif.got.tgz:5273.got - 2010.06.03 13:09:01.
