data_PCOD9423833
_publ_section_title
;
Structure prediction by ZEFSAII (Michael W. Deem and Ramdas Pophale) SiO2 
 PCOD9423833
Probable space group: P C C A
;
_chemical_formula_sum "Si O2"
_cell_formula_units_Z 40
_cell_length_a 14.409680
_cell_length_b 13.857669
_cell_length_c 9.313569
_cell_angle_alpha 90.000000
_cell_angle_beta 90.000000
_cell_angle_gamma 90.000000
_cell_volume 1859.776075
_symmetry_space_group_name_H-M "P C C A"
_symmetry_group_IT_number 54
_symmetry_cell_setting 'orthorhombic'
loop_
_space_group_symop_operation_xyz
x,y,z
1/2-x,-y,z
1/2+x,-y,1/2-z
-x,y,1/2-z
-x,-y,-z
1/2+x,y,-z
1/2-x,y,1/2+z
x,-y,1/2+z
loop_
_atom_site_type_symbol
_atom_site_label
_atom_site_fract_x
_atom_site_fract_y
_atom_site_fract_z
Si Si1 0.638709 0.917185 0.967679
Si Si2 0.000000 0.725505 0.750000
Si Si3 0.270878 0.173023 0.309988
Si Si4 0.832318 0.374346 0.147674
Si Si5 0.750000 0.500000 0.394023
Si Si6 0.572925 0.133073 0.969958
O O1 0.698308 0.863865 0.845849
O O2 0.617147 0.028862 0.933541
O O3 0.696993 0.898330 0.112497
O O4 0.534761 0.876739 0.985933
O O5 0.062038 0.661477 0.854788
O O6 0.069590 0.794001 0.662204
O O7 0.230838 0.280398 0.323618
O O8 0.365146 0.171237 0.401855
O O9 0.817731 0.443698 0.284950
O O10 0.801533 0.426572 0.001828
#
# Coordination Sequence:
#
# PCOD9423833 Si02
#       6
#     8   4   8   8   4   8
#     4  11  26  43  66 100 143 193 237 278 329 397
#     4  12  24  42  70 104 140 178 226 288 334 412
#     4  12  24  45  71 100 137 193 233 282 343 407
#     4  11  24  44  72 100 133 172 226 286 356 419
#     4  10  24  48  72  98 128 170 220 292 366 428
#     4  11  26  41  66 100 148 184 239 278 329 398
#
# _framework density 21.507966
#
# number of rings (size 3 to 8) (size 9 to 14) (size 15 to 20)
#    0.000    0.800    2.000    4.800    5.600    4.000 
#    0.000    0.000    0.000    0.000    0.000    0.000 
#    0.000    0.000    0.000    0.000    0.000    0.000 
#
# Total GULP energy -223859.487471 kJ/mol
# GULP energy per Si atom -5596.487187 kJ/mol
# Density = 2.145901 g / cm^3
# Si number density = 21.507966 Si / 1000 Ang^3
#
#
#
# Elastic Constant Matrix: (Units=GPa)
#
#
# Indices 1 2 3 4 5 6 
#
# 1 70.3494 26.7100 14.1217 0.0000 0.0000 0.0000
# 2 26.7100 97.7341 30.1991 0.0000 0.0000 0.0000
# 3 14.1217 30.1991 103.2064 0.0000 0.0000 0.0000
# 4 0.0000 0.0000 0.0000 40.8593 0.0000 0.0000
# 5 0.0000 0.0000 0.0000 0.0000 40.5518 0.0000
# 6 0.0000 0.0000 0.0000 0.0000 0.0000 27.4143
#
#
#
# Elastic Compliance Matrix: (Units=1/GPa)
#
#
# Indices 1 2 3 4 5 6 
#
# 1 0.015953 -0.004052 -0.000997 0.000000 0.000000 0.000000
# 2 -0.004052 0.012278 -0.003038 0.000000 0.000000 0.000000
# 3 -0.000997 -0.003038 0.010715 0.000000 0.000000 0.000000
# 4 0.000000 0.000000 0.000000 0.024474 0.000000 0.000000
# 5 0.000000 0.000000 0.000000 0.000000 0.024660 0.000000
# 6 0.000000 0.000000 0.000000 0.000000 0.000000 0.036477
#
#
# Mechanical properties :
#
#
# Convention : Reuss Voigt Hill
#
# Bulk Modulus (GPa) = 43.91462 45.92795 44.92128
# Shear Modulus (GPa) = 33.71033 35.11569 34.41301
#
# Velocity S-wave (km/s) = 3.96326 4.04503 4.00435
# Velocity P-wave (km/s) = 6.43470 6.57394 6.50469
#
# Compressibility (1/GPa) = 0.02277146
#
# Stress axis : x y z
#
# Youngs Moduli (GPa) = 62.68288 81.44682 93.32886
#
# Poissons Ratio (x) = 0.33000 0.09308
# Poissons Ratio (y) = 0.25398 0.28356
# Poissons Ratio (z) = 0.06251 0.24746
#
# Static dielectric constant tensor:
#      x y z
#    x 1.754220 0.000000 0.000000 
#    y 0.000000 1.806570 0.000000 
#    z 0.000000 0.000000 1.817420 
# 
# From -- ./inp_files/3454.got.cif
#   From: 2010.05.17/outbox.cif.g08.bks.cpg/sg54_2_cif.got.tgz:3454.got - 2010.06.03 13:09:01.
