data_PCOD9423417
_publ_section_title
;
Structure prediction by ZEFSAII (Michael W. Deem and Ramdas Pophale) SiO2 
 PCOD9423417
Probable space group: P C C A
;
_chemical_formula_sum "Si O2"
_cell_formula_units_Z 64
_cell_length_a 12.443781
_cell_length_b 8.341914
_cell_length_c 27.945222
_cell_angle_alpha 90.000000
_cell_angle_beta 90.000000
_cell_angle_gamma 90.000000
_cell_volume 2900.852399
_symmetry_space_group_name_H-M "P C C A"
_symmetry_group_IT_number 54
_symmetry_cell_setting 'orthorhombic'
loop_
_space_group_symop_operation_xyz
x,y,z
1/2-x,-y,z
1/2+x,-y,1/2-z
-x,y,1/2-z
-x,-y,-z
1/2+x,y,-z
1/2-x,y,1/2+z
x,-y,1/2+z
loop_
_atom_site_type_symbol
_atom_site_label
_atom_site_fract_x
_atom_site_fract_y
_atom_site_fract_z
Si Si1 0.037179 0.310816 0.204587
Si Si2 0.146518 0.404079 0.765664
Si Si3 0.269967 0.815190 0.578525
Si Si4 0.123449 0.191385 0.856137
Si Si5 0.508335 0.318479 0.446816
Si Si6 0.620295 0.817482 0.133125
Si Si7 0.963796 0.697354 0.945986
Si Si8 0.741731 0.178592 0.314081
O O1 0.086432 0.467165 0.231050
O O2 0.137192 0.237484 0.177997
O O3 0.000000 0.206162 0.250000
O O4 0.937488 0.309911 0.168855
O O5 0.250000 0.500000 0.784614
O O6 0.186599 0.278190 0.726750
O O7 0.902469 0.303206 0.690163
O O8 0.367212 0.734078 0.550998
O O9 0.156517 0.726663 0.573034
O O10 0.309582 0.814435 0.633819
O O11 0.250000 0.000000 0.565065
O O12 0.054429 0.244294 0.901954
O O13 0.251552 0.209496 0.867907
O O14 0.104185 0.000561 0.848279
O O15 0.460473 0.265198 0.497642
O O16 0.505211 0.510515 0.441666
O O17 0.553542 0.795794 0.083847
O O18 0.750000 0.000000 0.296471
#
# Coordination Sequence:
#
# PCOD9423417 Si02
#       8
#     8   8   8   8   8   8   8   8
#     4  11  24  42  66 101 140 191 243 289 355 421
#     4  10  24  42  69 104 142 194 237 293 356 427
#     4  11  24  45  73 105 145 187 243 304 363 437
#     4  11  27  46  73 110 151 193 247 301 372 443
#     4  11  28  46  75 108 143 193 244 302 378 442
#     4  11  25  47  74 107 150 195 242 308 368 438
#     4  11  26  49  75 106 144 190 244 310 371 443
#     4  10  23  41  67 100 141 187 238 294 355 426
#
# _framework density 22.062480999999998
#
# number of rings (size 3 to 8) (size 9 to 14) (size 15 to 20)
#    0.000    1.250    1.250    2.625   12.250    3.000 
#    0.000    0.000    0.000    0.000    0.000    0.000 
#    0.000    0.000    0.000    0.000    0.000    0.000 
#
# Total GULP energy -357333.943907 kJ/mol
# GULP energy per Si atom -5583.342874 kJ/mol
# Density = 2.201227 g / cm^3
# Si number density = 22.062481 Si / 1000 Ang^3
#
#
#
# Elastic Constant Matrix: (Units=GPa)
#
#
# Indices 1 2 3 4 5 6 
#
# 1 109.9048 47.2370 21.0840 0.0000 0.0000 0.0000
# 2 47.2370 104.4787 -20.5162 0.0000 0.0000 0.0000
# 3 21.0840 -20.5162 329.7896 0.0000 0.0000 0.0000
# 4 0.0000 0.0000 0.0000 17.0278 0.0000 0.0000
# 5 0.0000 0.0000 0.0000 0.0000 190.5636 0.0000
# 6 0.0000 0.0000 0.0000 0.0000 0.0000 26.9061
#
#
#
# Elastic Compliance Matrix: (Units=1/GPa)
#
#
# Indices 1 2 3 4 5 6 
#
# 1 0.011666 -0.005488 -0.001087 0.000000 0.000000 0.000000
# 2 -0.005488 0.012271 0.001114 0.000000 0.000000 0.000000
# 3 -0.001087 0.001114 0.003171 0.000000 0.000000 0.000000
# 4 0.000000 0.000000 0.000000 0.058728 0.000000 0.000000
# 5 0.000000 0.000000 0.000000 0.000000 0.005248 0.000000
# 6 0.000000 0.000000 0.000000 0.000000 0.000000 0.037166
#
#
# Mechanical properties :
#
#
# Convention : Reuss Voigt Hill
#
# Bulk Modulus (GPa) = 61.77952 71.08695 66.43323
# Shear Modulus (GPa) = 34.58594 79.99071 57.28832
#
# Velocity S-wave (km/s) = 3.96363 6.02786 5.10125
# Velocity P-wave (km/s) = 7.00072 8.98541 8.05443
#
# Compressibility (1/GPa) = 0.01618659
#
# Stress axis : x y z
#
# Youngs Moduli (GPa) = 85.71857 81.49056 315.35159
#
# Poissons Ratio (x) = 0.44722 0.34286
# Poissons Ratio (y) = 0.47042 -0.35138
# Poissons Ratio (z) = 0.09320 -0.09080
#
# Static dielectric constant tensor:
#      x y z
#    x 2.006570 0.000000 0.000000 
#    y 0.000000 2.214820 0.000000 
#    z 0.000000 0.000000 1.723580 
# 
# From -- ./inp_files/28156.got.cif
#   From: 2010.05.17/outbox.cif.g08.bks.cpg/sg54_15_cif.got.tgz:28156.got - 2010.06.03 13:09:01.
