data_PCOD9423169
_publ_section_title
;
Structure prediction by ZEFSAII (Michael W. Deem and Ramdas Pophale) SiO2 
 PCOD9423169
Probable space group: P C C A
;
_chemical_formula_sum "Si O2"
_cell_formula_units_Z 44
_cell_length_a 16.986487
_cell_length_b 10.777525
_cell_length_c 8.551370
_cell_angle_alpha 90.000000
_cell_angle_beta 90.000000
_cell_angle_gamma 90.000000
_cell_volume 1565.518874
_symmetry_space_group_name_H-M "P C C A"
_symmetry_group_IT_number 54
_symmetry_cell_setting 'orthorhombic'
loop_
_space_group_symop_operation_xyz
x,y,z
1/2-x,-y,z
1/2+x,-y,1/2-z
-x,y,1/2-z
-x,-y,-z
1/2+x,y,-z
1/2-x,y,1/2+z
x,-y,1/2+z
loop_
_atom_site_type_symbol
_atom_site_label
_atom_site_fract_x
_atom_site_fract_y
_atom_site_fract_z
Si Si1 0.149939 0.110884 0.644818
Si Si2 0.000000 0.478357 0.250000
Si Si3 0.652789 0.620987 0.636362
Si Si4 0.327608 0.836823 0.104152
Si Si5 0.000000 0.984433 0.750000
Si Si6 0.750000 0.500000 0.380989
Si Si7 0.563975 0.243152 0.603814
O O1 0.240215 0.143269 0.675731
O O2 0.117769 0.225623 0.544776
O O3 0.076093 0.070616 0.750527
O O4 0.155146 0.978696 0.554828
O O5 0.074087 0.567852 0.283554
O O6 0.015222 0.370903 0.385087
O O7 0.677720 0.531712 0.492672
O O8 0.722097 0.605110 0.762582
O O9 0.341122 0.751350 0.952688
O O10 0.379376 0.777429 0.245094
O O11 0.989518 0.881789 0.610461
#
# Coordination Sequence:
#
# PCOD9423169 Si02
#       7
#     8   4   8   8   4   4   8
#     4  10  22  42  72 110 159 207 263 329 402 482
#     4  11  26  48  81 110 159 210 268 329 404 473
#     4  11  25  50  78 118 158 211 268 334 403 482
#     4  10  24  41  72 116 156 208 268 328 403 484
#     4   9  20  42  67 106 155 210 262 325 406 471
#     4  10  26  46  80 114 158 204 270 334 404 470
#     4  10  22  44  72 107 159 206 266 332 392 478
#
# _framework density 28.105698
#
# number of rings (size 3 to 8) (size 9 to 14) (size 15 to 20)
#    0.000    1.818    0.000    1.636    7.636    8.727 
#    0.000    1.818    4.000    0.000    0.000    0.000 
#    0.000    0.000    0.000    0.000    0.000    0.000 
#
# Total GULP energy -245696.157030 kJ/mol
# GULP energy per Si atom -5584.003569 kJ/mol
# Density = 2.804173 g / cm^3
# Si number density = 28.105698 Si / 1000 Ang^3
#
#
#
# Elastic Constant Matrix: (Units=GPa)
#
#
# Indices 1 2 3 4 5 6 
#
# 1 206.7625 73.3296 65.4185 0.0000 0.0000 0.0000
# 2 73.3296 202.5631 63.2994 0.0000 0.0000 0.0000
# 3 65.4185 63.2994 79.6410 0.0000 0.0000 0.0000
# 4 0.0000 0.0000 0.0000 56.3766 0.0000 0.0000
# 5 0.0000 0.0000 0.0000 0.0000 38.4435 0.0000
# 6 0.0000 0.0000 0.0000 0.0000 0.0000 351.5856
#
#
#
# Elastic Compliance Matrix: (Units=1/GPa)
#
#
# Indices 1 2 3 4 5 6 
#
# 1 0.006665 -0.000934 -0.004732 0.000000 0.000000 0.000000
# 2 -0.000934 0.006699 -0.004557 0.000000 0.000000 0.000000
# 3 -0.004732 -0.004557 0.020066 0.000000 0.000000 0.000000
# 4 0.000000 0.000000 0.000000 0.017738 0.000000 0.000000
# 5 0.000000 0.000000 0.000000 0.000000 0.026012 0.000000
# 6 0.000000 0.000000 0.000000 0.000000 0.000000 0.002844
#
#
# Mechanical properties :
#
#
# Convention : Reuss Voigt Hill
#
# Bulk Modulus (GPa) = 77.02672 99.22907 88.12790
# Shear Modulus (GPa) = 47.71050 108.40909 78.05979
#
# Velocity S-wave (km/s) = 4.12459 6.21737 5.27579
# Velocity P-wave (km/s) = 7.08157 9.32326 8.27864
#
# Compressibility (1/GPa) = 0.01298251
#
# Stress axis : x y z
#
# Youngs Moduli (GPa) = 150.03709 149.27780 49.83607
#
# Poissons Ratio (x) = 0.13942 0.23585
# Poissons Ratio (y) = 0.14013 0.22711
# Poissons Ratio (z) = 0.71004 0.68029
#
# Static dielectric constant tensor:
#      x y z
#    x 2.227360 0.000000 0.000000 
#    y 0.000000 2.197470 0.000000 
#    z 0.000000 0.000000 2.292170 
# 
# From -- ./inp_files/9879.got.cif
#   From: 2010.05.17/outbox.cif.g08.bks.cpg/sg54_5_cif.got.tgz:9879.got - 2010.06.03 13:09:01.
