data_PCOD9423523
_publ_section_title
;
Structure prediction by ZEFSAII (Michael W. Deem and Ramdas Pophale) SiO2 
 PCOD9423523
Probable space group: P C C A
;
_chemical_formula_sum "Si O2"
_cell_formula_units_Z 40
_cell_length_a 17.704480
_cell_length_b 4.779944
_cell_length_c 17.975010
_cell_angle_alpha 90.000000
_cell_angle_beta 90.000000
_cell_angle_gamma 90.000000
_cell_volume 1521.160799
_symmetry_space_group_name_H-M "P C C A"
_symmetry_group_IT_number 54
_symmetry_cell_setting 'orthorhombic'
loop_
_space_group_symop_operation_xyz
x,y,z
1/2-x,-y,z
1/2+x,-y,1/2-z
-x,y,1/2-z
-x,-y,-z
1/2+x,y,-z
1/2-x,y,1/2+z
x,-y,1/2+z
loop_
_atom_site_type_symbol
_atom_site_label
_atom_site_fract_x
_atom_site_fract_y
_atom_site_fract_z
Si Si1 0.833342 0.420226 0.489922
Si Si2 0.951125 0.737457 0.547611
Si Si3 0.340320 0.066732 0.365915
Si Si4 0.412007 0.589792 0.733328
Si Si5 0.901052 0.925029 0.869935
O O1 0.750000 0.500000 0.508169
O O2 0.880228 0.706453 0.491871
O O3 0.838216 0.232827 0.417550
O O4 0.862772 0.242119 0.560174
O O5 0.896800 0.799689 0.622312
O O6 0.000000 0.500000 0.500000
O O7 0.023275 0.908799 0.578280
O O8 0.250000 0.000000 0.364842
O O9 0.362276 0.269626 0.298093
O O10 0.500000 0.648142 0.750000
O O11 0.408796 0.271847 0.704090
O O12 0.389376 0.770826 0.661523
#
# Coordination Sequence:
#
# PCOD9423523 Si02
#       5
#     8   8   8   8   8
#     4  11  25  44  72 102 146 187 246 303 378 444
#     4  10  23  44  71 105 136 189 246 311 366 447
#     4  12  26  44  74 107 150 196 247 314 386 459
#     4  12  26  47  72 104 146 193 246 304 372 450
#     4  11  27  45  75 104 143 192 248 307 366 447
#
# _framework density 26.295708000000001
#
# number of rings (size 3 to 8) (size 9 to 14) (size 15 to 20)
#    0.000    0.800    4.000    1.800    8.400    3.200 
#    0.000    0.000    0.000    0.000    0.000    0.000 
#    0.000    0.000    0.000    0.000    0.000    0.000 
#
# Total GULP energy -222731.376753 kJ/mol
# GULP energy per Si atom -5568.284419 kJ/mol
# Density = 2.623586 g / cm^3
# Si number density = 26.295708 Si / 1000 Ang^3
#
#
#
# Elastic Constant Matrix: (Units=GPa)
#
#
# Indices 1 2 3 4 5 6 
#
# 1 111.1378 17.5145 0.8499 0.0000 0.0000 0.0000
# 2 17.5145 112.4553 13.8138 0.0000 0.0000 0.0000
# 3 0.8499 13.8138 116.4795 0.0000 0.0000 0.0000
# 4 0.0000 0.0000 0.0000 142.3427 0.0000 0.0000
# 5 0.0000 0.0000 0.0000 0.0000 13.5175 0.0000
# 6 0.0000 0.0000 0.0000 0.0000 0.0000 -1.2754
#
#
#
# Elastic Compliance Matrix: (Units=1/GPa)
#
#
# Indices 1 2 3 4 5 6 
#
# 1 0.009225 -0.001450 0.000105 0.000000 0.000000 0.000000
# 2 -0.001450 0.009252 -0.001087 0.000000 0.000000 0.000000
# 3 0.000105 -0.001087 0.008713 0.000000 0.000000 0.000000
# 4 0.000000 0.000000 0.000000 0.007025 0.000000 0.000000
# 5 0.000000 0.000000 0.000000 0.000000 0.073978 0.000000
# 6 0.000000 0.000000 0.000000 0.000000 0.000000 -0.784045
#
#
# Mechanical properties :
#
#
# Convention : Reuss Voigt Hill
#
# Bulk Modulus (GPa) = 44.78864 44.93656 44.86260
# Shear Modulus (GPa) = -7.53529 51.44325 21.95398
#
# Velocity S-wave (km/s) = -1.69464 4.42785 2.89258
# Velocity P-wave (km/s) = 3.63876 6.57778 5.31544
#
# Compressibility (1/GPa) = 0.02232709
#
# Stress axis : x y z
#
# Youngs Moduli (GPa) = 108.39523 108.08838 114.76703
#
# Poissons Ratio (x) = 0.15669 -0.01201
# Poissons Ratio (y) = 0.15714 0.12471
# Poissons Ratio (z) = -0.01134 0.11745
#
# Static dielectric constant tensor:
#      x y z
#    x 1.997560 0.000000 0.000000 
#    y 0.000000 2.467620 0.000000 
#    z 0.000000 0.000000 2.162920 
# 
# From -- ./inp_files/18367.got.cif
#   From: 2010.05.17/outbox.cif.g08.bks.cpg/sg54_10_cif.got.tgz:18367.got - 2010.06.03 13:09:01.
