data_PCOD9423917
_publ_section_title
;
Structure prediction by ZEFSAII (Michael W. Deem and Ramdas Pophale) SiO2 
 PCOD9423917
Probable space group: P C C A
;
_chemical_formula_sum "Si O2"
_cell_formula_units_Z 60
_cell_length_a 26.972530
_cell_length_b 11.384569
_cell_length_c 9.319468
_cell_angle_alpha 90.000000
_cell_angle_beta 90.000000
_cell_angle_gamma 90.000000
_cell_volume 2861.734900
_symmetry_space_group_name_H-M "P C C A"
_symmetry_group_IT_number 54
_symmetry_cell_setting 'orthorhombic'
loop_
_space_group_symop_operation_xyz
x,y,z
1/2-x,-y,z
1/2+x,-y,1/2-z
-x,y,1/2-z
-x,-y,-z
1/2+x,y,-z
1/2-x,y,1/2+z
x,-y,1/2+z
loop_
_atom_site_type_symbol
_atom_site_label
_atom_site_fract_x
_atom_site_fract_y
_atom_site_fract_z
Si Si1 0.697478 0.050007 0.671528
Si Si2 0.049504 0.571091 0.032790
Si Si3 0.883245 0.498657 0.220984
Si Si4 0.448335 0.150001 0.001160
Si Si5 0.195834 0.670565 0.807756
Si Si6 0.703772 0.650066 0.855788
Si Si7 0.840236 0.902694 0.390628
Si Si8 0.000000 0.993874 0.750000
O O1 0.696322 0.189238 0.686774
O O2 0.690734 0.023065 0.504893
O O3 0.750000 0.000000 0.720664
O O4 0.653629 0.985528 0.755211
O O5 0.069753 0.543776 0.190489
O O6 0.041455 0.709981 0.006280
O O7 0.094668 0.520853 0.936274
O O8 0.000000 0.500000 0.000000
O O9 0.856318 0.374891 0.254460
O O10 0.837874 0.585213 0.260294
O O11 0.389938 0.136221 0.030195
O O12 0.473079 0.079161 0.134444
O O13 0.466399 0.090014 0.852751
O O14 0.241954 0.631634 0.710127
O O15 0.201491 0.623918 0.972702
O O16 0.689425 0.787052 0.846288
#
# Coordination Sequence:
#
# PCOD9423917 Si02
#       8
#     8   8   8   8   8   8   8   4
#     4  11  22  39  63  97 137 177 228 275 345 415
#     4  12  28  47  76 104 142 190 245 304 367 434
#     4  12  25  49  67 102 137 185 236 295 358 425
#     4  11  24  50  72 106 145 179 244 299 368 439
#     4  11  25  42  68 100 139 184 232 290 349 429
#     4  11  24  43  67  96 142 182 232 289 345 423
#     4  11  22  41  65  97 135 179 225 289 345 422
#     4  10  26  46  78 106 138 190 230 308 378 432
#
# _framework density 20.966301999999999
#
# number of rings (size 3 to 8) (size 9 to 14) (size 15 to 20)
#    0.000    0.800    4.000    2.800    7.467    1.067 
#    2.400    0.000    0.000    0.000    0.000    0.000 
#    0.000    0.000    0.000    0.000    0.000    0.000 
#
# Total GULP energy -334936.726807 kJ/mol
# GULP energy per Si atom -5582.278780 kJ/mol
# Density = 2.091858 g / cm^3
# Si number density = 20.966302 Si / 1000 Ang^3
#
#
#
# Elastic Constant Matrix: (Units=GPa)
#
#
# Indices 1 2 3 4 5 6 
#
# 1 91.0812 28.2456 8.7244 0.0000 0.0000 0.0000
# 2 28.2456 90.3632 56.4130 0.0000 0.0000 0.0000
# 3 8.7244 56.4130 75.7372 0.0000 0.0000 0.0000
# 4 0.0000 0.0000 0.0000 29.8188 0.0000 0.0000
# 5 0.0000 0.0000 0.0000 0.0000 34.4086 0.0000
# 6 0.0000 0.0000 0.0000 0.0000 0.0000 36.2336
#
#
#
# Elastic Compliance Matrix: (Units=1/GPa)
#
#
# Indices 1 2 3 4 5 6 
#
# 1 0.012454 -0.005603 0.002738 0.000000 0.000000 0.000000
# 2 -0.005603 0.023205 -0.016639 0.000000 0.000000 0.000000
# 3 0.002738 -0.016639 0.025282 0.000000 0.000000 0.000000
# 4 0.000000 0.000000 0.000000 0.033536 0.000000 0.000000
# 5 0.000000 0.000000 0.000000 0.000000 0.029062 0.000000
# 6 0.000000 0.000000 0.000000 0.000000 0.000000 0.027599
#
#
# Mechanical properties :
#
#
# Convention : Reuss Voigt Hill
#
# Bulk Modulus (GPa) = 45.58939 49.32751 47.45845
# Shear Modulus (GPa) = 25.32195 31.01212 28.16704
#
# Velocity S-wave (km/s) = 3.47903 3.85013 3.66928
# Velocity P-wave (km/s) = 6.15870 6.58353 6.37465
#
# Compressibility (1/GPa) = 0.02193493
#
# Stress axis : x y z
#
# Youngs Moduli (GPa) = 80.29338 43.09337 39.55397
#
# Poissons Ratio (x) = 0.24143 -0.10831
# Poissons Ratio (y) = 0.44984 0.65815
# Poissons Ratio (z) = -0.21988 0.71704
#
# Static dielectric constant tensor:
#      x y z
#    x 1.764320 0.000000 0.000000 
#    y 0.000000 1.756090 0.000000 
#    z 0.000000 0.000000 1.764000 
# 
# From -- ./inp_files/5592.got.cif
#   From: 2010.05.17/outbox.cif.g08.bks.cpg/sg54_3_cif.got.tgz:5592.got - 2010.06.03 13:09:01.
