data_PCOD9423177
_publ_section_title
;
Structure prediction by ZEFSAII (Michael W. Deem and Ramdas Pophale) SiO2 
 PCOD9423177
Probable space group: P C C A
;
_chemical_formula_sum "Si O2"
_cell_formula_units_Z 52
_cell_length_a 16.253979
_cell_length_b 8.345439
_cell_length_c 17.965449
_cell_angle_alpha 90.000000
_cell_angle_beta 90.000000
_cell_angle_gamma 90.000000
_cell_volume 2436.951899
_symmetry_space_group_name_H-M "P C C A"
_symmetry_group_IT_number 54
_symmetry_cell_setting 'orthorhombic'
loop_
_space_group_symop_operation_xyz
x,y,z
1/2-x,-y,z
1/2+x,-y,1/2-z
-x,y,1/2-z
-x,-y,-z
1/2+x,y,-z
1/2-x,y,1/2+z
x,-y,1/2+z
loop_
_atom_site_type_symbol
_atom_site_label
_atom_site_fract_x
_atom_site_fract_y
_atom_site_fract_z
Si Si1 0.089776 0.612272 0.089522
Si Si2 0.611453 0.154754 0.021874
Si Si3 0.909554 0.486181 0.070780
Si Si4 0.000000 0.832348 0.750000
Si Si5 0.250000 0.000000 0.378771
Si Si6 0.670208 0.699275 0.201714
Si Si7 0.449768 0.038613 0.109296
Si Si8 0.250000 0.500000 0.673633
O O1 0.089590 0.788786 0.125614
O O2 0.169877 0.527402 0.122718
O O3 0.003118 0.516281 0.100878
O O4 0.091921 0.634909 0.999321
O O5 0.612980 0.345638 0.031580
O O6 0.529925 0.090236 0.062610
O O7 0.686478 0.087625 0.067924
O O8 0.606120 0.080604 0.939786
O O9 0.847657 0.427177 0.134544
O O10 0.079680 0.728024 0.766177
O O11 0.020254 0.944770 0.680646
O O12 0.204356 0.135036 0.330824
O O13 0.728687 0.640752 0.267859
#
# Coordination Sequence:
#
# PCOD9423177 Si02
#       8
#     8   8   8   4   4   8   8   4
#     4  10  24  43  74 101 138 177 242 283 344 408
#     4  10  22  42  74  98 131 175 240 281 344 402
#     4  10  23  46  72  99 131 190 232 288 335 427
#     4  12  26  44  74  98 140 186 230 274 344 432
#     4  12  24  44  68 104 132 186 228 300 350 404
#     4  12  27  44  68  99 144 182 228 283 357 418
#     4  10  23  44  68 100 133 182 229 285 331 427
#     4  12  28  44  64 108 144 184 222 298 358 412
#
# _framework density 21.33813
#
# number of rings (size 3 to 8) (size 9 to 14) (size 15 to 20)
#    0.000    1.231    1.538    2.769   10.769    5.538 
#    0.000    0.000    0.000    0.000    0.000    0.000 
#    0.000    0.000    0.000    0.000    0.000    0.000 
#
# Total GULP energy -290671.505026 kJ/mol
# GULP energy per Si atom -5589.836635 kJ/mol
# Density = 2.128956 g / cm^3
# Si number density = 21.338130 Si / 1000 Ang^3
#
#
#
# Elastic Constant Matrix: (Units=GPa)
#
#
# Indices 1 2 3 4 5 6 
#
# 1 86.4868 18.8446 12.6220 0.0000 0.0000 0.0000
# 2 18.8446 32.1377 1.3683 0.0000 0.0000 0.0000
# 3 12.6220 1.3683 66.1341 0.0000 0.0000 0.0000
# 4 0.0000 0.0000 0.0000 131.4522 0.0000 0.0000
# 5 0.0000 0.0000 0.0000 0.0000 38.8209 0.0000
# 6 0.0000 0.0000 0.0000 0.0000 0.0000 32.9497
#
#
#
# Elastic Compliance Matrix: (Units=1/GPa)
#
#
# Indices 1 2 3 4 5 6 
#
# 1 0.013638 -0.007893 -0.002440 0.000000 0.000000 0.000000
# 2 -0.007893 0.035712 0.000768 0.000000 0.000000 0.000000
# 3 -0.002440 0.000768 0.015571 0.000000 0.000000 0.000000
# 4 0.000000 0.000000 0.000000 0.007607 0.000000 0.000000
# 5 0.000000 0.000000 0.000000 0.000000 0.025759 0.000000
# 6 0.000000 0.000000 0.000000 0.000000 0.000000 0.030349
#
#
# Mechanical properties :
#
#
# Convention : Reuss Voigt Hill
#
# Bulk Modulus (GPa) = 21.83878 27.82537 24.83207
# Shear Modulus (GPa) = 30.66908 50.77281 40.72095
#
# Velocity S-wave (km/s) = 3.79527 4.88324 4.37322
# Velocity P-wave (km/s) = 5.42792 6.69800 6.09613
#
# Compressibility (1/GPa) = 0.04579011
#
# Stress axis : x y z
#
# Youngs Moduli (GPa) = 73.32258 28.00192 64.22392
#
# Poissons Ratio (x) = 0.22103 0.15668
# Poissons Ratio (y) = 0.57875 -0.04930
# Poissons Ratio (z) = 0.17888 -0.02149
#
# Static dielectric constant tensor:
#      x y z
#    x 1.892580 0.000000 0.000000 
#    y 0.000000 1.893930 0.000000 
#    z 0.000000 0.000000 1.753830 
# 
# From -- ./inp_files/18644.got.cif
#   From: 2010.05.17/outbox.cif.g08.bks.cpg/sg54_10_cif.got.tgz:18644.got - 2010.06.03 13:09:01.
