data_PCOD9423600
_publ_section_title
;
Structure prediction by ZEFSAII (Michael W. Deem and Ramdas Pophale) SiO2 
 PCOD9423600
Probable space group: P C C A
;
_chemical_formula_sum "Si O2"
_cell_formula_units_Z 44
_cell_length_a 13.321818
_cell_length_b 19.545368
_cell_length_c 8.755083
_cell_angle_alpha 90.000000
_cell_angle_beta 90.000000
_cell_angle_gamma 90.000000
_cell_volume 2279.647069
_symmetry_space_group_name_H-M "P C C A"
_symmetry_group_IT_number 54
_symmetry_cell_setting 'orthorhombic'
loop_
_space_group_symop_operation_xyz
x,y,z
1/2-x,-y,z
1/2+x,-y,1/2-z
-x,y,1/2-z
-x,-y,-z
1/2+x,y,-z
1/2-x,y,1/2+z
x,-y,1/2+z
loop_
_atom_site_type_symbol
_atom_site_label
_atom_site_fract_x
_atom_site_fract_y
_atom_site_fract_z
Si Si1 0.902806 0.948063 0.007944
Si Si2 0.614141 0.310539 0.492885
Si Si3 0.318434 0.321910 0.655658
Si Si4 0.533606 0.799567 0.425651
Si Si5 0.250000 0.000000 0.241284
Si Si6 0.029502 0.427635 0.071069
O O1 0.940787 0.870750 0.002341
O O2 0.825712 0.957591 0.866252
O O3 0.829745 0.960721 0.151788
O O4 0.000000 0.000000 0.000000
O O5 0.657147 0.319496 0.664950
O O6 0.702074 0.315308 0.373658
O O7 0.556686 0.239014 0.490104
O O8 0.535605 0.371812 0.480433
O O9 0.377534 0.256818 0.584424
O O10 0.360658 0.392256 0.580207
O O11 0.500000 0.812368 0.250000
O O12 0.000000 0.429271 0.250000
O O13 0.000000 0.500000 0.000000
#
# Coordination Sequence:
#
# PCOD9423600 Si02
#       6
#     8   8   8   8   4   8
#     4  11  22  40  60  84 118 152 190 241 290 342
#     4   9  19  36  55  78 105 139 178 219 272 323
#     4   9  19  35  54  77 106 138 177 222 266 324
#     4   9  19  36  57  78 107 144 179 224 277 325
#     4  10  24  38  58  88 114 150 198 234 288 356
#     4   9  19  35  53  75 106 140 175 217 267 321
#
# _framework density 19.301231999999999
#
# number of rings (size 3 to 8) (size 9 to 14) (size 15 to 20)
#    0.000    2.545    0.000    3.818    0.000    8.000 
#    0.000    8.182    0.000    0.000    0.000    0.000 
#    0.000    0.000    0.000    0.000    0.000    0.000 
#
# Total GULP energy -245229.450998 kJ/mol
# GULP energy per Si atom -5573.396614 kJ/mol
# Density = 1.925730 g / cm^3
# Si number density = 19.301232 Si / 1000 Ang^3
#
#
#
# Elastic Constant Matrix: (Units=GPa)
#
#
# Indices 1 2 3 4 5 6 
#
# 1 74.8164 31.3187 15.6690 0.0000 0.0000 0.0000
# 2 31.3187 127.2442 29.1036 0.0000 0.0000 0.0000
# 3 15.6690 29.1036 28.2754 0.0000 0.0000 0.0000
# 4 0.0000 0.0000 0.0000 -10.9704 0.0000 0.0000
# 5 0.0000 0.0000 0.0000 0.0000 31.2007 0.0000
# 6 0.0000 0.0000 0.0000 0.0000 0.0000 14.8014
#
#
#
# Elastic Compliance Matrix: (Units=1/GPa)
#
#
# Indices 1 2 3 4 5 6 
#
# 1 0.015683 -0.002449 -0.006171 0.000000 0.000000 0.000000
# 2 -0.002449 0.010661 -0.009616 0.000000 0.000000 0.000000
# 3 -0.006171 -0.009616 0.048684 0.000000 0.000000 0.000000
# 4 0.000000 0.000000 0.000000 -0.091154 0.000000 0.000000
# 5 0.000000 0.000000 0.000000 0.000000 0.032051 0.000000
# 6 0.000000 0.000000 0.000000 0.000000 0.000000 0.067561
#
#
# Mechanical properties :
#
#
# Convention : Reuss Voigt Hill
#
# Bulk Modulus (GPa) = 25.93557 42.50206 34.21882
# Shear Modulus (GPa) = 37.64784 17.28932 27.46858
#
# Velocity S-wave (km/s) = 4.42128 2.99618 3.77656
# Velocity P-wave (km/s) = 6.28730 5.83418 6.06497
#
# Compressibility (1/GPa) = 0.03855708
#
# Stress axis : x y z
#
# Youngs Moduli (GPa) = 63.76138 93.79883 20.54063
#
# Poissons Ratio (x) = 0.22970 0.12675
# Poissons Ratio (y) = 0.15614 0.19753
# Poissons Ratio (z) = 0.39344 0.90200
#
# Static dielectric constant tensor:
#      x y z
#    x 1.676330 0.000000 0.000000 
#    y 0.000000 1.661290 0.000000 
#    z 0.000000 0.000000 1.705950 
# 
# From -- ./inp_files/3541.got.cif
#   From: 2010.05.17/outbox.cif.g08.bks.cpg/sg54_2_cif.got.tgz:3541.got - 2010.06.03 13:09:01.
