data_PCOD9423487
_publ_section_title
;
Structure prediction by ZEFSAII (Michael W. Deem and Ramdas Pophale) SiO2 
 PCOD9423487
Probable space group: P C C A
;
_chemical_formula_sum "Si O2"
_cell_formula_units_Z 56
_cell_length_a 14.937230
_cell_length_b 11.690092
_cell_length_c 13.921219
_cell_angle_alpha 90.000000
_cell_angle_beta 90.000000
_cell_angle_gamma 90.000000
_cell_volume 2430.889752
_symmetry_space_group_name_H-M "P C C A"
_symmetry_group_IT_number 54
_symmetry_cell_setting 'orthorhombic'
loop_
_space_group_symop_operation_xyz
x,y,z
1/2-x,-y,z
1/2+x,-y,1/2-z
-x,y,1/2-z
-x,-y,-z
1/2+x,y,-z
1/2-x,y,1/2+z
x,-y,1/2+z
loop_
_atom_site_type_symbol
_atom_site_label
_atom_site_fract_x
_atom_site_fract_y
_atom_site_fract_z
Si Si1 0.145121 0.501493 0.666396
Si Si2 0.091679 0.705488 0.304183
Si Si3 0.962255 0.652838 0.467832
Si Si4 0.343932 0.895417 0.083289
Si Si5 0.535520 0.281156 0.848837
Si Si6 0.232757 0.129842 0.299706
Si Si7 0.836463 0.148123 0.003575
O O1 0.250000 0.500000 0.651097
O O2 0.119422 0.412318 0.750681
O O3 0.091955 0.452176 0.575393
O O4 0.113694 0.631041 0.681877
O O5 0.176303 0.793002 0.299459
O O6 0.000000 0.747847 0.250000
O O7 0.054407 0.672955 0.409688
O O8 0.899208 0.762771 0.450895
O O9 0.973240 0.645310 0.581770
O O10 0.433650 0.823530 0.085265
O O11 0.307646 0.886832 0.193067
O O12 0.267434 0.833130 0.022522
O O13 0.355236 0.021437 0.039137
O O14 0.500000 0.234728 0.750000
O O15 0.162362 0.167689 0.381714
O O16 0.250000 0.000000 0.333555
#
# Coordination Sequence:
#
# PCOD9423487 Si02
#       7
#     8   8   8   8   8   8   8
#     4  11  24  45  74  98 130 174 229 281 344 416
#     4  10  23  43  69 103 134 178 224 285 351 409
#     4  11  24  43  68  98 138 176 224 284 354 403
#     4  11  23  41  65  93 134 182 221 278 333 404
#     4  12  25  45  64  97 137 171 229 286 340 401
#     4  12  22  41  67  96 133 181 225 272 335 417
#     4  11  23  42  64  98 136 178 229 274 332 421
#
# _framework density 23.036830999999999
#
# number of rings (size 3 to 8) (size 9 to 14) (size 15 to 20)
#    0.000    0.857    2.857    6.857    0.000    0.571 
#    2.571    1.429    0.000    0.000    0.000    0.000 
#    0.000    0.000    0.000    0.000    0.000    0.000 
#
# Total GULP energy -312858.233498 kJ/mol
# GULP energy per Si atom -5586.754170 kJ/mol
# Density = 2.298440 g / cm^3
# Si number density = 23.036831 Si / 1000 Ang^3
#
#
#
# Elastic Constant Matrix: (Units=GPa)
#
#
# Indices 1 2 3 4 5 6 
#
# 1 63.7356 39.4956 11.4982 0.0000 0.0000 0.0000
# 2 39.4956 81.2910 4.5156 0.0000 0.0000 0.0000
# 3 11.4982 4.5156 116.2205 0.0000 0.0000 0.0000
# 4 0.0000 0.0000 0.0000 24.3473 0.0000 0.0000
# 5 0.0000 0.0000 0.0000 0.0000 29.9896 0.0000
# 6 0.0000 0.0000 0.0000 0.0000 0.0000 44.5147
#
#
#
# Elastic Compliance Matrix: (Units=1/GPa)
#
#
# Indices 1 2 3 4 5 6 
#
# 1 0.022831 -0.010991 -0.001832 0.000000 0.000000 0.000000
# 2 -0.010991 0.017619 0.000403 0.000000 0.000000 0.000000
# 3 -0.001832 0.000403 0.008770 0.000000 0.000000 0.000000
# 4 0.000000 0.000000 0.000000 0.041072 0.000000 0.000000
# 5 0.000000 0.000000 0.000000 0.000000 0.033345 0.000000
# 6 0.000000 0.000000 0.000000 0.000000 0.000000 0.022464
#
#
# Mechanical properties :
#
#
# Convention : Reuss Voigt Hill
#
# Bulk Modulus (GPa) = 41.01638 41.36287 41.18962
# Shear Modulus (GPa) = 27.92235 33.48616 30.70426
#
# Velocity S-wave (km/s) = 3.48526 3.81674 3.65476
# Velocity P-wave (km/s) = 5.83433 6.11698 5.97732
#
# Compressibility (1/GPa) = 0.02438050
#
# Stress axis : x y z
#
# Youngs Moduli (GPa) = 43.80003 56.75679 114.02631
#
# Poissons Ratio (x) = 0.62380 0.20887
# Poissons Ratio (y) = 0.48140 -0.04593
# Poissons Ratio (z) = 0.08023 -0.02286
#
# Static dielectric constant tensor:
#      x y z
#    x 1.892650 0.000000 0.000000 
#    y 0.000000 1.877770 0.000000 
#    z 0.000000 0.000000 1.889850 
# 
# From -- ./inp_files/13500.got.cif
#   From: 2010.05.17/outbox.cif.g08.bks.cpg/sg54_7_cif.got.tgz:13500.got - 2010.06.03 13:09:01.
