data_PCOD9423119
_publ_section_title
;
Structure prediction by ZEFSAII (Michael W. Deem and Ramdas Pophale) SiO2 
 PCOD9423119
Probable space group: P C C A
;
_chemical_formula_sum "Si O2"
_cell_formula_units_Z 56
_cell_length_a 22.252855
_cell_length_b 5.372497
_cell_length_c 19.213910
_cell_angle_alpha 90.000000
_cell_angle_beta 90.000000
_cell_angle_gamma 90.000000
_cell_volume 2297.088205
_symmetry_space_group_name_H-M "P C C A"
_symmetry_group_IT_number 54
_symmetry_cell_setting 'orthorhombic'
loop_
_space_group_symop_operation_xyz
x,y,z
1/2-x,-y,z
1/2+x,-y,1/2-z
-x,y,1/2-z
-x,-y,-z
1/2+x,y,-z
1/2-x,y,1/2+z
x,-y,1/2+z
loop_
_atom_site_type_symbol
_atom_site_label
_atom_site_fract_x
_atom_site_fract_y
_atom_site_fract_z
Si Si1 0.897183 0.575161 0.137011
Si Si2 0.934804 0.211985 0.253038
Si Si3 0.054626 0.826690 0.481752
Si Si4 0.184192 0.039544 0.797462
Si Si5 0.159536 0.058164 0.559088
Si Si6 0.198023 0.697946 0.934734
Si Si7 0.607190 0.565613 0.393812
O O1 0.931662 0.389737 0.186139
O O2 0.942697 0.760197 0.099287
O O3 0.863646 0.455954 0.070790
O O4 0.841629 0.691963 0.180608
O O5 0.872900 0.059892 0.245151
O O6 0.926789 0.369966 0.323064
O O7 0.000000 0.081122 0.250000
O O8 0.061589 0.613812 0.541325
O O9 0.113398 0.990823 0.497018
O O10 0.000000 0.000000 0.500000
O O11 0.192042 0.888115 0.870259
O O12 0.250000 0.000000 0.763361
O O13 0.209418 0.187946 0.510809
O O14 0.133467 0.287108 0.604354
O O15 0.157903 0.788791 0.596916
O O16 0.250000 0.500000 0.921415
#
# Coordination Sequence:
#
# PCOD9423119 Si02
#       7
#     8   8   8   8   8   8   8
#     4  11  23  42  70 105 141 189 252 310 381 447
#     4  11  29  44  69 103 153 201 261 316 391 463
#     4  10  23  38  71 102 140 186 238 296 376 443
#     4  11  23  43  71 103 143 190 255 318 382 457
#     4  10  22  42  65  96 143 178 236 287 378 440
#     4  11  20  39  69 108 139 178 242 318 380 446
#     4  10  24  45  65  96 149 193 237 302 374 454
#
# _framework density 24.378691
#
# number of rings (size 3 to 8) (size 9 to 14) (size 15 to 20)
#    0.857    0.571    4.286    0.000    6.000    1.143 
#    0.000    1.429    0.000    0.000    0.000    0.000 
#    0.000    0.000    0.000    0.000    0.000    0.000 
#
# Total GULP energy -312205.244488 kJ/mol
# GULP energy per Si atom -5575.093652 kJ/mol
# Density = 2.432320 g / cm^3
# Si number density = 24.378691 Si / 1000 Ang^3
#
#
#
# Elastic Constant Matrix: (Units=GPa)
#
#
# Indices 1 2 3 4 5 6 
#
# 1 104.3287 8.3331 32.8840 0.0000 0.0000 0.0000
# 2 8.3331 70.2121 2.5382 0.0000 0.0000 0.0000
# 3 32.8840 2.5382 73.1069 0.0000 0.0000 0.0000
# 4 0.0000 0.0000 0.0000 11.4682 0.0000 0.0000
# 5 0.0000 0.0000 0.0000 0.0000 5.2558 0.0000
# 6 0.0000 0.0000 0.0000 0.0000 0.0000 30.6938
#
#
#
# Elastic Compliance Matrix: (Units=1/GPa)
#
#
# Indices 1 2 3 4 5 6 
#
# 1 0.011261 -0.001155 -0.005025 0.000000 0.000000 0.000000
# 2 -0.001155 0.014379 0.000020 0.000000 0.000000 0.000000
# 3 -0.005025 0.000020 0.015938 0.000000 0.000000 0.000000
# 4 0.000000 0.000000 0.000000 0.087197 0.000000 0.000000
# 5 0.000000 0.000000 0.000000 0.000000 0.190266 0.000000
# 6 0.000000 0.000000 0.000000 0.000000 0.000000 0.032580
#
#
# Mechanical properties :
#
#
# Convention : Reuss Voigt Hill
#
# Bulk Modulus (GPa) = 34.17797 37.23983 35.70890
# Shear Modulus (GPa) = 13.37989 23.07638 18.22814
#
# Velocity S-wave (km/s) = 2.34527 3.07999 2.73739
# Velocity P-wave (km/s) = 4.62426 5.28746 4.96694
#
# Compressibility (1/GPa) = 0.02925861
#
# Stress axis : x y z
#
# Youngs Moduli (GPa) = 88.79973 69.54637 62.74183
#
# Poissons Ratio (x) = 0.08032 0.31530
# Poissons Ratio (y) = 0.10255 -0.00127
# Poissons Ratio (z) = 0.44625 -0.00141
#
# Static dielectric constant tensor:
#      x y z
#    x 2.295430 0.000000 0.000000 
#    y 0.000000 2.077820 0.000000 
#    z 0.000000 0.000000 1.438840 
# 
# From -- ./inp_files/22291.got.cif
#   From: 2010.05.17/outbox.cif.g08.bks.cpg/sg54_12_cif.got.tgz:22291.got - 2010.06.03 13:09:01.
