data_PCOD9423197
_publ_section_title
;
Structure prediction by ZEFSAII (Michael W. Deem and Ramdas Pophale) SiO2 
 PCOD9423197
Probable space group: P C C A
;
_chemical_formula_sum "Si O2"
_cell_formula_units_Z 16
_cell_length_a 13.238917
_cell_length_b 6.646469
_cell_length_c 8.050663
_cell_angle_alpha 90.000000
_cell_angle_beta 90.000000
_cell_angle_gamma 90.000000
_cell_volume 708.394353
_symmetry_space_group_name_H-M "P C C A"
_symmetry_group_IT_number 54
_symmetry_cell_setting 'orthorhombic'
loop_
_space_group_symop_operation_xyz
x,y,z
1/2-x,-y,z
1/2+x,-y,1/2-z
-x,y,1/2-z
-x,-y,-z
1/2+x,y,-z
1/2-x,y,1/2+z
x,-y,1/2+z
loop_
_atom_site_type_symbol
_atom_site_label
_atom_site_fract_x
_atom_site_fract_y
_atom_site_fract_z
Si Si1 0.021561 0.765360 0.998429
Si Si2 0.367692 0.541336 0.195059
O O1 0.090444 0.682417 0.844030
O O2 0.912222 0.663032 0.964332
O O3 0.081015 0.675200 0.155804
O O4 0.000000 0.000000 0.000000
O O5 0.250000 0.500000 0.204752
#
# Coordination Sequence:
#
# PCOD9423197 Si02
#       2
#     8   8
#     4  10  23  42  65  98 135 172 221 279 334 395
#     4  10  22  43  67  93 132 175 223 276 331 399
#
# _framework density 22.586292
#
# number of rings (size 3 to 8) (size 9 to 14) (size 15 to 20)
#    0.000    2.000    0.000    1.500    0.000   18.000 
#    0.000   15.000    0.000    0.000    0.000    0.000 
#    0.000    0.000    0.000    0.000    0.000    0.000 
#
# Total GULP energy -89081.883253 kJ/mol
# GULP energy per Si atom -5567.617703 kJ/mol
# Density = 2.253488 g / cm^3
# Si number density = 22.586292 Si / 1000 Ang^3
#
#
#
# Elastic Constant Matrix: (Units=GPa)
#
#
# Indices 1 2 3 4 5 6 
#
# 1 243.1722 103.8286 73.2934 0.0000 0.0000 0.0000
# 2 103.8286 252.4332 48.0455 0.0000 0.0000 0.0000
# 3 73.2934 48.0455 118.4413 0.0000 0.0000 0.0000
# 4 0.0000 0.0000 0.0000 7.5067 0.0000 0.0000
# 5 0.0000 0.0000 0.0000 0.0000 20.8144 0.0000
# 6 0.0000 0.0000 0.0000 0.0000 0.0000 1.9560
#
#
#
# Elastic Compliance Matrix: (Units=1/GPa)
#
#
# Indices 1 2 3 4 5 6 
#
# 1 0.005739 -0.001826 -0.002811 0.000000 0.000000 0.000000
# 2 -0.001826 0.004874 -0.000847 0.000000 0.000000 0.000000
# 3 -0.002811 -0.000847 0.010526 0.000000 0.000000 0.000000
# 4 0.000000 0.000000 0.000000 0.133214 0.000000 0.000000
# 5 0.000000 0.000000 0.000000 0.000000 0.048044 0.000000
# 6 0.000000 0.000000 0.000000 0.000000 0.000000 0.511240
#
#
# Mechanical properties :
#
#
# Convention : Reuss Voigt Hill
#
# Bulk Modulus (GPa) = 98.31568 118.26463 108.29015
# Shear Modulus (GPa) = 6.86818 31.98070 19.42444
#
# Velocity S-wave (km/s) = 1.74570 3.76697 2.93577
# Velocity P-wave (km/s) = 6.90556 8.44956 7.71627
#
# Compressibility (1/GPa) = 0.01017132
#
# Stress axis : x y z
#
# Youngs Moduli (GPa) = 174.24747 205.18867 95.00192
#
# Poissons Ratio (x) = 0.37457 0.26704
# Poissons Ratio (y) = 0.31809 0.08049
# Poissons Ratio (z) = 0.48978 0.17386
#
# Static dielectric constant tensor:
#      x y z
#    x 1.828550 0.000000 0.000000 
#    y 0.000000 1.851010 0.000000 
#    z 0.000000 0.000000 2.205370 
# 
# From -- ./inp_files/3075.got.cif
#   From: 2010.05.17/outbox.cif.g08.bks.cpg/sg54_2_cif.got.tgz:3075.got - 2010.06.03 13:09:01.
