data_PCOD9423203
_publ_section_title
;
Structure prediction by ZEFSAII (Michael W. Deem and Ramdas Pophale) SiO2 
 PCOD9423203
Probable space group: P C C A
;
_chemical_formula_sum "Si O2"
_cell_formula_units_Z 32
_cell_length_a 14.942212
_cell_length_b 9.088244
_cell_length_c 11.384021
_cell_angle_alpha 90.000000
_cell_angle_beta 90.000000
_cell_angle_gamma 90.000000
_cell_volume 1545.932618
_symmetry_space_group_name_H-M "P C C A"
_symmetry_group_IT_number 54
_symmetry_cell_setting 'orthorhombic'
loop_
_space_group_symop_operation_xyz
x,y,z
1/2-x,-y,z
1/2+x,-y,1/2-z
-x,y,1/2-z
-x,-y,-z
1/2+x,y,-z
1/2-x,y,1/2+z
x,-y,1/2+z
loop_
_atom_site_type_symbol
_atom_site_label
_atom_site_fract_x
_atom_site_fract_y
_atom_site_fract_z
Si Si1 0.629543 0.225261 0.945169
Si Si2 0.350777 0.552981 0.856615
Si Si3 0.500000 0.659918 0.250000
Si Si4 0.593378 0.867758 0.691106
Si Si5 0.750000 0.000000 0.831163
O O1 0.560149 0.248701 0.840798
O O2 0.719712 0.141714 0.906301
O O3 0.645752 0.382698 0.009775
O O4 0.589543 0.126299 0.050460
O O5 0.250000 0.500000 0.832044
O O6 0.427877 0.437020 0.824105
O O7 0.374778 0.700007 0.783919
O O8 0.500000 0.895398 0.750000
O O9 0.667150 0.969374 0.747269
#
# Coordination Sequence:
#
# PCOD9423203 Si02
#       5
#     8   8   4   8   4
#     4  10  26  42  71 100 134 187 220 288 331 415
#     4  10  22  43  69 100 140 171 225 282 341 401
#     4  12  22  46  72 108 132 182 228 280 350 404
#     4  10  24  46  66 100 138 180 220 294 327 399
#     4  12  24  46  68 100 142 180 240 264 352 402
#
# _framework density 20.699479
#
# number of rings (size 3 to 8) (size 9 to 14) (size 15 to 20)
#    1.500    0.000    1.250    3.000    1.750    6.000 
#    0.000    0.000    0.000    0.000    0.000    0.000 
#    0.000    0.000    0.000    0.000    0.000    0.000 
#
# Total GULP energy -178421.683494 kJ/mol
# GULP energy per Si atom -5575.677609 kJ/mol
# Density = 2.065237 g / cm^3
# Si number density = 20.699479 Si / 1000 Ang^3
#
#
#
# Elastic Constant Matrix: (Units=GPa)
#
#
# Indices 1 2 3 4 5 6 
#
# 1 170.7670 56.2722 57.6447 0.0000 0.0000 0.0000
# 2 56.2722 61.6274 44.4433 0.0000 0.0000 0.0000
# 3 57.6447 44.4433 107.8512 0.0000 0.0000 0.0000
# 4 0.0000 0.0000 0.0000 95.1957 0.0000 0.0000
# 5 0.0000 0.0000 0.0000 0.0000 -54.0013 0.0000
# 6 0.0000 0.0000 0.0000 0.0000 0.0000 42.9344
#
#
#
# Elastic Compliance Matrix: (Units=1/GPa)
#
#
# Indices 1 2 3 4 5 6 
#
# 1 0.008655 -0.006498 -0.001948 0.000000 0.000000 0.000000
# 2 -0.006498 0.027966 -0.008051 0.000000 0.000000 0.000000
# 3 -0.001948 -0.008051 0.013631 0.000000 0.000000 0.000000
# 4 0.000000 0.000000 0.000000 0.010505 0.000000 0.000000
# 5 0.000000 0.000000 0.000000 0.000000 -0.018518 0.000000
# 6 0.000000 0.000000 0.000000 0.000000 0.000000 0.023291
#
#
# Mechanical properties :
#
#
# Convention : Reuss Voigt Hill
#
# Bulk Modulus (GPa) = 57.94643 72.99623 65.47133
# Shear Modulus (GPa) = 47.94940 28.95144 38.45042
#
# Velocity S-wave (km/s) = 4.81818 3.74392 4.31461
# Velocity P-wave (km/s) = 7.68167 7.35055 7.51793
#
# Compressibility (1/GPa) = 0.01725732
#
# Stress axis : x y z
#
# Youngs Moduli (GPa) = 115.54354 35.75786 73.36152
#
# Poissons Ratio (x) = 0.23234 0.14293
# Poissons Ratio (y) = 0.75076 0.59065
# Poissons Ratio (z) = 0.22511 0.28790
#
# Static dielectric constant tensor:
#      x y z
#    x 1.671420 0.000000 0.000000 
#    y 0.000000 1.781200 0.000000 
#    z 0.000000 0.000000 1.745740 
# 
# From -- ./inp_files/8009.got.cif
#   From: 2010.05.17/outbox.cif.g08.bks.cpg/sg54_5_cif.got.tgz:8009.got - 2010.06.03 13:09:01.
