data_PCOD9423339
_publ_section_title
;
Structure prediction by ZEFSAII (Michael W. Deem and Ramdas Pophale) SiO2 
 PCOD9423339
Probable space group: P C C A
;
_chemical_formula_sum "Si O2"
_cell_formula_units_Z 56
_cell_length_a 13.748082
_cell_length_b 16.072873
_cell_length_c 10.419936
_cell_angle_alpha 90.000000
_cell_angle_beta 90.000000
_cell_angle_gamma 90.000000
_cell_volume 2302.505512
_symmetry_space_group_name_H-M "P C C A"
_symmetry_group_IT_number 54
_symmetry_cell_setting 'orthorhombic'
loop_
_space_group_symop_operation_xyz
x,y,z
1/2-x,-y,z
1/2+x,-y,1/2-z
-x,y,1/2-z
-x,-y,-z
1/2+x,y,-z
1/2-x,y,1/2+z
x,-y,1/2+z
loop_
_atom_site_type_symbol
_atom_site_label
_atom_site_fract_x
_atom_site_fract_y
_atom_site_fract_z
Si Si1 0.073636 0.951104 0.858434
Si Si2 0.412266 0.554460 0.674546
Si Si3 0.251336 0.638713 0.843053
Si Si4 0.595383 0.873516 0.537366
Si Si5 0.291092 0.807169 0.410838
Si Si6 0.860093 0.612634 0.902651
Si Si7 0.020498 0.279738 0.535899
O O1 0.157575 0.883478 0.837486
O O2 0.000000 0.978604 0.750000
O O3 0.993668 0.903913 0.947159
O O4 0.119955 0.037889 0.900096
O O5 0.500000 0.513262 0.750000
O O6 0.332069 0.582022 0.776511
O O7 0.381755 0.484728 0.573457
O O8 0.450427 0.640499 0.617225
O O9 0.258006 0.737942 0.820764
O O10 0.161702 0.616842 0.749713
O O11 0.271133 0.630391 0.996533
O O12 0.702581 0.839459 0.499714
O O13 0.541091 0.794460 0.602001
O O14 0.380697 0.758857 0.478114
O O15 0.943956 0.678988 0.935269
#
# Coordination Sequence:
#
# PCOD9423339 Si02
#       7
#     8   8   8   8   8   8   8
#     4  10  24  42  75 109 146 193 246 307 378 468
#     4  12  26  45  73 108 153 198 260 324 393 461
#     4  12  28  47  74 109 147 203 257 323 382 467
#     4  10  22  48  69 107 150 188 247 307 385 453
#     4  11  24  43  75 105 150 194 253 306 384 460
#     4  12  28  50  73 108 151 203 261 320 392 457
#     4  11  25  46  75 105 147 203 254 316 384 464
#
# _framework density 24.321334
#
# number of rings (size 3 to 8) (size 9 to 14) (size 15 to 20)
#    0.000    0.857    2.857    2.143    6.000    5.143 
#    0.000    8.571    0.000    0.000    0.000    0.000 
#    0.000    0.000    0.000    0.000    0.000    0.000 
#
# Total GULP energy -311888.019436 kJ/mol
# GULP energy per Si atom -5569.428919 kJ/mol
# Density = 2.426598 g / cm^3
# Si number density = 24.321334 Si / 1000 Ang^3
#
#
#
# Elastic Constant Matrix: (Units=GPa)
#
#
# Indices 1 2 3 4 5 6 
#
# 1 134.5896 53.2297 26.6103 0.0000 0.0000 0.0000
# 2 53.2297 231.7321 47.0033 0.0000 0.0000 0.0000
# 3 26.6103 47.0033 46.0504 0.0000 0.0000 0.0000
# 4 0.0000 0.0000 0.0000 -0.7350 0.0000 0.0000
# 5 0.0000 0.0000 0.0000 0.0000 34.2094 0.0000
# 6 0.0000 0.0000 0.0000 0.0000 0.0000 62.4191
#
#
#
# Elastic Compliance Matrix: (Units=1/GPa)
#
#
# Indices 1 2 3 4 5 6 
#
# 1 0.008657 -0.001228 -0.003749 0.000000 0.000000 0.000000
# 2 -0.001228 0.005616 -0.005023 0.000000 0.000000 0.000000
# 3 -0.003749 -0.005023 0.029008 0.000000 0.000000 0.000000
# 4 0.000000 0.000000 0.000000 -1.360515 0.000000 0.000000
# 5 0.000000 0.000000 0.000000 0.000000 0.029232 0.000000
# 6 0.000000 0.000000 0.000000 0.000000 0.000000 0.016021
#
#
# Mechanical properties :
#
#
# Convention : Reuss Voigt Hill
#
# Bulk Modulus (GPa) = 42.95177 74.00651 58.47914
# Shear Modulus (GPa) = -4.01858 38.21394 17.09768
#
# Velocity S-wave (km/s) = -1.28681 3.96815 2.65427
# Velocity P-wave (km/s) = 3.93581 7.17563 5.78707
#
# Compressibility (1/GPa) = 0.02328193
#
# Stress axis : x y z
#
# Youngs Moduli (GPa) = 115.51456 178.05569 34.47290
#
# Poissons Ratio (x) = 0.21867 0.12923
# Poissons Ratio (y) = 0.14187 0.17315
# Poissons Ratio (z) = 0.43305 0.89433
#
# Static dielectric constant tensor:
#      x y z
#    x 1.994000 0.000000 0.000000 
#    y 0.000000 1.971220 0.000000 
#    z 0.000000 0.000000 1.963900 
# 
# From -- ./inp_files/8411.got.cif
#   From: 2010.05.17/outbox.cif.g08.bks.cpg/sg54_5_cif.got.tgz:8411.got - 2010.06.03 13:09:01.
