data_PCOD9423225
_publ_section_title
;
Structure prediction by ZEFSAII (Michael W. Deem and Ramdas Pophale) SiO2 
 PCOD9423225
Probable space group: P C C A
;
_chemical_formula_sum "Si O2"
_cell_formula_units_Z 32
_cell_length_a 13.014566
_cell_length_b 18.274857
_cell_length_c 5.432757
_cell_angle_alpha 90.000000
_cell_angle_beta 90.000000
_cell_angle_gamma 90.000000
_cell_volume 1292.123299
_symmetry_space_group_name_H-M "P C C A"
_symmetry_group_IT_number 54
_symmetry_cell_setting 'orthorhombic'
loop_
_space_group_symop_operation_xyz
x,y,z
1/2-x,-y,z
1/2+x,-y,1/2-z
-x,y,1/2-z
-x,-y,-z
1/2+x,y,-z
1/2-x,y,1/2+z
x,-y,1/2+z
loop_
_atom_site_type_symbol
_atom_site_label
_atom_site_fract_x
_atom_site_fract_y
_atom_site_fract_z
Si Si1 0.500000 0.341254 0.750000
Si Si2 0.699922 0.283711 0.965645
Si Si3 0.368544 0.531560 0.388967
Si Si4 0.291484 0.111023 0.586353
Si Si5 0.000000 0.047420 0.250000
O O1 0.579203 0.296287 0.919634
O O2 0.581253 0.388160 0.586032
O O3 0.762078 0.314630 0.727697
O O4 0.723512 0.197348 0.957338
O O5 0.250000 0.500000 0.374334
O O6 0.406509 0.486496 0.618231
O O7 0.284156 0.081469 0.304172
O O8 0.399968 0.097015 0.715053
O O9 0.000000 0.000000 0.500000
#
# Coordination Sequence:
#
# PCOD9423225 Si02
#       5
#     4   8   8   8   4
#     4  12  25  42  74  88 131 166 212 270 324 378
#     4  10  25  43  67  99 124 165 220 268 319 385
#     4  10  24  42  62  90 125 165 205 254 322 391
#     4  10  22  44  65  90 136 172 210 271 326 367
#     4  12  25  38  64 102 131 174 228 258 304 388
#
# _framework density 24.765436999999999
#
# number of rings (size 3 to 8) (size 9 to 14) (size 15 to 20)
#    0.000    1.500    0.000    3.000    7.000    6.000 
#    0.000    7.500    0.000    0.000    0.000    0.000 
#    0.000    0.000    0.000    0.000    0.000    0.000 
#
# Total GULP energy -178273.665250 kJ/mol
# GULP energy per Si atom -5571.052039 kJ/mol
# Density = 2.470907 g / cm^3
# Si number density = 24.765437 Si / 1000 Ang^3
#
#
#
# Elastic Constant Matrix: (Units=GPa)
#
#
# Indices 1 2 3 4 5 6 
#
# 1 104.6348 9.1266 47.3304 0.0000 0.0000 0.0000
# 2 9.1266 17.4469 15.2786 0.0000 0.0000 0.0000
# 3 47.3304 15.2786 173.8055 0.0000 0.0000 0.0000
# 4 0.0000 0.0000 0.0000 175.1523 0.0000 0.0000
# 5 0.0000 0.0000 0.0000 0.0000 35.8245 0.0000
# 6 0.0000 0.0000 0.0000 0.0000 0.0000 44.4767
#
#
#
# Elastic Compliance Matrix: (Units=1/GPa)
#
#
# Indices 1 2 3 4 5 6 
#
# 1 0.011085 -0.003418 -0.002718 0.000000 0.000000 0.000000
# 2 -0.003418 0.063151 -0.004621 0.000000 0.000000 0.000000
# 3 -0.002718 -0.004621 0.006900 0.000000 0.000000 0.000000
# 4 0.000000 0.000000 0.000000 0.005709 0.000000 0.000000
# 5 0.000000 0.000000 0.000000 0.000000 0.027914 0.000000
# 6 0.000000 0.000000 0.000000 0.000000 0.000000 0.022484
#
#
# Mechanical properties :
#
#
# Convention : Reuss Voigt Hill
#
# Bulk Modulus (GPa) = 16.77232 48.81761 32.79496
# Shear Modulus (GPa) = 27.99077 66.03413 47.01245
#
# Velocity S-wave (km/s) = 3.36554 5.16930 4.36169
# Velocity P-wave (km/s) = 4.67864 7.44202 6.21584
#
# Compressibility (1/GPa) = 0.05962206
#
# Stress axis : x y z
#
# Youngs Moduli (GPa) = 90.21448 15.83503 144.92931
#
# Poissons Ratio (x) = 0.05413 0.39393
# Poissons Ratio (y) = 0.30837 0.66965
# Poissons Ratio (z) = 0.24521 0.07317
#
# Static dielectric constant tensor:
#      x y z
#    x 1.808350 0.000000 0.000000 
#    y 0.000000 0.980040 0.000000 
#    z 0.000000 0.000000 2.112850 
# 
# From -- ./inp_files/440.got.cif
#   From: 2010.05.17/outbox.cif.g08.bks.cpg/sg54_1_cif.got.tgz:440.got - 2010.06.03 13:09:01.
