data_PCOD9423544
_publ_section_title
;
Structure prediction by ZEFSAII (Michael W. Deem and Ramdas Pophale) SiO2 
 PCOD9423544
Probable space group: P C C A
;
_chemical_formula_sum "Si O2"
_cell_formula_units_Z 40
_cell_length_a 23.962702
_cell_length_b 5.146966
_cell_length_c 12.052723
_cell_angle_alpha 90.000000
_cell_angle_beta 90.000000
_cell_angle_gamma 90.000000
_cell_volume 1486.525152
_symmetry_space_group_name_H-M "P C C A"
_symmetry_group_IT_number 54
_symmetry_cell_setting 'orthorhombic'
loop_
_space_group_symop_operation_xyz
x,y,z
1/2-x,-y,z
1/2+x,-y,1/2-z
-x,y,1/2-z
-x,-y,-z
1/2+x,y,-z
1/2-x,y,1/2+z
x,-y,1/2+z
loop_
_atom_site_type_symbol
_atom_site_label
_atom_site_fract_x
_atom_site_fract_y
_atom_site_fract_z
Si Si1 0.804519 0.590269 0.217756
Si Si2 0.750000 0.000000 0.889412
Si Si3 0.451663 0.172523 0.057994
Si Si4 0.000000 0.495763 0.750000
Si Si5 0.860759 0.123675 0.527381
Si Si6 0.105834 0.225090 0.191970
O O1 0.750000 0.500000 0.149338
O O2 0.777249 0.771255 0.313315
O O3 0.837565 0.336230 0.259012
O O4 0.846424 0.756018 0.143963
O O5 0.801827 0.924852 0.967417
O O6 0.489998 0.365359 0.130071
O O7 0.400341 0.129773 0.970492
O O8 0.413553 0.066024 0.163709
O O9 0.500000 0.000000 0.000000
O O10 0.944843 0.663032 0.740938
O O11 0.892109 0.316091 0.439326
#
# Coordination Sequence:
#
# PCOD9423544 Si02
#       6
#     8   4   8   4   8   8
#     4  12  24  46  74 103 149 195 237 303 373 426
#     4  12  24  48  70 108 148 194 246 306 356 454
#     4  10  23  45  68 103 139 187 244 297 362 433
#     4  12  22  46  70  94 150 188 232 312 356 428
#     4  10  25  44  68 109 139 187 243 301 359 439
#     4  10  25  45  66 109 139 186 249 298 355 445
#
# _framework density 26.908394000000001
#
# number of rings (size 3 to 8) (size 9 to 14) (size 15 to 20)
#    1.200    0.000    2.000    3.600    2.800    0.800 
#    7.200    0.000    0.000    0.000    0.000    0.000 
#    0.000    0.000    0.000    0.000    0.000    0.000 
#
# Total GULP energy -222778.793719 kJ/mol
# GULP energy per Si atom -5569.469843 kJ/mol
# Density = 2.684715 g / cm^3
# Si number density = 26.908394 Si / 1000 Ang^3
#
#
#
# Elastic Constant Matrix: (Units=GPa)
#
#
# Indices 1 2 3 4 5 6 
#
# 1 178.8742 7.8732 65.0433 0.0000 0.0000 0.0000
# 2 7.8732 28.7986 27.8563 0.0000 0.0000 0.0000
# 3 65.0433 27.8563 113.4600 0.0000 0.0000 0.0000
# 4 0.0000 0.0000 0.0000 140.0105 0.0000 0.0000
# 5 0.0000 0.0000 0.0000 0.0000 62.4613 0.0000
# 6 0.0000 0.0000 0.0000 0.0000 0.0000 8.7537
#
#
#
# Elastic Compliance Matrix: (Units=1/GPa)
#
#
# Indices 1 2 3 4 5 6 
#
# 1 0.007215 0.002660 -0.004789 0.000000 0.000000 0.000000
# 2 0.002660 0.046519 -0.012946 0.000000 0.000000 0.000000
# 3 -0.004789 -0.012946 0.014738 0.000000 0.000000 0.000000
# 4 0.000000 0.000000 0.000000 0.007142 0.000000 0.000000
# 5 0.000000 0.000000 0.000000 0.000000 0.016010 0.000000
# 6 0.000000 0.000000 0.000000 0.000000 0.000000 0.114237
#
#
# Mechanical properties :
#
#
# Convention : Reuss Voigt Hill
#
# Bulk Modulus (GPa) = 26.09520 58.07538 42.08529
# Shear Modulus (GPa) = 20.09765 56.93578 38.51671
#
# Velocity S-wave (km/s) = 2.73590 4.60489 3.78749
# Velocity P-wave (km/s) = 4.43836 7.06420 5.89923
#
# Compressibility (1/GPa) = 0.03832122
#
# Stress axis : x y z
#
# Youngs Moduli (GPa) = 138.60190 21.49647 67.85339
#
# Poissons Ratio (x) = -0.05718 0.32496
# Poissons Ratio (y) = -0.36868 0.87844
# Poissons Ratio (z) = 0.66379 0.27830
#
# Static dielectric constant tensor:
#      x y z
#    x 2.290840 0.000000 0.000000 
#    y 0.000000 2.699310 0.000000 
#    z 0.000000 0.000000 2.237220 
# 
# From -- ./inp_files/10209.got.cif
#   From: 2010.05.17/outbox.cif.g08.bks.cpg/sg54_6_cif.got.tgz:10209.got - 2010.06.03 13:09:01.
