data_PCOD9423858
_publ_section_title
;
Structure prediction by ZEFSAII (Michael W. Deem and Ramdas Pophale) SiO2 
 PCOD9423858
Probable space group: P C C A
;
_chemical_formula_sum "Si O2"
_cell_formula_units_Z 28
_cell_length_a 5.071468
_cell_length_b 8.108425
_cell_length_c 30.507192
_cell_angle_alpha 90.000000
_cell_angle_beta 90.000000
_cell_angle_gamma 90.000000
_cell_volume 1254.505093
_symmetry_space_group_name_H-M "P C C A"
_symmetry_group_IT_number 54
_symmetry_cell_setting 'orthorhombic'
loop_
_space_group_symop_operation_xyz
x,y,z
1/2-x,-y,z
1/2+x,-y,1/2-z
-x,y,1/2-z
-x,-y,-z
1/2+x,y,-z
1/2-x,y,1/2+z
x,-y,1/2+z
loop_
_atom_site_type_symbol
_atom_site_label
_atom_site_fract_x
_atom_site_fract_y
_atom_site_fract_z
Si Si1 0.000000 0.738162 0.250000
Si Si2 0.071554 0.344331 0.097886
Si Si3 0.250000 0.000000 0.628691
Si Si4 0.750000 0.500000 0.532139
Si Si5 0.250000 0.000000 0.806792
Si Si6 0.750000 0.500000 0.319758
O O1 0.779979 0.848657 0.226502
O O2 0.886746 0.629066 0.288688
O O3 0.250000 0.500000 0.082044
O O4 0.209198 0.166642 0.100280
O O5 0.816488 0.352045 0.066819
O O6 0.045578 0.403147 0.148382
O O7 0.500509 0.992712 0.660935
O O8 0.500000 0.500000 0.500000
#
# Coordination Sequence:
#
# PCOD9423858 Si02
#       6
#     4   8   4   4   4   4
#     4  12  26  38  72 100 156 194 276 302 364 416
#     4  10  25  48  74 109 147 197 236 307 374 450
#     4  12  27  48  72 107 150 196 256 291 382 438
#     4  12  25  49  86 112 144 184 238 309 387 466
#     4  12  27  46  64 103 146 208 252 323 344 418
#     4  10  25  41  64 112 138 216 240 317 349 448
#
# _framework density 22.319559000000002
#
# number of rings (size 3 to 8) (size 9 to 14) (size 15 to 20)
#    0.857    0.000    4.286    0.857   12.000    0.000 
#    0.000    1.429    0.000    0.000    0.000    0.000 
#    0.000    0.000    0.000    0.000    0.000    0.000 
#
# Total GULP energy -156188.175498 kJ/mol
# GULP energy per Si atom -5578.149125 kJ/mol
# Density = 2.226876 g / cm^3
# Si number density = 22.319559 Si / 1000 Ang^3
#
#
#
# Elastic Constant Matrix: (Units=GPa)
#
#
# Indices 1 2 3 4 5 6 
#
# 1 149.1760 57.9291 72.4294 0.0000 0.0000 0.0000
# 2 57.9291 177.0733 71.0551 0.0000 0.0000 0.0000
# 3 72.4294 71.0551 164.8436 0.0000 0.0000 0.0000
# 4 0.0000 0.0000 0.0000 -7.4599 0.0000 0.0000
# 5 0.0000 0.0000 0.0000 0.0000 -5.3694 0.0000
# 6 0.0000 0.0000 0.0000 0.0000 0.0000 22.7859
#
#
#
# Elastic Compliance Matrix: (Units=1/GPa)
#
#
# Indices 1 2 3 4 5 6 
#
# 1 0.008890 -0.001621 -0.003207 0.000000 0.000000 0.000000
# 2 -0.001621 0.007124 -0.002358 0.000000 0.000000 0.000000
# 3 -0.003207 -0.002358 0.008492 0.000000 0.000000 0.000000
# 4 0.000000 0.000000 0.000000 -0.134050 0.000000 0.000000
# 5 0.000000 0.000000 0.000000 0.000000 -0.186241 0.000000
# 6 0.000000 0.000000 0.000000 0.000000 0.000000 0.043887
#
#
# Mechanical properties :
#
#
# Convention : Reuss Voigt Hill
#
# Bulk Modulus (GPa) = 98.69379 99.32444 99.00912
# Shear Modulus (GPa) = -21.35425 21.30327 -0.02549
#
# Velocity S-wave (km/s) = -3.09649 3.09280 -0.10698
# Velocity P-wave (km/s) = 5.61517 7.57308 6.66640
#
# Compressibility (1/GPa) = 0.01013235
#
# Stress axis : x y z
#
# Youngs Moduli (GPa) = 112.48062 140.36652 117.75491
#
# Poissons Ratio (x) = 0.22760 0.37768
# Poissons Ratio (y) = 0.18238 0.27772
# Poissons Ratio (z) = 0.36077 0.33104
#
# Static dielectric constant tensor:
#      x y z
#    x 1.905740 0.000000 0.000000 
#    y 0.000000 1.616210 0.000000 
#    z 0.000000 0.000000 1.842060 
# 
# From -- ./inp_files/25081.got.cif
#   From: 2010.05.17/outbox.cif.g08.bks.cpg/sg54_13_cif.got.tgz:25081.got - 2010.06.03 13:09:01.
