data_PCOD9423606
_publ_section_title
;
Structure prediction by ZEFSAII (Michael W. Deem and Ramdas Pophale) SiO2 
 PCOD9423606
Probable space group: P C C A
;
_chemical_formula_sum "Si O2"
_cell_formula_units_Z 28
_cell_length_a 8.671936
_cell_length_b 14.514189
_cell_length_c 9.673645
_cell_angle_alpha 90.000000
_cell_angle_beta 90.000000
_cell_angle_gamma 90.000000
_cell_volume 1217.584144
_symmetry_space_group_name_H-M "P C C A"
_symmetry_group_IT_number 54
_symmetry_cell_setting 'orthorhombic'
loop_
_space_group_symop_operation_xyz
x,y,z
1/2-x,-y,z
1/2+x,-y,1/2-z
-x,y,1/2-z
-x,-y,-z
1/2+x,y,-z
1/2-x,y,1/2+z
x,-y,1/2+z
loop_
_atom_site_type_symbol
_atom_site_label
_atom_site_fract_x
_atom_site_fract_y
_atom_site_fract_z
Si Si1 0.770805 0.106457 0.794315
Si Si2 0.935099 0.174076 0.533053
Si Si3 0.750000 0.500000 0.512990
Si Si4 0.509276 0.367818 0.399887
O O1 0.803611 0.162382 0.652888
O O2 0.918490 0.124222 0.895506
O O3 0.750000 0.000000 0.755988
O O4 0.626671 0.133495 0.890179
O O5 0.975152 0.281182 0.504398
O O6 0.668590 0.418830 0.428361
O O7 0.617003 0.551322 0.596356
O O8 0.500000 0.324358 0.250000
#
# Coordination Sequence:
#
# PCOD9423606 Si02
#       4
#     8   8   4   8
#     4  11  23  42  65  94 131 167 217 258 318 374
#     4  11  24  42  66  96 129 171 209 268 311 383
#     4  10  24  38  66  90 120 166 202 266 312 378
#     4  11  21  42  62  91 126 158 212 255 319 373
#
# _framework density 22.996357
#
# number of rings (size 3 to 8) (size 9 to 14) (size 15 to 20)
#    0.000    1.143    2.857    4.286    0.000    3.429 
#    0.000    0.000    0.000    0.000    0.000    0.000 
#    0.000    0.000    0.000    0.000    0.000    0.000 
#
# Total GULP energy -156467.568866 kJ/mol
# GULP energy per Si atom -5588.127460 kJ/mol
# Density = 2.294402 g / cm^3
# Si number density = 22.996357 Si / 1000 Ang^3
#
#
#
# Elastic Constant Matrix: (Units=GPa)
#
#
# Indices 1 2 3 4 5 6 
#
# 1 57.2234 14.9490 10.4266 0.0000 0.0000 0.0000
# 2 14.9490 130.1208 8.9897 0.0000 0.0000 0.0000
# 3 10.4266 8.9897 63.5559 0.0000 0.0000 0.0000
# 4 0.0000 0.0000 0.0000 38.2756 0.0000 0.0000
# 5 0.0000 0.0000 0.0000 0.0000 26.1492 0.0000
# 6 0.0000 0.0000 0.0000 0.0000 0.0000 37.7346
#
#
#
# Elastic Compliance Matrix: (Units=1/GPa)
#
#
# Indices 1 2 3 4 5 6 
#
# 1 0.018483 -0.001933 -0.002759 0.000000 0.000000 0.000000
# 2 -0.001933 0.007963 -0.000809 0.000000 0.000000 0.000000
# 3 -0.002759 -0.000809 0.016301 0.000000 0.000000 0.000000
# 4 0.000000 0.000000 0.000000 0.026126 0.000000 0.000000
# 5 0.000000 0.000000 0.000000 0.000000 0.038242 0.000000
# 6 0.000000 0.000000 0.000000 0.000000 0.000000 0.026501
#
#
# Mechanical properties :
#
#
# Convention : Reuss Voigt Hill
#
# Bulk Modulus (GPa) = 31.50050 35.51453 33.50752
# Shear Modulus (GPa) = 32.21645 34.86754 33.54200
#
# Velocity S-wave (km/s) = 3.74697 3.89809 3.82328
# Velocity P-wave (km/s) = 5.69627 5.97806 5.83887
#
# Compressibility (1/GPa) = 0.03174553
#
# Stress axis : x y z
#
# Youngs Moduli (GPa) = 54.10384 125.57882 61.34503
#
# Poissons Ratio (x) = 0.24272 0.16924
# Poissons Ratio (y) = 0.10457 0.04964
# Poissons Ratio (z) = 0.14926 0.10163
#
# Static dielectric constant tensor:
#      x y z
#    x 1.963210 0.000000 0.000000 
#    y 0.000000 1.785030 0.000000 
#    z 0.000000 0.000000 1.867350 
# 
# From -- ./inp_files/2458.got.cif
#   From: 2010.05.17/outbox.cif.g08.bks.cpg/sg54_2_cif.got.tgz:2458.got - 2010.06.03 13:09:01.
