data_PCOD9423777
_publ_section_title
;
Structure prediction by ZEFSAII (Michael W. Deem and Ramdas Pophale) SiO2 
 PCOD9423777
Probable space group: P C C A
;
_chemical_formula_sum "Si O2"
_cell_formula_units_Z 40
_cell_length_a 9.802728
_cell_length_b 16.151289
_cell_length_c 10.760550
_cell_angle_alpha 90.000000
_cell_angle_beta 90.000000
_cell_angle_gamma 90.000000
_cell_volume 1703.682295
_symmetry_space_group_name_H-M "P C C A"
_symmetry_group_IT_number 54
_symmetry_cell_setting 'orthorhombic'
loop_
_space_group_symop_operation_xyz
x,y,z
1/2-x,-y,z
1/2+x,-y,1/2-z
-x,y,1/2-z
-x,-y,-z
1/2+x,y,-z
1/2-x,y,1/2+z
x,-y,1/2+z
loop_
_atom_site_type_symbol
_atom_site_label
_atom_site_fract_x
_atom_site_fract_y
_atom_site_fract_z
Si Si1 0.798558 0.904273 0.488399
Si Si2 0.336908 0.584130 0.245749
Si Si3 0.004101 0.209848 0.601716
Si Si4 0.839846 0.082795 0.254397
Si Si5 0.753745 0.316579 0.504510
O O1 0.952286 0.883794 0.440852
O O2 0.702580 0.870862 0.378758
O O3 0.796692 0.872155 0.628779
O O4 0.750000 0.000000 0.500652
O O5 0.250000 0.500000 0.246891
O O6 0.500000 0.569755 0.250000
O O7 0.302674 0.629571 0.114702
O O8 0.293257 0.633746 0.371306
O O9 0.128159 0.263550 0.547224
O O10 0.000000 0.209810 0.750000
O O11 0.875249 0.257118 0.548059
O O12 0.000000 0.066053 0.250000
O O13 0.750000 0.000000 0.257935
#
# Coordination Sequence:
#
# PCOD9423777 Si02
#       5
#     8   8   8   8   8
#     4  10  26  47  75 109 149 200 270 333 402 483
#     4  12  28  49  83 121 170 216 269 330 388 484
#     4  12  28  49  82 113 162 215 265 339 416 478
#     4  10  24  45  71 103 143 187 251 330 397 472
#     4  12  27  51  77 121 163 213 270 327 404 489
#
# _framework density 23.478556000000001
#
# number of rings (size 3 to 8) (size 9 to 14) (size 15 to 20)
#    0.000    0.800    4.000    0.600    8.400   12.000 
#    0.000    0.000    0.000    0.000    0.000    0.000 
#    0.000    0.000    0.000    0.000    0.000    0.000 
#
# Total GULP energy -223613.009598 kJ/mol
# GULP energy per Si atom -5590.325240 kJ/mol
# Density = 2.342512 g / cm^3
# Si number density = 23.478556 Si / 1000 Ang^3
#
#
#
# Elastic Constant Matrix: (Units=GPa)
#
#
# Indices 1 2 3 4 5 6 
#
# 1 224.5540 94.2408 93.5056 0.0000 0.0000 0.0000
# 2 94.2408 131.1871 75.4741 0.0000 0.0000 0.0000
# 3 93.5056 75.4741 255.8298 0.0000 0.0000 0.0000
# 4 0.0000 0.0000 0.0000 39.2941 0.0000 0.0000
# 5 0.0000 0.0000 0.0000 0.0000 48.0204 0.0000
# 6 0.0000 0.0000 0.0000 0.0000 0.0000 46.5335
#
#
#
# Elastic Compliance Matrix: (Units=1/GPa)
#
#
# Indices 1 2 3 4 5 6 
#
# 1 0.006685 -0.004091 -0.001236 0.000000 0.000000 0.000000
# 2 -0.004091 0.011684 -0.001952 0.000000 0.000000 0.000000
# 3 -0.001236 -0.001952 0.004937 0.000000 0.000000 0.000000
# 4 0.000000 0.000000 0.000000 0.025449 0.000000 0.000000
# 5 0.000000 0.000000 0.000000 0.000000 0.020824 0.000000
# 6 0.000000 0.000000 0.000000 0.000000 0.000000 0.021490
#
#
# Mechanical properties :
#
#
# Convention : Reuss Voigt Hill
#
# Bulk Modulus (GPa) = 114.31830 126.44576 120.38203
# Shear Modulus (GPa) = 46.06422 49.99295 48.02859
#
# Velocity S-wave (km/s) = 4.43422 4.61944 4.52778
# Velocity P-wave (km/s) = 8.66098 9.07883 8.87236
#
# Compressibility (1/GPa) = 0.00874751
#
# Stress axis : x y z
#
# Youngs Moduli (GPa) = 149.58770 85.58368 202.56806
#
# Poissons Ratio (x) = 0.35012 0.25047
# Poissons Ratio (y) = 0.61196 0.39539
# Poissons Ratio (z) = 0.18496 0.16705
#
# Static dielectric constant tensor:
#      x y z
#    x 1.882420 0.000000 0.000000 
#    y 0.000000 1.947190 0.000000 
#    z 0.000000 0.000000 1.925240 
# 
# From -- ./inp_files/6852.got.cif
#   From: 2010.05.17/outbox.cif.g08.bks.cpg/sg54_4_cif.got.tgz:6852.got - 2010.06.03 13:09:01.
