data_PCOD9423769
_publ_section_title
;
Structure prediction by ZEFSAII (Michael W. Deem and Ramdas Pophale) SiO2 
 PCOD9423769
Probable space group: P C C A
;
_chemical_formula_sum "Si O2"
_cell_formula_units_Z 28
_cell_length_a 10.153155
_cell_length_b 7.620705
_cell_length_c 17.246526
_cell_angle_alpha 90.000000
_cell_angle_beta 90.000000
_cell_angle_gamma 90.000000
_cell_volume 1334.436136
_symmetry_space_group_name_H-M "P C C A"
_symmetry_group_IT_number 54
_symmetry_cell_setting 'orthorhombic'
loop_
_space_group_symop_operation_xyz
x,y,z
1/2-x,-y,z
1/2+x,-y,1/2-z
-x,y,1/2-z
-x,-y,-z
1/2+x,y,-z
1/2-x,y,1/2+z
x,-y,1/2+z
loop_
_atom_site_type_symbol
_atom_site_label
_atom_site_fract_x
_atom_site_fract_y
_atom_site_fract_z
Si Si1 0.001874 0.317515 0.834161
Si Si2 0.622995 0.878633 0.523274
Si Si3 0.000000 0.348313 0.250000
Si Si4 0.214301 0.207019 0.136973
O O1 0.084519 0.225498 0.900059
O O2 0.052736 0.512313 0.814044
O O3 0.000000 0.222507 0.750000
O O4 0.848268 0.317263 0.856828
O O5 0.651141 0.761417 0.447424
O O6 0.750000 0.000000 0.537237
O O7 0.500000 0.000000 0.500000
O O8 0.885675 0.244461 0.293120
O O9 0.250000 0.000000 0.138001
#
# Coordination Sequence:
#
# PCOD9423769 Si02
#       4
#     8   8   4   8
#     4  10  24  45  66 107 148 184 244 304 363 434
#     4  11  22  44  72 108 142 196 251 297 361 431
#     4  10  26  44  68 104 144 192 232 304 382 420
#     4  11  23  44  71 102 145 185 253 301 353 447
#
# _framework density 20.982647
#
# number of rings (size 3 to 8) (size 9 to 14) (size 15 to 20)
#    0.857    0.571    5.714    0.857    2.000    4.571 
#    0.000    0.000    0.000    0.000    0.000    0.000 
#    0.000    0.000    0.000    0.000    0.000    0.000 
#
# Total GULP energy -156291.057806 kJ/mol
# GULP energy per Si atom -5581.823493 kJ/mol
# Density = 2.093489 g / cm^3
# Si number density = 20.982647 Si / 1000 Ang^3
#
#
#
# Elastic Constant Matrix: (Units=GPa)
#
#
# Indices 1 2 3 4 5 6 
#
# 1 130.1400 22.9322 86.2832 0.0000 0.0000 0.0000
# 2 22.9322 57.4339 58.7859 0.0000 0.0000 0.0000
# 3 86.2832 58.7859 181.4031 0.0000 0.0000 0.0000
# 4 0.0000 0.0000 0.0000 37.7354 0.0000 0.0000
# 5 0.0000 0.0000 0.0000 0.0000 44.9962 0.0000
# 6 0.0000 0.0000 0.0000 0.0000 0.0000 21.9376
#
#
#
# Elastic Compliance Matrix: (Units=1/GPa)
#
#
# Indices 1 2 3 4 5 6 
#
# 1 0.011307 0.001481 -0.005858 0.000000 0.000000 0.000000
# 2 0.001481 0.026247 -0.009210 0.000000 0.000000 0.000000
# 3 -0.005858 -0.009210 0.011284 0.000000 0.000000 0.000000
# 4 0.000000 0.000000 0.000000 0.026500 0.000000 0.000000
# 5 0.000000 0.000000 0.000000 0.000000 0.022224 0.000000
# 6 0.000000 0.000000 0.000000 0.000000 0.000000 0.045584
#
#
# Mechanical properties :
#
#
# Convention : Reuss Voigt Hill
#
# Bulk Modulus (GPa) = 46.16052 78.33107 62.24580
# Shear Modulus (GPa) = 28.16253 34.33222 31.24738
#
# Velocity S-wave (km/s) = 3.66755 4.04941 3.86320
# Velocity P-wave (km/s) = 6.32311 7.69909 7.04478
#
# Compressibility (1/GPa) = 0.02166353
#
# Stress axis : x y z
#
# Youngs Moduli (GPa) = 88.44110 38.09980 88.62363
#
# Poissons Ratio (x) = -0.05644 0.51917
# Poissons Ratio (y) = -0.13102 0.81625
# Poissons Ratio (z) = 0.51810 0.35091
#
# Static dielectric constant tensor:
#      x y z
#    x 1.754780 0.000000 0.000000 
#    y 0.000000 1.792730 0.000000 
#    z 0.000000 0.000000 1.766760 
# 
# From -- ./inp_files/16162.got.cif
#   From: 2010.05.17/outbox.cif.g08.bks.cpg/sg54_9_cif.got.tgz:16162.got - 2010.06.03 13:09:01.
