data_PCOD9423333
_publ_section_title
;
Structure prediction by ZEFSAII (Michael W. Deem and Ramdas Pophale) SiO2 
 PCOD9423333
Probable space group: P C C A
;
_chemical_formula_sum "Si O2"
_cell_formula_units_Z 40
_cell_length_a 12.082398
_cell_length_b 16.303619
_cell_length_c 9.081672
_cell_angle_alpha 90.000000
_cell_angle_beta 90.000000
_cell_angle_gamma 90.000000
_cell_volume 1788.969629
_symmetry_space_group_name_H-M "P C C A"
_symmetry_group_IT_number 54
_symmetry_cell_setting 'orthorhombic'
loop_
_space_group_symop_operation_xyz
x,y,z
1/2-x,-y,z
1/2+x,-y,1/2-z
-x,y,1/2-z
-x,-y,-z
1/2+x,y,-z
1/2-x,y,1/2+z
x,-y,1/2+z
loop_
_atom_site_type_symbol
_atom_site_label
_atom_site_fract_x
_atom_site_fract_y
_atom_site_fract_z
Si Si1 0.250000 0.500000 0.204303
Si Si2 0.500000 0.678439 0.250000
Si Si3 0.577208 0.034168 0.629109
Si Si4 0.298507 0.871503 0.838979
Si Si5 0.795115 0.241258 0.403565
Si Si6 0.154151 0.607383 0.963241
O O1 0.290633 0.569632 0.316045
O O2 0.160545 0.540130 0.093344
O O3 0.608089 0.727841 0.297248
O O4 0.534496 0.630629 0.100644
O O5 0.500000 0.075710 0.750000
O O6 0.630540 0.951406 0.696306
O O7 0.500000 0.000000 0.500000
O O8 0.680694 0.093318 0.600689
O O9 0.281041 0.815790 0.697620
O O10 0.345931 0.814955 0.967903
O O11 0.724325 0.315015 0.476510
#
# Coordination Sequence:
#
# PCOD9423333 Si02
#       6
#     4   4   8   8   8   8
#     4  10  22  46  76  98 150 176 218 300 342 398
#     4  12  26  42  74 102 138 188 236 272 356 420
#     4  11  24  42  65  99 133 181 237 280 353 412
#     4  11  25  41  68  97 139 182 228 299 339 405
#     4  12  24  45  68 102 143 180 233 287 342 413
#     4  11  23  46  69 107 139 181 230 286 338 419
#
# _framework density 22.359238999999999
#
# number of rings (size 3 to 8) (size 9 to 14) (size 15 to 20)
#    0.000    0.800    4.000    2.400    4.200    5.600 
#    0.000    2.000    0.000    0.000    0.000    0.000 
#    0.000    0.000    0.000    0.000    0.000    0.000 
#
# Total GULP energy -223507.827027 kJ/mol
# GULP energy per Si atom -5587.695676 kJ/mol
# Density = 2.230835 g / cm^3
# Si number density = 22.359239 Si / 1000 Ang^3
#
#
#
# Elastic Constant Matrix: (Units=GPa)
#
#
# Indices 1 2 3 4 5 6 
#
# 1 67.1804 26.2229 18.0795 0.0000 0.0000 0.0000
# 2 26.2229 112.2432 44.8710 0.0000 0.0000 0.0000
# 3 18.0795 44.8710 123.1745 0.0000 0.0000 0.0000
# 4 0.0000 0.0000 0.0000 55.6992 0.0000 0.0000
# 5 0.0000 0.0000 0.0000 0.0000 7.4919 0.0000
# 6 0.0000 0.0000 0.0000 0.0000 0.0000 19.3733
#
#
#
# Elastic Compliance Matrix: (Units=1/GPa)
#
#
# Indices 1 2 3 4 5 6 
#
# 1 0.016527 -0.003384 -0.001193 0.000000 0.000000 0.000000
# 2 -0.003384 0.011121 -0.003554 0.000000 0.000000 0.000000
# 3 -0.001193 -0.003554 0.009589 0.000000 0.000000 0.000000
# 4 0.000000 0.000000 0.000000 0.017954 0.000000 0.000000
# 5 0.000000 0.000000 0.000000 0.000000 0.133478 0.000000
# 6 0.000000 0.000000 0.000000 0.000000 0.000000 0.051617
#
#
# Mechanical properties :
#
#
# Convention : Reuss Voigt Hill
#
# Bulk Modulus (GPa) = 47.67988 53.43832 50.55910
# Shear Modulus (GPa) = 18.97245 30.74121 24.85683
#
# Velocity S-wave (km/s) = 2.91611 3.71196 3.33784
# Velocity P-wave (km/s) = 5.71918 6.50563 6.12504
#
# Compressibility (1/GPa) = 0.02097321
#
# Stress axis : x y z
#
# Youngs Moduli (GPa) = 60.50571 89.92141 104.29151
#
# Poissons Ratio (x) = 0.30432 0.12442
# Poissons Ratio (y) = 0.20477 0.37070
# Poissons Ratio (z) = 0.07218 0.31962
#
# Static dielectric constant tensor:
#      x y z
#    x 1.871240 0.000000 0.000000 
#    y 0.000000 1.856790 0.000000 
#    z 0.000000 0.000000 1.838460 
# 
# From -- ./inp_files/2962.got.cif
#   From: 2010.05.17/outbox.cif.g08.bks.cpg/sg54_2_cif.got.tgz:2962.got - 2010.06.03 13:09:01.
