data_PCOD9423896
_publ_section_title
;
Structure prediction by ZEFSAII (Michael W. Deem and Ramdas Pophale) SiO2 
 PCOD9423896
Probable space group: P C C A
;
_chemical_formula_sum "Si O2"
_cell_formula_units_Z 32
_cell_length_a 10.998671
_cell_length_b 11.894495
_cell_length_c 10.465176
_cell_angle_alpha 90.000000
_cell_angle_beta 90.000000
_cell_angle_gamma 90.000000
_cell_volume 1369.092388
_symmetry_space_group_name_H-M "P C C A"
_symmetry_group_IT_number 54
_symmetry_cell_setting 'orthorhombic'
loop_
_space_group_symop_operation_xyz
x,y,z
1/2-x,-y,z
1/2+x,-y,1/2-z
-x,y,1/2-z
-x,-y,-z
1/2+x,y,-z
1/2-x,y,1/2+z
x,-y,1/2+z
loop_
_atom_site_type_symbol
_atom_site_label
_atom_site_fract_x
_atom_site_fract_y
_atom_site_fract_z
Si Si1 0.004802 0.128568 0.461053
Si Si2 0.875743 0.440563 0.061445
Si Si3 0.598544 0.702865 0.834123
Si Si4 0.156271 0.769755 0.764589
O O1 0.902144 0.183758 0.367695
O O2 0.024506 0.206123 0.584253
O O3 0.123339 0.140609 0.372148
O O4 0.000000 0.000000 0.500000
O O5 0.750000 0.500000 0.103408
O O6 0.895102 0.347037 0.172579
O O7 0.833197 0.373381 0.935416
O O8 0.000000 0.500000 0.000000
O O9 0.500000 0.636911 0.750000
O O10 0.701460 0.757283 0.749909
#
# Coordination Sequence:
#
# PCOD9423896 Si02
#       4
#     8   8   8   8
#     4  10  25  48  75 106 148 202 248 311 393 434
#     4  11  26  47  78 111 152 210 251 310 397 447
#     4  11  26  45  74 109 152 194 257 315 371 466
#     4  10  25  49  72 109 158 187 260 321 355 478
#
# _framework density 23.373149000000002
#
# number of rings (size 3 to 8) (size 9 to 14) (size 15 to 20)
#    0.000    1.500    0.000    1.500   21.000    4.000 
#    4.500    0.000    0.000    0.000    0.000    0.000 
#    0.000    0.000    0.000    0.000    0.000    0.000 
#
# Total GULP energy -178313.382231 kJ/mol
# GULP energy per Si atom -5572.293195 kJ/mol
# Density = 2.331995 g / cm^3
# Si number density = 23.373149 Si / 1000 Ang^3
#
#
#
# Elastic Constant Matrix: (Units=GPa)
#
#
# Indices 1 2 3 4 5 6 
#
# 1 115.9645 35.7049 70.0454 0.0000 0.0000 0.0000
# 2 35.7049 114.0846 42.6877 0.0000 0.0000 0.0000
# 3 70.0454 42.6877 98.8115 0.0000 0.0000 0.0000
# 4 0.0000 0.0000 0.0000 27.7295 0.0000 0.0000
# 5 0.0000 0.0000 0.0000 0.0000 20.6555 0.0000
# 6 0.0000 0.0000 0.0000 0.0000 0.0000 22.0988
#
#
#
# Elastic Compliance Matrix: (Units=1/GPa)
#
#
# Indices 1 2 3 4 5 6 
#
# 1 0.015151 -0.000862 -0.010368 0.000000 0.000000 0.000000
# 2 -0.000862 0.010505 -0.003927 0.000000 0.000000 0.000000
# 3 -0.010368 -0.003927 0.019166 0.000000 0.000000 0.000000
# 4 0.000000 0.000000 0.000000 0.036063 0.000000 0.000000
# 5 0.000000 0.000000 0.000000 0.000000 0.048413 0.000000
# 6 0.000000 0.000000 0.000000 0.000000 0.000000 0.045251
#
#
# Mechanical properties :
#
#
# Convention : Reuss Voigt Hill
#
# Bulk Modulus (GPa) = 68.92720 69.52628 69.22674
# Shear Modulus (GPa) = 23.84363 26.12493 24.98428
#
# Velocity S-wave (km/s) = 3.19741 3.34688 3.27300
# Velocity P-wave (km/s) = 6.57154 6.68926 6.63066
#
# Compressibility (1/GPa) = 0.01450806
#
# Stress axis : x y z
#
# Youngs Moduli (GPa) = 66.00096 95.19604 52.17524
#
# Poissons Ratio (x) = 0.08211 0.54094
# Poissons Ratio (y) = 0.05693 0.20488
# Poissons Ratio (z) = 0.68429 0.37381
#
# Static dielectric constant tensor:
#      x y z
#    x 1.912830 0.000000 0.000000 
#    y 0.000000 1.948510 0.000000 
#    z 0.000000 0.000000 1.868560 
# 
# From -- ./inp_files/7233.got.cif
#   From: 2010.05.17/outbox.cif.g08.bks.cpg/sg54_4_cif.got.tgz:7233.got - 2010.06.03 13:09:01.
