data_PCOD9423836
_publ_section_title
;
Structure prediction by ZEFSAII (Michael W. Deem and Ramdas Pophale) SiO2 
 PCOD9423836
Probable space group: P C C A
;
_chemical_formula_sum "Si O2"
_cell_formula_units_Z 48
_cell_length_a 9.206561
_cell_length_b 16.336799
_cell_length_c 14.296371
_cell_angle_alpha 90.000000
_cell_angle_beta 90.000000
_cell_angle_gamma 90.000000
_cell_volume 2150.256210
_symmetry_space_group_name_H-M "P C C A"
_symmetry_group_IT_number 54
_symmetry_cell_setting 'orthorhombic'
loop_
_space_group_symop_operation_xyz
x,y,z
1/2-x,-y,z
1/2+x,-y,1/2-z
-x,y,1/2-z
-x,-y,-z
1/2+x,y,-z
1/2-x,y,1/2+z
x,-y,1/2+z
loop_
_atom_site_type_symbol
_atom_site_label
_atom_site_fract_x
_atom_site_fract_y
_atom_site_fract_z
Si Si1 0.681371 0.284084 0.877112
Si Si2 0.181136 0.104590 0.192034
Si Si3 0.555944 0.945680 0.907644
Si Si4 0.667843 0.414854 0.719795
Si Si5 0.862369 0.294604 0.056195
Si Si6 0.220425 0.889219 0.902670
O O1 0.640038 0.196265 0.833276
O O2 0.714536 0.347469 0.795656
O O3 0.535507 0.301942 0.935422
O O4 0.811292 0.288791 0.950057
O O5 0.352715 0.104158 0.168924
O O6 0.163571 0.083749 0.300516
O O7 0.104390 0.037231 0.125799
O O8 0.388708 0.917785 0.909592
O O9 0.367948 0.076551 0.992710
O O10 0.750000 0.500000 0.724537
O O11 0.500000 0.428383 0.750000
O O12 0.688404 0.370854 0.619445
O O13 0.800886 0.208618 0.096604
#
# Coordination Sequence:
#
# PCOD9423836 Si02
#       6
#     8   8   8   8   8   8
#     4  11  24  47  72 106 143 197 233 299 366 430
#     4  11  26  46  70 102 146 193 252 301 365 421
#     4  11  28  46  69 105 143 193 252 306 353 424
#     4  10  24  48  75 111 145 187 237 294 370 443
#     4  11  24  45  76 101 147 188 242 292 362 438
#     4  12  25  50  71 103 148 195 250 303 365 427
#
# _framework density 22.32292
#
# number of rings (size 3 to 8) (size 9 to 14) (size 15 to 20)
#    0.000    1.000    3.333    1.500    0.000   10.000 
#    9.000    3.333    0.000    0.000    0.000    0.000 
#    0.000    0.000    0.000    0.000    0.000    0.000 
#
# Total GULP energy -268377.751965 kJ/mol
# GULP energy per Si atom -5591.203166 kJ/mol
# Density = 2.227211 g / cm^3
# Si number density = 22.322920 Si / 1000 Ang^3
#
#
#
# Elastic Constant Matrix: (Units=GPa)
#
#
# Indices 1 2 3 4 5 6 
#
# 1 85.5181 21.7743 47.3017 0.0000 0.0000 0.0000
# 2 21.7743 148.3655 40.4179 0.0000 0.0000 0.0000
# 3 47.3017 40.4179 142.2003 0.0000 0.0000 0.0000
# 4 0.0000 0.0000 0.0000 26.1018 0.0000 0.0000
# 5 0.0000 0.0000 0.0000 0.0000 33.9382 0.0000
# 6 0.0000 0.0000 0.0000 0.0000 0.0000 30.1375
#
#
#
# Elastic Compliance Matrix: (Units=1/GPa)
#
#
# Indices 1 2 3 4 5 6 
#
# 1 0.014435 -0.000878 -0.004552 0.000000 0.000000 0.000000
# 2 -0.000878 0.007359 -0.001800 0.000000 0.000000 0.000000
# 3 -0.004552 -0.001800 0.009058 0.000000 0.000000 0.000000
# 4 0.000000 0.000000 0.000000 0.038312 0.000000 0.000000
# 5 0.000000 0.000000 0.000000 0.000000 0.029465 0.000000
# 6 0.000000 0.000000 0.000000 0.000000 0.000000 0.033181
#
#
# Mechanical properties :
#
#
# Convention : Reuss Voigt Hill
#
# Bulk Modulus (GPa) = 61.00434 66.11906 63.56170
# Shear Modulus (GPa) = 32.95236 35.80817 34.38027
#
# Velocity S-wave (km/s) = 3.84626 4.00947 3.92871
# Velocity P-wave (km/s) = 6.86385 7.14969 7.00823
#
# Compressibility (1/GPa) = 0.01639228
#
# Stress axis : x y z
#
# Youngs Moduli (GPa) = 69.27676 135.88317 110.39985
#
# Poissons Ratio (x) = 0.11936 0.50253
# Poissons Ratio (y) = 0.06085 0.19867
# Poissons Ratio (z) = 0.31534 0.24453
#
# Static dielectric constant tensor:
#      x y z
#    x 1.916530 0.000000 0.000000 
#    y 0.000000 1.827720 0.000000 
#    z 0.000000 0.000000 1.854680 
# 
# From -- ./inp_files/16631.got.cif
#   From: 2010.05.17/outbox.cif.g08.bks.cpg/sg54_9_cif.got.tgz:16631.got - 2010.06.03 13:09:01.
