data_PCOD9423154
_publ_section_title
;
Structure prediction by ZEFSAII (Michael W. Deem and Ramdas Pophale) SiO2 
 PCOD9423154
Probable space group: P C C A
;
_chemical_formula_sum "Si O2"
_cell_formula_units_Z 60
_cell_length_a 9.061576
_cell_length_b 25.632268
_cell_length_c 11.608192
_cell_angle_alpha 90.000000
_cell_angle_beta 90.000000
_cell_angle_gamma 90.000000
_cell_volume 2696.220182
_symmetry_space_group_name_H-M "P C C A"
_symmetry_group_IT_number 54
_symmetry_cell_setting 'orthorhombic'
loop_
_space_group_symop_operation_xyz
x,y,z
1/2-x,-y,z
1/2+x,-y,1/2-z
-x,y,1/2-z
-x,-y,-z
1/2+x,y,-z
1/2-x,y,1/2+z
x,-y,1/2+z
loop_
_atom_site_type_symbol
_atom_site_label
_atom_site_fract_x
_atom_site_fract_y
_atom_site_fract_z
Si Si1 0.007361 0.862222 0.379022
Si Si2 0.149019 0.283808 0.450321
Si Si3 0.896962 0.436785 0.906517
Si Si4 0.500000 0.216484 0.750000
Si Si5 0.937928 0.663354 0.130543
Si Si6 0.785352 0.184852 0.434516
Si Si7 0.066672 0.556720 0.635508
Si Si8 0.423244 0.983779 0.875407
O O1 0.843937 0.857331 0.429903
O O2 0.000000 0.840603 0.250000
O O3 0.109367 0.827873 0.459671
O O4 0.063990 0.921052 0.374770
O O5 0.272094 0.320426 0.393839
O O6 0.220079 0.241880 0.538783
O O7 0.072924 0.251280 0.348986
O O8 0.031905 0.315973 0.523068
O O9 0.727167 0.418903 0.892254
O O10 0.906781 0.494411 0.853806
O O11 0.023594 0.397706 0.863928
O O12 0.940443 0.440741 0.039791
O O13 0.376080 0.183650 0.683806
O O14 0.000000 0.686545 0.250000
O O15 0.000000 0.580304 0.750000
O O16 0.500000 0.000649 0.750000
O O17 0.250000 0.000000 0.875219
O O18 0.500000 0.000000 0.000000
#
# Coordination Sequence:
#
# PCOD9423154 Si02
#       8
#     8   8   8   4   8   8   8   8
#     4  11  25  43  70 104 142 179 241 289 347 412
#     4  12  25  45  68  98 136 182 225 281 347 409
#     4  10  23  42  65 100 129 172 226 268 339 410
#     4  12  24  44  72 100 142 182 234 288 352 414
#     4  12  26  44  67  96 135 180 223 279 333 415
#     4  12  23  45  69 102 136 183 231 290 351 406
#     4  10  22  42  69  95 133 170 214 281 338 401
#     4  11  24  46  72 106 150 196 243 299 364 432
#
# _framework density 22.253375999999999
#
# number of rings (size 3 to 8) (size 9 to 14) (size 15 to 20)
#    0.000    0.800    2.667    4.000    0.000    8.533 
#    2.400    0.000    0.000    0.000    0.000    0.000 
#    0.000    0.000    0.000    0.000    0.000    0.000 
#
# Total GULP energy -335406.727055 kJ/mol
# GULP energy per Si atom -5590.112118 kJ/mol
# Density = 2.220273 g / cm^3
# Si number density = 22.253376 Si / 1000 Ang^3
#
#
#
# Elastic Constant Matrix: (Units=GPa)
#
#
# Indices 1 2 3 4 5 6 
#
# 1 129.6737 8.2895 19.2668 0.0000 0.0000 0.0000
# 2 8.2895 51.6079 -20.3709 0.0000 0.0000 0.0000
# 3 19.2668 -20.3709 93.0139 0.0000 0.0000 0.0000
# 4 0.0000 0.0000 0.0000 73.8575 0.0000 0.0000
# 5 0.0000 0.0000 0.0000 0.0000 28.1721 0.0000
# 6 0.0000 0.0000 0.0000 0.0000 0.0000 20.8289
#
#
#
# Elastic Compliance Matrix: (Units=1/GPa)
#
#
# Indices 1 2 3 4 5 6 
#
# 1 0.008172 -0.002168 -0.002168 0.000000 0.000000 0.000000
# 2 -0.002168 0.021786 0.005220 0.000000 0.000000 0.000000
# 3 -0.002168 0.005220 0.012343 0.000000 0.000000 0.000000
# 4 0.000000 0.000000 0.000000 0.013540 0.000000 0.000000
# 5 0.000000 0.000000 0.000000 0.000000 0.035496 0.000000
# 6 0.000000 0.000000 0.000000 0.000000 0.000000 0.048010
#
#
# Mechanical properties :
#
#
# Convention : Reuss Voigt Hill
#
# Bulk Modulus (GPa) = 22.69094 32.07402 27.38248
# Shear Modulus (GPa) = 32.83666 42.37905 37.60785
#
# Velocity S-wave (km/s) = 3.84550 4.36866 4.11540
# Velocity P-wave (km/s) = 5.47137 6.31596 5.90877
#
# Compressibility (1/GPa) = 0.04407046
#
# Stress axis : x y z
#
# Youngs Moduli (GPa) = 122.36389 45.90141 81.01482
#
# Poissons Ratio (x) = 0.09953 0.17562
# Poissons Ratio (y) = 0.26532 -0.42293
# Poissons Ratio (z) = 0.26525 -0.23963
#
# Static dielectric constant tensor:
#      x y z
#    x 1.862620 0.000000 0.000000 
#    y 0.000000 1.829560 0.000000 
#    z 0.000000 0.000000 1.935190 
# 
# From -- ./inp_files/7005.got.cif
#   From: 2010.05.17/outbox.cif.g08.bks.cpg/sg54_4_cif.got.tgz:7005.got - 2010.06.03 13:09:01.
