data_PCOD9423559
_publ_section_title
;
Structure prediction by ZEFSAII (Michael W. Deem and Ramdas Pophale) SiO2 
 PCOD9423559
Probable space group: P C C A
;
_chemical_formula_sum "Si O2"
_cell_formula_units_Z 32
_cell_length_a 5.197531
_cell_length_b 14.867556
_cell_length_c 19.869480
_cell_angle_alpha 90.000000
_cell_angle_beta 90.000000
_cell_angle_gamma 90.000000
_cell_volume 1535.405785
_symmetry_space_group_name_H-M "P C C A"
_symmetry_group_IT_number 54
_symmetry_cell_setting 'orthorhombic'
loop_
_space_group_symop_operation_xyz
x,y,z
1/2-x,-y,z
1/2+x,-y,1/2-z
-x,y,1/2-z
-x,-y,-z
1/2+x,y,-z
1/2-x,y,1/2+z
x,-y,1/2+z
loop_
_atom_site_type_symbol
_atom_site_label
_atom_site_fract_x
_atom_site_fract_y
_atom_site_fract_z
Si Si1 0.138262 0.770034 0.819567
Si Si2 0.500000 0.942826 0.250000
Si Si3 0.750000 0.500000 0.824207
Si Si4 0.250000 0.500000 0.418659
Si Si5 0.652081 0.698243 0.036562
Si Si6 0.000000 0.344908 0.750000
O O1 0.104386 0.876822 0.809701
O O2 0.054406 0.732396 0.890954
O O3 0.414123 0.722766 0.808906
O O4 0.000000 0.741060 0.750000
O O5 0.750000 0.000000 0.270729
O O6 0.499207 0.506755 0.870868
O O7 0.715721 0.586382 0.776856
O O8 0.191710 0.409879 0.460170
O O9 0.437514 0.728974 0.983540
#
# Coordination Sequence:
#
# PCOD9423559 Si02
#       6
#     8   4   4   4   8   4
#     4  10  25  42  74  99 135 175 234 284 346 422
#     4  10  23  45  76 110 130 162 216 295 369 434
#     4  12  25  35  64  88 144 172 246 292 330 380
#     4  12  23  45  56  90 136 200 242 280 324 380
#     4  12  26  43  64  95 142 188 234 280 335 391
#     4  12  23  39  60 102 132 186 234 297 341 384
#
# _framework density 20.841396
#
# number of rings (size 3 to 8) (size 9 to 14) (size 15 to 20)
#    0.750    0.000    2.500    5.250    5.250    0.000 
#    0.000    0.000    0.000    4.500    0.000    0.000 
#    0.000    0.000    0.000    0.000    0.000    0.000 
#
# Total GULP energy -178323.661311 kJ/mol
# GULP energy per Si atom -5572.614416 kJ/mol
# Density = 2.079396 g / cm^3
# Si number density = 20.841396 Si / 1000 Ang^3
#
#
#
# Elastic Constant Matrix: (Units=GPa)
#
#
# Indices 1 2 3 4 5 6 
#
# 1 130.5498 37.7002 30.8571 0.0000 0.0000 0.0000
# 2 37.7002 105.4120 11.5904 0.0000 0.0000 0.0000
# 3 30.8571 11.5904 82.7316 0.0000 0.0000 0.0000
# 4 0.0000 0.0000 0.0000 -3.7028 0.0000 0.0000
# 5 0.0000 0.0000 0.0000 0.0000 43.6367 0.0000
# 6 0.0000 0.0000 0.0000 0.0000 0.0000 12.6731
#
#
#
# Elastic Compliance Matrix: (Units=1/GPa)
#
#
# Indices 1 2 3 4 5 6 
#
# 1 0.009233 -0.002969 -0.003028 0.000000 0.000000 0.000000
# 2 -0.002969 0.010590 -0.000376 0.000000 0.000000 0.000000
# 3 -0.003028 -0.000376 0.013269 0.000000 0.000000 0.000000
# 4 0.000000 0.000000 0.000000 -0.270068 0.000000 0.000000
# 5 0.000000 0.000000 0.000000 0.000000 0.022917 0.000000
# 6 0.000000 0.000000 0.000000 0.000000 0.000000 0.078907
#
#
# Mechanical properties :
#
#
# Convention : Reuss Voigt Hill
#
# Bulk Modulus (GPa) = 49.14991 53.22097 51.18544
# Shear Modulus (GPa) = -43.24355 26.42445 -8.40955
#
# Velocity S-wave (km/s) = -4.56004 3.56460 -2.01092
# Velocity P-wave (km/s) = 2.02267 6.52177 4.38419
#
# Compressibility (1/GPa) = 0.02034592
#
# Stress axis : x y z
#
# Youngs Moduli (GPa) = 108.30691 94.42972 75.36218
#
# Poissons Ratio (x) = 0.28039 0.22818
# Poissons Ratio (y) = 0.32159 0.02835
# Poissons Ratio (z) = 0.32793 0.03552
#
# Static dielectric constant tensor:
#      x y z
#    x 1.745390 0.000000 0.000000 
#    y 0.000000 1.771540 0.000000 
#    z 0.000000 0.000000 1.814410 
# 
# From -- ./inp_files/15733.got.cif
#   From: 2010.05.17/outbox.cif.g08.bks.cpg/sg54_8_cif.got.tgz:15733.got - 2010.06.03 13:09:01.
