data_PCOD9423983
_publ_section_title
;
Structure prediction by ZEFSAII (Michael W. Deem and Ramdas Pophale) SiO2 
 PCOD9423983
Probable space group: P C C A
;
_chemical_formula_sum "Si O2"
_cell_formula_units_Z 40
_cell_length_a 13.645076
_cell_length_b 8.390687
_cell_length_c 14.605649
_cell_angle_alpha 90.000000
_cell_angle_beta 90.000000
_cell_angle_gamma 90.000000
_cell_volume 1672.223565
_symmetry_space_group_name_H-M "P C C A"
_symmetry_group_IT_number 54
_symmetry_cell_setting 'orthorhombic'
loop_
_space_group_symop_operation_xyz
x,y,z
1/2-x,-y,z
1/2+x,-y,1/2-z
-x,y,1/2-z
-x,-y,-z
1/2+x,y,-z
1/2-x,y,1/2+z
x,-y,1/2+z
loop_
_atom_site_type_symbol
_atom_site_label
_atom_site_fract_x
_atom_site_fract_y
_atom_site_fract_z
Si Si1 0.538159 0.898204 0.644720
Si Si2 0.755820 0.191245 0.437463
Si Si3 0.987213 0.764553 0.950339
Si Si4 0.165398 0.631558 0.892084
Si Si5 0.272219 0.815879 0.758719
O O1 0.500000 0.896322 0.750000
O O2 0.497141 0.798426 0.558643
O O3 0.645168 0.822757 0.663619
O O4 0.526398 0.078279 0.605530
O O5 0.700740 0.263351 0.522769
O O6 0.705620 0.245645 0.342348
O O7 0.870266 0.240904 0.435486
O O8 0.750000 0.000000 0.446661
O O9 0.050331 0.614890 0.913360
O O10 0.250000 0.500000 0.886305
O O11 0.179079 0.725480 0.797674
O O12 0.250000 0.000000 0.743839
#
# Coordination Sequence:
#
# PCOD9423983 Si02
#       5
#     8   8   8   8   8
#     4  11  20  37  68 104 132 167 228 300 358 412
#     4  11  23  43  71 103 131 179 232 298 358 406
#     4  11  23  39  67 100 138 180 230 284 359 424
#     4  12  26  43  63  94 142 184 230 281 345 430
#     4  11  21  41  68  96 134 169 229 295 348 414
#
# _framework density 23.920245999999999
#
# number of rings (size 3 to 8) (size 9 to 14) (size 15 to 20)
#    0.000    0.800    4.000    6.600    0.000    1.600 
#    0.000    0.000    0.000    0.000    0.000    0.000 
#    0.000    0.000    0.000    0.000    0.000    0.000 
#
# Total GULP energy -223216.253683 kJ/mol
# GULP energy per Si atom -5580.406342 kJ/mol
# Density = 2.386580 g / cm^3
# Si number density = 23.920246 Si / 1000 Ang^3
#
#
#
# Elastic Constant Matrix: (Units=GPa)
#
#
# Indices 1 2 3 4 5 6 
#
# 1 109.2624 0.8916 4.3232 0.0000 0.0000 0.0000
# 2 0.8916 16.7050 -4.3561 0.0000 0.0000 0.0000
# 3 4.3232 -4.3561 135.4669 0.0000 0.0000 0.0000
# 4 0.0000 0.0000 0.0000 -11.1511 0.0000 0.0000
# 5 0.0000 0.0000 0.0000 0.0000 43.3108 0.0000
# 6 0.0000 0.0000 0.0000 0.0000 0.0000 31.7650
#
#
#
# Elastic Compliance Matrix: (Units=1/GPa)
#
#
# Indices 1 2 3 4 5 6 
#
# 1 0.009169 -0.000571 -0.000311 0.000000 0.000000 0.000000
# 2 -0.000571 0.060404 0.001961 0.000000 0.000000 0.000000
# 3 -0.000311 0.001961 0.007455 0.000000 0.000000 0.000000
# 4 0.000000 0.000000 0.000000 -0.089677 0.000000 0.000000
# 5 0.000000 0.000000 0.000000 0.000000 0.023089 0.000000
# 6 0.000000 0.000000 0.000000 0.000000 0.000000 0.031481
#
#
# Mechanical properties :
#
#
# Convention : Reuss Voigt Hill
#
# Bulk Modulus (GPa) = 12.62846 29.23908 20.93377
# Shear Modulus (GPa) = 75.57644 30.15665 52.86654
#
# Velocity S-wave (km/s) = 5.62706 3.55451 4.70629
# Velocity P-wave (km/s) = 6.89269 5.39408 6.18892
#
# Compressibility (1/GPa) = 0.07918622
#
# Stress axis : x y z
#
# Youngs Moduli (GPa) = 109.06026 16.55522 134.14094
#
# Poissons Ratio (x) = 0.00944 0.04171
# Poissons Ratio (y) = 0.06222 -0.26299
# Poissons Ratio (z) = 0.03391 -0.03246
#
# Static dielectric constant tensor:
#      x y z
#    x 2.161640 0.000000 0.000000 
#    y 0.000000 1.845510 0.000000 
#    z 0.000000 0.000000 1.895280 
# 
# From -- ./inp_files/13216.got.cif
#   From: 2010.05.17/outbox.cif.g08.bks.cpg/sg54_7_cif.got.tgz:13216.got - 2010.06.03 13:09:01.
