data_PCOD9423356
_publ_section_title
;
Structure prediction by ZEFSAII (Michael W. Deem and Ramdas Pophale) SiO2 
 PCOD9423356
Probable space group: P C C A
;
_chemical_formula_sum "Si O2"
_cell_formula_units_Z 64
_cell_length_a 11.531513
_cell_length_b 12.004470
_cell_length_c 23.512394
_cell_angle_alpha 90.000000
_cell_angle_beta 90.000000
_cell_angle_gamma 90.000000
_cell_volume 3254.813692
_symmetry_space_group_name_H-M "P C C A"
_symmetry_group_IT_number 54
_symmetry_cell_setting 'orthorhombic'
loop_
_space_group_symop_operation_xyz
x,y,z
1/2-x,-y,z
1/2+x,-y,1/2-z
-x,y,1/2-z
-x,-y,-z
1/2+x,y,-z
1/2-x,y,1/2+z
x,-y,1/2+z
loop_
_atom_site_type_symbol
_atom_site_label
_atom_site_fract_x
_atom_site_fract_y
_atom_site_fract_z
Si Si1 0.437887 0.341805 0.390430
Si Si2 0.475425 0.869165 0.439915
Si Si3 0.593856 0.541226 0.180918
Si Si4 0.225181 0.790846 0.606101
Si Si5 0.042981 0.886578 0.077765
Si Si6 0.345870 0.593382 0.541835
Si Si7 0.831081 0.396637 0.306688
Si Si8 0.814677 0.329261 0.076348
O O1 0.413913 0.408376 0.331664
O O2 0.485038 0.215823 0.388249
O O3 0.538374 0.412275 0.421444
O O4 0.323584 0.331673 0.429090
O O5 0.599174 0.823980 0.417230
O O6 0.463881 0.865017 0.509051
O O7 0.371531 0.791928 0.417446
O O8 0.476576 0.996244 0.417953
O O9 0.652332 0.584285 0.238910
O O10 0.463549 0.586842 0.174985
O O11 0.662467 0.596369 0.130442
O O12 0.324206 0.886725 0.601469
O O13 0.279901 0.703703 0.562053
O O14 0.213958 0.718728 0.665001
O O15 0.250000 0.500000 0.547415
O O16 0.375966 0.612026 0.476524
O O17 0.750000 0.500000 0.325816
#
# Coordination Sequence:
#
# PCOD9423356 Si02
#       8
#     8   8   8   8   8   8   8   8
#     4  11  22  39  56  86 129 165 213 261 324 397
#     4  11  22  38  58  92 130 168 216 264 319 389
#     4  11  24  40  59  94 127 162 210 265 329 385
#     4  11  20  39  60  90 125 163 217 264 315 384
#     4  10  23  38  61  91 128 174 215 261 321 389
#     4  11  23  34  57  90 129 172 208 264 330 402
#     4  11  22  39  65  91 120 166 211 263 320 387
#     4  12  23  37  57  91 130 167 205 262 328 396
#
# _framework density 19.663181999999999
#
# number of rings (size 3 to 8) (size 9 to 14) (size 15 to 20)
#    0.000    1.000    3.750    5.625    0.000    1.500 
#    0.000    0.000    0.000    0.000   26.000    0.000 
#    0.000    0.000    0.000    0.000    0.000    0.000 
#
# Total GULP energy -356865.615755 kJ/mol
# GULP energy per Si atom -5576.025246 kJ/mol
# Density = 1.961843 g / cm^3
# Si number density = 19.663182 Si / 1000 Ang^3
#
#
#
# Elastic Constant Matrix: (Units=GPa)
#
#
# Indices 1 2 3 4 5 6 
#
# 1 98.9319 35.0835 31.3293 0.0000 0.0000 0.0000
# 2 35.0835 116.1086 43.9932 0.0000 0.0000 0.0000
# 3 31.3293 43.9932 93.9909 0.0000 0.0000 0.0000
# 4 0.0000 0.0000 0.0000 10.8029 0.0000 0.0000
# 5 0.0000 0.0000 0.0000 0.0000 7.9934 0.0000
# 6 0.0000 0.0000 0.0000 0.0000 0.0000 35.8619
#
#
#
# Elastic Compliance Matrix: (Units=1/GPa)
#
#
# Indices 1 2 3 4 5 6 
#
# 1 0.011887 -0.002541 -0.002773 0.000000 0.000000 0.000000
# 2 -0.002541 0.011013 -0.004307 0.000000 0.000000 0.000000
# 3 -0.002773 -0.004307 0.013580 0.000000 0.000000 0.000000
# 4 0.000000 0.000000 0.000000 0.092567 0.000000 0.000000
# 5 0.000000 0.000000 0.000000 0.000000 0.125103 0.000000
# 6 0.000000 0.000000 0.000000 0.000000 0.000000 0.027885
#
#
# Mechanical properties :
#
#
# Convention : Reuss Voigt Hill
#
# Bulk Modulus (GPa) = 58.01661 58.87147 58.44404
# Shear Modulus (GPa) = 16.28539 24.17334 20.22937
#
# Velocity S-wave (km/s) = 2.88100 3.51004 3.21096
# Velocity P-wave (km/s) = 6.37465 6.81411 6.59804
#
# Compressibility (1/GPa) = 0.01723644
#
# Stress axis : x y z
#
# Youngs Moduli (GPa) = 84.12385 90.80528 73.63925
#
# Poissons Ratio (x) = 0.23076 0.20419
# Poissons Ratio (y) = 0.21378 0.31720
# Poissons Ratio (z) = 0.23326 0.39114
#
# Static dielectric constant tensor:
#      x y z
#    x 1.765610 0.000000 0.000000 
#    y 0.000000 1.763790 0.000000 
#    z 0.000000 0.000000 1.707680 
# 
# From -- ./inp_files/24246.got.cif
#   From: 2010.05.17/outbox.cif.g08.bks.cpg/sg54_13_cif.got.tgz:24246.got - 2010.06.03 13:09:01.
