data_PCOD9423623
_publ_section_title
;
Structure prediction by ZEFSAII (Michael W. Deem and Ramdas Pophale) SiO2 
 PCOD9423623
Probable space group: P C C A
;
_chemical_formula_sum "Si O2"
_cell_formula_units_Z 44
_cell_length_a 16.129186
_cell_length_b 12.750248
_cell_length_c 9.253361
_cell_angle_alpha 90.000000
_cell_angle_beta 90.000000
_cell_angle_gamma 90.000000
_cell_volume 1902.964068
_symmetry_space_group_name_H-M "P C C A"
_symmetry_group_IT_number 54
_symmetry_cell_setting 'orthorhombic'
loop_
_space_group_symop_operation_xyz
x,y,z
1/2-x,-y,z
1/2+x,-y,1/2-z
-x,y,1/2-z
-x,-y,-z
1/2+x,y,-z
1/2-x,y,1/2+z
x,-y,1/2+z
loop_
_atom_site_type_symbol
_atom_site_label
_atom_site_fract_x
_atom_site_fract_y
_atom_site_fract_z
Si Si1 0.916984 0.471679 0.404675
Si Si2 0.096312 0.685795 0.237100
Si Si3 0.250000 0.500000 0.423256
Si Si4 0.658166 0.280853 0.585518
Si Si5 0.692613 0.138201 0.123305
Si Si6 0.250000 0.000000 0.629117
Si Si7 0.500000 0.286543 0.750000
O O1 0.904398 0.558433 0.277769
O O2 0.829554 0.463469 0.484765
O O3 0.000000 0.500000 0.500000
O O4 0.940698 0.361113 0.342713
O O5 0.135783 0.759546 0.358601
O O6 0.000000 0.712112 0.250000
O O7 0.143865 0.708585 0.086452
O O8 0.293414 0.610041 0.362528
O O9 0.716582 0.187255 0.626391
O O10 0.567937 0.244196 0.641921
O O11 0.689796 0.065070 0.264337
O O12 0.693401 0.071768 0.976352
#
# Coordination Sequence:
#
# PCOD9423623 Si02
#       7
#     8   8   4   8   8   4   4
#     4  11  23  41  58  95 150 196 244 287 338 411
#     4  11  24  42  66 100 141 189 237 289 352 420
#     4  10  24  40  60  96 146 194 252 276 342 430
#     4  11  26  41  65 109 139 197 239 286 355 430
#     4  11  24  47  77 105 137 181 246 295 376 435
#     4  10  24  48  80 100 136 178 234 326 370 426
#     4  12  24  38  64  98 156 192 232 294 340 420
#
# _framework density 23.121822999999999
#
# number of rings (size 3 to 8) (size 9 to 14) (size 15 to 20)
#    0.000    1.091    6.364    0.000   10.182    1.455 
#    0.000    0.909    8.000    0.000    0.000    0.000 
#    0.000    0.000    0.000    0.000    0.000    0.000 
#
# Total GULP energy -245083.750153 kJ/mol
# GULP energy per Si atom -5570.085231 kJ/mol
# Density = 2.306920 g / cm^3
# Si number density = 23.121823 Si / 1000 Ang^3
#
#
#
# Elastic Constant Matrix: (Units=GPa)
#
#
# Indices 1 2 3 4 5 6 
#
# 1 138.5993 26.7107 20.8935 0.0000 0.0000 0.0000
# 2 26.7107 74.9366 30.3197 0.0000 0.0000 0.0000
# 3 20.8935 30.3197 81.5335 0.0000 0.0000 0.0000
# 4 0.0000 0.0000 0.0000 42.9292 0.0000 0.0000
# 5 0.0000 0.0000 0.0000 0.0000 23.9958 0.0000
# 6 0.0000 0.0000 0.0000 0.0000 0.0000 7.2791
#
#
#
# Elastic Compliance Matrix: (Units=1/GPa)
#
#
# Indices 1 2 3 4 5 6 
#
# 1 0.007836 -0.002332 -0.001141 0.000000 0.000000 0.000000
# 2 -0.002332 0.016402 -0.005502 0.000000 0.000000 0.000000
# 3 -0.001141 -0.005502 0.014603 0.000000 0.000000 0.000000
# 4 0.000000 0.000000 0.000000 0.023294 0.000000 0.000000
# 5 0.000000 0.000000 0.000000 0.000000 0.041674 0.000000
# 6 0.000000 0.000000 0.000000 0.000000 0.000000 0.137379
#
#
# Mechanical properties :
#
#
# Convention : Reuss Voigt Hill
#
# Bulk Modulus (GPa) = 47.86409 50.10190 48.98300
# Shear Modulus (GPa) = 18.78979 29.31720 24.05350
#
# Velocity S-wave (km/s) = 2.85378 3.56468 3.22886
# Velocity P-wave (km/s) = 5.62179 6.21758 5.92718
#
# Compressibility (1/GPa) = 0.02089249
#
# Stress axis : x y z
#
# Youngs Moduli (GPa) = 127.60979 60.96920 68.47787
#
# Poissons Ratio (x) = 0.14215 0.07814
# Poissons Ratio (y) = 0.29753 0.37675
# Poissons Ratio (z) = 0.14562 0.33544
#
# Static dielectric constant tensor:
#      x y z
#    x 2.133580 0.000000 0.000000 
#    y 0.000000 1.922020 0.000000 
#    z 0.000000 0.000000 2.215720 
# 
# From -- ./inp_files/8325.got.cif
#   From: 2010.05.17/outbox.cif.g08.bks.cpg/sg54_5_cif.got.tgz:8325.got - 2010.06.03 13:09:01.
