data_PCOD9423344
_publ_section_title
;
Structure prediction by ZEFSAII (Michael W. Deem and Ramdas Pophale) SiO2 
 PCOD9423344
Probable space group: P C C A
;
_chemical_formula_sum "Si O2"
_cell_formula_units_Z 52
_cell_length_a 20.708101
_cell_length_b 10.378955
_cell_length_c 10.195622
_cell_angle_alpha 90.000000
_cell_angle_beta 90.000000
_cell_angle_gamma 90.000000
_cell_volume 2191.329217
_symmetry_space_group_name_H-M "P C C A"
_symmetry_group_IT_number 54
_symmetry_cell_setting 'orthorhombic'
loop_
_space_group_symop_operation_xyz
x,y,z
1/2-x,-y,z
1/2+x,-y,1/2-z
-x,y,1/2-z
-x,-y,-z
1/2+x,y,-z
1/2-x,y,1/2+z
x,-y,1/2+z
loop_
_atom_site_type_symbol
_atom_site_label
_atom_site_fract_x
_atom_site_fract_y
_atom_site_fract_z
Si Si1 0.410267 0.385289 0.882827
Si Si2 0.441888 0.331564 0.345609
Si Si3 0.904747 0.122660 0.460948
Si Si4 0.814765 0.081170 0.048694
Si Si5 0.332773 0.300773 0.139731
Si Si6 0.000000 0.831417 0.750000
Si Si7 0.809039 0.282894 0.288376
O O1 0.446459 0.520226 0.888311
O O2 0.454896 0.265568 0.837069
O O3 0.357697 0.391360 0.764772
O O4 0.372405 0.365032 0.019615
O O5 0.500000 0.302979 0.250000
O O6 0.442935 0.231253 0.461611
O O7 0.374897 0.310694 0.269199
O O8 0.843113 0.198158 0.400233
O O9 0.877226 0.010910 0.553376
O O10 0.952426 0.086176 0.342077
O O11 0.823973 0.154431 0.911104
O O12 0.750000 0.000000 0.047863
O O13 0.805832 0.185519 0.163849
O O14 0.258967 0.339485 0.166831
#
# Coordination Sequence:
#
# PCOD9423344 Si02
#       7
#     8   8   8   8   8   4   8
#     4  10  24  46  73  99 144 191 231 299 357 426
#     4  12  27  46  73 102 138 191 245 290 357 430
#     4  11  25  43  76 104 137 193 236 297 354 426
#     4  11  23  44  74 100 143 192 228 290 365 431
#     4  11  25  44  70 108 141 184 240 292 355 433
#     4  10  22  48  72 106 142 188 248 290 358 424
#     4  10  24  45  68 109 141 181 233 288 367 424
#
# _framework density 23.729889
#
# number of rings (size 3 to 8) (size 9 to 14) (size 15 to 20)
#    0.000    1.231    2.308    1.846   10.769    1.846 
#    1.385    7.692    0.000    0.000    0.000    0.000 
#    0.000    0.000    0.000    0.000    0.000    0.000 
#
# Total GULP energy -290998.877507 kJ/mol
# GULP energy per Si atom -5596.132260 kJ/mol
# Density = 2.367588 g / cm^3
# Si number density = 23.729889 Si / 1000 Ang^3
#
#
#
# Elastic Constant Matrix: (Units=GPa)
#
#
# Indices 1 2 3 4 5 6 
#
# 1 115.4366 -8.9271 27.1095 0.0000 0.0000 0.0000
# 2 -8.9271 54.2657 3.7604 0.0000 0.0000 0.0000
# 3 27.1095 3.7604 72.3690 0.0000 0.0000 0.0000
# 4 0.0000 0.0000 0.0000 28.3342 0.0000 0.0000
# 5 0.0000 0.0000 0.0000 0.0000 44.0077 0.0000
# 6 0.0000 0.0000 0.0000 0.0000 0.0000 -30.9866
#
#
#
# Elastic Compliance Matrix: (Units=1/GPa)
#
#
# Indices 1 2 3 4 5 6 
#
# 1 0.009680 0.001850 -0.003722 0.000000 0.000000 0.000000
# 2 0.001850 0.018848 -0.001673 0.000000 0.000000 0.000000
# 3 -0.003722 -0.001673 0.015299 0.000000 0.000000 0.000000
# 4 0.000000 0.000000 0.000000 0.035293 0.000000 0.000000
# 5 0.000000 0.000000 0.000000 0.000000 0.022723 0.000000
# 6 0.000000 0.000000 0.000000 0.000000 0.000000 -0.032272
#
#
# Mechanical properties :
#
#
# Convention : Reuss Voigt Hill
#
# Bulk Modulus (GPa) = 27.21930 31.77298 29.49614
# Shear Modulus (GPa) = 56.23860 22.94630 39.59245
#
# Velocity S-wave (km/s) = 4.87349 3.11300 4.08911
# Velocity P-wave (km/s) = 6.56988 5.13221 5.89503
#
# Compressibility (1/GPa) = 0.03673864
#
# Stress axis : x y z
#
# Youngs Moduli (GPa) = 103.30559 53.05558 65.36223
#
# Poissons Ratio (x) = -0.09817 0.24330
# Poissons Ratio (y) = -0.19115 0.10932
# Poissons Ratio (z) = 0.38453 0.08874
#
# Static dielectric constant tensor:
#      x y z
#    x 1.913810 0.000000 0.000000 
#    y 0.000000 1.899080 0.000000 
#    z 0.000000 0.000000 1.963150 
# 
# From -- ./inp_files/9559.got.cif
#   From: 2010.05.17/outbox.cif.g08.bks.cpg/sg54_5_cif.got.tgz:9559.got - 2010.06.03 13:09:01.
