data_PCOD9423063
_publ_section_title
;
Structure prediction by ZEFSAII (Michael W. Deem and Ramdas Pophale) SiO2 
 PCOD9423063
Probable space group: P C C A
;
_chemical_formula_sum "Si O2"
_cell_formula_units_Z 60
_cell_length_a 22.428590
_cell_length_b 5.170682
_cell_length_c 22.716354
_cell_angle_alpha 90.000000
_cell_angle_beta 90.000000
_cell_angle_gamma 90.000000
_cell_volume 2634.440711
_symmetry_space_group_name_H-M "P C C A"
_symmetry_group_IT_number 54
_symmetry_cell_setting 'orthorhombic'
loop_
_space_group_symop_operation_xyz
x,y,z
1/2-x,-y,z
1/2+x,-y,1/2-z
-x,y,1/2-z
-x,-y,-z
1/2+x,y,-z
1/2-x,y,1/2+z
x,-y,1/2+z
loop_
_atom_site_type_symbol
_atom_site_label
_atom_site_fract_x
_atom_site_fract_y
_atom_site_fract_z
Si Si1 0.809964 0.412693 0.267142
Si Si2 0.443956 0.146335 0.470537
Si Si3 0.411484 0.669704 0.318838
Si Si4 0.117626 0.709809 0.146807
Si Si5 0.981522 0.829343 0.165307
Si Si6 0.250000 0.500000 0.013415
Si Si7 0.176339 0.786730 0.608849
Si Si8 0.626328 0.348620 0.543573
O O1 0.750000 0.500000 0.235974
O O2 0.856980 0.280342 0.224841
O O3 0.843412 0.660070 0.295040
O O4 0.794449 0.251892 0.326256
O O5 0.462955 0.170729 0.402975
O O6 0.418164 0.432317 0.484334
O O7 0.500000 0.000000 0.500000
O O8 0.391141 0.938623 0.476563
O O9 0.444767 0.401844 0.305523
O O10 0.386333 0.651914 0.385872
O O11 0.459743 0.895211 0.312300
O O12 0.125295 0.437296 0.112587
O O13 0.051443 0.779847 0.165137
O O14 0.146449 0.935714 0.108399
O O15 0.277693 0.713481 0.058126
O O16 0.193947 0.589648 0.974401
#
# Coordination Sequence:
#
# PCOD9423063 Si02
#       8
#     8   8   8   8   8   4   8   8
#     4  10  24  44  67  93 134 173 221 269 331 401
#     4  10  22  41  65  95 129 174 221 269 326 396
#     4  10  23  44  66  98 127 176 220 276 325 399
#     4  10  23  43  65  99 128 173 213 270 342 381
#     4  10  22  42  66  94 136 161 222 277 326 394
#     4  12  26  44  70  96 146 172 224 286 318 418
#     4  10  24  41  62 100 126 170 219 257 337 389
#     4  10  25  41  65  99 130 174 226 264 339 383
#
# _framework density 22.775233
#
# number of rings (size 3 to 8) (size 9 to 14) (size 15 to 20)
#    0.800    1.067    0.667    1.200    6.533    4.267 
#    0.000    0.000    0.000    0.000    0.000    0.000 
#    0.000    0.000    0.000    0.000    0.000    0.000 
#
# Total GULP energy -335261.517943 kJ/mol
# GULP energy per Si atom -5587.691966 kJ/mol
# Density = 2.272340 g / cm^3
# Si number density = 22.775233 Si / 1000 Ang^3
#
#
#
# Elastic Constant Matrix: (Units=GPa)
#
#
# Indices 1 2 3 4 5 6 
#
# 1 129.5075 2.9029 30.3864 0.0000 0.0000 0.0000
# 2 2.9029 80.3212 18.9733 0.0000 0.0000 0.0000
# 3 30.3864 18.9733 63.8569 0.0000 0.0000 0.0000
# 4 0.0000 0.0000 0.0000 -7.7998 0.0000 0.0000
# 5 0.0000 0.0000 0.0000 0.0000 22.8249 0.0000
# 6 0.0000 0.0000 0.0000 0.0000 0.0000 28.7056
#
#
#
# Elastic Compliance Matrix: (Units=1/GPa)
#
#
# Indices 1 2 3 4 5 6 
#
# 1 0.008730 0.000716 -0.004367 0.000000 0.000000 0.000000
# 2 0.000716 0.013449 -0.004337 0.000000 0.000000 0.000000
# 3 -0.004367 -0.004337 0.019027 0.000000 0.000000 0.000000
# 4 0.000000 0.000000 0.000000 -0.128208 0.000000 0.000000
# 5 0.000000 0.000000 0.000000 0.000000 0.043812 0.000000
# 6 0.000000 0.000000 0.000000 0.000000 0.000000 0.034836
#
#
# Mechanical properties :
#
#
# Convention : Reuss Voigt Hill
#
# Bulk Modulus (GPa) = 39.63517 42.02344 40.82931
# Shear Modulus (GPa) = 311.90335 23.50767 167.70551
#
# Velocity S-wave (km/s) = 11.71519 3.21621 8.59040
# Velocity P-wave (km/s) = 14.15750 5.68185 10.78699
#
# Compressibility (1/GPa) = 0.02523012
#
# Stress axis : x y z
#
# Youngs Moduli (GPa) = 114.54569 74.35767 52.55815
#
# Poissons Ratio (x) = -0.05324 0.22952
# Poissons Ratio (y) = -0.08202 0.22792
# Poissons Ratio (z) = 0.50022 0.32246
#
# Static dielectric constant tensor:
#      x y z
#    x 1.502400 0.000000 0.000000 
#    y 0.000000 1.847010 0.000000 
#    z 0.000000 0.000000 1.868930 
# 
# From -- ./inp_files/24791.got.cif
#   From: 2010.05.17/outbox.cif.g08.bks.cpg/sg54_13_cif.got.tgz:24791.got - 2010.06.03 13:09:01.
