data_PCOD9423657
_publ_section_title
;
Structure prediction by ZEFSAII (Michael W. Deem and Ramdas Pophale) SiO2 
 PCOD9423657
Probable space group: P C C A
;
_chemical_formula_sum "Si O2"
_cell_formula_units_Z 36
_cell_length_a 9.042895
_cell_length_b 17.075054
_cell_length_c 9.628211
_cell_angle_alpha 90.000000
_cell_angle_beta 90.000000
_cell_angle_gamma 90.000000
_cell_volume 1486.672038
_symmetry_space_group_name_H-M "P C C A"
_symmetry_group_IT_number 54
_symmetry_cell_setting 'orthorhombic'
loop_
_space_group_symop_operation_xyz
x,y,z
1/2-x,-y,z
1/2+x,-y,1/2-z
-x,y,1/2-z
-x,-y,-z
1/2+x,y,-z
1/2-x,y,1/2+z
x,-y,1/2+z
loop_
_atom_site_type_symbol
_atom_site_label
_atom_site_fract_x
_atom_site_fract_y
_atom_site_fract_z
Si Si1 0.500000 0.879696 0.750000
Si Si2 0.604108 0.782718 0.016698
Si Si3 0.250000 0.000000 0.728633
Si Si4 0.847721 0.675180 0.932259
Si Si5 0.672009 0.583100 0.705479
Si Si6 0.500000 0.894701 0.250000
O O1 0.547262 0.825189 0.877793
O O2 0.637003 0.936432 0.704803
O O3 0.515644 0.704200 0.063099
O O4 0.766931 0.753544 0.984212
O O5 0.587688 0.842069 0.142354
O O6 0.377909 0.054905 0.664618
O O7 0.827379 0.607558 0.045193
O O8 0.765292 0.646047 0.794892
O O9 0.750000 0.500000 0.726024
O O10 0.500000 0.582093 0.750000
#
# Coordination Sequence:
#
# PCOD9423657 Si02
#       6
#     4   8   4   8   8   4
#     4  11  24  42  66  98 139 180 234 286 347 412
#     4  12  24  43  69 100 136 182 232 288 346 414
#     4  10  24  42  64  94 136 180 230 288 340 416
#     4  12  25  46  72 103 144 182 234 292 346 411
#     4  12  28  48  73 106 143 185 234 284 346 419
#     4  11  24  40  64  96 129 180 230 282 347 408
#
# _framework density 24.215157999999999
#
# number of rings (size 3 to 8) (size 9 to 14) (size 15 to 20)
#    0.000    0.444    2.222    6.000    3.111    7.111 
#    0.000    0.000    0.000    0.000    0.000    0.000 
#    0.000    0.000    0.000    0.000    0.000    0.000 
#
# Total GULP energy -201259.722245 kJ/mol
# GULP energy per Si atom -5590.547840 kJ/mol
# Density = 2.416004 g / cm^3
# Si number density = 24.215158 Si / 1000 Ang^3
#
#
#
# Elastic Constant Matrix: (Units=GPa)
#
#
# Indices 1 2 3 4 5 6 
#
# 1 111.1315 27.8017 25.3084 0.0000 0.0000 0.0000
# 2 27.8017 83.3533 24.4191 0.0000 0.0000 0.0000
# 3 25.3084 24.4191 87.8217 0.0000 0.0000 0.0000
# 4 0.0000 0.0000 0.0000 83.6892 0.0000 0.0000
# 5 0.0000 0.0000 0.0000 0.0000 9.3434 0.0000
# 6 0.0000 0.0000 0.0000 0.0000 0.0000 -135.6545
#
#
#
# Elastic Compliance Matrix: (Units=1/GPa)
#
#
# Indices 1 2 3 4 5 6 
#
# 1 0.010183 -0.002762 -0.002167 0.000000 0.000000 0.000000
# 2 -0.002762 0.013810 -0.003044 0.000000 0.000000 0.000000
# 3 -0.002167 -0.003044 0.012857 0.000000 0.000000 0.000000
# 4 0.000000 0.000000 0.000000 0.011949 0.000000 0.000000
# 5 0.000000 0.000000 0.000000 0.000000 0.107028 0.000000
# 6 0.000000 0.000000 0.000000 0.000000 0.000000 -0.007372
#
#
# Mechanical properties :
#
#
# Convention : Reuss Voigt Hill
#
# Bulk Modulus (GPa) = 47.83396 48.59610 48.21503
# Shear Modulus (GPa) = 29.17697 5.12743 17.15220
#
# Velocity S-wave (km/s) = 3.47494 1.45672 2.66432
# Velocity P-wave (km/s) = 5.99140 4.78972 5.42394
#
# Compressibility (1/GPa) = 0.02090565
#
# Stress axis : x y z
#
# Youngs Moduli (GPa) = 98.20665 72.41115 77.77576
#
# Poissons Ratio (x) = 0.19997 0.16850
# Poissons Ratio (y) = 0.27121 0.23676
# Poissons Ratio (z) = 0.21277 0.22043
#
# Static dielectric constant tensor:
#      x y z
#    x 1.909480 0.000000 0.000000 
#    y 0.000000 1.917820 0.000000 
#    z 0.000000 0.000000 1.893810 
# 
# From -- ./inp_files/2505.got.cif
#   From: 2010.05.17/outbox.cif.g08.bks.cpg/sg54_2_cif.got.tgz:2505.got - 2010.06.03 13:09:01.
