data_PCOD9423059
_publ_section_title
;
Structure prediction by ZEFSAII (Michael W. Deem and Ramdas Pophale) SiO2 
 PCOD9423059
Probable space group: P C C A
;
_chemical_formula_sum "Si O2"
_cell_formula_units_Z 48
_cell_length_a 8.841021
_cell_length_b 12.393273
_cell_length_c 22.442580
_cell_angle_alpha 90.000000
_cell_angle_beta 90.000000
_cell_angle_gamma 90.000000
_cell_volume 2459.015241
_symmetry_space_group_name_H-M "P C C A"
_symmetry_group_IT_number 54
_symmetry_cell_setting 'orthorhombic'
loop_
_space_group_symop_operation_xyz
x,y,z
1/2-x,-y,z
1/2+x,-y,1/2-z
-x,y,1/2-z
-x,-y,-z
1/2+x,y,-z
1/2-x,y,1/2+z
x,-y,1/2+z
loop_
_atom_site_type_symbol
_atom_site_label
_atom_site_fract_x
_atom_site_fract_y
_atom_site_fract_z
Si Si1 0.928415 0.358170 0.316140
Si Si2 0.117511 0.085993 0.521492
Si Si3 0.069847 0.008992 0.189762
Si Si4 0.554228 0.188622 0.131919
Si Si5 0.903869 0.822731 0.607601
Si Si6 0.572647 0.612051 0.814846
O O1 0.942610 0.485794 0.330003
O O2 0.746013 0.345308 0.314363
O O3 0.000000 0.339156 0.250000
O O4 0.011063 0.282198 0.364872
O O5 0.125866 0.164639 0.463590
O O6 0.045630 0.150846 0.575684
O O7 0.250000 0.000000 0.537081
O O8 0.000000 0.000000 0.500000
O O9 0.000000 0.058351 0.250000
O O10 0.008002 0.888234 0.183423
O O11 0.250000 0.000000 0.190743
O O12 0.002485 0.078861 0.135046
O O13 0.732543 0.169082 0.130375
O O14 0.522091 0.313224 0.141710
O O15 0.500000 0.624762 0.750000
#
# Coordination Sequence:
#
# PCOD9423059 Si02
#       6
#     8   8   8   8   8   8
#     4  10  22  41  65  92 126 163 206 254 308 371
#     4  12  24  43  64  90 124 168 209 253 307 371
#     4  12  24  38  58  86 123 158 199 252 308 370
#     4  12  24  39  63  90 123 160 206 254 306 371
#     4  12  24  40  62  91 122 160 206 253 309 369
#     4  10  22  41  65  93 124 164 206 253 311 367
#
# _framework density 19.520009000000002
#
# number of rings (size 3 to 8) (size 9 to 14) (size 15 to 20)
#    0.000    0.667    3.333    5.000    2.333    2.000 
#    0.000    0.833    0.000    0.000    0.000    0.000 
#    0.000    0.000    0.000    0.000    0.000    0.000 
#
# Total GULP energy -267683.975856 kJ/mol
# GULP energy per Si atom -5576.749497 kJ/mol
# Density = 1.947558 g / cm^3
# Si number density = 19.520009 Si / 1000 Ang^3
#
#
#
# Elastic Constant Matrix: (Units=GPa)
#
#
# Indices 1 2 3 4 5 6 
#
# 1 165.4269 43.6241 37.9532 0.0000 0.0000 0.0000
# 2 43.6241 85.0162 39.4429 0.0000 0.0000 0.0000
# 3 37.9532 39.4429 101.0855 0.0000 0.0000 0.0000
# 4 0.0000 0.0000 0.0000 219.0870 0.0000 0.0000
# 5 0.0000 0.0000 0.0000 0.0000 21.8215 0.0000
# 6 0.0000 0.0000 0.0000 0.0000 0.0000 30.8464
#
#
#
# Elastic Compliance Matrix: (Units=1/GPa)
#
#
# Indices 1 2 3 4 5 6 
#
# 1 0.007181 -0.002972 -0.001537 0.000000 0.000000 0.000000
# 2 -0.002972 0.015592 -0.004968 0.000000 0.000000 0.000000
# 3 -0.001537 -0.004968 0.012408 0.000000 0.000000 0.000000
# 4 0.000000 0.000000 0.000000 0.004564 0.000000 0.000000
# 5 0.000000 0.000000 0.000000 0.000000 0.045826 0.000000
# 6 0.000000 0.000000 0.000000 0.000000 0.000000 0.032419
#
#
# Mechanical properties :
#
#
# Convention : Reuss Voigt Hill
#
# Bulk Modulus (GPa) = 61.62117 65.95213 63.78665
# Shear Modulus (GPa) = 35.12366 69.71822 52.42094
#
# Velocity S-wave (km/s) = 4.24650 5.98279 5.18780
# Velocity P-wave (km/s) = 7.46193 9.03246 8.28450
#
# Compressibility (1/GPa) = 0.01622819
#
# Stress axis : x y z
#
# Youngs Moduli (GPa) = 139.25191 64.13360 80.59253
#
# Poissons Ratio (x) = 0.19060 0.12384
# Poissons Ratio (y) = 0.41386 0.40040
# Poissons Ratio (z) = 0.21397 0.31863
#
# Static dielectric constant tensor:
#      x y z
#    x 1.661910 0.000000 0.000000 
#    y 0.000000 2.118090 0.000000 
#    z 0.000000 0.000000 1.759010 
# 
# From -- ./inp_files/23510.got.cif
#   From: 2010.05.17/outbox.cif.g08.bks.cpg/sg54_12_cif.got.tgz:23510.got - 2010.06.03 13:09:01.
