data_PCOD9423747
_publ_section_title
;
Structure prediction by ZEFSAII (Michael W. Deem and Ramdas Pophale) SiO2 
 PCOD9423747
Probable space group: P C C A
;
_chemical_formula_sum "Si O2"
_cell_formula_units_Z 40
_cell_length_a 9.744485
_cell_length_b 8.401185
_cell_length_c 23.189448
_cell_angle_alpha 90.000000
_cell_angle_beta 90.000000
_cell_angle_gamma 90.000000
_cell_volume 1898.409290
_symmetry_space_group_name_H-M "P C C A"
_symmetry_group_IT_number 54
_symmetry_cell_setting 'orthorhombic'
loop_
_space_group_symop_operation_xyz
x,y,z
1/2-x,-y,z
1/2+x,-y,1/2-z
-x,y,1/2-z
-x,-y,-z
1/2+x,y,-z
1/2-x,y,1/2+z
x,-y,1/2+z
loop_
_atom_site_type_symbol
_atom_site_label
_atom_site_fract_x
_atom_site_fract_y
_atom_site_fract_z
Si Si1 0.123818 0.118747 0.016072
Si Si2 0.750000 0.000000 0.667317
Si Si3 0.247377 0.689506 0.118299
Si Si4 0.149307 0.256029 0.247744
Si Si5 0.574417 0.762214 0.602254
Si Si6 0.750000 0.500000 0.170764
O O1 0.114627 0.245560 0.964723
O O2 0.250000 0.000000 0.011099
O O3 0.150358 0.212976 0.075827
O O4 0.000000 0.000000 0.000000
O O5 0.737736 0.143929 0.711897
O O6 0.871486 0.065955 0.626255
O O7 0.250000 0.500000 0.106670
O O8 0.294326 0.719104 0.184136
O O9 0.089033 0.745540 0.110624
O O10 0.144088 0.416607 0.285249
O O11 0.000000 0.180215 0.250000
O O12 0.661370 0.622823 0.633176
#
# Coordination Sequence:
#
# PCOD9423747 Si02
#       6
#     8   4   8   8   8   4
#     4  12  27  47  74 108 147 194 249 312 365 440
#     4  10  26  40  72 104 142 192 234 300 364 434
#     4  12  28  47  76 105 148 197 248 305 371 448
#     4  11  25  43  69 105 143 183 239 293 365 433
#     4  11  25  48  72 105 146 190 248 297 376 431
#     4  10  24  44  72 102 146 188 226 308 350 450
#
# _framework density 21.070271000000002
#
# number of rings (size 3 to 8) (size 9 to 14) (size 15 to 20)
#    0.000    0.800    4.000    1.200    8.400    4.000 
#    0.000    0.000    0.000    0.000    0.000    0.000 
#    0.000    0.000    0.000    0.000    0.000    0.000 
#
# Total GULP energy -223024.312558 kJ/mol
# GULP energy per Si atom -5575.607814 kJ/mol
# Density = 2.102231 g / cm^3
# Si number density = 21.070271 Si / 1000 Ang^3
#
#
#
# Elastic Constant Matrix: (Units=GPa)
#
#
# Indices 1 2 3 4 5 6 
#
# 1 65.2582 40.7898 27.2810 0.0000 0.0000 0.0000
# 2 40.7898 87.1097 56.9116 0.0000 0.0000 0.0000
# 3 27.2810 56.9116 147.8237 0.0000 0.0000 0.0000
# 4 0.0000 0.0000 0.0000 30.7167 0.0000 0.0000
# 5 0.0000 0.0000 0.0000 0.0000 22.9001 0.0000
# 6 0.0000 0.0000 0.0000 0.0000 0.0000 37.7506
#
#
#
# Elastic Compliance Matrix: (Units=1/GPa)
#
#
# Indices 1 2 3 4 5 6 
#
# 1 0.021666 -0.010065 -0.000124 0.000000 0.000000 0.000000
# 2 -0.010065 0.020013 -0.005847 0.000000 0.000000 0.000000
# 3 -0.000124 -0.005847 0.009039 0.000000 0.000000 0.000000
# 4 0.000000 0.000000 0.000000 0.032556 0.000000 0.000000
# 5 0.000000 0.000000 0.000000 0.000000 0.043668 0.000000
# 6 0.000000 0.000000 0.000000 0.000000 0.000000 0.026490
#
#
# Mechanical properties :
#
#
# Convention : Reuss Voigt Hill
#
# Bulk Modulus (GPa) = 53.62905 61.12851 57.37878
# Shear Modulus (GPa) = 26.07987 29.95408 28.01698
#
# Velocity S-wave (km/s) = 3.52199 3.77454 3.65045
# Velocity P-wave (km/s) = 6.48436 6.93332 6.71260
#
# Compressibility (1/GPa) = 0.01864661
#
# Stress axis : x y z
#
# Youngs Moduli (GPa) = 46.15441 49.96754 110.63279
#
# Poissons Ratio (x) = 0.50291 0.01369
# Poissons Ratio (y) = 0.46453 0.64692
# Poissons Ratio (z) = 0.00571 0.29218
#
# Static dielectric constant tensor:
#      x y z
#    x 2.000340 0.000000 0.000000 
#    y 0.000000 1.629820 0.000000 
#    z 0.000000 0.000000 1.747650 
# 
# From -- ./inp_files/23314.got.cif
#   From: 2010.05.17/outbox.cif.g08.bks.cpg/sg54_12_cif.got.tgz:23314.got - 2010.06.03 13:09:01.
