data_PCOD9423381
_publ_section_title
;
Structure prediction by ZEFSAII (Michael W. Deem and Ramdas Pophale) SiO2 
 PCOD9423381
Probable space group: P C C A
;
_chemical_formula_sum "Si O2"
_cell_formula_units_Z 32
_cell_length_a 8.939829
_cell_length_b 13.998510
_cell_length_c 10.890727
_cell_angle_alpha 90.000000
_cell_angle_beta 90.000000
_cell_angle_gamma 90.000000
_cell_volume 1362.912251
_symmetry_space_group_name_H-M "P C C A"
_symmetry_group_IT_number 54
_symmetry_cell_setting 'orthorhombic'
loop_
_space_group_symop_operation_xyz
x,y,z
1/2-x,-y,z
1/2+x,-y,1/2-z
-x,y,1/2-z
-x,-y,-z
1/2+x,y,-z
1/2-x,y,1/2+z
x,-y,1/2+z
loop_
_atom_site_type_symbol
_atom_site_label
_atom_site_fract_x
_atom_site_fract_y
_atom_site_fract_z
Si Si1 0.692372 0.748670 0.856095
Si Si2 0.792498 0.595349 0.668157
Si Si3 0.582063 0.963777 0.875199
Si Si4 0.557448 0.653110 0.485881
O O1 0.743750 0.694711 0.732762
O O2 0.612603 0.850498 0.857708
O O3 0.845153 0.742753 0.935930
O O4 0.567939 0.682759 0.918234
O O5 0.750000 0.500000 0.743234
O O6 0.678376 0.588907 0.553235
O O7 0.962159 0.605208 0.622354
O O8 0.500000 0.997861 0.750000
O O9 0.750000 0.000000 0.880816
O O10 0.500000 0.000000 0.000000
#
# Coordination Sequence:
#
# PCOD9423381 Si02
#       4
#     8   8   8   8
#     4  11  24  44  67  95 132 177 231 291 357 434
#     4  11  23  40  64  97 138 184 232 284 348 428
#     4  12  27  48  76 109 145 190 247 316 395 475
#     4  10  23  40  64  95 136 179 226 285 349 425
#
# _framework density 23.479134999999999
#
# number of rings (size 3 to 8) (size 9 to 14) (size 15 to 20)
#    0.000    1.000    0.000    6.000    0.000   16.000 
#    0.000    0.000    0.000    0.000    0.000    0.000 
#    0.000    0.000    0.000    0.000    0.000    0.000 
#
# Total GULP energy -178660.381099 kJ/mol
# GULP energy per Si atom -5583.136909 kJ/mol
# Density = 2.342570 g / cm^3
# Si number density = 23.479135 Si / 1000 Ang^3
#
#
#
# Elastic Constant Matrix: (Units=GPa)
#
#
# Indices 1 2 3 4 5 6 
#
# 1 164.2842 22.4115 67.0320 0.0000 0.0000 0.0000
# 2 22.4115 104.8425 34.8278 0.0000 0.0000 0.0000
# 3 67.0320 34.8278 134.9291 0.0000 0.0000 0.0000
# 4 0.0000 0.0000 0.0000 -10.0984 0.0000 0.0000
# 5 0.0000 0.0000 0.0000 0.0000 34.8364 0.0000
# 6 0.0000 0.0000 0.0000 0.0000 0.0000 43.5958
#
#
#
# Elastic Compliance Matrix: (Units=1/GPa)
#
#
# Indices 1 2 3 4 5 6 
#
# 1 0.007650 -0.000408 -0.003695 0.000000 0.000000 0.000000
# 2 -0.000408 0.010454 -0.002496 0.000000 0.000000 0.000000
# 3 -0.003695 -0.002496 0.009891 0.000000 0.000000 0.000000
# 4 0.000000 0.000000 0.000000 -0.099025 0.000000 0.000000
# 5 0.000000 0.000000 0.000000 0.000000 0.028706 0.000000
# 6 0.000000 0.000000 0.000000 0.000000 0.000000 0.022938
#
#
# Mechanical properties :
#
#
# Convention : Reuss Voigt Hill
#
# Bulk Modulus (GPa) = 67.57664 72.51095 70.04379
# Shear Modulus (GPa) = -3986.25362 32.31904 -1976.96729
#
# Velocity S-wave (km/s) = -41.24889 3.71415 -29.04889
# Velocity P-wave (km/s) = 47.32636 7.02448 33.09412
#
# Compressibility (1/GPa) = 0.01479801
#
# Stress axis : x y z
#
# Youngs Moduli (GPa) = 130.71074 95.65350 101.09774
#
# Poissons Ratio (x) = 0.03901 0.37360
# Poissons Ratio (y) = 0.05330 0.25233
# Poissons Ratio (z) = 0.48304 0.23874
#
# Static dielectric constant tensor:
#      x y z
#    x 1.974790 0.000000 0.000000 
#    y 0.000000 2.174410 0.000000 
#    z 0.000000 0.000000 2.028230 
# 
# From -- ./inp_files/6710.got.cif
#   From: 2010.05.17/outbox.cif.g08.bks.cpg/sg54_4_cif.got.tgz:6710.got - 2010.06.03 13:09:01.
