data_PCOD9423403
_publ_section_title
;
Structure prediction by ZEFSAII (Michael W. Deem and Ramdas Pophale) SiO2 
 PCOD9423403
Probable space group: P C C A
;
_chemical_formula_sum "Si O2"
_cell_formula_units_Z 48
_cell_length_a 25.311004
_cell_length_b 11.656665
_cell_length_c 8.748519
_cell_angle_alpha 90.000000
_cell_angle_beta 90.000000
_cell_angle_gamma 90.000000
_cell_volume 2581.179619
_symmetry_space_group_name_H-M "P C C A"
_symmetry_group_IT_number 54
_symmetry_cell_setting 'orthorhombic'
loop_
_space_group_symop_operation_xyz
x,y,z
1/2-x,-y,z
1/2+x,-y,1/2-z
-x,y,1/2-z
-x,-y,-z
1/2+x,y,-z
1/2-x,y,1/2+z
x,-y,1/2+z
loop_
_atom_site_type_symbol
_atom_site_label
_atom_site_fract_x
_atom_site_fract_y
_atom_site_fract_z
Si Si1 0.812942 0.604957 0.945039
Si Si2 0.587613 0.309226 0.120949
Si Si3 0.893236 0.260379 0.962878
Si Si4 0.295544 0.355315 0.913689
Si Si5 0.497392 0.873734 0.567831
Si Si6 0.538801 0.451656 0.626104
O O1 0.802412 0.618713 0.765351
O O2 0.868355 0.658491 0.997104
O O3 0.765179 0.662950 0.039946
O O4 0.811185 0.470785 0.991845
O O5 0.611737 0.261096 0.278603
O O6 0.543278 0.224426 0.048438
O O7 0.564332 0.430094 0.184339
O O8 0.940823 0.172269 0.988527
O O9 0.835207 0.254894 0.035055
O O10 0.918149 0.371926 0.047848
O O11 0.500000 0.885671 0.750000
O O12 0.500000 0.000000 0.500000
O O13 0.500000 0.394929 0.750000
O O14 0.500000 0.500000 0.500000
#
# Coordination Sequence:
#
# PCOD9423403 Si02
#       6
#     8   8   8   8   8   8
#     4  11  22  35  54  80 116 152 191 228 278 336
#     4  11  21  37  55  81 115 151 184 232 284 334
#     4  11  22  36  56  80 116 150 186 232 284 333
#     4  11  22  35  53  81 114 154 189 230 276 336
#     4  10  23  41  59  82 113 148 188 235 282 334
#     4  12  21  32  50  80 116 147 185 224 276 341
#
# _framework density 18.596149
#
# number of rings (size 3 to 8) (size 9 to 14) (size 15 to 20)
#    0.000    1.000    5.000    4.500    2.333    2.000 
#    0.000    0.000    0.000    1.000    0.000    7.000 
#    0.000    0.000    0.000    0.000    0.000    0.000 
#
# Total GULP energy -267548.045348 kJ/mol
# GULP energy per Si atom -5573.917611 kJ/mol
# Density = 1.855382 g / cm^3
# Si number density = 18.596149 Si / 1000 Ang^3
#
#
#
# Elastic Constant Matrix: (Units=GPa)
#
#
# Indices 1 2 3 4 5 6 
#
# 1 91.6930 33.1852 21.2855 0.0000 0.0000 0.0000
# 2 33.1852 72.3311 8.4489 0.0000 0.0000 0.0000
# 3 21.2855 8.4489 86.8130 0.0000 0.0000 0.0000
# 4 0.0000 0.0000 0.0000 21.6355 0.0000 0.0000
# 5 0.0000 0.0000 0.0000 0.0000 31.4553 0.0000
# 6 0.0000 0.0000 0.0000 0.0000 0.0000 11.1550
#
#
#
# Elastic Compliance Matrix: (Units=1/GPa)
#
#
# Indices 1 2 3 4 5 6 
#
# 1 0.013711 -0.005966 -0.002781 0.000000 0.000000 0.000000
# 2 -0.005966 0.016580 -0.000151 0.000000 0.000000 0.000000
# 3 -0.002781 -0.000151 0.012216 0.000000 0.000000 0.000000
# 4 0.000000 0.000000 0.000000 0.046220 0.000000 0.000000
# 5 0.000000 0.000000 0.000000 0.000000 0.031791 0.000000
# 6 0.000000 0.000000 0.000000 0.000000 0.000000 0.089646
#
#
# Mechanical properties :
#
#
# Convention : Reuss Voigt Hill
#
# Bulk Modulus (GPa) = 40.46780 41.85292 41.16036
# Shear Modulus (GPa) = 21.16889 25.37698 23.27294
#
# Velocity S-wave (km/s) = 3.37760 3.69811 3.54148
# Velocity P-wave (km/s) = 6.08437 6.38668 6.23736
#
# Compressibility (1/GPa) = 0.02471101
#
# Stress axis : x y z
#
# Youngs Moduli (GPa) = 72.93639 60.31406 81.86262
#
# Poissons Ratio (x) = 0.35980 0.22767
# Poissons Ratio (y) = 0.43510 0.01236
# Poissons Ratio (z) = 0.20284 0.00910
#
# Static dielectric constant tensor:
#      x y z
#    x 1.706160 0.000000 0.000000 
#    y 0.000000 3.890000 0.000000 
#    z 0.000000 0.000000 1.680570 
# 
# From -- ./inp_files/5506.got.cif
#   From: 2010.05.17/outbox.cif.g08.bks.cpg/sg54_3_cif.got.tgz:5506.got - 2010.06.03 13:09:01.
