data_PCOD9423336
_publ_section_title
;
Structure prediction by ZEFSAII (Michael W. Deem and Ramdas Pophale) SiO2 
 PCOD9423336
Probable space group: P C C A
;
_chemical_formula_sum "Si O2"
_cell_formula_units_Z 40
_cell_length_a 13.178667
_cell_length_b 15.451159
_cell_length_c 8.261931
_cell_angle_alpha 90.000000
_cell_angle_beta 90.000000
_cell_angle_gamma 90.000000
_cell_volume 1682.341312
_symmetry_space_group_name_H-M "P C C A"
_symmetry_group_IT_number 54
_symmetry_cell_setting 'orthorhombic'
loop_
_space_group_symop_operation_xyz
x,y,z
1/2-x,-y,z
1/2+x,-y,1/2-z
-x,y,1/2-z
-x,-y,-z
1/2+x,y,-z
1/2-x,y,1/2+z
x,-y,1/2+z
loop_
_atom_site_type_symbol
_atom_site_label
_atom_site_fract_x
_atom_site_fract_y
_atom_site_fract_z
Si Si1 0.458710 0.410585 0.069933
Si Si2 0.863960 0.956469 0.334212
Si Si3 0.547967 0.114169 0.000377
Si Si4 0.616252 0.302434 0.921733
Si Si5 0.773165 0.399536 0.128961
O O1 0.500000 0.402313 0.250000
O O2 0.500000 0.500000 0.000000
O O3 0.505043 0.337822 0.956582
O O4 0.340501 0.407872 0.035211
O O5 0.886500 0.914867 0.159481
O O6 0.926838 0.887192 0.451600
O O7 0.750000 0.000000 0.349541
O O8 0.931101 0.039698 0.373060
O O9 0.599741 0.200474 0.930887
O O10 0.665515 0.348325 0.766769
O O11 0.679883 0.340495 0.073617
O O12 0.750000 0.500000 0.171614
#
# Coordination Sequence:
#
# PCOD9423336 Si02
#       5
#     8   8   8   8   8
#     4  12  26  47  74 105 150 203 259 332 398 459
#     4  10  22  47  73 103 146 199 240 329 412 492
#     4  10  25  45  73 111 148 192 267 318 410 491
#     4  12  27  46  73 115 151 207 268 335 385 488
#     4  12  26  48  76 112 161 215 269 324 406 462
#
# _framework density 23.776389000000002
#
# number of rings (size 3 to 8) (size 9 to 14) (size 15 to 20)
#    0.000    0.800    2.000    4.200    5.600    1.600 
#   14.400    0.000    0.000    0.000    0.000    0.000 
#    0.000    0.000    0.000    0.000    0.000    0.000 
#
# Total GULP energy -223106.704280 kJ/mol
# GULP energy per Si atom -5577.667607 kJ/mol
# Density = 2.372227 g / cm^3
# Si number density = 23.776389 Si / 1000 Ang^3
#
#
#
# Elastic Constant Matrix: (Units=GPa)
#
#
# Indices 1 2 3 4 5 6 
#
# 1 139.7605 13.5790 50.4909 0.0000 0.0000 0.0000
# 2 13.5790 143.6940 45.3095 0.0000 0.0000 0.0000
# 3 50.4909 45.3095 129.9192 0.0000 0.0000 0.0000
# 4 0.0000 0.0000 0.0000 19.6207 0.0000 0.0000
# 5 0.0000 0.0000 0.0000 0.0000 33.4618 0.0000
# 6 0.0000 0.0000 0.0000 0.0000 0.0000 37.6227
#
#
#
# Elastic Compliance Matrix: (Units=1/GPa)
#
#
# Indices 1 2 3 4 5 6 
#
# 1 0.008333 0.000263 -0.003330 0.000000 0.000000 0.000000
# 2 0.000263 0.007827 -0.002832 0.000000 0.000000 0.000000
# 3 -0.003330 -0.002832 0.009979 0.000000 0.000000 0.000000
# 4 0.000000 0.000000 0.000000 0.050967 0.000000 0.000000
# 5 0.000000 0.000000 0.000000 0.000000 0.029885 0.000000
# 6 0.000000 0.000000 0.000000 0.000000 0.000000 0.026580
#
#
# Mechanical properties :
#
#
# Convention : Reuss Voigt Hill
#
# Bulk Modulus (GPa) = 69.73307 70.23693 69.98500
# Shear Modulus (GPa) = 33.30042 38.40735 35.85388
#
# Velocity S-wave (km/s) = 3.74647 4.02351 3.88746
# Velocity P-wave (km/s) = 6.93593 7.15469 7.04616
#
# Compressibility (1/GPa) = 0.01434040
#
# Stress axis : x y z
#
# Youngs Moduli (GPa) = 120.01112 127.75712 100.21249
#
# Poissons Ratio (x) = -0.03354 0.33370
# Poissons Ratio (y) = -0.03151 0.28379
# Poissons Ratio (z) = 0.39962 0.36179
#
# Static dielectric constant tensor:
#      x y z
#    x 2.088220 0.000000 0.000000 
#    y 0.000000 1.956830 0.000000 
#    z 0.000000 0.000000 1.973400 
# 
# From -- ./inp_files/3437.got.cif
#   From: 2010.05.17/outbox.cif.g08.bks.cpg/sg54_2_cif.got.tgz:3437.got - 2010.06.03 13:09:01.
