data_PCOD9423218
_publ_section_title
;
Structure prediction by ZEFSAII (Michael W. Deem and Ramdas Pophale) SiO2 
 PCOD9423218
Probable space group: P C C A
;
_chemical_formula_sum "Si O2"
_cell_formula_units_Z 52
_cell_length_a 19.543420
_cell_length_b 6.070821
_cell_length_c 19.460961
_cell_angle_alpha 90.000000
_cell_angle_beta 90.000000
_cell_angle_gamma 90.000000
_cell_volume 2308.938022
_symmetry_space_group_name_H-M "P C C A"
_symmetry_group_IT_number 54
_symmetry_cell_setting 'orthorhombic'
loop_
_space_group_symop_operation_xyz
x,y,z
1/2-x,-y,z
1/2+x,-y,1/2-z
-x,y,1/2-z
-x,-y,-z
1/2+x,y,-z
1/2-x,y,1/2+z
x,-y,1/2+z
loop_
_atom_site_type_symbol
_atom_site_label
_atom_site_fract_x
_atom_site_fract_y
_atom_site_fract_z
Si Si1 0.442357 0.125001 0.454637
Si Si2 0.629666 0.294703 0.921477
Si Si3 0.880369 0.417679 0.784751
Si Si4 0.811329 0.175738 0.085197
Si Si5 0.250000 0.500000 0.519097
Si Si6 0.750000 0.500000 0.699721
Si Si7 0.545404 0.058690 0.350957
Si Si8 0.000000 0.289221 0.250000
O O1 0.410553 0.306207 0.505785
O O2 0.489757 0.202983 0.391489
O O3 0.500000 0.000000 0.500000
O O4 0.381606 0.963565 0.426525
O O5 0.618929 0.475355 0.861621
O O6 0.708929 0.321526 0.937608
O O7 0.605268 0.055968 0.895247
O O8 0.807659 0.398994 0.749180
O O9 0.917287 0.186354 0.791047
O O10 0.931634 0.571080 0.743077
O O11 0.789963 0.317445 0.153332
O O12 0.750000 0.000000 0.077485
O O13 0.802678 0.361033 0.026687
O O14 0.505808 0.856625 0.317696
#
# Coordination Sequence:
#
# PCOD9423218 Si02
#       8
#     8   8   8   8   4   4   8   4
#     4  10  22  44  67 102 137 179 227 284 357 427
#     4  10  23  41  65 102 136 177 230 278 352 424
#     4  11  24  44  69 100 136 185 228 296 341 423
#     4  11  24  44  71 100 138 184 226 296 356 420
#     4  11  23  42  64 102 143 175 226 282 358 429
#     4  11  27  46  68 104 131 183 248 284 354 421
#     4  10  23  43  69  99 136 188 230 290 356 415
#     4  10  22  44  64 102 136 178 238 282 354 424
#
# _framework density 22.521173999999998
#
# number of rings (size 3 to 8) (size 9 to 14) (size 15 to 20)
#    0.000    1.538    1.538    1.846    4.308    5.538 
#    8.308    0.000    0.000    0.000    0.000    0.000 
#    0.000    0.000    0.000    0.000    0.000    0.000 
#
# Total GULP energy -289977.165457 kJ/mol
# GULP energy per Si atom -5576.483951 kJ/mol
# Density = 2.246992 g / cm^3
# Si number density = 22.521174 Si / 1000 Ang^3
#
#
#
# Elastic Constant Matrix: (Units=GPa)
#
#
# Indices 1 2 3 4 5 6 
#
# 1 159.7805 36.9649 62.6052 0.0000 0.0000 0.0000
# 2 36.9649 51.5446 27.8988 0.0000 0.0000 0.0000
# 3 62.6052 27.8988 71.0962 0.0000 0.0000 0.0000
# 4 0.0000 0.0000 0.0000 -29.9543 0.0000 0.0000
# 5 0.0000 0.0000 0.0000 0.0000 24.2676 0.0000
# 6 0.0000 0.0000 0.0000 0.0000 0.0000 15.2988
#
#
#
# Elastic Compliance Matrix: (Units=1/GPa)
#
#
# Indices 1 2 3 4 5 6 
#
# 1 0.009914 -0.003028 -0.007542 0.000000 0.000000 0.000000
# 2 -0.003028 0.025557 -0.007363 0.000000 0.000000 0.000000
# 3 -0.007542 -0.007363 0.023596 0.000000 0.000000 0.000000
# 4 0.000000 0.000000 0.000000 -0.033384 0.000000 0.000000
# 5 0.000000 0.000000 0.000000 0.000000 0.041207 0.000000
# 6 0.000000 0.000000 0.000000 0.000000 0.000000 0.065365
#
#
# Mechanical properties :
#
#
# Convention : Reuss Voigt Hill
#
# Bulk Modulus (GPa) = 43.09923 59.70658 51.40290
# Shear Modulus (GPa) = 28.43271 12.25258 20.34264
#
# Velocity S-wave (km/s) = 3.55701 2.33501 3.00870
# Velocity P-wave (km/s) = 6.00404 5.81709 5.91130
#
# Compressibility (1/GPa) = 0.02320227
#
# Stress axis : x y z
#
# Youngs Moduli (GPa) = 100.86598 39.12807 42.38024
#
# Poissons Ratio (x) = 0.11847 0.31963
# Poissons Ratio (y) = 0.30539 0.31203
# Poissons Ratio (z) = 0.76073 0.28809
#
# Static dielectric constant tensor:
#      x y z
#    x 1.814010 0.000000 0.000000 
#    y 0.000000 1.830980 0.000000 
#    z 0.000000 0.000000 1.935470 
# 
# From -- ./inp_files/22176.got.cif
#   From: 2010.05.17/outbox.cif.g08.bks.cpg/sg54_12_cif.got.tgz:22176.got - 2010.06.03 13:09:01.
