data_PCOD9423955
_publ_section_title
;
Structure prediction by ZEFSAII (Michael W. Deem and Ramdas Pophale) SiO2 
 PCOD9423955
Probable space group: P C C A
;
_chemical_formula_sum "Si O2"
_cell_formula_units_Z 56
_cell_length_a 15.475298
_cell_length_b 18.133300
_cell_length_c 9.821847
_cell_angle_alpha 90.000000
_cell_angle_beta 90.000000
_cell_angle_gamma 90.000000
_cell_volume 2756.189234
_symmetry_space_group_name_H-M "P C C A"
_symmetry_group_IT_number 54
_symmetry_cell_setting 'orthorhombic'
loop_
_space_group_symop_operation_xyz
x,y,z
1/2-x,-y,z
1/2+x,-y,1/2-z
-x,y,1/2-z
-x,-y,-z
1/2+x,y,-z
1/2-x,y,1/2+z
x,-y,1/2+z
loop_
_atom_site_type_symbol
_atom_site_label
_atom_site_fract_x
_atom_site_fract_y
_atom_site_fract_z
Si Si1 0.998479 0.075010 0.085506
Si Si2 0.894488 0.718761 0.746880
Si Si3 0.603678 0.267500 0.256215
Si Si4 0.435035 0.424304 0.625524
Si Si5 0.655981 0.182489 0.510716
Si Si6 0.348264 0.184466 0.507594
Si Si7 0.062722 0.412913 0.621548
O O1 0.912677 0.122515 0.057829
O O2 0.000000 0.064089 0.250000
O O3 0.077270 0.123875 0.024266
O O4 0.000000 0.000000 0.000000
O O5 0.874458 0.639048 0.812675
O O6 0.861979 0.743083 0.599304
O O7 0.000000 0.726854 0.750000
O O8 0.850368 0.776406 0.846796
O O9 0.500000 0.263632 0.250000
O O10 0.638247 0.204715 0.355727
O O11 0.633269 0.247613 0.104961
O O12 0.623718 0.346537 0.327424
O O13 0.500000 0.435524 0.750000
O O14 0.398837 0.505608 0.589985
O O15 0.496896 0.395600 0.503141
O O16 0.753459 0.155291 0.525484
O O17 0.000000 0.420838 0.750000
#
# Coordination Sequence:
#
# PCOD9423955 Si02
#       7
#     8   8   8   8   8   8   8
#     4  12  28  51  73 100 131 166 205 253 325 397
#     4  11  18  39  64  89 125 179 221 268 320 385
#     4  11  20  35  64  94 129 168 223 272 319 371
#     4   9  17  28  53  84 126 169 222 269 328 374
#     4  12  24  42  67  97 130 169 216 260 319 388
#     4  12  24  42  67  97 131 167 212 267 319 383
#     4   9  17  29  48  91 125 164 219 281 319 375
#
# _framework density 20.317907999999999
#
# number of rings (size 3 to 8) (size 9 to 14) (size 15 to 20)
#    0.000    1.143    4.286    4.286    2.000    0.571 
#    0.000    1.429    0.000    5.143    0.000    0.000 
#    0.000    0.000    0.000    0.000    0.000    0.000 
#
# Total GULP energy -312092.682333 kJ/mol
# GULP energy per Si atom -5573.083613 kJ/mol
# Density = 2.027166 g / cm^3
# Si number density = 20.317908 Si / 1000 Ang^3
#
#
#
# Elastic Constant Matrix: (Units=GPa)
#
#
# Indices 1 2 3 4 5 6 
#
# 1 113.4242 41.1947 16.0113 0.0000 0.0000 0.0000
# 2 41.1947 121.6840 17.7640 0.0000 0.0000 0.0000
# 3 16.0113 17.7640 103.1480 0.0000 0.0000 0.0000
# 4 0.0000 0.0000 0.0000 32.5561 0.0000 0.0000
# 5 0.0000 0.0000 0.0000 0.0000 16.0156 0.0000
# 6 0.0000 0.0000 0.0000 0.0000 0.0000 -7.9942
#
#
#
# Elastic Compliance Matrix: (Units=1/GPa)
#
#
# Indices 1 2 3 4 5 6 
#
# 1 0.010154 -0.003290 -0.001010 0.000000 0.000000 0.000000
# 2 -0.003290 0.009496 -0.001125 0.000000 0.000000 0.000000
# 3 -0.001010 -0.001125 0.010045 0.000000 0.000000 0.000000
# 4 0.000000 0.000000 0.000000 0.030716 0.000000 0.000000
# 5 0.000000 0.000000 0.000000 0.000000 0.062439 0.000000
# 6 0.000000 0.000000 0.000000 0.000000 0.000000 -0.125091
#
#
# Mechanical properties :
#
#
# Convention : Reuss Voigt Hill
#
# Bulk Modulus (GPa) = 53.06029 54.24401 53.65215
# Shear Modulus (GPa) = 335.78964 25.66791 180.72878
#
# Velocity S-wave (km/s) = 12.86960 3.55817 9.44159
# Velocity P-wave (km/s) = 15.71646 6.60578 12.05495
#
# Compressibility (1/GPa) = 0.01884649
#
# Stress axis : x y z
#
# Youngs Moduli (GPa) = 98.48425 105.30724 99.55001
#
# Poissons Ratio (x) = 0.34647 0.10050
# Poissons Ratio (y) = 0.32402 0.11196
# Poissons Ratio (z) = 0.09942 0.11844
#
# Static dielectric constant tensor:
#      x y z
#    x 1.894800 0.000000 0.000000 
#    y 0.000000 1.823870 0.000000 
#    z 0.000000 0.000000 2.542010 
# 
# From -- ./inp_files/3693.got.cif
#   From: 2010.05.17/outbox.cif.g08.bks.cpg/sg54_2_cif.got.tgz:3693.got - 2010.06.03 13:09:01.
