data_PCOD9423433
_publ_section_title
;
Structure prediction by ZEFSAII (Michael W. Deem and Ramdas Pophale) SiO2 
 PCOD9423433
Probable space group: P C C A
;
_chemical_formula_sum "Si O2"
_cell_formula_units_Z 40
_cell_length_a 9.252242
_cell_length_b 17.344310
_cell_length_c 11.208749
_cell_angle_alpha 90.000000
_cell_angle_beta 90.000000
_cell_angle_gamma 90.000000
_cell_volume 1798.710023
_symmetry_space_group_name_H-M "P C C A"
_symmetry_group_IT_number 54
_symmetry_cell_setting 'orthorhombic'
loop_
_space_group_symop_operation_xyz
x,y,z
1/2-x,-y,z
1/2+x,-y,1/2-z
-x,y,1/2-z
-x,-y,-z
1/2+x,y,-z
1/2-x,y,1/2+z
x,-y,1/2+z
loop_
_atom_site_type_symbol
_atom_site_label
_atom_site_fract_x
_atom_site_fract_y
_atom_site_fract_z
Si Si1 0.581477 0.469955 0.880110
Si Si2 0.210940 0.920139 0.844738
Si Si3 0.856393 0.795935 0.311737
Si Si4 0.967385 0.871880 0.994351
Si Si5 0.405865 0.288854 0.630434
O O1 0.750000 0.500000 0.874464
O O2 0.500000 0.485310 0.750000
O O3 0.574974 0.377487 0.900596
O O4 0.500000 0.500000 0.000000
O O5 0.247483 0.843795 0.771314
O O6 0.047731 0.917110 0.890295
O O7 0.250000 0.000000 0.782474
O O8 0.326249 0.912113 0.953837
O O9 0.917034 0.860130 0.400941
O O10 0.765210 0.725021 0.357029
O O11 0.000000 0.766457 0.250000
O O12 0.943666 0.782892 0.955538
O O13 0.500000 0.277100 0.750000
#
# Coordination Sequence:
#
# PCOD9423433 Si02
#       5
#     8   8   8   8   8
#     4  11  27  50  76 116 152 195 244 304 380 446
#     4  11  23  40  62  93 133 177 228 291 343 406
#     4  10  23  42  62  96 129 175 231 275 344 403
#     4  11  22  41  63  97 125 175 229 272 345 405
#     4  11  23  44  73  97 135 179 229 286 342 430
#
# _framework density 22.238160000000001
#
# number of rings (size 3 to 8) (size 9 to 14) (size 15 to 20)
#    0.000    1.200    4.000    1.200    2.800    1.600 
#   18.000    0.000    0.000    0.000    0.000    0.000 
#    0.000    0.000    0.000    0.000    0.000    0.000 
#
# Total GULP energy -223108.074760 kJ/mol
# GULP energy per Si atom -5577.701869 kJ/mol
# Density = 2.218754 g / cm^3
# Si number density = 22.238160 Si / 1000 Ang^3
#
#
#
# Elastic Constant Matrix: (Units=GPa)
#
#
# Indices 1 2 3 4 5 6 
#
# 1 94.2721 27.2324 33.2160 0.0000 0.0000 0.0000
# 2 27.2324 97.6112 10.0769 0.0000 0.0000 0.0000
# 3 33.2160 10.0769 61.0116 0.0000 0.0000 0.0000
# 4 0.0000 0.0000 0.0000 23.2672 0.0000 0.0000
# 5 0.0000 0.0000 0.0000 0.0000 25.8051 0.0000
# 6 0.0000 0.0000 0.0000 0.0000 0.0000 90.1118
#
#
#
# Elastic Compliance Matrix: (Units=1/GPa)
#
#
# Indices 1 2 3 4 5 6 
#
# 1 0.014033 -0.003181 -0.007115 0.000000 0.000000 0.000000
# 2 -0.003181 0.011143 -0.000109 0.000000 0.000000 0.000000
# 3 -0.007115 -0.000109 0.020282 0.000000 0.000000 0.000000
# 4 0.000000 0.000000 0.000000 0.042979 0.000000 0.000000
# 5 0.000000 0.000000 0.000000 0.000000 0.038752 0.000000
# 6 0.000000 0.000000 0.000000 0.000000 0.000000 0.011097
#
#
# Mechanical properties :
#
#
# Convention : Reuss Voigt Hill
#
# Bulk Modulus (GPa) = 40.56809 43.77170 42.16990
# Shear Modulus (GPa) = 29.88441 39.99479 34.93960
#
# Velocity S-wave (km/s) = 3.66981 4.24544 3.96808
# Velocity P-wave (km/s) = 6.01987 6.61495 6.32442
#
# Compressibility (1/GPa) = 0.02464992
#
# Stress axis : x y z
#
# Youngs Moduli (GPa) = 71.25986 89.73988 49.30560
#
# Poissons Ratio (x) = 0.28543 0.35079
# Poissons Ratio (y) = 0.22665 0.00537
# Poissons Ratio (z) = 0.50699 0.00977
#
# Static dielectric constant tensor:
#      x y z
#    x 1.852870 0.000000 0.000000 
#    y 0.000000 1.750740 0.000000 
#    z 0.000000 0.000000 2.005690 
# 
# From -- ./inp_files/6855.got.cif
#   From: 2010.05.17/outbox.cif.g08.bks.cpg/sg54_4_cif.got.tgz:6855.got - 2010.06.03 13:09:01.
