data_PCOD9423266
_publ_section_title
;
Structure prediction by ZEFSAII (Michael W. Deem and Ramdas Pophale) SiO2 
 PCOD9423266
Probable space group: P C C A
;
_chemical_formula_sum "Si O2"
_cell_formula_units_Z 48
_cell_length_a 23.803335
_cell_length_b 5.047322
_cell_length_c 18.024897
_cell_angle_alpha 90.000000
_cell_angle_beta 90.000000
_cell_angle_gamma 90.000000
_cell_volume 2165.566938
_symmetry_space_group_name_H-M "P C C A"
_symmetry_group_IT_number 54
_symmetry_cell_setting 'orthorhombic'
loop_
_space_group_symop_operation_xyz
x,y,z
1/2-x,-y,z
1/2+x,-y,1/2-z
-x,y,1/2-z
-x,-y,-z
1/2+x,y,-z
1/2-x,y,1/2+z
x,-y,1/2+z
loop_
_atom_site_type_symbol
_atom_site_label
_atom_site_fract_x
_atom_site_fract_y
_atom_site_fract_z
Si Si1 0.527079 0.411715 0.825631
Si Si2 0.750000 0.500000 0.715900
Si Si3 0.635024 0.751152 0.682049
Si Si4 0.421753 0.752726 0.383248
Si Si5 0.544614 0.808020 0.959062
Si Si6 0.626477 0.036701 0.840822
Si Si7 0.750000 0.000000 0.821710
O O1 0.500000 0.525072 0.750000
O O2 0.482779 0.177099 0.847102
O O3 0.523504 0.598762 0.897873
O O4 0.590737 0.300419 0.817587
O O5 0.696935 0.622119 0.673532
O O6 0.736432 0.252349 0.769225
O O7 0.596440 0.510436 0.658488
O O8 0.620292 0.006178 0.632452
O O9 0.625338 0.854174 0.766509
O O10 0.426141 0.680594 0.469402
O O11 0.591025 0.959304 0.912191
O O12 0.500000 0.000000 0.000000
O O13 0.691453 0.000460 0.864778
#
# Coordination Sequence:
#
# PCOD9423266 Si02
#       7
#     8   4   8   8   8   8   4
#     4  12  25  43  73 107 147 199 256 316 373 463
#     4  10  22  44  72 104 142 190 252 318 378 428
#     4  11  24  45  72 106 141 195 253 315 369 453
#     4  12  25  43  69 104 149 190 240 301 387 450
#     4  12  27  45  68 105 158 202 242 307 390 463
#     4  11  25  45  72 106 141 194 256 317 377 451
#     4  10  24  44  72 106 142 190 254 324 376 432
#
# _framework density 22.165096999999999
#
# number of rings (size 3 to 8) (size 9 to 14) (size 15 to 20)
#    0.000    0.667    3.333    4.500    7.000    0.667 
#    0.000    1.667    0.000    0.000    0.000    0.000 
#    0.000    0.000    0.000    0.000    0.000    0.000 
#
# Total GULP energy -267643.868700 kJ/mol
# GULP energy per Si atom -5575.913931 kJ/mol
# Density = 2.211465 g / cm^3
# Si number density = 22.165097 Si / 1000 Ang^3
#
#
#
# Elastic Constant Matrix: (Units=GPa)
#
#
# Indices 1 2 3 4 5 6 
#
# 1 161.5649 46.9619 74.6555 0.0000 0.0000 0.0000
# 2 46.9619 120.8224 48.1439 0.0000 0.0000 0.0000
# 3 74.6555 48.1439 144.5786 0.0000 0.0000 0.0000
# 4 0.0000 0.0000 0.0000 33.1755 0.0000 0.0000
# 5 0.0000 0.0000 0.0000 0.0000 33.1106 0.0000
# 6 0.0000 0.0000 0.0000 0.0000 0.0000 26.4308
#
#
#
# Elastic Compliance Matrix: (Units=1/GPa)
#
#
# Indices 1 2 3 4 5 6 
#
# 1 0.008449 -0.001782 -0.003769 0.000000 0.000000 0.000000
# 2 -0.001782 0.009919 -0.002383 0.000000 0.000000 0.000000
# 3 -0.003769 -0.002383 0.009657 0.000000 0.000000 0.000000
# 4 0.000000 0.000000 0.000000 0.030143 0.000000 0.000000
# 5 0.000000 0.000000 0.000000 0.000000 0.030202 0.000000
# 6 0.000000 0.000000 0.000000 0.000000 0.000000 0.037835
#
#
# Mechanical properties :
#
#
# Convention : Reuss Voigt Hill
#
# Bulk Modulus (GPa) = 82.26398 85.16538 83.71468
# Shear Modulus (GPa) = 34.21748 35.69035 34.95391
#
# Velocity S-wave (km/s) = 3.93333 4.01709 3.97543
# Velocity P-wave (km/s) = 7.60413 7.74743 7.67611
#
# Compressibility (1/GPa) = 0.01215599
#
# Stress axis : x y z
#
# Youngs Moduli (GPa) = 118.35365 100.81973 103.55710
#
# Poissons Ratio (x) = 0.17967 0.39036
# Poissons Ratio (y) = 0.21092 0.24674
# Poissons Ratio (z) = 0.44613 0.24022
#
# Static dielectric constant tensor:
#      x y z
#    x 2.012480 0.000000 0.000000 
#    y 0.000000 1.916480 0.000000 
#    z 0.000000 0.000000 1.835080 
# 
# From -- ./inp_files/19080.got.cif
#   From: 2010.05.17/outbox.cif.g08.bks.cpg/sg54_10_cif.got.tgz:19080.got - 2010.06.03 13:09:01.
