data_PCOD9423587
_publ_section_title
;
Structure prediction by ZEFSAII (Michael W. Deem and Ramdas Pophale) SiO2 
 PCOD9423587
Probable space group: P C C A
;
_chemical_formula_sum "Si O2"
_cell_formula_units_Z 32
_cell_length_a 10.479813
_cell_length_b 13.773481
_cell_length_c 8.976405
_cell_angle_alpha 90.000000
_cell_angle_beta 90.000000
_cell_angle_gamma 90.000000
_cell_volume 1295.685762
_symmetry_space_group_name_H-M "P C C A"
_symmetry_group_IT_number 54
_symmetry_cell_setting 'orthorhombic'
loop_
_space_group_symop_operation_xyz
x,y,z
1/2-x,-y,z
1/2+x,-y,1/2-z
-x,y,1/2-z
-x,-y,-z
1/2+x,y,-z
1/2-x,y,1/2+z
x,-y,1/2+z
loop_
_atom_site_type_symbol
_atom_site_label
_atom_site_fract_x
_atom_site_fract_y
_atom_site_fract_z
Si Si1 0.250000 0.500000 0.159913
Si Si2 0.750000 0.000000 0.668860
Si Si3 0.000000 0.592017 0.250000
Si Si4 0.341432 0.681849 0.502517
Si Si5 0.500000 0.731392 0.250000
Si Si6 0.836107 0.862355 0.928838
O O1 0.124390 0.524411 0.255370
O O2 0.254324 0.595237 0.052827
O O3 0.690197 0.078409 0.778432
O O4 0.844236 0.059650 0.560724
O O5 0.963189 0.658252 0.391150
O O6 0.383020 0.677513 0.329925
O O7 0.275430 0.784887 0.535531
O O8 0.455961 0.798125 0.113203
#
# Coordination Sequence:
#
# PCOD9423587 Si02
#       6
#     4   4   4   8   4   8
#     4   8  20  44  82 122 158 216 266 336 404 494
#     4  10  24  46  74 112 162 206 270 336 408 474
#     4   8  20  43  85 116 160 218 265 336 407 486
#     4  10  23  47  79 117 161 209 268 332 409 486
#     4  12  26  45  81 114 154 220 259 332 415 490
#     4  11  24  47  72 116 161 208 268 338 397 495
#
# _framework density 24.697348000000002
#
# number of rings (size 3 to 8) (size 9 to 14) (size 15 to 20)
#    1.500    0.500    2.500    0.000    3.500    2.000 
#    0.000    3.750    0.000    0.000    0.000    0.000 
#    0.000    0.000    0.000    0.000    0.000    0.000 
#
# Total GULP energy -178689.903772 kJ/mol
# GULP energy per Si atom -5584.059493 kJ/mol
# Density = 2.464114 g / cm^3
# Si number density = 24.697348 Si / 1000 Ang^3
#
#
#
# Elastic Constant Matrix: (Units=GPa)
#
#
# Indices 1 2 3 4 5 6 
#
# 1 106.9569 40.4848 36.9472 0.0000 0.0000 0.0000
# 2 40.4848 157.9583 70.6101 0.0000 0.0000 0.0000
# 3 36.9472 70.6101 140.5442 0.0000 0.0000 0.0000
# 4 0.0000 0.0000 0.0000 -51.4120 0.0000 0.0000
# 5 0.0000 0.0000 0.0000 0.0000 33.2364 0.0000
# 6 0.0000 0.0000 0.0000 0.0000 0.0000 19.2715
#
#
#
# Elastic Compliance Matrix: (Units=1/GPa)
#
#
# Indices 1 2 3 4 5 6 
#
# 1 0.010716 -0.001918 -0.001853 0.000000 0.000000 0.000000
# 2 -0.001918 0.008508 -0.003770 0.000000 0.000000 0.000000
# 3 -0.001853 -0.003770 0.009497 0.000000 0.000000 0.000000
# 4 0.000000 0.000000 0.000000 -0.019451 0.000000 0.000000
# 5 0.000000 0.000000 0.000000 0.000000 0.030087 0.000000
# 6 0.000000 0.000000 0.000000 0.000000 0.000000 0.051890
#
#
# Mechanical properties :
#
#
# Convention : Reuss Voigt Hill
#
# Bulk Modulus (GPa) = 73.32972 77.94930 75.63951
# Shear Modulus (GPa) = 45.09562 17.38034 31.23798
#
# Velocity S-wave (km/s) = 4.27773 2.65567 3.56031
# Velocity P-wave (km/s) = 7.35897 6.40576 6.89885
#
# Compressibility (1/GPa) = 0.01363704
#
# Stress axis : x y z
#
# Youngs Moduli (GPa) = 93.32024 117.54128 105.30131
#
# Poissons Ratio (x) = 0.22544 0.19517
# Poissons Ratio (y) = 0.17898 0.39700
# Poissons Ratio (z) = 0.17296 0.44314
#
# Static dielectric constant tensor:
#      x y z
#    x 2.023850 0.000000 0.000000 
#    y 0.000000 1.994730 0.000000 
#    z 0.000000 0.000000 1.947170 
# 
# From -- ./inp_files/2888.got.cif
#   From: 2010.05.17/outbox.cif.g08.bks.cpg/sg54_2_cif.got.tgz:2888.got - 2010.06.03 13:09:01.
