data_PCOD9423781
_publ_section_title
;
Structure prediction by ZEFSAII (Michael W. Deem and Ramdas Pophale) SiO2 
 PCOD9423781
Probable space group: P C C A
;
_chemical_formula_sum "Si O2"
_cell_formula_units_Z 40
_cell_length_a 23.361636
_cell_length_b 5.153589
_cell_length_c 13.716147
_cell_angle_alpha 90.000000
_cell_angle_beta 90.000000
_cell_angle_gamma 90.000000
_cell_volume 1651.372942
_symmetry_space_group_name_H-M "P C C A"
_symmetry_group_IT_number 54
_symmetry_cell_setting 'orthorhombic'
loop_
_space_group_symop_operation_xyz
x,y,z
1/2-x,-y,z
1/2+x,-y,1/2-z
-x,y,1/2-z
-x,-y,-z
1/2+x,y,-z
1/2-x,y,1/2+z
x,-y,1/2+z
loop_
_atom_site_type_symbol
_atom_site_label
_atom_site_fract_x
_atom_site_fract_y
_atom_site_fract_z
Si Si1 0.356877 0.409312 0.426987
Si Si2 0.931513 0.201601 0.979193
Si Si3 0.145997 0.863917 0.619292
Si Si4 0.018925 0.454328 0.360478
Si Si5 0.310811 0.383871 0.219190
O O1 0.370365 0.675423 0.485799
O O2 0.333692 0.222867 0.511759
O O3 0.421723 0.379920 0.380581
O O4 0.315889 0.387859 0.335534
O O5 0.916460 0.966993 0.909857
O O6 0.035539 0.811146 0.918195
O O7 0.968162 0.403723 0.917518
O O8 0.145422 0.606247 0.683734
O O9 0.176935 0.099699 0.675499
O O10 0.000000 0.424502 0.250000
O O11 0.250000 0.500000 0.187235
#
# Coordination Sequence:
#
# PCOD9423781 Si02
#       5
#     8   8   8   8   8
#     4  10  24  45  74 107 150 192 243 307 364 446
#     4   9  21  42  70 106 150 194 243 289 370 446
#     4  12  25  50  74 104 150 192 245 317 372 449
#     4   9  18  40  70 109 152 200 242 295 361 450
#     4  12  28  49  76 108 140 190 260 315 391 445
#
# _framework density 24.222269000000001
#
# number of rings (size 3 to 8) (size 9 to 14) (size 15 to 20)
#    1.200    0.400    2.000    1.800    2.800    1.600 
#    3.600    1.000    0.000    0.000    0.000    0.000 
#    0.000    0.000    0.000    0.000    0.000    0.000 
#
# Total GULP energy -222921.851552 kJ/mol
# GULP energy per Si atom -5573.046289 kJ/mol
# Density = 2.416714 g / cm^3
# Si number density = 24.222269 Si / 1000 Ang^3
#
#
#
# Elastic Constant Matrix: (Units=GPa)
#
#
# Indices 1 2 3 4 5 6 
#
# 1 -58.4480 60.1628 230.8663 0.0000 0.0000 0.0000
# 2 60.1628 88.2460 -67.3288 0.0000 0.0000 0.0000
# 3 230.8663 -67.3288 -350.2429 0.0000 0.0000 0.0000
# 4 0.0000 0.0000 0.0000 10.2678 0.0000 0.0000
# 5 0.0000 0.0000 0.0000 0.0000 -43.5592 0.0000
# 6 0.0000 0.0000 0.0000 0.0000 0.0000 29.7238
#
#
#
# Elastic Compliance Matrix: (Units=1/GPa)
#
#
# Indices 1 2 3 4 5 6 
#
# 1 0.010957 -0.001709 0.007551 0.000000 0.000000 0.000000
# 2 -0.001709 0.010149 -0.003077 0.000000 0.000000 0.000000
# 3 0.007551 -0.003077 0.002714 0.000000 0.000000 0.000000
# 4 0.000000 0.000000 0.000000 0.097392 0.000000 0.000000
# 5 0.000000 0.000000 0.000000 0.000000 -0.022957 0.000000
# 6 0.000000 0.000000 0.000000 0.000000 0.000000 0.033643
#
#
# Mechanical properties :
#
#
# Convention : Reuss Voigt Hill
#
# Bulk Modulus (GPa) = 34.07380 14.10622 24.09001
# Shear Modulus (GPa) = 36.72396 -36.98987 -0.13296
#
# Velocity S-wave (km/s) = 3.89797 -3.91205 -0.23454
# Velocity P-wave (km/s) = 5.86145 3.81697 3.14542
#
# Compressibility (1/GPa) = 0.02934806
#
# Stress axis : x y z
#
# Youngs Moduli (GPa) = 91.26849 98.53145 368.51815
#
# Poissons Ratio (x) = 0.16838 -2.78258
# Poissons Ratio (y) = 0.15597 1.13409
# Poissons Ratio (z) = -0.68914 0.30322
#
# Static dielectric constant tensor:
#      x y z
#    x 2.045970 0.000000 0.000000 
#    y 0.000000 2.065380 0.000000 
#    z 0.000000 0.000000 1.909120 
# 
# From -- ./inp_files/14829.got.cif
#   From: 2010.05.17/outbox.cif.g08.bks.cpg/sg54_8_cif.got.tgz:14829.got - 2010.06.03 13:09:01.
