data_PCOD9423778
_publ_section_title
;
Structure prediction by ZEFSAII (Michael W. Deem and Ramdas Pophale) SiO2 
 PCOD9423778
Probable space group: P C C A
;
_chemical_formula_sum "Si O2"
_cell_formula_units_Z 16
_cell_length_a 5.083444
_cell_length_b 11.095958
_cell_length_c 9.153793
_cell_angle_alpha 90.000000
_cell_angle_beta 90.000000
_cell_angle_gamma 90.000000
_cell_volume 516.325929
_symmetry_space_group_name_H-M "P C C A"
_symmetry_group_IT_number 54
_symmetry_cell_setting 'orthorhombic'
loop_
_space_group_symop_operation_xyz
x,y,z
1/2-x,-y,z
1/2+x,-y,1/2-z
-x,y,1/2-z
-x,-y,-z
1/2+x,y,-z
1/2-x,y,1/2+z
x,-y,1/2+z
loop_
_atom_site_type_symbol
_atom_site_label
_atom_site_fract_x
_atom_site_fract_y
_atom_site_fract_z
Si Si1 0.000000 0.500000 0.500000
Si Si2 0.800690 0.130042 0.403235
Si Si3 0.500000 0.662692 0.750000
O O1 0.750000 0.500000 0.387058
O O2 0.145187 0.601564 0.395247
O O3 0.593609 0.132312 0.536674
O O4 0.719196 0.246441 0.313579
O O5 0.750000 0.000000 0.331226
#
# Coordination Sequence:
#
# PCOD9423778 Si02
#       3
#     4   8   4
#     4  12  28  48  74 110 156 208 260 320 390 478
#     4  10  24  45  71 107 151 198 253 320 389 462
#     4  12  26  48  78 114 158 204 262 324 402 482
#
# _framework density 30.988175999999999
#
# number of rings (size 3 to 8) (size 9 to 14) (size 15 to 20)
#    0.000    1.000    0.000    4.500    0.000   12.000 
#    0.000    0.000    0.000    0.000    0.000    3.500 
#    0.000    0.000    0.000    0.000    0.000    0.000 
#
# Total GULP energy -89116.021542 kJ/mol
# GULP energy per Si atom -5569.751346 kJ/mol
# Density = 3.091765 g / cm^3
# Si number density = 30.988176 Si / 1000 Ang^3
#
#
#
# Elastic Constant Matrix: (Units=GPa)
#
#
# Indices 1 2 3 4 5 6 
#
# 1 96.5868 -36.8604 -1.1153 0.0000 0.0000 0.0000
# 2 -36.8604 251.2291 113.3904 0.0000 0.0000 0.0000
# 3 -1.1153 113.3904 234.9357 0.0000 0.0000 0.0000
# 4 0.0000 0.0000 0.0000 -18.0058 0.0000 0.0000
# 5 0.0000 0.0000 0.0000 0.0000 52.5467 0.0000
# 6 0.0000 0.0000 0.0000 0.0000 0.0000 54.7449
#
#
#
# Elastic Compliance Matrix: (Units=1/GPa)
#
#
# Indices 1 2 3 4 5 6 
#
# 1 0.011127 0.002057 -0.000940 0.000000 0.000000 0.000000
# 2 0.002057 0.005469 -0.002630 0.000000 0.000000 0.000000
# 3 -0.000940 -0.002630 0.005521 0.000000 0.000000 0.000000
# 4 0.000000 0.000000 0.000000 -0.055538 0.000000 0.000000
# 5 0.000000 0.000000 0.000000 0.000000 0.019031 0.000000
# 6 0.000000 0.000000 0.000000 0.000000 0.000000 0.018267
#
#
# Mechanical properties :
#
#
# Convention : Reuss Voigt Hill
#
# Bulk Modulus (GPa) = 52.37776 81.50899 66.94337
# Shear Modulus (GPa) = 376.85732 51.67962 214.26847
#
# Velocity S-wave (km/s) = 11.03980 4.08820 8.32438
# Velocity P-wave (km/s) = 13.39560 6.97459 10.67912
#
# Compressibility (1/GPa) = 0.01909207
#
# Stress axis : x y z
#
# Youngs Moduli (GPa) = 89.86765 182.84198 181.11561
#
# Poissons Ratio (x) = -0.37608 0.17023
# Poissons Ratio (y) = -0.18484 0.47632
# Poissons Ratio (z) = 0.08447 0.48086
#
# Static dielectric constant tensor:
#      x y z
#    x 1.667510 0.000000 0.000000 
#    y 0.000000 3.499200 0.000000 
#    z 0.000000 0.000000 1.849630 
# 
# From -- ./inp_files/6057.got.cif
#   From: 2010.05.17/outbox.cif.g08.bks.cpg/sg54_4_cif.got.tgz:6057.got - 2010.06.03 13:09:01.
