data_PCOD9423970
_publ_section_title
;
Structure prediction by ZEFSAII (Michael W. Deem and Ramdas Pophale) SiO2 
 PCOD9423970
Probable space group: P C C A
;
_chemical_formula_sum "Si O2"
_cell_formula_units_Z 56
_cell_length_a 16.207014
_cell_length_b 8.650537
_cell_length_c 20.630856
_cell_angle_alpha 90.000000
_cell_angle_beta 90.000000
_cell_angle_gamma 90.000000
_cell_volume 2892.433102
_symmetry_space_group_name_H-M "P C C A"
_symmetry_group_IT_number 54
_symmetry_cell_setting 'orthorhombic'
loop_
_space_group_symop_operation_xyz
x,y,z
1/2-x,-y,z
1/2+x,-y,1/2-z
-x,y,1/2-z
-x,-y,-z
1/2+x,y,-z
1/2-x,y,1/2+z
x,-y,1/2+z
loop_
_atom_site_type_symbol
_atom_site_label
_atom_site_fract_x
_atom_site_fract_y
_atom_site_fract_z
Si Si1 0.288779 0.829827 0.228109
Si Si2 0.584007 0.591717 0.583384
Si Si3 0.536835 0.823485 0.345999
Si Si4 0.999784 0.170871 0.828400
Si Si5 0.118111 0.379678 0.304430
Si Si6 0.090482 0.417413 0.061120
Si Si7 0.649917 0.399590 0.321717
O O1 0.378113 0.837063 0.193915
O O2 0.312986 0.751428 0.295915
O O3 0.229621 0.702221 0.195358
O O4 0.250000 0.000000 0.230387
O O5 0.568503 0.740301 0.629346
O O6 0.630665 0.475660 0.630727
O O7 0.621935 0.599368 0.511883
O O8 0.492422 0.521805 0.568023
O O9 0.470031 0.706055 0.314763
O O10 0.561937 0.750130 0.414097
O O11 0.501332 0.994106 0.349451
O O12 0.917274 0.269574 0.839192
O O13 0.000000 0.171051 0.750000
O O14 0.123032 0.496443 0.241679
O O15 0.150646 0.489523 0.115574
#
# Coordination Sequence:
#
# PCOD9423970 Si02
#       7
#     8   8   8   8   8   8   8
#     4  12  24  38  58  95 128 160 203 263 325 376
#     4   9  20  37  61  92 121 158 209 258 307 368
#     4  11  23  37  63  92 124 165 206 260 315 372
#     4  11  20  33  59  93 125 158 203 258 311 369
#     4  11  22  39  64  92 120 162 214 264 308 369
#     4   9  20  37  60  90 119 159 208 256 310 365
#     4  11  22  37  61  88 123 159 210 259 309 368
#
# _framework density 19.360862999999998
#
# number of rings (size 3 to 8) (size 9 to 14) (size 15 to 20)
#    0.000    1.429    4.286    1.714    4.000    0.571 
#    0.000    0.000    6.286    0.857    0.000    0.000 
#    0.000    0.000    0.000    0.000    0.000    0.000 
#
# Total GULP energy -311994.087928 kJ/mol
# GULP energy per Si atom -5571.322999 kJ/mol
# Density = 1.931680 g / cm^3
# Si number density = 19.360863 Si / 1000 Ang^3
#
#
#
# Elastic Constant Matrix: (Units=GPa)
#
#
# Indices 1 2 3 4 5 6 
#
# 1 59.6068 32.0043 25.6536 0.0000 0.0000 0.0000
# 2 32.0043 135.0196 77.4791 0.0000 0.0000 0.0000
# 3 25.6536 77.4791 170.6619 0.0000 0.0000 0.0000
# 4 0.0000 0.0000 0.0000 0.9676 0.0000 0.0000
# 5 0.0000 0.0000 0.0000 0.0000 10.1315 0.0000
# 6 0.0000 0.0000 0.0000 0.0000 0.0000 25.3746
#
#
#
# Elastic Compliance Matrix: (Units=1/GPa)
#
#
# Indices 1 2 3 4 5 6 
#
# 1 0.019380 -0.003951 -0.001119 0.000000 0.000000 0.000000
# 2 -0.003951 0.010821 -0.004319 0.000000 0.000000 0.000000
# 3 -0.001119 -0.004319 0.007988 0.000000 0.000000 0.000000
# 4 0.000000 0.000000 0.000000 1.033538 0.000000 0.000000
# 5 0.000000 0.000000 0.000000 0.000000 0.098702 0.000000
# 6 0.000000 0.000000 0.000000 0.000000 0.000000 0.039409
#
#
# Mechanical properties :
#
#
# Convention : Reuss Voigt Hill
#
# Bulk Modulus (GPa) = 51.51797 70.61804 61.06800
# Shear Modulus (GPa) = 4.04830 22.63817 13.34323
#
# Velocity S-wave (km/s) = 1.44759 3.42318 2.62808
# Velocity P-wave (km/s) = 5.42781 7.22343 6.38902
#
# Compressibility (1/GPa) = 0.01941070
#
# Stress axis : x y z
#
# Youngs Moduli (GPa) = 51.59978 92.41095 125.18052
#
# Poissons Ratio (x) = 0.36516 0.14011
# Poissons Ratio (y) = 0.20389 0.54063
# Poissons Ratio (z) = 0.05775 0.39910
#
# Static dielectric constant tensor:
#      x y z
#    x 1.734120 0.000000 0.000000 
#    y 0.000000 1.702020 0.000000 
#    z 0.000000 0.000000 1.712940 
# 
# From -- ./inp_files/21616.got.cif
#   From: 2010.05.17/outbox.cif.g08.bks.cpg/sg54_11_cif.got.tgz:21616.got - 2010.06.03 13:09:01.
