data_PCOD9423156
_publ_section_title
;
Structure prediction by ZEFSAII (Michael W. Deem and Ramdas Pophale) SiO2 
 PCOD9423156
Probable space group: P C C A
;
_chemical_formula_sum "Si O2"
_cell_formula_units_Z 32
_cell_length_a 14.226774
_cell_length_b 18.854850
_cell_length_c 5.220535
_cell_angle_alpha 90.000000
_cell_angle_beta 90.000000
_cell_angle_gamma 90.000000
_cell_volume 1400.375571
_symmetry_space_group_name_H-M "P C C A"
_symmetry_group_IT_number 54
_symmetry_cell_setting 'orthorhombic'
loop_
_space_group_symop_operation_xyz
x,y,z
1/2-x,-y,z
1/2+x,-y,1/2-z
-x,y,1/2-z
-x,-y,-z
1/2+x,y,-z
1/2-x,y,1/2+z
x,-y,1/2+z
loop_
_atom_site_type_symbol
_atom_site_label
_atom_site_fract_x
_atom_site_fract_y
_atom_site_fract_z
Si Si1 0.192479 0.802711 0.159030
Si Si2 0.062944 0.324888 0.504157
Si Si3 0.386634 0.957692 0.740744
Si Si4 0.644378 0.530087 0.914100
O O1 0.225066 0.790226 0.451141
O O2 0.112412 0.749399 0.065177
O O3 0.157781 0.883621 0.156561
O O4 0.138219 0.388988 0.494996
O O5 0.000000 0.340591 0.750000
O O6 0.000000 0.322940 0.250000
O O7 0.500000 0.949844 0.750000
O O8 0.360845 0.015651 0.524661
O O9 0.750000 0.500000 0.878236
O O10 0.600137 0.517417 0.636809
#
# Coordination Sequence:
#
# PCOD9423156 Si02
#       4
#     8   8   8   8
#     4  12  27  43  70 101 140 188 228 284 344 410
#     4  12  27  46  71 101 138 179 231 284 337 412
#     4  10  22  42  69  99 137 181 227 283 341 398
#     4  10  23  41  70  98 132 176 213 285 337 415
#
# _framework density 22.851011
#
# number of rings (size 3 to 8) (size 9 to 14) (size 15 to 20)
#    0.000    1.000    0.000    5.250    7.000    9.000 
#    0.000    0.000    0.000    0.000    0.000    0.000 
#    0.000    0.000    0.000    0.000    0.000    0.000 
#
# Total GULP energy -179017.179951 kJ/mol
# GULP energy per Si atom -5594.286873 kJ/mol
# Density = 2.279900 g / cm^3
# Si number density = 22.851011 Si / 1000 Ang^3
#
#
#
# Elastic Constant Matrix: (Units=GPa)
#
#
# Indices 1 2 3 4 5 6 
#
# 1 77.8774 27.3177 14.9203 0.0000 0.0000 0.0000
# 2 27.3177 122.7176 17.0157 0.0000 0.0000 0.0000
# 3 14.9203 17.0157 153.7585 0.0000 0.0000 0.0000
# 4 0.0000 0.0000 0.0000 38.9137 0.0000 0.0000
# 5 0.0000 0.0000 0.0000 0.0000 29.4389 0.0000
# 6 0.0000 0.0000 0.0000 0.0000 0.0000 48.2741
#
#
#
# Elastic Compliance Matrix: (Units=1/GPa)
#
#
# Indices 1 2 3 4 5 6 
#
# 1 0.014089 -0.002993 -0.001036 0.000000 0.000000 0.000000
# 2 -0.002993 0.008911 -0.000696 0.000000 0.000000 0.000000
# 3 -0.001036 -0.000696 0.006681 0.000000 0.000000 0.000000
# 4 0.000000 0.000000 0.000000 0.025698 0.000000 0.000000
# 5 0.000000 0.000000 0.000000 0.000000 0.033969 0.000000
# 6 0.000000 0.000000 0.000000 0.000000 0.000000 0.020715
#
#
# Mechanical properties :
#
#
# Convention : Reuss Voigt Hill
#
# Bulk Modulus (GPa) = 49.42465 52.54009 50.98237
# Shear Modulus (GPa) = 39.60198 42.99865 41.30032
#
# Velocity S-wave (km/s) = 4.16751 4.34256 4.25593
# Velocity P-wave (km/s) = 6.69579 6.94162 6.81981
#
# Compressibility (1/GPa) = 0.02023282
#
# Stress axis : x y z
#
# Youngs Moduli (GPa) = 70.97768 112.21525 149.67299
#
# Poissons Ratio (x) = 0.33582 0.15506
# Poissons Ratio (y) = 0.21241 0.10414
# Poissons Ratio (z) = 0.07353 0.07808
#
# Static dielectric constant tensor:
#      x y z
#    x 2.315320 0.000000 0.000000 
#    y 0.000000 1.827660 0.000000 
#    z 0.000000 0.000000 1.836900 
# 
# From -- ./inp_files/418.got.cif
#   From: 2010.05.17/outbox.cif.g08.bks.cpg/sg54_1_cif.got.tgz:418.got - 2010.06.03 13:09:01.
