data_PCOD9423272
_publ_section_title
;
Structure prediction by ZEFSAII (Michael W. Deem and Ramdas Pophale) SiO2 
 PCOD9423272
Probable space group: P C C A
;
_chemical_formula_sum "Si O2"
_cell_formula_units_Z 40
_cell_length_a 8.557802
_cell_length_b 14.227430
_cell_length_c 14.763990
_cell_angle_alpha 90.000000
_cell_angle_beta 90.000000
_cell_angle_gamma 90.000000
_cell_volume 1797.597411
_symmetry_space_group_name_H-M "P C C A"
_symmetry_group_IT_number 54
_symmetry_cell_setting 'orthorhombic'
loop_
_space_group_symop_operation_xyz
x,y,z
1/2-x,-y,z
1/2+x,-y,1/2-z
-x,y,1/2-z
-x,-y,-z
1/2+x,y,-z
1/2-x,y,1/2+z
x,-y,1/2+z
loop_
_atom_site_type_symbol
_atom_site_label
_atom_site_fract_x
_atom_site_fract_y
_atom_site_fract_z
Si Si1 0.141848 0.091983 0.464192
Si Si2 0.000000 0.647785 0.750000
Si Si3 0.073903 0.027865 0.654418
Si Si4 0.312443 0.706714 0.416716
Si Si5 0.750000 0.500000 0.305685
Si Si6 0.505248 0.593742 0.937187
O O1 0.079150 0.098195 0.567692
O O2 0.230007 0.185437 0.434296
O O3 0.250000 0.000000 0.465354
O O4 0.012332 0.062891 0.389929
O O5 0.057633 0.704840 0.836886
O O6 0.146585 0.578320 0.741065
O O7 0.000000 0.058902 0.750000
O O8 0.250000 0.000000 0.676418
O O9 0.405852 0.670573 0.503868
O O10 0.161982 0.637237 0.408365
O O11 0.879825 0.559990 0.359143
O O12 0.500000 0.500000 0.000000
#
# Coordination Sequence:
#
# PCOD9423272 Si02
#       6
#     8   4   8   8   4   8
#     4  10  25  47  71 105 147 196 246 304 364 435
#     4  12  26  44  74 110 144 184 244 298 374 436
#     4  10  22  44  74 100 142 194 244 302 367 425
#     4  12  26  44  75 105 146 195 244 297 370 452
#     4  12  24  46  76 104 148 186 238 312 366 434
#     4  12  23  46  71 101 141 197 239 296 371 438
#
# _framework density 22.251923000000001
#
# number of rings (size 3 to 8) (size 9 to 14) (size 15 to 20)
#    0.000    0.800    4.000    1.800    9.800    0.800 
#    0.000    0.000    2.200    0.000    0.000    0.000 
#    0.000    0.000    0.000    0.000    0.000    0.000 
#
# Total GULP energy -223233.472930 kJ/mol
# GULP energy per Si atom -5580.836823 kJ/mol
# Density = 2.220128 g / cm^3
# Si number density = 22.251923 Si / 1000 Ang^3
#
#
#
# Elastic Constant Matrix: (Units=GPa)
#
#
# Indices 1 2 3 4 5 6 
#
# 1 127.5524 33.4967 32.8171 0.0000 0.0000 0.0000
# 2 33.4967 128.9317 29.0417 0.0000 0.0000 0.0000
# 3 32.8171 29.0417 91.1351 0.0000 0.0000 0.0000
# 4 0.0000 0.0000 0.0000 28.4464 0.0000 0.0000
# 5 0.0000 0.0000 0.0000 0.0000 42.7883 0.0000
# 6 0.0000 0.0000 0.0000 0.0000 0.0000 34.9327
#
#
#
# Elastic Compliance Matrix: (Units=1/GPa)
#
#
# Indices 1 2 3 4 5 6 
#
# 1 0.008985 -0.001730 -0.002684 0.000000 0.000000 0.000000
# 2 -0.001730 0.008689 -0.002146 0.000000 0.000000 0.000000
# 3 -0.002684 -0.002146 0.012623 0.000000 0.000000 0.000000
# 4 0.000000 0.000000 0.000000 0.035154 0.000000 0.000000
# 5 0.000000 0.000000 0.000000 0.000000 0.023371 0.000000
# 6 0.000000 0.000000 0.000000 0.000000 0.000000 0.028626
#
#
# Mechanical properties :
#
#
# Convention : Reuss Voigt Hill
#
# Bulk Modulus (GPa) = 58.21722 59.81447 59.01585
# Shear Modulus (GPa) = 36.68565 38.05107 37.36836
#
# Velocity S-wave (km/s) = 4.06476 4.13972 4.10241
# Velocity P-wave (km/s) = 6.94617 7.05610 7.00135
#
# Compressibility (1/GPa) = 0.01717705
#
# Stress axis : x y z
#
# Youngs Moduli (GPa) = 111.29995 115.09082 79.21972
#
# Poissons Ratio (x) = 0.19907 0.21264
# Poissons Ratio (y) = 0.19251 0.17000
# Poissons Ratio (z) = 0.29875 0.24698
#
# Static dielectric constant tensor:
#      x y z
#    x 1.834530 0.000000 0.000000 
#    y 0.000000 1.825890 0.000000 
#    z 0.000000 0.000000 1.850210 
# 
# From -- ./inp_files/11538.got.cif
#   From: 2010.05.17/outbox.cif.g08.bks.cpg/sg54_6_cif.got.tgz:11538.got - 2010.06.03 13:09:01.
