data_PCOD9423065
_publ_section_title
;
Structure prediction by ZEFSAII (Michael W. Deem and Ramdas Pophale) SiO2 
 PCOD9423065
Probable space group: P C C A
;
_chemical_formula_sum "Si O2"
_cell_formula_units_Z 56
_cell_length_a 12.770440
_cell_length_b 14.434439
_cell_length_c 12.691319
_cell_angle_alpha 90.000000
_cell_angle_beta 90.000000
_cell_angle_gamma 90.000000
_cell_volume 2339.443338
_symmetry_space_group_name_H-M "P C C A"
_symmetry_group_IT_number 54
_symmetry_cell_setting 'orthorhombic'
loop_
_space_group_symop_operation_xyz
x,y,z
1/2-x,-y,z
1/2+x,-y,1/2-z
-x,y,1/2-z
-x,-y,-z
1/2+x,y,-z
1/2-x,y,1/2+z
x,-y,1/2+z
loop_
_atom_site_type_symbol
_atom_site_label
_atom_site_fract_x
_atom_site_fract_y
_atom_site_fract_z
Si Si1 0.614931 0.879063 0.699710
Si Si2 0.701541 0.777793 0.284094
Si Si3 0.892360 0.364528 0.996527
Si Si4 0.052084 0.198892 0.013057
Si Si5 0.503279 0.478898 0.135824
Si Si6 0.922712 0.081005 0.151584
Si Si7 0.719045 0.606610 0.659012
O O1 0.500000 0.873189 0.750000
O O2 0.695684 0.843028 0.787930
O O3 0.615007 0.816100 0.594715
O O4 0.634888 0.982867 0.656482
O O5 0.628723 0.776973 0.387933
O O6 0.642386 0.828532 0.186619
O O7 0.739455 0.677523 0.246334
O O8 0.781087 0.363893 0.052370
O O9 0.957955 0.271233 0.994368
O O10 0.964876 0.435559 0.063680
O O11 0.897792 0.422364 0.888462
O O12 0.990859 0.105573 0.049631
O O13 0.500000 0.521599 0.250000
O O14 0.595765 0.402099 0.137129
O O15 0.000000 0.071988 0.250000
O O16 0.750000 0.500000 0.680885
#
# Coordination Sequence:
#
# PCOD9423065 Si02
#       7
#     8   8   8   8   8   8   8
#     4  11  25  45  66 102 145 179 227 293 358 415
#     4  11  23  42  69 100 136 181 232 284 344 423
#     4  10  22  42  67  96 134 177 228 280 341 416
#     4  11  23  41  74 100 133 185 237 282 354 419
#     4  10  23  43  66  96 135 178 225 284 347 402
#     4   9  20  41  70 101 136 181 231 286 343 419
#     4  10  22  41  66 100 135 174 229 284 341 407
#
# _framework density 23.93732
#
# number of rings (size 3 to 8) (size 9 to 14) (size 15 to 20)
#    0.000    1.714    1.429    1.714    4.000    3.429 
#    7.714    7.857    0.000    0.000    0.000    0.000 
#    0.000    0.000    0.000    0.000    0.000    0.000 
#
# Total GULP energy -312710.892465 kJ/mol
# GULP energy per Si atom -5584.123080 kJ/mol
# Density = 2.388284 g / cm^3
# Si number density = 23.937320 Si / 1000 Ang^3
#
#
#
# Elastic Constant Matrix: (Units=GPa)
#
#
# Indices 1 2 3 4 5 6 
#
# 1 48.8224 -5.8928 -7.7687 0.0000 0.0000 0.0000
# 2 -5.8928 112.0092 9.5805 0.0000 0.0000 0.0000
# 3 -7.7687 9.5805 47.9973 0.0000 0.0000 0.0000
# 4 0.0000 0.0000 0.0000 9.1378 0.0000 0.0000
# 5 0.0000 0.0000 0.0000 0.0000 26.4101 0.0000
# 6 0.0000 0.0000 0.0000 0.0000 0.0000 20.4216
#
#
#
# Elastic Compliance Matrix: (Units=1/GPa)
#
#
# Indices 1 2 3 4 5 6 
#
# 1 0.021100 0.000832 0.003249 0.000000 0.000000 0.000000
# 2 0.000832 0.009116 -0.001685 0.000000 0.000000 0.000000
# 3 0.003249 -0.001685 0.021697 0.000000 0.000000 0.000000
# 4 0.000000 0.000000 0.000000 0.109436 0.000000 0.000000
# 5 0.000000 0.000000 0.000000 0.000000 0.037864 0.000000
# 6 0.000000 0.000000 0.000000 0.000000 0.000000 0.048968
#
#
# Mechanical properties :
#
#
# Convention : Reuss Voigt Hill
#
# Bulk Modulus (GPa) = 17.63516 22.29633 19.96575
# Shear Modulus (GPa) = 19.06296 25.38789 22.22543
#
# Velocity S-wave (km/s) = 2.82506 3.26022 3.05041
# Velocity P-wave (km/s) = 4.24553 4.84837 4.55693
#
# Compressibility (1/GPa) = 0.05670491
#
# Stress axis : x y z
#
# Youngs Moduli (GPa) = 47.39379 109.70054 46.08999
#
# Poissons Ratio (x) = -0.09129 -0.14975
# Poissons Ratio (y) = -0.03944 0.07765
# Poissons Ratio (z) = -0.15398 0.18483
#
# Static dielectric constant tensor:
#      x y z
#    x 2.051520 0.000000 0.000000 
#    y 0.000000 1.934190 0.000000 
#    z 0.000000 0.000000 2.130430 
# 
# From -- ./inp_files/12726.got.cif
#   From: 2010.05.17/outbox.cif.g08.bks.cpg/sg54_7_cif.got.tgz:12726.got - 2010.06.03 13:09:01.
