data_PCOD9423925
_publ_section_title
;
Structure prediction by ZEFSAII (Michael W. Deem and Ramdas Pophale) SiO2 
 PCOD9423925
Probable space group: P C C A
;
_chemical_formula_sum "Si O2"
_cell_formula_units_Z 60
_cell_length_a 27.155968
_cell_length_b 10.979283
_cell_length_c 8.753973
_cell_angle_alpha 90.000000
_cell_angle_beta 90.000000
_cell_angle_gamma 90.000000
_cell_volume 2610.023818
_symmetry_space_group_name_H-M "P C C A"
_symmetry_group_IT_number 54
_symmetry_cell_setting 'orthorhombic'
loop_
_space_group_symop_operation_xyz
x,y,z
1/2-x,-y,z
1/2+x,-y,1/2-z
-x,y,1/2-z
-x,-y,-z
1/2+x,y,-z
1/2-x,y,1/2+z
x,-y,1/2+z
loop_
_atom_site_type_symbol
_atom_site_label
_atom_site_fract_x
_atom_site_fract_y
_atom_site_fract_z
Si Si1 0.204140 0.583867 0.348853
Si Si2 0.945762 0.715338 0.586485
Si Si3 0.250000 0.000000 0.729513
Si Si4 0.452808 0.938905 0.638530
Si Si5 0.450113 0.636883 0.086451
Si Si6 0.090056 0.152374 0.932337
Si Si7 0.297738 0.160021 0.474733
Si Si8 0.366896 0.563248 0.573713
O O1 0.250000 0.500000 0.298766
O O2 0.222677 0.709248 0.423317
O O3 0.171712 0.510762 0.471505
O O4 0.165295 0.611126 0.214154
O O5 0.959957 0.831491 0.485586
O O6 0.942365 0.727982 0.768540
O O7 0.894488 0.666283 0.522465
O O8 0.991191 0.619042 0.574701
O O9 0.272481 0.104392 0.623106
O O10 0.210893 0.062952 0.840222
O O11 0.500000 0.955194 0.750000
O O12 0.437202 0.054549 0.539761
O O13 0.411438 0.897784 0.760145
O O14 0.434953 0.714743 0.938746
O O15 0.412378 0.527281 0.116381
O O16 0.144365 0.172329 0.995502
#
# Coordination Sequence:
#
# PCOD9423925 Si02
#       8
#     8   8   4   8   8   8   8   8
#     4  12  28  47  76 108 145 191 243 308 368 437
#     4  11  25  43  69 101 144 188 239 290 357 428
#     4  10  26  48  76 106 136 190 238 296 380 430
#     4  12  25  42  67 104 140 190 237 296 350 432
#     4  11  24  44  68 101 141 189 232 297 351 436
#     4  12  24  43  70 100 144 182 239 293 365 426
#     4  11  25  49  73 105 144 183 238 303 362 443
#     4  12  25  49  69 106 141 189 241 292 367 433
#
# _framework density 22.988295999999998
#
# number of rings (size 3 to 8) (size 9 to 14) (size 15 to 20)
#    0.000    0.533    4.000    3.600    5.600    0.000 
#    4.800    0.000    0.000    0.000    0.000    0.000 
#    0.000    0.000    0.000    0.000    0.000    0.000 
#
# Total GULP energy -335636.340897 kJ/mol
# GULP energy per Si atom -5593.939015 kJ/mol
# Density = 2.293597 g / cm^3
# Si number density = 22.988296 Si / 1000 Ang^3
#
#
#
# Elastic Constant Matrix: (Units=GPa)
#
#
# Indices 1 2 3 4 5 6 
#
# 1 71.1446 5.8117 -5.9651 0.0000 0.0000 0.0000
# 2 5.8117 66.0174 5.4434 0.0000 0.0000 0.0000
# 3 -5.9651 5.4434 75.1768 0.0000 0.0000 0.0000
# 4 0.0000 0.0000 0.0000 30.9353 0.0000 0.0000
# 5 0.0000 0.0000 0.0000 0.0000 15.2919 0.0000
# 6 0.0000 0.0000 0.0000 0.0000 0.0000 35.1945
#
#
#
# Elastic Compliance Matrix: (Units=1/GPa)
#
#
# Indices 1 2 3 4 5 6 
#
# 1 0.014270 -0.001358 0.001231 0.000000 0.000000 0.000000
# 2 -0.001358 0.015368 -0.001220 0.000000 0.000000 0.000000
# 3 0.001231 -0.001220 0.013488 0.000000 0.000000 0.000000
# 4 0.000000 0.000000 0.000000 0.032326 0.000000 0.000000
# 5 0.000000 0.000000 0.000000 0.000000 0.065394 0.000000
# 6 0.000000 0.000000 0.000000 0.000000 0.000000 0.028414
#
#
# Mechanical properties :
#
#
# Convention : Reuss Voigt Hill
#
# Bulk Modulus (GPa) = 24.73380 24.76875 24.75127
# Shear Modulus (GPa) = 26.96424 30.08758 28.52591
#
# Velocity S-wave (km/s) = 3.42856 3.62169 3.52645
# Velocity P-wave (km/s) = 5.14354 5.31853 5.23177
#
# Compressibility (1/GPa) = 0.04043051
#
# Stress axis : x y z
#
# Youngs Moduli (GPa) = 70.07722 65.07162 74.14006
#
# Poissons Ratio (x) = 0.08835 -0.09124
# Poissons Ratio (y) = 0.09514 0.09049
# Poissons Ratio (z) = -0.08624 0.07942
#
# Static dielectric constant tensor:
#      x y z
#    x 1.856580 0.000000 0.000000 
#    y 0.000000 1.869780 0.000000 
#    z 0.000000 0.000000 1.852350 
# 
# From -- ./inp_files/5577.got.cif
#   From: 2010.05.17/outbox.cif.g08.bks.cpg/sg54_3_cif.got.tgz:5577.got - 2010.06.03 13:09:01.
