data_PCOD9423028
_publ_section_title
;
Structure prediction by ZEFSAII (Michael W. Deem and Ramdas Pophale) SiO2 
 PCOD9423028
Probable space group: P C C A
;
_chemical_formula_sum "Si O2"
_cell_formula_units_Z 60
_cell_length_a 8.107323
_cell_length_b 16.595445
_cell_length_c 19.138788
_cell_angle_alpha 90.000000
_cell_angle_beta 90.000000
_cell_angle_gamma 90.000000
_cell_volume 2575.021206
_symmetry_space_group_name_H-M "P C C A"
_symmetry_group_IT_number 54
_symmetry_cell_setting 'orthorhombic'
loop_
_space_group_symop_operation_xyz
x,y,z
1/2-x,-y,z
1/2+x,-y,1/2-z
-x,y,1/2-z
-x,-y,-z
1/2+x,y,-z
1/2-x,y,1/2+z
x,-y,1/2+z
loop_
_atom_site_type_symbol
_atom_site_label
_atom_site_fract_x
_atom_site_fract_y
_atom_site_fract_z
Si Si1 0.250000 0.500000 0.114913
Si Si2 0.691054 0.800912 0.778608
Si Si3 0.446940 0.371051 0.526733
Si Si4 0.307756 0.378101 0.240335
Si Si5 0.259417 0.173820 0.863956
Si Si6 0.869611 0.809482 0.920790
Si Si7 0.716352 0.360498 0.108284
Si Si8 0.620052 0.062638 0.038031
O O1 0.135122 0.447514 0.064096
O O2 0.296618 0.433032 0.173039
O O3 0.500000 0.803070 0.750000
O O4 0.763536 0.709376 0.775648
O O5 0.782257 0.848128 0.716797
O O6 0.747220 0.823484 0.855946
O O7 0.370537 0.283033 0.549570
O O8 0.435734 0.380361 0.442700
O O9 0.631091 0.369977 0.556191
O O10 0.500000 0.365940 0.250000
O O11 0.250224 0.405127 0.317977
O O12 0.439138 0.171145 0.900584
O O13 0.204505 0.267071 0.870469
O O14 0.109315 0.123268 0.897239
O O15 0.820113 0.874134 0.979360
O O16 0.750000 0.000000 0.067689
O O17 0.500000 0.000000 0.000000
#
# Coordination Sequence:
#
# PCOD9423028 Si02
#       8
#     4   8   8   8   8   8   8   8
#     4  12  26  42  66 100 138 182 238 298 354 414
#     4  10  22  40  70  98 128 181 234 274 336 417
#     4  11  25  42  69 101 137 184 231 293 353 427
#     4  10  24  43  64  96 137 180 229 293 349 414
#     4  10  22  42  68  99 135 180 221 282 342 421
#     4  11  22  44  67  99 137 181 227 278 349 421
#     4  10  24  43  69  99 135 181 237 281 356 431
#     4  12  25  42  70 104 135 175 225 282 344 415
#
# _framework density 23.30078
#
# number of rings (size 3 to 8) (size 9 to 14) (size 15 to 20)
#    0.000    1.333    4.000    0.400    5.600    2.133 
#    0.000    0.667    0.000    0.000    0.000    0.000 
#    0.000    0.000    0.000    0.000    0.000    0.000 
#
# Total GULP energy -334313.663454 kJ/mol
# GULP energy per Si atom -5571.894391 kJ/mol
# Density = 2.324775 g / cm^3
# Si number density = 23.300780 Si / 1000 Ang^3
#
#
#
# Elastic Constant Matrix: (Units=GPa)
#
#
# Indices 1 2 3 4 5 6 
#
# 1 45.9079 19.9155 22.7777 0.0000 0.0000 0.0000
# 2 19.9155 98.5008 35.4672 0.0000 0.0000 0.0000
# 3 22.7777 35.4672 148.8256 0.0000 0.0000 0.0000
# 4 0.0000 0.0000 0.0000 -1.5751 0.0000 0.0000
# 5 0.0000 0.0000 0.0000 0.0000 24.5844 0.0000
# 6 0.0000 0.0000 0.0000 0.0000 0.0000 1646.4873
#
#
#
# Elastic Compliance Matrix: (Units=1/GPa)
#
#
# Indices 1 2 3 4 5 6 
#
# 1 0.024943 -0.004013 -0.002861 0.000000 0.000000 0.000000
# 2 -0.004013 0.011751 -0.002186 0.000000 0.000000 0.000000
# 3 -0.002861 -0.002186 0.007678 0.000000 0.000000 0.000000
# 4 0.000000 0.000000 0.000000 -0.634886 0.000000 0.000000
# 5 0.000000 0.000000 0.000000 0.000000 0.040676 0.000000
# 6 0.000000 0.000000 0.000000 0.000000 0.000000 0.000607
#
#
# Mechanical properties :
#
#
# Convention : Reuss Voigt Hill
#
# Bulk Modulus (GPa) = 38.09309 49.95057 44.02183
# Shear Modulus (GPa) = -9.57196 348.23758 169.33281
#
# Velocity S-wave (km/s) = -2.02902 12.23837 8.53407
# Velocity P-wave (km/s) = 3.30071 14.87237 10.77223
#
# Compressibility (1/GPa) = 0.02625148
#
# Stress axis : x y z
#
# Youngs Moduli (GPa) = 40.09104 85.10102 130.23915
#
# Poissons Ratio (x) = 0.34151 0.37264
# Poissons Ratio (y) = 0.16088 0.28473
# Poissons Ratio (z) = 0.11471 0.18605
#
# Static dielectric constant tensor:
#      x y z
#    x 1.960720 0.000000 0.000000 
#    y 0.000000 2.549530 0.000000 
#    z 0.000000 0.000000 1.866830 
# 
# From -- ./inp_files/16833.got.cif
#   From: 2010.05.17/outbox.cif.g08.bks.cpg/sg54_9_cif.got.tgz:16833.got - 2010.06.03 13:09:01.
