data_PCOD9423671
_publ_section_title
;
Structure prediction by ZEFSAII (Michael W. Deem and Ramdas Pophale) SiO2 
 PCOD9423671
Probable space group: P C C A
;
_chemical_formula_sum "Si O2"
_cell_formula_units_Z 40
_cell_length_a 9.176313
_cell_length_b 18.276878
_cell_length_c 9.256037
_cell_angle_alpha 90.000000
_cell_angle_beta 90.000000
_cell_angle_gamma 90.000000
_cell_volume 1552.370259
_symmetry_space_group_name_H-M "P C C A"
_symmetry_group_IT_number 54
_symmetry_cell_setting 'orthorhombic'
loop_
_space_group_symop_operation_xyz
x,y,z
1/2-x,-y,z
1/2+x,-y,1/2-z
-x,y,1/2-z
-x,-y,-z
1/2+x,y,-z
1/2-x,y,1/2+z
x,-y,1/2+z
loop_
_atom_site_type_symbol
_atom_site_label
_atom_site_fract_x
_atom_site_fract_y
_atom_site_fract_z
Si Si1 0.000000 0.103315 0.250000
Si Si2 0.250000 0.500000 0.163727
Si Si3 0.116232 0.697621 0.024984
Si Si4 0.148171 0.596165 0.420987
Si Si5 0.500000 0.000000 0.500000
Si Si6 0.732826 0.789307 0.231912
Si Si7 0.500000 0.888493 0.750000
O O1 0.065291 0.052333 0.372736
O O2 0.127859 0.153584 0.187412
O O3 0.162329 0.554387 0.269751
O O4 0.362673 0.541746 0.058013
O O5 0.192649 0.628833 0.951084
O O6 0.137482 0.759000 0.901496
O O7 0.960211 0.665435 0.069782
O O8 0.208486 0.726563 0.161466
O O9 0.445734 0.940121 0.622274
O O10 0.874373 0.835698 0.188321
#
# Coordination Sequence:
#
# PCOD9423671 Si02
#       7
#     4   4   8   8   4   8   4
#     4  11  24  42  68 100 138 183 236 294 356 423
#     4  10  26  48  76 108 146 188 236 302 372 448
#     4  12  26  45  72 103 141 188 239 296 359 434
#     4  11  26  47  74 106 142 185 237 294 365 439
#     4  10  24  42  68 100 138 184 236 294 356 424
#     4  12  25  45  70 101 141 186 238 296 358 424
#     4  11  24  42  68 100 138 183 236 294 356 423
#
# _framework density 25.767050000000001
#
# number of rings (size 3 to 8) (size 9 to 14) (size 15 to 20)
#    0.000    0.800    0.000    6.000    0.000   14.400 
#    0.000    2.000    0.000    0.000    0.000    0.000 
#    0.000    0.000    0.000    0.000    0.000    0.000 
#
# Total GULP energy -222927.658966 kJ/mol
# GULP energy per Si atom -5573.191474 kJ/mol
# Density = 2.570840 g / cm^3
# Si number density = 25.767050 Si / 1000 Ang^3
#
#
#
# Elastic Constant Matrix: (Units=GPa)
#
#
# Indices 1 2 3 4 5 6 
#
# 1 84.2589 33.9260 10.3102 0.0000 0.0000 0.0000
# 2 33.9260 117.3067 56.1347 0.0000 0.0000 0.0000
# 3 10.3102 56.1347 175.2843 0.0000 0.0000 0.0000
# 4 0.0000 0.0000 0.0000 38.4732 0.0000 0.0000
# 5 0.0000 0.0000 0.0000 0.0000 16.4080 0.0000
# 6 0.0000 0.0000 0.0000 0.0000 0.0000 17.3459
#
#
#
# Elastic Compliance Matrix: (Units=1/GPa)
#
#
# Indices 1 2 3 4 5 6 
#
# 1 0.013475 -0.004155 0.000538 0.000000 0.000000 0.000000
# 2 -0.004155 0.011348 -0.003390 0.000000 0.000000 0.000000
# 3 0.000538 -0.003390 0.006759 0.000000 0.000000 0.000000
# 4 0.000000 0.000000 0.000000 0.025992 0.000000 0.000000
# 5 0.000000 0.000000 0.000000 0.000000 0.060946 0.000000
# 6 0.000000 0.000000 0.000000 0.000000 0.000000 0.057651
#
#
# Mechanical properties :
#
#
# Convention : Reuss Voigt Hill
#
# Bulk Modulus (GPa) = 56.91728 64.17689 60.54708
# Shear Modulus (GPa) = 25.50492 32.87735 29.19114
#
# Velocity S-wave (km/s) = 3.14956 3.57591 3.36949
# Velocity P-wave (km/s) = 5.94672 6.48153 6.21987
#
# Compressibility (1/GPa) = 0.01756936
#
# Stress axis : x y z
#
# Youngs Moduli (GPa) = 74.21074 88.11843 147.95072
#
# Poissons Ratio (x) = 0.36609 -0.07958
# Poissons Ratio (y) = 0.30831 0.50154
# Poissons Ratio (z) = -0.03992 0.29872
#
# Static dielectric constant tensor:
#      x y z
#    x 2.019520 0.000000 0.000000 
#    y 0.000000 2.138990 0.000000 
#    z 0.000000 0.000000 2.048690 
# 
# From -- ./inp_files/3005.got.cif
#   From: 2010.05.17/outbox.cif.g08.bks.cpg/sg54_2_cif.got.tgz:3005.got - 2010.06.03 13:09:01.
