data_PCOD9423953
_publ_section_title
;
Structure prediction by ZEFSAII (Michael W. Deem and Ramdas Pophale) SiO2 
 PCOD9423953
Probable space group: P C C A
;
_chemical_formula_sum "Si O2"
_cell_formula_units_Z 64
_cell_length_a 15.699222
_cell_length_b 8.501723
_cell_length_c 19.816610
_cell_angle_alpha 90.000000
_cell_angle_beta 90.000000
_cell_angle_gamma 90.000000
_cell_volume 2644.931592
_symmetry_space_group_name_H-M "P C C A"
_symmetry_group_IT_number 54
_symmetry_cell_setting 'orthorhombic'
loop_
_space_group_symop_operation_xyz
x,y,z
1/2-x,-y,z
1/2+x,-y,1/2-z
-x,y,1/2-z
-x,-y,-z
1/2+x,y,-z
1/2-x,y,1/2+z
x,-y,1/2+z
loop_
_atom_site_type_symbol
_atom_site_label
_atom_site_fract_x
_atom_site_fract_y
_atom_site_fract_z
Si Si1 0.784535 0.676121 0.277632
Si Si2 0.591855 0.430730 0.519678
Si Si3 0.706216 0.734639 0.513723
Si Si4 0.044272 0.769406 0.853721
Si Si5 0.551362 0.926306 0.562859
Si Si6 0.775860 0.816041 0.654801
Si Si7 0.893918 0.784249 0.393212
Si Si8 0.652730 0.153035 0.867311
O O1 0.750000 0.500000 0.284562
O O2 0.793614 0.722071 0.199535
O O3 0.865422 0.694269 0.326619
O O4 0.719744 0.805639 0.309456
O O5 0.500000 0.500000 0.500000
O O6 0.661559 0.566549 0.523666
O O7 0.563519 0.355296 0.589286
O O8 0.628027 0.307963 0.462794
O O9 0.638320 0.866241 0.535621
O O10 0.772494 0.762454 0.575781
O O11 0.699144 0.766024 0.432484
O O12 0.132751 0.761285 0.811707
O O13 0.940940 0.776742 0.845570
O O14 0.062232 0.940661 0.883409
O O15 0.495212 0.794142 0.597729
O O16 0.500000 0.000000 0.500000
O O17 0.750000 0.000000 0.659704
O O18 0.863043 0.967758 0.385558
#
# Coordination Sequence:
#
# PCOD9423953 Si02
#       8
#     8   8   8   8   8   8   8   8
#     4  12  30  51  68 101 147 190 246 301 366 437
#     4  12  21  37  68 110 151 175 228 295 361 411
#     4  12  23  38  70 109 143 182 230 294 366 413
#     4  11  23  41  71 104 139 182 235 293 358 422
#     4  11  17  39  68 108 140 176 229 294 346 427
#     4  12  29  48  72 100 148 193 240 300 364 436
#     4  11  22  42  75 102 143 188 235 293 352 428
#     4  11  23  46  79 105 136 188 250 294 353 442
#
# _framework density 24.197223000000001
#
# number of rings (size 3 to 8) (size 9 to 14) (size 15 to 20)
#    0.000    0.500    7.500    1.875    3.500    0.500 
#    0.000    0.625    2.750    0.000    0.000    0.000 
#    0.000    0.000    0.000    0.000    0.000    0.000 
#
# Total GULP energy -356747.673298 kJ/mol
# GULP energy per Si atom -5574.182395 kJ/mol
# Density = 2.414215 g / cm^3
# Si number density = 24.197223 Si / 1000 Ang^3
#
#
#
# Elastic Constant Matrix: (Units=GPa)
#
#
# Indices 1 2 3 4 5 6 
#
# 1 80.2837 -16.0694 18.5224 0.0000 0.0000 0.0000
# 2 -16.0694 66.6696 4.1899 0.0000 0.0000 0.0000
# 3 18.5224 4.1899 104.0230 0.0000 0.0000 0.0000
# 4 0.0000 0.0000 0.0000 46.9579 0.0000 0.0000
# 5 0.0000 0.0000 0.0000 0.0000 -3.4031 0.0000
# 6 0.0000 0.0000 0.0000 0.0000 0.0000 35.5174
#
#
#
# Elastic Compliance Matrix: (Units=1/GPa)
#
#
# Indices 1 2 3 4 5 6 
#
# 1 0.013749 0.003477 -0.002588 0.000000 0.000000 0.000000
# 2 0.003477 0.015916 -0.001260 0.000000 0.000000 0.000000
# 3 -0.002588 -0.001260 0.010125 0.000000 0.000000 0.000000
# 4 0.000000 0.000000 0.000000 0.021296 0.000000 0.000000
# 5 0.000000 0.000000 0.000000 0.000000 -0.293850 0.000000
# 6 0.000000 0.000000 0.000000 0.000000 0.000000 0.028155
#
#
# Mechanical properties :
#
#
# Convention : Reuss Voigt Hill
#
# Bulk Modulus (GPa) = 25.61037 29.36245 27.48641
# Shear Modulus (GPa) = -26.19867 32.10333 2.95233
#
# Velocity S-wave (km/s) = -3.29403 3.64639 1.10579
# Velocity P-wave (km/s) = 1.96482 5.46710 3.60754
#
# Compressibility (1/GPa) = 0.03904668
#
# Stress axis : x y z
#
# Youngs Moduli (GPa) = 72.73357 62.82793 98.76681
#
# Poissons Ratio (x) = -0.21842 0.25562
# Poissons Ratio (y) = -0.25286 0.12446
# Poissons Ratio (z) = 0.18825 0.07917
#
# Static dielectric constant tensor:
#      x y z
#    x 2.273240 0.000000 0.000000 
#    y 0.000000 1.981980 0.000000 
#    z 0.000000 0.000000 1.998640 
# 
# From -- ./inp_files/21942.got.cif
#   From: 2010.05.17/outbox.cif.g08.bks.cpg/sg54_11_cif.got.tgz:21942.got - 2010.06.03 13:09:01.
