data_PCOD9423029
_publ_section_title
;
Structure prediction by ZEFSAII (Michael W. Deem and Ramdas Pophale) SiO2 
 PCOD9423029
Probable space group: P C C A
;
_chemical_formula_sum "Si O2"
_cell_formula_units_Z 40
_cell_length_a 13.807776
_cell_length_b 5.323024
_cell_length_c 21.740419
_cell_angle_alpha 90.000000
_cell_angle_beta 90.000000
_cell_angle_gamma 90.000000
_cell_volume 1597.901731
_symmetry_space_group_name_H-M "P C C A"
_symmetry_group_IT_number 54
_symmetry_cell_setting 'orthorhombic'
loop_
_space_group_symop_operation_xyz
x,y,z
1/2-x,-y,z
1/2+x,-y,1/2-z
-x,y,1/2-z
-x,-y,-z
1/2+x,y,-z
1/2-x,y,1/2+z
x,-y,1/2+z
loop_
_atom_site_type_symbol
_atom_site_label
_atom_site_fract_x
_atom_site_fract_y
_atom_site_fract_z
Si Si1 0.871088 0.759920 0.904523
Si Si2 0.903321 0.249106 0.829514
Si Si3 0.750000 0.500000 0.994917
Si Si4 0.117306 0.358198 0.811511
Si Si5 0.412570 0.273895 0.921086
Si Si6 0.250000 0.000000 0.876101
O O1 0.878930 0.484790 0.872773
O O2 0.783865 0.728423 0.951823
O O3 0.977169 0.783152 0.936631
O O4 0.862094 0.987987 0.856049
O O5 0.875347 0.350637 0.761938
O O6 0.019165 0.201209 0.825682
O O7 0.653875 0.555599 0.034817
O O8 0.093038 0.604061 0.852224
O O9 0.215200 0.229704 0.834722
O O10 0.343862 0.034780 0.917395
#
# Coordination Sequence:
#
# PCOD9423029 Si02
#       6
#     8   8   4   8   8   4
#     4  11  26  47  71 105 146 190 238 303 363 441
#     4  10  24  45  71 102 145 184 234 294 379 434
#     4  12  26  48  72 102 144 198 248 304 362 430
#     4  10  22  40  71 102 140 184 234 305 361 442
#     4  11  24  46  67 110 140 189 252 300 363 436
#     4  12  20  38  72 100 142 180 242 294 364 432
#
# _framework density 25.032827000000001
#
# number of rings (size 3 to 8) (size 9 to 14) (size 15 to 20)
#    0.000    1.200    4.000    0.600    2.800    5.600 
#    0.000    4.000    0.000    0.000    0.000    0.000 
#    0.000    0.000    0.000    0.000    0.000    0.000 
#
# Total GULP energy -223341.228344 kJ/mol
# GULP energy per Si atom -5583.530709 kJ/mol
# Density = 2.497585 g / cm^3
# Si number density = 25.032827 Si / 1000 Ang^3
#
#
#
# Elastic Constant Matrix: (Units=GPa)
#
#
# Indices 1 2 3 4 5 6 
#
# 1 128.3647 21.5170 39.5205 0.0000 0.0000 0.0000
# 2 21.5170 90.1714 39.8339 0.0000 0.0000 0.0000
# 3 39.5205 39.8339 94.9145 0.0000 0.0000 0.0000
# 4 0.0000 0.0000 0.0000 -9.4225 0.0000 0.0000
# 5 0.0000 0.0000 0.0000 0.0000 10.1031 0.0000
# 6 0.0000 0.0000 0.0000 0.0000 0.0000 26.7625
#
#
#
# Elastic Compliance Matrix: (Units=1/GPa)
#
#
# Indices 1 2 3 4 5 6 
#
# 1 0.008962 -0.000602 -0.003479 0.000000 0.000000 0.000000
# 2 -0.000602 0.013654 -0.005480 0.000000 0.000000 0.000000
# 3 -0.003479 -0.005480 0.014284 0.000000 0.000000 0.000000
# 4 0.000000 0.000000 0.000000 -0.106128 0.000000 0.000000
# 5 0.000000 0.000000 0.000000 0.000000 0.098980 0.000000
# 6 0.000000 0.000000 0.000000 0.000000 0.000000 0.037366
#
#
# Mechanical properties :
#
#
# Convention : Reuss Voigt Hill
#
# Bulk Modulus (GPa) = 56.24512 57.24370 56.74441
# Shear Modulus (GPa) = 54.24993 19.66057 36.95525
#
# Velocity S-wave (km/s) = 4.66032 2.80552 3.84640
# Velocity P-wave (km/s) = 7.17464 5.78029 6.51487
#
# Compressibility (1/GPa) = 0.01777932
#
# Stress axis : x y z
#
# Youngs Moduli (GPa) = 111.57821 73.23651 70.00680
#
# Poissons Ratio (x) = 0.04406 0.24357
# Poissons Ratio (y) = 0.06713 0.38364
# Poissons Ratio (z) = 0.38821 0.40134
#
# Static dielectric constant tensor:
#      x y z
#    x 2.077320 0.000000 0.000000 
#    y 0.000000 2.089910 0.000000 
#    z 0.000000 0.000000 2.089900 
# 
# From -- ./inp_files/24345.got.cif
#   From: 2010.05.17/outbox.cif.g08.bks.cpg/sg54_13_cif.got.tgz:24345.got - 2010.06.03 13:09:01.
