data_PCOD9423611
_publ_section_title
;
Structure prediction by ZEFSAII (Michael W. Deem and Ramdas Pophale) SiO2 
 PCOD9423611
Probable space group: P C C A
;
_chemical_formula_sum "Si O2"
_cell_formula_units_Z 36
_cell_length_a 15.140258
_cell_length_b 4.902232
_cell_length_c 21.996602
_cell_angle_alpha 90.000000
_cell_angle_beta 90.000000
_cell_angle_gamma 90.000000
_cell_volume 1632.611056
_symmetry_space_group_name_H-M "P C C A"
_symmetry_group_IT_number 54
_symmetry_cell_setting 'orthorhombic'
loop_
_space_group_symop_operation_xyz
x,y,z
1/2-x,-y,z
1/2+x,-y,1/2-z
-x,y,1/2-z
-x,-y,-z
1/2+x,y,-z
1/2-x,y,1/2+z
x,-y,1/2+z
loop_
_atom_site_type_symbol
_atom_site_label
_atom_site_fract_x
_atom_site_fract_y
_atom_site_fract_z
Si Si1 0.487356 0.344911 0.435650
Si Si2 0.250000 0.000000 0.311990
Si Si3 0.750000 0.500000 0.771712
Si Si4 0.750000 0.000000 0.975240
Si Si5 0.126634 0.821354 0.919049
Si Si6 0.158746 0.372977 0.109933
O O1 0.500000 0.500000 0.500000
O O2 0.407356 0.518549 0.407969
O O3 0.575702 0.436309 0.401152
O O4 0.453068 0.034692 0.434960
O O5 0.279713 0.251994 0.270180
O O6 0.172364 0.084396 0.357486
O O7 0.821707 0.633620 0.818209
O O8 0.830086 0.898128 0.930575
O O9 0.695259 0.820090 0.024697
O O10 0.250000 0.500000 0.085315
#
# Coordination Sequence:
#
# PCOD9423611 Si02
#       6
#     8   4   4   4   8   8
#     4  12  23  42  62 105 139 162 210 273 338 401
#     4  11  23  50  66  90 133 175 232 258 320 383
#     4  10  24  44  68  90 122 186 220 272 304 392
#     4  11  21  40  62 100 129 175 210 266 340 405
#     4  11  26  39  69  96 133 173 213 269 331 390
#     4  10  24  38  68  91 132 169 219 263 335 384
#
# _framework density 22.050568999999999
#
# number of rings (size 3 to 8) (size 9 to 14) (size 15 to 20)
#    0.667    0.444    2.222    4.000    3.111    1.778 
#    0.000    6.667    0.000    0.000    0.000    0.000 
#    0.000    0.000    0.000    0.000    0.000    0.000 
#
# Total GULP energy -200565.069329 kJ/mol
# GULP energy per Si atom -5571.251926 kJ/mol
# Density = 2.200038 g / cm^3
# Si number density = 22.050569 Si / 1000 Ang^3
#
#
#
# Elastic Constant Matrix: (Units=GPa)
#
#
# Indices 1 2 3 4 5 6 
#
# 1 65.0517 4.0531 15.8989 0.0000 0.0000 0.0000
# 2 4.0531 87.4038 24.8854 0.0000 0.0000 0.0000
# 3 15.8989 24.8854 141.1955 0.0000 0.0000 0.0000
# 4 0.0000 0.0000 0.0000 24.8780 0.0000 0.0000
# 5 0.0000 0.0000 0.0000 0.0000 20.7227 0.0000
# 6 0.0000 0.0000 0.0000 0.0000 0.0000 37.8220
#
#
#
# Elastic Compliance Matrix: (Units=1/GPa)
#
#
# Indices 1 2 3 4 5 6 
#
# 1 0.015812 -0.000238 -0.001738 0.000000 0.000000 0.000000
# 2 -0.000238 0.012049 -0.002097 0.000000 0.000000 0.000000
# 3 -0.001738 -0.002097 0.007648 0.000000 0.000000 0.000000
# 4 0.000000 0.000000 0.000000 0.040196 0.000000 0.000000
# 5 0.000000 0.000000 0.000000 0.000000 0.048256 0.000000
# 6 0.000000 0.000000 0.000000 0.000000 0.000000 0.026440
#
#
# Mechanical properties :
#
#
# Convention : Reuss Voigt Hill
#
# Bulk Modulus (GPa) = 36.54716 42.59173 39.56945
# Shear Modulus (GPa) = 29.82070 33.27213 31.54642
#
# Velocity S-wave (km/s) = 3.68146 3.88867 3.78648
# Velocity P-wave (km/s) = 5.88906 6.28648 6.09101
#
# Compressibility (1/GPa) = 0.02736191
#
# Stress axis : x y z
#
# Youngs Moduli (GPa) = 63.24259 82.99310 130.75836
#
# Poissons Ratio (x) = 0.01977 0.22732
# Poissons Ratio (y) = 0.01507 0.27418
# Poissons Ratio (z) = 0.10995 0.17402
#
# Static dielectric constant tensor:
#      x y z
#    x 1.854730 0.000000 0.000000 
#    y 0.000000 2.343260 0.000000 
#    z 0.000000 0.000000 1.796790 
# 
# From -- ./inp_files/21382.got.cif
#   From: 2010.05.17/outbox.cif.g08.bks.cpg/sg54_11_cif.got.tgz:21382.got - 2010.06.03 13:09:01.
