data_PCOD9423285
_publ_section_title
;
Structure prediction by ZEFSAII (Michael W. Deem and Ramdas Pophale) SiO2 
 PCOD9423285
Probable space group: P C C A
;
_chemical_formula_sum "Si O2"
_cell_formula_units_Z 32
_cell_length_a 11.747850
_cell_length_b 12.395341
_cell_length_c 8.909646
_cell_angle_alpha 90.000000
_cell_angle_beta 90.000000
_cell_angle_gamma 90.000000
_cell_volume 1297.410237
_symmetry_space_group_name_H-M "P C C A"
_symmetry_group_IT_number 54
_symmetry_cell_setting 'orthorhombic'
loop_
_space_group_symop_operation_xyz
x,y,z
1/2-x,-y,z
1/2+x,-y,1/2-z
-x,y,1/2-z
-x,-y,-z
1/2+x,y,-z
1/2-x,y,1/2+z
x,-y,1/2+z
loop_
_atom_site_type_symbol
_atom_site_label
_atom_site_fract_x
_atom_site_fract_y
_atom_site_fract_z
Si Si1 0.500000 0.531615 0.250000
Si Si2 0.065915 0.859208 0.014443
Si Si3 0.331834 0.337453 0.212327
Si Si4 0.101761 0.307981 0.053735
Si Si5 0.000000 0.037529 0.250000
O O1 0.399595 0.450014 0.199372
O O2 0.501181 0.614291 0.108943
O O3 0.116332 0.758698 0.109053
O O4 0.099504 0.902629 0.849506
O O5 0.057860 0.956510 0.129963
O O6 0.944467 0.812591 0.955611
O O7 0.200687 0.335230 0.169540
O O8 0.348524 0.322500 0.389104
#
# Coordination Sequence:
#
# PCOD9423285 Si02
#       5
#     4   8   8   8   4
#     4  12  26  48  76 100 156 204 250 312 376 460
#     4  11  23  50  73 108 151 193 251 315 375 452
#     4  12  27  47  73 112 153 195 258 308 380 463
#     4  12  27  46  74 111 149 202 249 315 380 459
#     4  10  22  44  84 100 142 204 244 310 390 440
#
# _framework density 24.664518999999999
#
# number of rings (size 3 to 8) (size 9 to 14) (size 15 to 20)
#    0.000    0.500    5.000    2.250    7.000    2.000 
#    0.000    7.500    0.000    0.000    0.000    0.000 
#    0.000    0.000    0.000    0.000    0.000    0.000 
#
# Total GULP energy -178261.634610 kJ/mol
# GULP energy per Si atom -5570.676082 kJ/mol
# Density = 2.460838 g / cm^3
# Si number density = 24.664519 Si / 1000 Ang^3
#
#
#
# Elastic Constant Matrix: (Units=GPa)
#
#
# Indices 1 2 3 4 5 6 
#
# 1 65.6435 36.2799 40.5160 0.0000 0.0000 0.0000
# 2 36.2799 148.9041 71.4137 0.0000 0.0000 0.0000
# 3 40.5160 71.4137 168.2870 0.0000 0.0000 0.0000
# 4 0.0000 0.0000 0.0000 55.6540 0.0000 0.0000
# 5 0.0000 0.0000 0.0000 0.0000 57.6833 0.0000
# 6 0.0000 0.0000 0.0000 0.0000 0.0000 46.0132
#
#
#
# Elastic Compliance Matrix: (Units=1/GPa)
#
#
# Indices 1 2 3 4 5 6 
#
# 1 0.018933 -0.003047 -0.003265 0.000000 0.000000 0.000000
# 2 -0.003047 0.008922 -0.003053 0.000000 0.000000 0.000000
# 3 -0.003265 -0.003053 0.008024 0.000000 0.000000 0.000000
# 4 0.000000 0.000000 0.000000 0.017968 0.000000 0.000000
# 5 0.000000 0.000000 0.000000 0.000000 0.017336 0.000000
# 6 0.000000 0.000000 0.000000 0.000000 0.000000 0.021733
#
#
# Mechanical properties :
#
#
# Convention : Reuss Voigt Hill
#
# Bulk Modulus (GPa) = 58.31112 75.47265 66.89189
# Shear Modulus (GPa) = 42.60311 47.51174 45.05743
#
# Velocity S-wave (km/s) = 4.16059 4.39375 4.27876
# Velocity P-wave (km/s) = 6.83913 7.51040 7.18261
#
# Compressibility (1/GPa) = 0.01714939
#
# Stress axis : x y z
#
# Youngs Moduli (GPa) = 52.81731 112.08087 124.63013
#
# Poissons Ratio (x) = 0.34151 0.40695
# Poissons Ratio (y) = 0.16093 0.38044
# Poissons Ratio (z) = 0.17246 0.34214
#
# Static dielectric constant tensor:
#      x y z
#    x 2.048440 0.000000 0.000000 
#    y 0.000000 2.171410 0.000000 
#    z 0.000000 0.000000 2.023330 
# 
# From -- ./inp_files/2809.got.cif
#   From: 2010.05.17/outbox.cif.g08.bks.cpg/sg54_2_cif.got.tgz:2809.got - 2010.06.03 13:09:01.
