data_PCOD9423785
_publ_section_title
;
Structure prediction by ZEFSAII (Michael W. Deem and Ramdas Pophale) SiO2 
 PCOD9423785
Probable space group: P C C A
;
_chemical_formula_sum "Si O2"
_cell_formula_units_Z 64
_cell_length_a 16.076835
_cell_length_b 11.071797
_cell_length_c 17.237992
_cell_angle_alpha 90.000000
_cell_angle_beta 90.000000
_cell_angle_gamma 90.000000
_cell_volume 3068.353156
_symmetry_space_group_name_H-M "P C C A"
_symmetry_group_IT_number 54
_symmetry_cell_setting 'orthorhombic'
loop_
_space_group_symop_operation_xyz
x,y,z
1/2-x,-y,z
1/2+x,-y,1/2-z
-x,y,1/2-z
-x,-y,-z
1/2+x,y,-z
1/2-x,y,1/2+z
x,-y,1/2+z
loop_
_atom_site_type_symbol
_atom_site_label
_atom_site_fract_x
_atom_site_fract_y
_atom_site_fract_z
Si Si1 0.934419 0.770222 0.186433
Si Si2 0.572843 0.210451 0.589661
Si Si3 0.917193 0.890571 0.851696
Si Si4 0.251560 0.770067 0.604296
Si Si5 0.781845 0.636698 0.231989
Si Si6 0.845290 0.018532 0.192056
Si Si7 0.720056 0.362270 0.560728
Si Si8 0.060698 0.853717 0.082500
O O1 0.880403 0.662578 0.222522
O O2 0.000000 0.812764 0.250000
O O3 0.996027 0.754024 0.114752
O O4 0.877004 0.885617 0.170785
O O5 0.488439 0.210930 0.639477
O O6 0.638506 0.115687 0.625608
O O7 0.621778 0.334162 0.571353
O O8 0.550013 0.154013 0.507934
O O9 0.830868 0.852592 0.892918
O O10 0.893712 0.925481 0.764706
O O11 0.956404 0.012617 0.886548
O O12 0.250851 0.699817 0.688088
O O13 0.252045 0.700434 0.520658
O O14 0.342979 0.830784 0.605084
O O15 0.750000 0.500000 0.237396
O O16 0.753276 0.679920 0.145723
O O17 0.750000 0.000000 0.213998
O O18 0.750000 0.500000 0.554381
#
# Coordination Sequence:
#
# PCOD9423785 Si02
#       8
#     8   8   8   8   8   8   8   8
#     4  12  21  40  68  98 131 177 218 274 334 413
#     4  11  24  39  62  96 134 173 223 279 335 404
#     4  12  22  38  60 100 138 172 214 276 337 412
#     4  11  23  41  68  95 134 173 222 279 341 402
#     4  11  24  44  69  92 126 173 231 277 330 395
#     4  12  23  38  64  98 141 186 214 264 345 414
#     4  10  24  46  66  90 129 175 232 285 338 405
#     4  11  23  39  62 100 136 174 217 268 342 417
#
# _framework density 20.858096
#
# number of rings (size 3 to 8) (size 9 to 14) (size 15 to 20)
#    0.000    0.750    3.750    4.500    1.750    2.000 
#    0.000    3.125    0.000    0.000    0.000    0.000 
#    0.000    0.000    0.000    0.000    0.000    0.000 
#
# Total GULP energy -356655.309468 kJ/mol
# GULP energy per Si atom -5572.739210 kJ/mol
# Density = 2.081062 g / cm^3
# Si number density = 20.858096 Si / 1000 Ang^3
#
#
#
# Elastic Constant Matrix: (Units=GPa)
#
#
# Indices 1 2 3 4 5 6 
#
# 1 100.7109 33.3848 9.1869 0.0000 0.0000 0.0000
# 2 33.3848 60.1934 13.4689 0.0000 0.0000 0.0000
# 3 9.1869 13.4689 130.2039 0.0000 0.0000 0.0000
# 4 0.0000 0.0000 0.0000 5.9998 0.0000 0.0000
# 5 0.0000 0.0000 0.0000 0.0000 26.0034 0.0000
# 6 0.0000 0.0000 0.0000 0.0000 0.0000 26.6920
#
#
#
# Elastic Compliance Matrix: (Units=1/GPa)
#
#
# Indices 1 2 3 4 5 6 
#
# 1 0.012170 -0.006713 -0.000164 0.000000 0.000000 0.000000
# 2 -0.006713 0.020710 -0.001669 0.000000 0.000000 0.000000
# 3 -0.000164 -0.001669 0.007864 0.000000 0.000000 0.000000
# 4 0.000000 0.000000 0.000000 0.166671 0.000000 0.000000
# 5 0.000000 0.000000 0.000000 0.000000 0.038457 0.000000
# 6 0.000000 0.000000 0.000000 0.000000 0.000000 0.037464
#
#
# Mechanical properties :
#
#
# Convention : Reuss Voigt Hill
#
# Bulk Modulus (GPa) = 42.27936 44.79884 43.53910
# Shear Modulus (GPa) = 16.21737 27.41023 21.81380
#
# Velocity S-wave (km/s) = 2.79141 3.62902 3.23742
# Velocity P-wave (km/s) = 5.54106 6.25174 5.90710
#
# Compressibility (1/GPa) = 0.02365220
#
# Stress axis : x y z
#
# Youngs Moduli (GPa) = 82.17169 48.28677 127.15426
#
# Poissons Ratio (x) = 0.32414 0.02089
# Poissons Ratio (y) = 0.55161 0.21218
# Poissons Ratio (z) = 0.01350 0.08057
#
# Static dielectric constant tensor:
#      x y z
#    x 1.942900 0.000000 0.000000 
#    y 0.000000 1.740420 0.000000 
#    z 0.000000 0.000000 1.877900 
# 
# From -- ./inp_files/18256.got.cif
#   From: 2010.05.17/outbox.cif.g08.bks.cpg/sg54_10_cif.got.tgz:18256.got - 2010.06.03 13:09:01.
