data_PCOD9423448
_publ_section_title
;
Structure prediction by ZEFSAII (Michael W. Deem and Ramdas Pophale) SiO2 
 PCOD9423448
Probable space group: P C C A
;
_chemical_formula_sum "Si O2"
_cell_formula_units_Z 24
_cell_length_a 5.273388
_cell_length_b 14.045912
_cell_length_c 13.840991
_cell_angle_alpha 90.000000
_cell_angle_beta 90.000000
_cell_angle_gamma 90.000000
_cell_volume 1025.195889
_symmetry_space_group_name_H-M "P C C A"
_symmetry_group_IT_number 54
_symmetry_cell_setting 'orthorhombic'
loop_
_space_group_symop_operation_xyz
x,y,z
1/2-x,-y,z
1/2+x,-y,1/2-z
-x,y,1/2-z
-x,-y,-z
1/2+x,y,-z
1/2-x,y,1/2+z
x,-y,1/2+z
loop_
_atom_site_type_symbol
_atom_site_label
_atom_site_fract_x
_atom_site_fract_y
_atom_site_fract_z
Si Si1 0.791652 0.885823 0.553171
Si Si2 0.500000 0.668841 0.750000
Si Si3 0.500000 0.204643 0.750000
Si Si4 0.519204 0.392956 0.041037
O O1 0.506095 0.854538 0.524832
O O2 0.907092 0.854813 0.656499
O O3 0.750000 0.000000 0.553529
O O4 0.751746 0.730813 0.769773
O O5 0.455166 0.606965 0.844994
O O6 0.500000 0.500000 0.000000
O O7 0.262777 0.345315 0.005409
#
# Coordination Sequence:
#
# PCOD9423448 Si02
#       4
#     8   4   4   8
#     4  10  23  43  67  95 130 175 221 262 317 395
#     4  12  26  41  63 100 132 170 222 278 342 393
#     4  12  26  41  67 100 138 172 214 282 340 391
#     4  10  23  42  66  91 124 170 219 274 330 400
#
# _framework density 23.410157000000002
#
# number of rings (size 3 to 8) (size 9 to 14) (size 15 to 20)
#    0.000    1.333    0.000    4.000    0.000   18.667 
#    0.000    0.000    0.000    0.000    0.000    0.000 
#    0.000    0.000    0.000    0.000    0.000    0.000 
#
# Total GULP energy -134174.741968 kJ/mol
# GULP energy per Si atom -5590.614249 kJ/mol
# Density = 2.335687 g / cm^3
# Si number density = 23.410157 Si / 1000 Ang^3
#
#
#
# Elastic Constant Matrix: (Units=GPa)
#
#
# Indices 1 2 3 4 5 6 
#
# 1 218.5700 64.8022 72.4010 0.0000 0.0000 0.0000
# 2 64.8022 94.4191 41.3178 0.0000 0.0000 0.0000
# 3 72.4010 41.3178 206.1951 0.0000 0.0000 0.0000
# 4 0.0000 0.0000 0.0000 24.5528 0.0000 0.0000
# 5 0.0000 0.0000 0.0000 0.0000 44.5727 0.0000
# 6 0.0000 0.0000 0.0000 0.0000 0.0000 -39.4877
#
#
#
# Elastic Compliance Matrix: (Units=1/GPa)
#
#
# Indices 1 2 3 4 5 6 
#
# 1 0.006106 -0.003565 -0.001430 0.000000 0.000000 0.000000
# 2 -0.003565 0.013690 -0.001492 0.000000 0.000000 0.000000
# 3 -0.001430 -0.001492 0.005651 0.000000 0.000000 0.000000
# 4 0.000000 0.000000 0.000000 0.040729 0.000000 0.000000
# 5 0.000000 0.000000 0.000000 0.000000 0.022435 0.000000
# 6 0.000000 0.000000 0.000000 0.000000 0.000000 -0.025324
#
#
# Mechanical properties :
#
#
# Convention : Reuss Voigt Hill
#
# Bulk Modulus (GPa) = 80.16216 97.35846 88.76031
# Shear Modulus (GPa) = 62.17626 28.63843 45.40734
#
# Velocity S-wave (km/s) = 5.15918 3.50141 4.40892
# Velocity P-wave (km/s) = 8.35502 7.61741 7.99473
#
# Compressibility (1/GPa) = 0.01247471
#
# Stress axis : x y z
#
# Youngs Moduli (GPa) = 163.78260 73.04341 176.97204
#
# Poissons Ratio (x) = 0.26039 0.25299
# Poissons Ratio (y) = 0.58387 0.26397
# Poissons Ratio (z) = 0.23413 0.10895
#
# Static dielectric constant tensor:
#      x y z
#    x 1.898920 0.000000 0.000000 
#    y 0.000000 1.987610 0.000000 
#    z 0.000000 0.000000 1.887910 
# 
# From -- ./inp_files/6199.got.cif
#   From: 2010.05.17/outbox.cif.g08.bks.cpg/sg54_4_cif.got.tgz:6199.got - 2010.06.03 13:09:01.
