data_PCOD9423382
_publ_section_title
;
Structure prediction by ZEFSAII (Michael W. Deem and Ramdas Pophale) SiO2 
 PCOD9423382
Probable space group: P C C A
;
_chemical_formula_sum "Si O2"
_cell_formula_units_Z 32
_cell_length_a 7.385197
_cell_length_b 7.127157
_cell_length_c 26.701213
_cell_angle_alpha 90.000000
_cell_angle_beta 90.000000
_cell_angle_gamma 90.000000
_cell_volume 1405.430589
_symmetry_space_group_name_H-M "P C C A"
_symmetry_group_IT_number 54
_symmetry_cell_setting 'orthorhombic'
loop_
_space_group_symop_operation_xyz
x,y,z
1/2-x,-y,z
1/2+x,-y,1/2-z
-x,y,1/2-z
-x,-y,-z
1/2+x,y,-z
1/2-x,y,1/2+z
x,-y,1/2+z
loop_
_atom_site_type_symbol
_atom_site_label
_atom_site_fract_x
_atom_site_fract_y
_atom_site_fract_z
Si Si1 0.198115 0.711272 0.595554
Si Si2 0.594981 0.854211 0.297545
Si Si3 0.212480 0.279499 0.437715
Si Si4 0.750000 0.000000 0.147375
Si Si5 0.250000 0.000000 0.026358
O O1 0.250000 0.500000 0.584830
O O2 0.173857 0.739671 0.655061
O O3 0.332902 0.857990 0.568748
O O4 0.004440 0.751450 0.568821
O O5 0.500000 0.752409 0.250000
O O6 0.428851 0.968421 0.321033
O O7 0.750000 0.000000 0.281531
O O8 0.250000 0.500000 0.441415
O O9 0.281410 0.182206 0.387209
O O10 0.287343 0.162105 0.484587
#
# Coordination Sequence:
#
# PCOD9423382 Si02
#       5
#     8   8   8   4   4
#     4  11  25  41  65  98 135 170 222 272 331 397
#     4  11  22  43  71  97 128 173 225 278 337 394
#     4  10  23  40  64  96 135 176 217 267 327 392
#     4   9  22  41  64  98 136 175 218 271 334 398
#     4  11  22  41  66  96 132 179 226 263 322 398
#
# _framework density 22.768823000000001
#
# number of rings (size 3 to 8) (size 9 to 14) (size 15 to 20)
#    0.000    1.500    2.500    1.500    3.500    6.000 
#    0.000    6.250    0.000    0.000    0.000    0.000 
#    0.000    0.000    0.000    0.000    0.000    0.000 
#
# Total GULP energy -178195.500763 kJ/mol
# GULP energy per Si atom -5568.609399 kJ/mol
# Density = 2.271700 g / cm^3
# Si number density = 22.768823 Si / 1000 Ang^3
#
#
#
# Elastic Constant Matrix: (Units=GPa)
#
#
# Indices 1 2 3 4 5 6 
#
# 1 86.8174 13.7355 28.9516 0.0000 0.0000 0.0000
# 2 13.7355 176.7147 51.6483 0.0000 0.0000 0.0000
# 3 28.9516 51.6483 155.0411 0.0000 0.0000 0.0000
# 4 0.0000 0.0000 0.0000 75.5143 0.0000 0.0000
# 5 0.0000 0.0000 0.0000 0.0000 -5.3742 0.0000
# 6 0.0000 0.0000 0.0000 0.0000 0.0000 14.4413
#
#
#
# Elastic Compliance Matrix: (Units=1/GPa)
#
#
# Indices 1 2 3 4 5 6 
#
# 1 0.012299 -0.000315 -0.002192 0.000000 0.000000 0.000000
# 2 -0.000315 0.006277 -0.002032 0.000000 0.000000 0.000000
# 3 -0.002192 -0.002032 0.007536 0.000000 0.000000 0.000000
# 4 0.000000 0.000000 0.000000 0.013243 0.000000 0.000000
# 5 0.000000 0.000000 0.000000 0.000000 -0.186075 0.000000
# 6 0.000000 0.000000 0.000000 0.000000 0.000000 0.069246
#
#
# Mechanical properties :
#
#
# Convention : Reuss Voigt Hill
#
# Bulk Modulus (GPa) = 58.70586 67.47157 63.08871
# Shear Modulus (GPa) = -79.72282 38.53214 -20.59534
#
# Velocity S-wave (km/s) = -5.92368 4.11825 -3.01082
# Velocity P-wave (km/s) = 4.57682 7.23263 3.96002
#
# Compressibility (1/GPa) = 0.01703408
#
# Stress axis : x y z
#
# Youngs Moduli (GPa) = 81.30619 159.30376 132.69389
#
# Poissons Ratio (x) = 0.05025 0.29081
# Poissons Ratio (y) = 0.02565 0.26967
# Poissons Ratio (z) = 0.17819 0.32374
#
# Static dielectric constant tensor:
#      x y z
#    x 2.132840 0.000000 0.000000 
#    y 0.000000 1.882300 0.000000 
#    z 0.000000 0.000000 1.865930 
# 
# From -- ./inp_files/27436.got.cif
#   From: 2010.05.17/outbox.cif.g08.bks.cpg/sg54_14_cif.got.tgz:27436.got - 2010.06.03 13:09:01.
