data_PCOD9423720
_publ_section_title
;
Structure prediction by ZEFSAII (Michael W. Deem and Ramdas Pophale) SiO2 
 PCOD9423720
Probable space group: P C C A
;
_chemical_formula_sum "Si O2"
_cell_formula_units_Z 56
_cell_length_a 20.935289
_cell_length_b 9.521891
_cell_length_c 14.242000
_cell_angle_alpha 90.000000
_cell_angle_beta 90.000000
_cell_angle_gamma 90.000000
_cell_volume 2839.050695
_symmetry_space_group_name_H-M "P C C A"
_symmetry_group_IT_number 54
_symmetry_cell_setting 'orthorhombic'
loop_
_space_group_symop_operation_xyz
x,y,z
1/2-x,-y,z
1/2+x,-y,1/2-z
-x,y,1/2-z
-x,-y,-z
1/2+x,y,-z
1/2-x,y,1/2+z
x,-y,1/2+z
loop_
_atom_site_type_symbol
_atom_site_label
_atom_site_fract_x
_atom_site_fract_y
_atom_site_fract_z
Si Si1 0.430112 0.205677 0.794642
Si Si2 0.001593 0.598293 0.092405
Si Si3 0.447590 0.880034 0.507156
Si Si4 0.303412 0.117170 0.014955
Si Si5 0.221625 0.351607 0.668218
Si Si6 0.703442 0.869523 0.209484
Si Si7 0.903670 0.527629 0.240282
O O1 0.500000 0.186167 0.750000
O O2 0.371077 0.106572 0.763673
O O3 0.403082 0.361939 0.779297
O O4 0.440155 0.185323 0.904360
O O5 0.026004 0.754045 0.070415
O O6 0.050191 0.538134 0.169458
O O7 0.934673 0.597318 0.147834
O O8 0.000000 0.500000 0.000000
O O9 0.376429 0.932333 0.532736
O O10 0.500000 0.000000 0.500000
O O11 0.294514 0.253121 0.080010
O O12 0.250000 0.000000 0.037320
O O13 0.295948 0.151208 0.903767
O O14 0.250000 0.500000 0.635602
O O15 0.268936 0.262416 0.734037
O O16 0.160615 0.395327 0.730195
O O17 0.750000 0.000000 0.229843
#
# Coordination Sequence:
#
# PCOD9423720 Si02
#       7
#     8   8   8   8   8   8   8
#     4  11  21  42  68  96 130 171 222 277 335 397
#     4  11  21  42  68  95 139 171 215 279 329 393
#     4  11  24  43  66  99 133 178 225 269 339 408
#     4  10  24  47  65  93 137 178 225 279 330 401
#     4  12  24  42  68  99 131 173 228 275 334 402
#     4  10  24  44  67  94 134 177 220 275 338 404
#     4  11  22  39  67 101 130 168 224 272 332 391
#
# _framework density 19.724902
#
# number of rings (size 3 to 8) (size 9 to 14) (size 15 to 20)
#    0.000    1.143    5.714    0.429    0.000    6.286 
#    7.714    0.000    0.000    0.000    0.000    0.000 
#    0.000    0.000    0.000    0.000    0.000    0.000 
#
# Total GULP energy -312603.690798 kJ/mol
# GULP energy per Si atom -5582.208764 kJ/mol
# Density = 1.968001 g / cm^3
# Si number density = 19.724902 Si / 1000 Ang^3
#
#
#
# Elastic Constant Matrix: (Units=GPa)
#
#
# Indices 1 2 3 4 5 6 
#
# 1 161.8709 60.9023 41.9522 0.0000 0.0000 0.0000
# 2 60.9023 112.0516 39.3239 0.0000 0.0000 0.0000
# 3 41.9522 39.3239 82.6646 0.0000 0.0000 0.0000
# 4 0.0000 0.0000 0.0000 33.2568 0.0000 0.0000
# 5 0.0000 0.0000 0.0000 0.0000 3.5476 0.0000
# 6 0.0000 0.0000 0.0000 0.0000 0.0000 34.6093
#
#
#
# Elastic Compliance Matrix: (Units=1/GPa)
#
#
# Indices 1 2 3 4 5 6 
#
# 1 0.008155 -0.003577 -0.002437 0.000000 0.000000 0.000000
# 2 -0.003577 0.012282 -0.004027 0.000000 0.000000 0.000000
# 3 -0.002437 -0.004027 0.015250 0.000000 0.000000 0.000000
# 4 0.000000 0.000000 0.000000 0.030069 0.000000 0.000000
# 5 0.000000 0.000000 0.000000 0.000000 0.281880 0.000000
# 6 0.000000 0.000000 0.000000 0.000000 0.000000 0.028894
#
#
# Mechanical properties :
#
#
# Convention : Reuss Voigt Hill
#
# Bulk Modulus (GPa) = 64.08631 71.21598 67.65114
# Shear Modulus (GPa) = 12.44357 28.57666 20.51011
#
# Velocity S-wave (km/s) = 2.51441 3.81039 3.22810
# Velocity P-wave (km/s) = 6.40236 7.45263 6.94737
#
# Compressibility (1/GPa) = 0.01560396
#
# Stress axis : x y z
#
# Youngs Moduli (GPa) = 122.61961 81.41931 65.57540
#
# Poissons Ratio (x) = 0.29126 0.15981
# Poissons Ratio (y) = 0.43865 0.26408
# Poissons Ratio (z) = 0.29883 0.32789
#
# Static dielectric constant tensor:
#      x y z
#    x 1.737250 0.000000 0.000000 
#    y 0.000000 1.539250 0.000000 
#    z 0.000000 0.000000 1.675700 
# 
# From -- ./inp_files/14698.got.cif
#   From: 2010.05.17/outbox.cif.g08.bks.cpg/sg54_8_cif.got.tgz:14698.got - 2010.06.03 13:09:01.
