data_PCOD9423392
_publ_section_title
;
Structure prediction by ZEFSAII (Michael W. Deem and Ramdas Pophale) SiO2 
 PCOD9423392
Probable space group: P C C A
;
_chemical_formula_sum "Si O2"
_cell_formula_units_Z 32
_cell_length_a 8.832978
_cell_length_b 14.224753
_cell_length_c 11.495627
_cell_angle_alpha 90.000000
_cell_angle_beta 90.000000
_cell_angle_gamma 90.000000
_cell_volume 1444.390244
_symmetry_space_group_name_H-M "P C C A"
_symmetry_group_IT_number 54
_symmetry_cell_setting 'orthorhombic'
loop_
_space_group_symop_operation_xyz
x,y,z
1/2-x,-y,z
1/2+x,-y,1/2-z
-x,y,1/2-z
-x,-y,-z
1/2+x,y,-z
1/2-x,y,1/2+z
x,-y,1/2+z
loop_
_atom_site_type_symbol
_atom_site_label
_atom_site_fract_x
_atom_site_fract_y
_atom_site_fract_z
Si Si1 0.881311 0.374519 0.908790
Si Si2 0.181446 0.103640 0.895213
Si Si3 0.534965 0.578489 0.373692
Si Si4 0.156708 0.165040 0.633378
O O1 0.984639 0.464699 0.874126
O O2 0.708150 0.403523 0.900519
O O3 0.895980 0.273410 0.854008
O O4 0.924937 0.367965 0.042012
O O5 0.222930 0.138315 0.761797
O O6 0.997977 0.107434 0.891934
O O7 0.250000 0.000000 0.905252
O O8 0.239693 0.155184 0.015576
O O9 0.500000 0.616924 0.250000
#
# Coordination Sequence:
#
# PCOD9423392 Si02
#       4
#     8   8   8   8
#     4  10  23  42  62 102 131 183 232 272 348 398
#     4  11  25  45  69 102 135 179 225 291 358 413
#     4  10  23  40  67  93 143 182 223 286 335 416
#     4  11  25  44  73 101 138 179 231 291 336 436
#
# _framework density 22.154677
#
# number of rings (size 3 to 8) (size 9 to 14) (size 15 to 20)
#    0.000    1.500    0.000    3.000    7.000   11.000 
#    0.000    0.000    0.000    0.000    0.000    0.000 
#    0.000    0.000    0.000    0.000    0.000    0.000 
#
# Total GULP energy -178283.384004 kJ/mol
# GULP energy per Si atom -5571.355750 kJ/mol
# Density = 2.210425 g / cm^3
# Si number density = 22.154677 Si / 1000 Ang^3
#
#
#
# Elastic Constant Matrix: (Units=GPa)
#
#
# Indices 1 2 3 4 5 6 
#
# 1 58.7048 -1.3624 32.8828 0.0000 0.0000 0.0000
# 2 -1.3624 100.5590 4.8775 0.0000 0.0000 0.0000
# 3 32.8828 4.8775 186.1892 0.0000 0.0000 0.0000
# 4 0.0000 0.0000 0.0000 -90.6100 0.0000 0.0000
# 5 0.0000 0.0000 0.0000 0.0000 66.0292 0.0000
# 6 0.0000 0.0000 0.0000 0.0000 0.0000 14.3824
#
#
#
# Elastic Compliance Matrix: (Units=1/GPa)
#
#
# Indices 1 2 3 4 5 6 
#
# 1 0.018922 0.000419 -0.003353 0.000000 0.000000 0.000000
# 2 0.000419 0.009966 -0.000335 0.000000 0.000000 0.000000
# 3 -0.003353 -0.000335 0.005972 0.000000 0.000000 0.000000
# 4 0.000000 0.000000 0.000000 -0.011036 0.000000 0.000000
# 5 0.000000 0.000000 0.000000 0.000000 0.015145 0.000000
# 6 0.000000 0.000000 0.000000 0.000000 0.000000 0.069529
#
#
# Mechanical properties :
#
#
# Convention : Reuss Voigt Hill
#
# Bulk Modulus (GPa) = 35.30765 46.47210 40.88988
# Shear Modulus (GPa) = 40.16814 18.56400 29.36607
#
# Velocity S-wave (km/s) = 4.26264 2.89784 3.64469
# Velocity P-wave (km/s) = 6.34021 5.67612 6.01734
#
# Compressibility (1/GPa) = 0.02832247
#
# Stress axis : x y z
#
# Youngs Moduli (GPa) = 52.84814 100.33773 167.45376
#
# Poissons Ratio (x) = -0.04204 0.56144
# Poissons Ratio (y) = -0.02214 0.05611
# Poissons Ratio (z) = 0.17719 0.03362
#
# Static dielectric constant tensor:
#      x y z
#    x 1.872850 0.000000 0.000000 
#    y 0.000000 1.911740 0.000000 
#    z 0.000000 0.000000 1.878390 
# 
# From -- ./inp_files/6725.got.cif
#   From: 2010.05.17/outbox.cif.g08.bks.cpg/sg54_4_cif.got.tgz:6725.got - 2010.06.03 13:09:01.
