data_PCOD9423316
_publ_section_title
;
Structure prediction by ZEFSAII (Michael W. Deem and Ramdas Pophale) SiO2 
 PCOD9423316
Probable space group: P C C A
;
_chemical_formula_sum "Si O2"
_cell_formula_units_Z 40
_cell_length_a 9.172991
_cell_length_b 15.073672
_cell_length_c 13.941559
_cell_angle_alpha 90.000000
_cell_angle_beta 90.000000
_cell_angle_gamma 90.000000
_cell_volume 1927.708531
_symmetry_space_group_name_H-M "P C C A"
_symmetry_group_IT_number 54
_symmetry_cell_setting 'orthorhombic'
loop_
_space_group_symop_operation_xyz
x,y,z
1/2-x,-y,z
1/2+x,-y,1/2-z
-x,y,1/2-z
-x,-y,-z
1/2+x,y,-z
1/2-x,y,1/2+z
x,-y,1/2+z
loop_
_atom_site_type_symbol
_atom_site_label
_atom_site_fract_x
_atom_site_fract_y
_atom_site_fract_z
Si Si1 0.000000 0.597594 0.750000
Si Si2 0.000000 0.880783 0.750000
Si Si3 0.402240 0.471249 0.411994
Si Si4 0.348298 0.739073 0.115729
Si Si5 0.000774 0.273176 0.909479
Si Si6 0.500000 0.132238 0.250000
Si Si7 0.750000 0.000000 0.237905
O O1 0.085113 0.534319 0.820988
O O2 0.102843 0.657619 0.683343
O O3 0.906493 0.822849 0.823773
O O4 0.123628 0.937744 0.807084
O O5 0.250000 0.500000 0.454698
O O6 0.500000 0.500000 0.500000
O O7 0.437758 0.370519 0.382778
O O8 0.175687 0.731858 0.095373
O O9 0.436435 0.739958 0.016033
O O10 0.051805 0.196901 0.835534
O O11 0.635319 0.070410 0.284722
#
# Coordination Sequence:
#
# PCOD9423316 Si02
#       7
#     4   4   8   8   8   4   4
#     4  11  27  43  69  96 144 188 233 295 343 407
#     4  10  22  46  70 104 142 184 232 298 364 434
#     4  12  27  44  70 103 146 188 243 294 346 421
#     4  11  26  44  71 102 142 183 243 291 356 427
#     4  12  26  45  71 105 143 190 242 292 363 433
#     4  11  25  45  77 100 146 190 241 305 375 441
#     4  10  22  46  74 102 142 186 238 302 374 450
#
# _framework density 20.750024
#
# number of rings (size 3 to 8) (size 9 to 14) (size 15 to 20)
#    0.000    0.800    4.000    1.800    8.400    0.000 
#    0.000    6.000    0.000    0.000    0.000    0.000 
#    0.000    0.000    0.000    0.000    0.000    0.000 
#
# Total GULP energy -222846.331966 kJ/mol
# GULP energy per Si atom -5571.158299 kJ/mol
# Density = 2.070280 g / cm^3
# Si number density = 20.750024 Si / 1000 Ang^3
#
#
#
# Elastic Constant Matrix: (Units=GPa)
#
#
# Indices 1 2 3 4 5 6 
#
# 1 173.7579 56.5951 30.7453 0.0000 0.0000 0.0000
# 2 56.5951 136.8583 39.6464 0.0000 0.0000 0.0000
# 3 30.7453 39.6464 104.4087 0.0000 0.0000 0.0000
# 4 0.0000 0.0000 0.0000 3.4417 0.0000 0.0000
# 5 0.0000 0.0000 0.0000 0.0000 -98.5420 0.0000
# 6 0.0000 0.0000 0.0000 0.0000 0.0000 34.0122
#
#
#
# Elastic Compliance Matrix: (Units=1/GPa)
#
#
# Indices 1 2 3 4 5 6 
#
# 1 0.006750 -0.002490 -0.001042 0.000000 0.000000 0.000000
# 2 -0.002490 0.009128 -0.002733 0.000000 0.000000 0.000000
# 3 -0.001042 -0.002733 0.010923 0.000000 0.000000 0.000000
# 4 0.000000 0.000000 0.000000 0.290551 0.000000 0.000000
# 5 0.000000 0.000000 0.000000 0.000000 -0.010148 0.000000
# 6 0.000000 0.000000 0.000000 0.000000 0.000000 0.029401
#
#
# Mechanical properties :
#
#
# Convention : Reuss Voigt Hill
#
# Bulk Modulus (GPa) = 70.07247 74.33318 72.20282
# Shear Modulus (GPa) = 14.12860 6.98491 10.55676
#
# Velocity S-wave (km/s) = 2.61223 1.83672 2.25802
# Velocity P-wave (km/s) = 6.55297 6.35602 6.45525
#
# Compressibility (1/GPa) = 0.01427094
#
# Stress axis : x y z
#
# Youngs Moduli (GPa) = 148.13789 109.55229 91.55385
#
# Poissons Ratio (x) = 0.27273 0.09544
# Poissons Ratio (y) = 0.36879 0.25022
# Poissons Ratio (z) = 0.15443 0.29941
#
# Static dielectric constant tensor:
#      x y z
#    x 1.735760 0.000000 0.000000 
#    y 0.000000 1.788650 0.000000 
#    z 0.000000 0.000000 1.658840 
# 
# From -- ./inp_files/11581.got.cif
#   From: 2010.05.17/outbox.cif.g08.bks.cpg/sg54_6_cif.got.tgz:11581.got - 2010.06.03 13:09:01.
