data_PCOD9423894
_publ_section_title
;
Structure prediction by ZEFSAII (Michael W. Deem and Ramdas Pophale) SiO2 
 PCOD9423894
Probable space group: P C C A
;
_chemical_formula_sum "Si O2"
_cell_formula_units_Z 32
_cell_length_a 23.639387
_cell_length_b 4.894375
_cell_length_c 10.094442
_cell_angle_alpha 90.000000
_cell_angle_beta 90.000000
_cell_angle_gamma 90.000000
_cell_volume 1167.927189
_symmetry_space_group_name_H-M "P C C A"
_symmetry_group_IT_number 54
_symmetry_cell_setting 'orthorhombic'
loop_
_space_group_symop_operation_xyz
x,y,z
1/2-x,-y,z
1/2+x,-y,1/2-z
-x,y,1/2-z
-x,-y,-z
1/2+x,y,-z
1/2-x,y,1/2+z
x,-y,1/2+z
loop_
_atom_site_type_symbol
_atom_site_label
_atom_site_fract_x
_atom_site_fract_y
_atom_site_fract_z
Si Si1 0.311407 0.928110 0.490538
Si Si2 0.811996 0.429106 0.329520
Si Si3 0.000000 0.500000 0.500000
Si Si4 0.901316 0.251654 0.665044
Si Si5 0.500000 0.913603 0.250000
O O1 0.314939 0.119865 0.621345
O O2 0.360544 0.024232 0.395749
O O3 0.250000 0.000000 0.432411
O O4 0.314522 0.618957 0.538801
O O5 0.750000 0.500000 0.271381
O O6 0.863015 0.528720 0.239531
O O7 0.060294 0.633079 0.452355
O O8 0.994369 0.726739 0.621891
O O9 0.946575 0.116819 0.765715
#
# Coordination Sequence:
#
# PCOD9423894 Si02
#       5
#     8   8   4   8   4
#     4  10  25  47  78 116 161 213 281 353 433 509
#     4  10  25  48  76 117 160 214 277 355 429 512
#     4  12  30  52  82 118 172 226 294 356 432 522
#     4  12  28  48  82 117 173 222 289 356 441 524
#     4  12  30  54  80 128 168 236 292 366 430 536
#
# _framework density 27.398965
#
# number of rings (size 3 to 8) (size 9 to 14) (size 15 to 20)
#    0.000    1.000    0.000    3.000   14.000    6.000 
#    0.000    0.000    0.000    0.000    0.000    0.000 
#    0.000    0.000    0.000    0.000    0.000    0.000 
#
# Total GULP energy -178958.897173 kJ/mol
# GULP energy per Si atom -5592.465537 kJ/mol
# Density = 2.733660 g / cm^3
# Si number density = 27.398965 Si / 1000 Ang^3
#
#
#
# Elastic Constant Matrix: (Units=GPa)
#
#
# Indices 1 2 3 4 5 6 
#
# 1 188.4253 43.1625 42.7917 0.0000 0.0000 0.0000
# 2 43.1625 102.5959 38.4316 0.0000 0.0000 0.0000
# 3 42.7917 38.4316 59.8070 0.0000 0.0000 0.0000
# 4 0.0000 0.0000 0.0000 168.0491 0.0000 0.0000
# 5 0.0000 0.0000 0.0000 0.0000 51.4392 0.0000
# 6 0.0000 0.0000 0.0000 0.0000 0.0000 55.1416
#
#
#
# Elastic Compliance Matrix: (Units=1/GPa)
#
#
# Indices 1 2 3 4 5 6 
#
# 1 0.006466 -0.001300 -0.003791 0.000000 0.000000 0.000000
# 2 -0.001300 0.013098 -0.007487 0.000000 0.000000 0.000000
# 3 -0.003791 -0.007487 0.024244 0.000000 0.000000 0.000000
# 4 0.000000 0.000000 0.000000 0.005951 0.000000 0.000000
# 5 0.000000 0.000000 0.000000 0.000000 0.019440 0.000000
# 6 0.000000 0.000000 0.000000 0.000000 0.000000 0.018135
#
#
# Mechanical properties :
#
#
# Convention : Reuss Voigt Hill
#
# Bulk Modulus (GPa) = 53.61192 66.62221 60.11706
# Shear Modulus (GPa) = 42.12051 70.02216 56.07133
#
# Velocity S-wave (km/s) = 3.92510 5.06083 4.52871
# Velocity P-wave (km/s) = 6.33652 7.64969 7.02386
#
# Compressibility (1/GPa) = 0.01865257
#
# Stress axis : x y z
#
# Youngs Moduli (GPa) = 154.65791 76.34507 41.24794
#
# Poissons Ratio (x) = 0.09926 0.15636
# Poissons Ratio (y) = 0.20109 0.30881
# Poissons Ratio (z) = 0.58628 0.57157
#
# Static dielectric constant tensor:
#      x y z
#    x 2.061000 0.000000 0.000000 
#    y 0.000000 2.100950 0.000000 
#    z 0.000000 0.000000 2.252060 
# 
# From -- ./inp_files/9294.got.cif
#   From: 2010.05.17/outbox.cif.g08.bks.cpg/sg54_5_cif.got.tgz:9294.got - 2010.06.03 13:09:01.
