data_PCOD9423191
_publ_section_title
;
Structure prediction by ZEFSAII (Michael W. Deem and Ramdas Pophale) SiO2 
 PCOD9423191
Probable space group: P C C A
;
_chemical_formula_sum "Si O2"
_cell_formula_units_Z 40
_cell_length_a 13.771192
_cell_length_b 9.428382
_cell_length_c 12.478806
_cell_angle_alpha 90.000000
_cell_angle_beta 90.000000
_cell_angle_gamma 90.000000
_cell_volume 1620.248904
_symmetry_space_group_name_H-M "P C C A"
_symmetry_group_IT_number 54
_symmetry_cell_setting 'orthorhombic'
loop_
_space_group_symop_operation_xyz
x,y,z
1/2-x,-y,z
1/2+x,-y,1/2-z
-x,y,1/2-z
-x,-y,-z
1/2+x,y,-z
1/2-x,y,1/2+z
x,-y,1/2+z
loop_
_atom_site_type_symbol
_atom_site_label
_atom_site_fract_x
_atom_site_fract_y
_atom_site_fract_z
Si Si1 0.461795 0.806043 0.147290
Si Si2 0.304235 0.370639 0.512880
Si Si3 0.650674 0.070932 0.256668
Si Si4 0.451273 0.342184 0.354360
Si Si5 0.120341 0.784954 0.017900
O O1 0.500000 0.719650 0.250000
O O2 0.412514 0.939302 0.203848
O O3 0.379632 0.720326 0.082458
O O4 0.549865 0.857621 0.069316
O O5 0.250000 0.500000 0.571258
O O6 0.367273 0.426037 0.413224
O O7 0.217094 0.275861 0.466476
O O8 0.596110 0.187730 0.181515
O O9 0.662925 0.145338 0.373451
O O10 0.750000 0.000000 0.213904
O O11 0.500000 0.403039 0.250000
O O12 0.541391 0.324091 0.434540
#
# Coordination Sequence:
#
# PCOD9423191 Si02
#       5
#     8   8   8   8   8
#     4  11  24  42  67 102 139 182 231 285 349 418
#     4  11  25  47  71  98 139 190 239 282 338 410
#     4  11  21  41  70 101 140 177 227 286 356 424
#     4   9  22  43  66 100 139 178 227 287 347 410
#     4  10  22  43  65  99 137 180 221 285 353 403
#
# _framework density 24.687564999999999
#
# number of rings (size 3 to 8) (size 9 to 14) (size 15 to 20)
#    0.000    1.600    2.000    2.400    2.800    4.800 
#    0.000   13.000    0.000    0.000    0.000    0.000 
#    0.000    0.000    0.000    0.000    0.000    0.000 
#
# Total GULP energy -223104.101763 kJ/mol
# GULP energy per Si atom -5577.602544 kJ/mol
# Density = 2.463137 g / cm^3
# Si number density = 24.687565 Si / 1000 Ang^3
#
#
#
# Elastic Constant Matrix: (Units=GPa)
#
#
# Indices 1 2 3 4 5 6 
#
# 1 159.9207 31.4178 37.0110 0.0000 0.0000 0.0000
# 2 31.4178 70.4199 2.0518 0.0000 0.0000 0.0000
# 3 37.0110 2.0518 69.2181 0.0000 0.0000 0.0000
# 4 0.0000 0.0000 0.0000 37.5225 0.0000 0.0000
# 5 0.0000 0.0000 0.0000 0.0000 41.2762 0.0000
# 6 0.0000 0.0000 0.0000 0.0000 0.0000 19.7246
#
#
#
# Elastic Compliance Matrix: (Units=1/GPa)
#
#
# Indices 1 2 3 4 5 6 
#
# 1 0.007870 -0.003392 -0.004108 0.000000 0.000000 0.000000
# 2 -0.003392 0.015674 0.001349 0.000000 0.000000 0.000000
# 3 -0.004108 0.001349 0.016603 0.000000 0.000000 0.000000
# 4 0.000000 0.000000 0.000000 0.026651 0.000000 0.000000
# 5 0.000000 0.000000 0.000000 0.000000 0.024227 0.000000
# 6 0.000000 0.000000 0.000000 0.000000 0.000000 0.050698
#
#
# Mechanical properties :
#
#
# Convention : Reuss Voigt Hill
#
# Bulk Modulus (GPa) = 35.91018 48.94665 42.42841
# Shear Modulus (GPa) = 30.61726 34.97653 32.79690
#
# Velocity S-wave (km/s) = 3.52545 3.76808 3.64878
# Velocity P-wave (km/s) = 5.58115 6.22902 5.91396
#
# Compressibility (1/GPa) = 0.02784725
#
# Stress axis : x y z
#
# Youngs Moduli (GPa) = 127.06446 63.79847 60.22853
#
# Poissons Ratio (x) = 0.21637 0.24739
# Poissons Ratio (y) = 0.43094 -0.08124
# Poissons Ratio (z) = 0.52193 -0.08605
#
# Static dielectric constant tensor:
#      x y z
#    x 2.013280 0.000000 0.000000 
#    y 0.000000 2.060230 0.000000 
#    z 0.000000 0.000000 2.090470 
# 
# From -- ./inp_files/8202.got.cif
#   From: 2010.05.17/outbox.cif.g08.bks.cpg/sg54_5_cif.got.tgz:8202.got - 2010.06.03 13:09:01.
