data_PCOD9423043
_publ_section_title
;
Structure prediction by ZEFSAII (Michael W. Deem and Ramdas Pophale) SiO2 
 PCOD9423043
Probable space group: P C C A
;
_chemical_formula_sum "Si O2"
_cell_formula_units_Z 56
_cell_length_a 22.596048
_cell_length_b 13.213963
_cell_length_c 9.143792
_cell_angle_alpha 90.000000
_cell_angle_beta 90.000000
_cell_angle_gamma 90.000000
_cell_volume 2730.183976
_symmetry_space_group_name_H-M "P C C A"
_symmetry_group_IT_number 54
_symmetry_cell_setting 'orthorhombic'
loop_
_space_group_symop_operation_xyz
x,y,z
1/2-x,-y,z
1/2+x,-y,1/2-z
-x,y,1/2-z
-x,-y,-z
1/2+x,y,-z
1/2-x,y,1/2+z
x,-y,1/2+z
loop_
_atom_site_type_symbol
_atom_site_label
_atom_site_fract_x
_atom_site_fract_y
_atom_site_fract_z
Si Si1 0.119653 0.303211 0.436503
Si Si2 0.069797 0.115372 0.282172
Si Si3 0.280163 0.204574 0.089989
Si Si4 0.934108 0.287286 0.741546
Si Si5 0.136172 0.989230 0.027376
Si Si6 0.543719 0.485225 0.635628
Si Si7 0.173323 0.187576 0.903440
O O1 0.096315 0.227234 0.311874
O O2 0.186858 0.281665 0.480364
O O3 0.089479 0.278383 0.593763
O O4 0.099455 0.415856 0.398627
O O5 0.083243 0.061733 0.437050
O O6 0.000000 0.117823 0.250000
O O7 0.107256 0.053886 0.159375
O O8 0.290922 0.222941 0.260436
O O9 0.315048 0.097061 0.064613
O O10 0.211920 0.210043 0.046161
O O11 0.938155 0.405358 0.697386
O O12 0.891516 0.233121 0.625359
O O13 0.000000 0.244241 0.750000
O O14 0.166471 0.067407 0.915759
O O15 0.500000 0.431407 0.750000
O O16 0.500000 0.500000 0.500000
#
# Coordination Sequence:
#
# PCOD9423043 Si02
#       7
#     8   8   8   8   8   8   8
#     4  10  22  41  62  97 133 169 222 277 327 404
#     4  11  24  39  61  95 133 174 219 274 336 398
#     4  10  24  43  61  91 128 170 226 274 324 396
#     4  10  22  41  66 100 134 172 216 282 348 396
#     4  11  23  41  62  92 125 177 221 274 325 397
#     4  11  20  39  68  97 130 171 220 275 338 410
#     4  11  24  41  67  90 131 177 223 275 337 396
#
# _framework density 20.511438999999999
#
# number of rings (size 3 to 8) (size 9 to 14) (size 15 to 20)
#    0.000    1.429    4.286    1.286    6.000    2.857 
#    0.000    0.714    0.000    3.429    0.000    0.000 
#    0.000    0.000    0.000    0.000    0.000    0.000 
#
# Total GULP energy -312295.225054 kJ/mol
# GULP energy per Si atom -5576.700447 kJ/mol
# Density = 2.046475 g / cm^3
# Si number density = 20.511439 Si / 1000 Ang^3
#
#
#
# Elastic Constant Matrix: (Units=GPa)
#
#
# Indices 1 2 3 4 5 6 
#
# 1 90.8189 11.0879 25.6420 0.0000 0.0000 0.0000
# 2 11.0879 57.0851 25.0084 0.0000 0.0000 0.0000
# 3 25.6420 25.0084 68.5788 0.0000 0.0000 0.0000
# 4 0.0000 0.0000 0.0000 35.4191 0.0000 0.0000
# 5 0.0000 0.0000 0.0000 0.0000 35.9092 0.0000
# 6 0.0000 0.0000 0.0000 0.0000 0.0000 16.6903
#
#
#
# Elastic Compliance Matrix: (Units=1/GPa)
#
#
# Indices 1 2 3 4 5 6 
#
# 1 0.012320 -0.000446 -0.004444 0.000000 0.000000 0.000000
# 2 -0.000446 0.020865 -0.007442 0.000000 0.000000 0.000000
# 3 -0.004444 -0.007442 0.018957 0.000000 0.000000 0.000000
# 4 0.000000 0.000000 0.000000 0.028233 0.000000 0.000000
# 5 0.000000 0.000000 0.000000 0.000000 0.027848 0.000000
# 6 0.000000 0.000000 0.000000 0.000000 0.000000 0.059915
#
#
# Mechanical properties :
#
#
# Convention : Reuss Voigt Hill
#
# Bulk Modulus (GPa) = 36.39254 37.77324 37.08289
# Shear Modulus (GPa) = 24.75723 27.92001 26.33862
#
# Velocity S-wave (km/s) = 3.47795 3.69344 3.58731
# Velocity P-wave (km/s) = 5.82317 6.05345 5.93943
#
# Compressibility (1/GPa) = 0.02747816
#
# Stress axis : x y z
#
# Youngs Moduli (GPa) = 81.16830 47.92822 52.75073
#
# Poissons Ratio (x) = 0.02138 0.23442
# Poissons Ratio (y) = 0.03622 0.39256
# Poissons Ratio (z) = 0.36070 0.35667
#
# Static dielectric constant tensor:
#      x y z
#    x 1.765460 0.000000 0.000000 
#    y 0.000000 1.770150 0.000000 
#    z 0.000000 0.000000 1.765220 
# 
# From -- ./inp_files/4795.got.cif
#   From: 2010.05.17/outbox.cif.g08.bks.cpg/sg54_3_cif.got.tgz:4795.got - 2010.06.03 13:09:01.
