data_PCOD9423815
_publ_section_title
;
Structure prediction by ZEFSAII (Michael W. Deem and Ramdas Pophale) SiO2 
 PCOD9423815
Probable space group: P C C A
;
_chemical_formula_sum "Si O2"
_cell_formula_units_Z 36
_cell_length_a 10.613787
_cell_length_b 13.304958
_cell_length_c 10.826399
_cell_angle_alpha 90.000000
_cell_angle_beta 90.000000
_cell_angle_gamma 90.000000
_cell_volume 1528.860656
_symmetry_space_group_name_H-M "P C C A"
_symmetry_group_IT_number 54
_symmetry_cell_setting 'orthorhombic'
loop_
_space_group_symop_operation_xyz
x,y,z
1/2-x,-y,z
1/2+x,-y,1/2-z
-x,y,1/2-z
-x,-y,-z
1/2+x,y,-z
1/2-x,y,1/2+z
x,-y,1/2+z
loop_
_atom_site_type_symbol
_atom_site_label
_atom_site_fract_x
_atom_site_fract_y
_atom_site_fract_z
Si Si1 0.750000 0.500000 0.842239
Si Si2 0.805824 0.281942 0.401209
Si Si3 0.148835 0.226450 0.841775
Si Si4 0.500000 0.605848 0.750000
Si Si5 0.000000 0.165388 0.250000
Si Si6 0.887728 0.994952 0.096194
O O1 0.702881 0.401818 0.913917
O O2 0.623943 0.538284 0.771509
O O3 0.770356 0.237072 0.533259
O O4 0.718902 0.253303 0.284546
O O5 0.938038 0.234387 0.355464
O O6 0.041447 0.313075 0.854993
O O7 0.103002 0.112975 0.839244
O O8 0.099405 0.087530 0.309480
O O9 0.750000 0.000000 0.035407
O O10 0.000000 0.000000 0.000000
#
# Coordination Sequence:
#
# PCOD9423815 Si02
#       6
#     4   8   8   4   4   8
#     4  10  24  46  78 112 150 204 268 322 406 456
#     4  11  25  45  74 108 152 204 260 327 384 471
#     4  11  25  48  74 110 156 202 261 320 402 459
#     4  10  24  46  76 112 154 200 258 338 382 482
#     4  12  24  42  72 108 154 206 258 316 394 474
#     4  12  26  46  76 111 154 208 256 320 394 481
#
# _framework density 23.546948
#
# number of rings (size 3 to 8) (size 9 to 14) (size 15 to 20)
#    0.000    0.889    4.444    1.333    0.000   14.222 
#    0.000    0.000    0.000    0.000    0.000    0.000 
#    0.000    0.000    0.000    0.000    0.000    0.000 
#
# Total GULP energy -201057.127865 kJ/mol
# GULP energy per Si atom -5584.920218 kJ/mol
# Density = 2.349335 g / cm^3
# Si number density = 23.546948 Si / 1000 Ang^3
#
#
#
# Elastic Constant Matrix: (Units=GPa)
#
#
# Indices 1 2 3 4 5 6 
#
# 1 139.3927 43.6666 34.8756 0.0000 0.0000 0.0000
# 2 43.6666 193.1661 40.3156 0.0000 0.0000 0.0000
# 3 34.8756 40.3156 122.4535 0.0000 0.0000 0.0000
# 4 0.0000 0.0000 0.0000 -26.2872 0.0000 0.0000
# 5 0.0000 0.0000 0.0000 0.0000 41.7315 0.0000
# 6 0.0000 0.0000 0.0000 0.0000 0.0000 44.0191
#
#
#
# Elastic Compliance Matrix: (Units=1/GPa)
#
#
# Indices 1 2 3 4 5 6 
#
# 1 0.008084 -0.001446 -0.001826 0.000000 0.000000 0.000000
# 2 -0.001446 0.005818 -0.001503 0.000000 0.000000 0.000000
# 3 -0.001826 -0.001503 0.009181 0.000000 0.000000 0.000000
# 4 0.000000 0.000000 0.000000 -0.038041 0.000000 0.000000
# 5 0.000000 0.000000 0.000000 0.000000 0.023963 0.000000
# 6 0.000000 0.000000 0.000000 0.000000 0.000000 0.022717
#
#
# Mechanical properties :
#
#
# Convention : Reuss Voigt Hill
#
# Bulk Modulus (GPa) = 73.90337 76.96977 75.43657
# Shear Modulus (GPa) = 109.20822 34.30297 71.75560
#
# Velocity S-wave (km/s) = 6.81760 3.82093 5.52626
# Velocity P-wave (km/s) = 9.66574 7.22667 8.53379
#
# Compressibility (1/GPa) = 0.01353118
#
# Stress axis : x y z
#
# Youngs Moduli (GPa) = 123.70183 171.89165 108.91523
#
# Poissons Ratio (x) = 0.24861 0.19890
# Poissons Ratio (y) = 0.17891 0.16375
# Poissons Ratio (z) = 0.22590 0.25843
#
# Static dielectric constant tensor:
#      x y z
#    x 2.031890 0.000000 0.000000 
#    y 0.000000 1.884340 0.000000 
#    z 0.000000 0.000000 1.879640 
# 
# From -- ./inp_files/7457.got.cif
#   From: 2010.05.17/outbox.cif.g08.bks.cpg/sg54_4_cif.got.tgz:7457.got - 2010.06.03 13:09:01.
