data_PCOD9423314
_publ_section_title
;
Structure prediction by ZEFSAII (Michael W. Deem and Ramdas Pophale) SiO2 
 PCOD9423314
Probable space group: P C C A
;
_chemical_formula_sum "Si O2"
_cell_formula_units_Z 32
_cell_length_a 10.242464
_cell_length_b 11.222863
_cell_length_c 13.305897
_cell_angle_alpha 90.000000
_cell_angle_beta 90.000000
_cell_angle_gamma 90.000000
_cell_volume 1529.509803
_symmetry_space_group_name_H-M "P C C A"
_symmetry_group_IT_number 54
_symmetry_cell_setting 'orthorhombic'
loop_
_space_group_symop_operation_xyz
x,y,z
1/2-x,-y,z
1/2+x,-y,1/2-z
-x,y,1/2-z
-x,-y,-z
1/2+x,y,-z
1/2-x,y,1/2+z
x,-y,1/2+z
loop_
_atom_site_type_symbol
_atom_site_label
_atom_site_fract_x
_atom_site_fract_y
_atom_site_fract_z
Si Si1 0.250000 0.500000 0.779626
Si Si2 0.500000 0.838762 0.250000
Si Si3 0.184022 0.658667 0.955133
Si Si4 0.116585 0.067529 0.442276
Si Si5 0.595357 0.379512 0.881084
O O1 0.256535 0.614987 0.852784
O O2 0.130798 0.524921 0.704242
O O3 0.417232 0.920461 0.324283
O O4 0.421015 0.747208 0.177691
O O5 0.145125 0.795660 0.970953
O O6 0.041695 0.599718 0.937503
O O7 0.283849 0.626698 0.042847
O O8 0.250000 0.000000 0.460168
O O9 0.000000 0.000000 0.500000
#
# Coordination Sequence:
#
# PCOD9423314 Si02
#       5
#     4   4   8   8   8
#     4  12  22  42  70  96 142 188 234 300 350 428
#     4  10  22  46  68  98 144 180 238 292 366 438
#     4  11  25  44  70 106 138 193 244 295 368 438
#     4  11  23  44  72 101 139 183 234 298 362 431
#     4  11  23  45  69  99 144 184 237 302 358 435
#
# _framework density 20.921735000000002
#
# number of rings (size 3 to 8) (size 9 to 14) (size 15 to 20)
#    0.000    1.000    5.000    3.750    0.000    9.000 
#    0.000    0.000    0.000    0.000    0.000    0.000 
#    0.000    0.000    0.000    0.000    0.000    0.000 
#
# Total GULP energy -178428.703796 kJ/mol
# GULP energy per Si atom -5575.896994 kJ/mol
# Density = 2.087412 g / cm^3
# Si number density = 20.921735 Si / 1000 Ang^3
#
#
#
# Elastic Constant Matrix: (Units=GPa)
#
#
# Indices 1 2 3 4 5 6 
#
# 1 176.3664 85.9310 105.4925 0.0000 0.0000 0.0000
# 2 85.9310 106.1542 44.2309 0.0000 0.0000 0.0000
# 3 105.4925 44.2309 139.3976 0.0000 0.0000 0.0000
# 4 0.0000 0.0000 0.0000 30.8108 0.0000 0.0000
# 5 0.0000 0.0000 0.0000 0.0000 43.2119 0.0000
# 6 0.0000 0.0000 0.0000 0.0000 0.0000 38.0074
#
#
#
# Elastic Compliance Matrix: (Units=1/GPa)
#
#
# Indices 1 2 3 4 5 6 
#
# 1 0.015002 -0.008543 -0.008642 0.000000 0.000000 0.000000
# 2 -0.008543 0.015720 0.001477 0.000000 0.000000 0.000000
# 3 -0.008642 0.001477 0.013245 0.000000 0.000000 0.000000
# 4 0.000000 0.000000 0.000000 0.032456 0.000000 0.000000
# 5 0.000000 0.000000 0.000000 0.000000 0.023142 0.000000
# 6 0.000000 0.000000 0.000000 0.000000 0.000000 0.026311
#
#
# Mechanical properties :
#
#
# Convention : Reuss Voigt Hill
#
# Bulk Modulus (GPa) = 79.67501 99.24744 89.46123
# Shear Modulus (GPa) = 30.96452 34.82362 32.89407
#
# Velocity S-wave (km/s) = 3.85127 4.08422 3.96945
# Velocity P-wave (km/s) = 7.61193 8.35354 7.99134
#
# Compressibility (1/GPa) = 0.01255099
#
# Stress axis : x y z
#
# Youngs Moduli (GPa) = 66.65983 63.61255 75.49873
#
# Poissons Ratio (x) = 0.54343 0.65247
# Poissons Ratio (y) = 0.56946 -0.11150
# Poissons Ratio (z) = 0.57608 -0.09395
#
# Static dielectric constant tensor:
#      x y z
#    x 1.761920 0.000000 0.000000 
#    y 0.000000 1.825490 0.000000 
#    z 0.000000 0.000000 1.784030 
# 
# From -- ./inp_files/11257.got.cif
#   From: 2010.05.17/outbox.cif.g08.bks.cpg/sg54_6_cif.got.tgz:11257.got - 2010.06.03 13:09:01.
