data_PCOD9423284
_publ_section_title
;
Structure prediction by ZEFSAII (Michael W. Deem and Ramdas Pophale) SiO2 
 PCOD9423284
Probable space group: P C C A
;
_chemical_formula_sum "Si O2"
_cell_formula_units_Z 40
_cell_length_a 7.199915
_cell_length_b 13.383099
_cell_length_c 17.853218
_cell_angle_alpha 90.000000
_cell_angle_beta 90.000000
_cell_angle_gamma 90.000000
_cell_volume 1720.285655
_symmetry_space_group_name_H-M "P C C A"
_symmetry_group_IT_number 54
_symmetry_cell_setting 'orthorhombic'
loop_
_space_group_symop_operation_xyz
x,y,z
1/2-x,-y,z
1/2+x,-y,1/2-z
-x,y,1/2-z
-x,-y,-z
1/2+x,y,-z
1/2-x,y,1/2+z
x,-y,1/2+z
loop_
_atom_site_type_symbol
_atom_site_label
_atom_site_fract_x
_atom_site_fract_y
_atom_site_fract_z
Si Si1 0.250000 0.500000 0.990731
Si Si2 0.529237 0.624765 0.909156
Si Si3 0.728161 0.890098 0.191897
Si Si4 0.633145 0.897249 0.400086
Si Si5 0.484667 0.164145 0.441397
Si Si6 0.000000 0.721403 0.250000
O O1 0.411456 0.528110 0.932655
O O2 0.287247 0.406109 0.045681
O O3 0.423952 0.721427 0.943206
O O4 0.537784 0.652026 0.821889
O O5 0.484434 0.877924 0.335033
O O6 0.856413 0.895088 0.116685
O O7 0.826980 0.797941 0.234114
O O8 0.750000 0.000000 0.228421
O O9 0.522187 0.886593 0.478118
O O10 0.807635 0.824175 0.408970
O O11 0.750000 0.000000 0.395970
#
# Coordination Sequence:
#
# PCOD9423284 Si02
#       6
#     4   8   8   8   8   4
#     4  10  22  44  82 100 136 176 240 316 390 460
#     4  10  23  45  70 108 135 184 234 307 381 453
#     4  11  23  44  64  93 144 201 247 292 358 429
#     4  12  21  34  65 104 146 195 244 303 351 413
#     4  11  21  36  65 106 145 183 247 302 353 438
#     4  10  26  48  70 100 154 190 248 304 366 456
#
# _framework density 23.251954000000001
#
# number of rings (size 3 to 8) (size 9 to 14) (size 15 to 20)
#    0.000    1.200    4.000    2.400    2.800    0.800 
#    7.200    0.000    0.000    0.000    0.000    0.000 
#    0.000    0.000    0.000    0.000    0.000    0.000 
#
# Total GULP energy -223220.375643 kJ/mol
# GULP energy per Si atom -5580.509391 kJ/mol
# Density = 2.319903 g / cm^3
# Si number density = 23.251954 Si / 1000 Ang^3
#
#
#
# Elastic Constant Matrix: (Units=GPa)
#
#
# Indices 1 2 3 4 5 6 
#
# 1 129.9699 9.1486 56.1442 0.0000 0.0000 0.0000
# 2 9.1486 75.2504 61.0593 0.0000 0.0000 0.0000
# 3 56.1442 61.0593 198.8256 0.0000 0.0000 0.0000
# 4 0.0000 0.0000 0.0000 37.3590 0.0000 0.0000
# 5 0.0000 0.0000 0.0000 0.0000 33.3957 0.0000
# 6 0.0000 0.0000 0.0000 0.0000 0.0000 21.6346
#
#
#
# Elastic Compliance Matrix: (Units=1/GPa)
#
#
# Indices 1 2 3 4 5 6 
#
# 1 0.008853 0.001268 -0.002889 0.000000 0.000000 0.000000
# 2 0.001268 0.017881 -0.005849 0.000000 0.000000 0.000000
# 3 -0.002889 -0.005849 0.007642 0.000000 0.000000 0.000000
# 4 0.000000 0.000000 0.000000 0.026767 0.000000 0.000000
# 5 0.000000 0.000000 0.000000 0.000000 0.029944 0.000000
# 6 0.000000 0.000000 0.000000 0.000000 0.000000 0.046222
#
#
# Mechanical properties :
#
#
# Convention : Reuss Voigt Hill
#
# Bulk Modulus (GPa) = 51.45446 72.97221 62.21333
# Shear Modulus (GPa) = 31.50031 36.99079 34.24555
#
# Velocity S-wave (km/s) = 3.68467 3.99290 3.84188
# Velocity P-wave (km/s) = 6.34661 7.26010 6.81867
#
# Compressibility (1/GPa) = 0.01943466
#
# Stress axis : x y z
#
# Youngs Moduli (GPa) = 112.95662 55.92513 130.85990
#
# Poissons Ratio (x) = -0.07092 0.37810
# Poissons Ratio (y) = -0.14325 0.76545
# Poissons Ratio (z) = 0.32637 0.32713
#
# Static dielectric constant tensor:
#      x y z
#    x 2.087930 0.000000 0.000000 
#    y 0.000000 1.985930 0.000000 
#    z 0.000000 0.000000 1.904730 
# 
# From -- ./inp_files/16389.got.cif
#   From: 2010.05.17/outbox.cif.g08.bks.cpg/sg54_9_cif.got.tgz:16389.got - 2010.06.03 13:09:01.
