data_PCOD9423430
_publ_section_title
;
Structure prediction by ZEFSAII (Michael W. Deem and Ramdas Pophale) SiO2 
 PCOD9423430
Probable space group: P C C A
;
_chemical_formula_sum "Si O2"
_cell_formula_units_Z 60
_cell_length_a 9.246698
_cell_length_b 17.223266
_cell_length_c 19.653562
_cell_angle_alpha 90.000000
_cell_angle_beta 90.000000
_cell_angle_gamma 90.000000
_cell_volume 3129.993645
_symmetry_space_group_name_H-M "P C C A"
_symmetry_group_IT_number 54
_symmetry_cell_setting 'orthorhombic'
loop_
_space_group_symop_operation_xyz
x,y,z
1/2-x,-y,z
1/2+x,-y,1/2-z
-x,y,1/2-z
-x,-y,-z
1/2+x,y,-z
1/2-x,y,1/2+z
x,-y,1/2+z
loop_
_atom_site_type_symbol
_atom_site_label
_atom_site_fract_x
_atom_site_fract_y
_atom_site_fract_z
Si Si1 0.780775 0.909683 0.058800
Si Si2 0.583370 0.410943 0.432656
Si Si3 0.750000 0.000000 0.875657
Si Si4 0.419515 0.711080 0.678966
Si Si5 0.570070 0.591894 0.426022
Si Si6 0.449498 0.134800 0.569525
Si Si7 0.580771 0.275046 0.822171
Si Si8 0.485799 0.881333 0.669519
O O1 0.621541 0.874022 0.064128
O O2 0.874150 0.910364 0.128235
O O3 0.750000 0.000000 0.038726
O O4 0.873825 0.859424 0.004512
O O5 0.534251 0.355320 0.372617
O O6 0.545132 0.500072 0.414755
O O7 0.757043 0.401528 0.437276
O O8 0.512451 0.388841 0.504335
O O9 0.874334 0.946215 0.908843
O O10 0.651358 0.936059 0.840340
O O11 0.500000 0.703669 0.750000
O O12 0.248705 0.708908 0.692810
O O13 0.453110 0.794276 0.645618
O O14 0.526644 0.649754 0.365087
O O15 0.423451 0.202048 0.625310
O O16 0.500000 0.262021 0.750000
O O17 0.500000 0.876658 0.750000
#
# Coordination Sequence:
#
# PCOD9423430 Si02
#       8
#     8   8   4   8   8   8   8   8
#     4  12  25  44  65  93 122 167 217 265 326 378
#     4   9  19  39  66  95 127 163 207 253 319 368
#     4  12  22  44  64  88 130 164 214 266 324 368
#     4  10  23  42  62  90 130 166 211 260 313 383
#     4   9  20  39  64  95 128 162 205 261 305 387
#     4  12  26  41  67  91 125 165 212 271 317 382
#     4  11  26  42  61  93 130 167 214 262 319 381
#     4  11  26  41  64  94 128 169 214 263 315 387
#
# _framework density 19.169367999999999
#
# number of rings (size 3 to 8) (size 9 to 14) (size 15 to 20)
#    0.000    1.333    3.333    1.200    6.533    3.200 
#    0.000    0.000    0.000    0.000    0.000    0.000 
#    0.000    0.000    0.000    0.000    0.000    0.000 
#
# Total GULP energy -334551.612623 kJ/mol
# GULP energy per Si atom -5575.860210 kJ/mol
# Density = 1.912574 g / cm^3
# Si number density = 19.169368 Si / 1000 Ang^3
#
#
#
# Elastic Constant Matrix: (Units=GPa)
#
#
# Indices 1 2 3 4 5 6 
#
# 1 100.1216 34.1585 58.9297 0.0000 0.0000 0.0000
# 2 34.1585 96.2328 75.4965 0.0000 0.0000 0.0000
# 3 58.9297 75.4965 130.8468 0.0000 0.0000 0.0000
# 4 0.0000 0.0000 0.0000 29.1636 0.0000 0.0000
# 5 0.0000 0.0000 0.0000 0.0000 18.9548 0.0000
# 6 0.0000 0.0000 0.0000 0.0000 0.0000 23.6229
#
#
#
# Elastic Compliance Matrix: (Units=1/GPa)
#
#
# Indices 1 2 3 4 5 6 
#
# 1 0.013590 -0.000041 -0.006097 0.000000 0.000000 0.000000
# 2 -0.000041 0.018985 -0.010936 0.000000 0.000000 0.000000
# 3 -0.006097 -0.010936 0.016699 0.000000 0.000000 0.000000
# 4 0.000000 0.000000 0.000000 0.034289 0.000000 0.000000
# 5 0.000000 0.000000 0.000000 0.000000 0.052757 0.000000
# 6 0.000000 0.000000 0.000000 0.000000 0.000000 0.042332
#
#
# Mechanical properties :
#
#
# Convention : Reuss Voigt Hill
#
# Bulk Modulus (GPa) = 66.10895 73.81895 69.96395
# Shear Modulus (GPa) = 22.95237 24.92270 23.93754
#
# Velocity S-wave (km/s) = 3.46402 3.60965 3.53758
# Velocity P-wave (km/s) = 7.11062 7.48098 7.29815
#
# Compressibility (1/GPa) = 0.01512655
#
# Stress axis : x y z
#
# Youngs Moduli (GPa) = 73.58084 52.67222 59.88553
#
# Poissons Ratio (x) = 0.00213 0.36515
# Poissons Ratio (y) = 0.00298 0.65491
# Poissons Ratio (z) = 0.44865 0.57602
#
# Static dielectric constant tensor:
#      x y z
#    x 1.635820 0.000000 0.000000 
#    y 0.000000 1.692920 0.000000 
#    z 0.000000 0.000000 1.730370 
# 
# From -- ./inp_files/16840.got.cif
#   From: 2010.05.17/outbox.cif.g08.bks.cpg/sg54_9_cif.got.tgz:16840.got - 2010.06.03 13:09:01.
