data_PCOD9423774
_publ_section_title
;
Structure prediction by ZEFSAII (Michael W. Deem and Ramdas Pophale) SiO2 
 PCOD9423774
Probable space group: P C C A
;
_chemical_formula_sum "Si O2"
_cell_formula_units_Z 40
_cell_length_a 14.270681
_cell_length_b 11.274577
_cell_length_c 10.947546
_cell_angle_alpha 90.000000
_cell_angle_beta 90.000000
_cell_angle_gamma 90.000000
_cell_volume 1761.415176
_symmetry_space_group_name_H-M "P C C A"
_symmetry_group_IT_number 54
_symmetry_cell_setting 'orthorhombic'
loop_
_space_group_symop_operation_xyz
x,y,z
1/2-x,-y,z
1/2+x,-y,1/2-z
-x,y,1/2-z
-x,-y,-z
1/2+x,y,-z
1/2-x,y,1/2+z
x,-y,1/2+z
loop_
_atom_site_type_symbol
_atom_site_label
_atom_site_fract_x
_atom_site_fract_y
_atom_site_fract_z
Si Si1 0.730518 0.362597 0.142421
Si Si2 0.596958 0.013647 0.694932
Si Si3 0.881424 0.202700 0.999230
Si Si4 0.018057 0.398290 0.895507
Si Si5 0.737258 0.153897 0.287306
O O1 0.750000 0.500000 0.154637
O O2 0.810937 0.291869 0.069903
O O3 0.625651 0.357958 0.091744
O O4 0.733685 0.294272 0.270892
O O5 0.500000 0.969380 0.750000
O O6 0.573535 0.102885 0.585070
O O7 0.659941 0.101433 0.779336
O O8 0.671572 0.906086 0.681579
O O9 0.953838 0.285671 0.928415
O O10 0.816453 0.127591 0.909625
O O11 0.000000 0.432347 0.750000
O O12 0.000000 0.500000 0.000000
#
# Coordination Sequence:
#
# PCOD9423774 Si02
#       5
#     8   8   8   8   8
#     4  11  24  45  70 105 142 184 239 305 360 439
#     4  10  25  45  69 105 137 188 246 300 358 441
#     4  11  25  45  72 102 140 196 240 305 365 434
#     4  12  26  47  74 110 148 195 246 302 376 447
#     4  10  24  45  69  99 146 184 238 297 372 429
#
# _framework density 22.709012999999999
#
# number of rings (size 3 to 8) (size 9 to 14) (size 15 to 20)
#    0.000    1.200    4.000    0.000    5.600   10.400 
#    0.000    0.000    0.000    0.000    0.000    0.000 
#    0.000    0.000    0.000    0.000    0.000    0.000 
#
# Total GULP energy -223155.812499 kJ/mol
# GULP energy per Si atom -5578.895312 kJ/mol
# Density = 2.265733 g / cm^3
# Si number density = 22.709013 Si / 1000 Ang^3
#
#
#
# Elastic Constant Matrix: (Units=GPa)
#
#
# Indices 1 2 3 4 5 6 
#
# 1 99.6522 -1.2095 1.5046 0.0000 0.0000 0.0000
# 2 -1.2095 81.4367 29.9239 0.0000 0.0000 0.0000
# 3 1.5046 29.9239 71.3699 0.0000 0.0000 0.0000
# 4 0.0000 0.0000 0.0000 26.3610 0.0000 0.0000
# 5 0.0000 0.0000 0.0000 0.0000 20.0811 0.0000
# 6 0.0000 0.0000 0.0000 0.0000 0.0000 33.8324
#
#
#
# Elastic Compliance Matrix: (Units=1/GPa)
#
#
# Indices 1 2 3 4 5 6 
#
# 1 0.010043 0.000268 -0.000324 0.000000 0.000000 0.000000
# 2 0.000268 0.014523 -0.006095 0.000000 0.000000 0.000000
# 3 -0.000324 -0.006095 0.016574 0.000000 0.000000 0.000000
# 4 0.000000 0.000000 0.000000 0.037935 0.000000 0.000000
# 5 0.000000 0.000000 0.000000 0.000000 0.049798 0.000000
# 6 0.000000 0.000000 0.000000 0.000000 0.000000 0.029557
#
#
# Mechanical properties :
#
#
# Convention : Reuss Voigt Hill
#
# Bulk Modulus (GPa) = 34.67609 34.76630 34.72120
# Shear Modulus (GPa) = 27.72471 30.87088 29.29780
#
# Velocity S-wave (km/s) = 3.49788 3.69102 3.59575
# Velocity P-wave (km/s) = 5.62285 5.78857 5.70631
#
# Compressibility (1/GPa) = 0.02883831
#
# Stress axis : x y z
#
# Youngs Moduli (GPa) = 99.57128 68.85629 60.33628
#
# Poissons Ratio (x) = -0.01847 0.01956
# Poissons Ratio (y) = -0.02671 0.36774
# Poissons Ratio (z) = 0.03228 0.41967
#
# Static dielectric constant tensor:
#      x y z
#    x 1.824840 0.000000 0.000000 
#    y 0.000000 1.844970 0.000000 
#    z 0.000000 0.000000 1.960230 
# 
# From -- ./inp_files/8195.got.cif
#   From: 2010.05.17/outbox.cif.g08.bks.cpg/sg54_5_cif.got.tgz:8195.got - 2010.06.03 13:09:01.
