data_PCOD9423640
_publ_section_title
;
Structure prediction by ZEFSAII (Michael W. Deem and Ramdas Pophale) SiO2 
 PCOD9423640
Probable space group: P C C A
;
_chemical_formula_sum "Si O2"
_cell_formula_units_Z 24
_cell_length_a 5.334828
_cell_length_b 11.215753
_cell_length_c 15.789165
_cell_angle_alpha 90.000000
_cell_angle_beta 90.000000
_cell_angle_gamma 90.000000
_cell_volume 944.730685
_symmetry_space_group_name_H-M "P C C A"
_symmetry_group_IT_number 54
_symmetry_cell_setting 'orthorhombic'
loop_
_space_group_symop_operation_xyz
x,y,z
1/2-x,-y,z
1/2+x,-y,1/2-z
-x,y,1/2-z
-x,-y,-z
1/2+x,y,-z
1/2-x,y,1/2+z
x,-y,1/2+z
loop_
_atom_site_type_symbol
_atom_site_label
_atom_site_fract_x
_atom_site_fract_y
_atom_site_fract_z
Si Si1 0.463969 0.842800 0.446016
Si Si2 0.250000 0.000000 0.679959
Si Si3 0.500000 0.212003 0.250000
Si Si4 0.656139 0.628194 0.339245
O O1 0.189784 0.847759 0.485689
O O2 0.536796 0.951735 0.383620
O O3 0.498033 0.715661 0.398523
O O4 0.214103 0.113503 0.740491
O O5 0.584036 0.300136 0.323161
O O6 0.750000 0.500000 0.369956
O O7 0.500000 0.615077 0.250000
#
# Coordination Sequence:
#
# PCOD9423640 Si02
#       4
#     8   4   4   8
#     4  11  27  46  70 106 147 193 239 298 367 436
#     4  10  24  40  74  98 150 188 242 296 366 432
#     4  10  24  42  66 112 134 186 240 306 354 424
#     4  11  25  45  76 102 144 189 250 303 359 431
#
# _framework density 25.404066
#
# number of rings (size 3 to 8) (size 9 to 14) (size 15 to 20)
#    0.000    1.333    1.667    1.000   18.667    1.333 
#    0.000    0.000    0.000    0.000    0.000    0.000 
#    0.000    0.000    0.000    0.000    0.000    0.000 
#
# Total GULP energy -133903.530678 kJ/mol
# GULP energy per Si atom -5579.313778 kJ/mol
# Density = 2.534625 g / cm^3
# Si number density = 25.404066 Si / 1000 Ang^3
#
#
#
# Elastic Constant Matrix: (Units=GPa)
#
#
# Indices 1 2 3 4 5 6 
#
# 1 118.8082 34.2577 54.8317 0.0000 0.0000 0.0000
# 2 34.2577 208.0734 33.1990 0.0000 0.0000 0.0000
# 3 54.8317 33.1990 62.3229 0.0000 0.0000 0.0000
# 4 0.0000 0.0000 0.0000 41.5936 0.0000 0.0000
# 5 0.0000 0.0000 0.0000 0.0000 62.2569 0.0000
# 6 0.0000 0.0000 0.0000 0.0000 0.0000 19.1235
#
#
#
# Elastic Compliance Matrix: (Units=1/GPa)
#
#
# Indices 1 2 3 4 5 6 
#
# 1 0.014198 -0.000377 -0.012291 0.000000 0.000000 0.000000
# 2 -0.000377 0.005262 -0.002472 0.000000 0.000000 0.000000
# 3 -0.012291 -0.002472 0.028176 0.000000 0.000000 0.000000
# 4 0.000000 0.000000 0.000000 0.024042 0.000000 0.000000
# 5 0.000000 0.000000 0.000000 0.000000 0.016062 0.000000
# 6 0.000000 0.000000 0.000000 0.000000 0.000000 0.052292
#
#
# Mechanical properties :
#
#
# Convention : Reuss Voigt Hill
#
# Bulk Modulus (GPa) = 57.61206 70.42013 64.01610
# Shear Modulus (GPa) = 28.39358 42.38922 35.39140
#
# Velocity S-wave (km/s) = 3.34680 4.08928 3.73653
# Velocity P-wave (km/s) = 6.13696 7.07647 6.62340
#
# Compressibility (1/GPa) = 0.01735748
#
# Stress axis : x y z
#
# Youngs Moduli (GPa) = 70.43349 190.02726 35.49178
#
# Poissons Ratio (x) = 0.07155 0.43622
# Poissons Ratio (y) = 0.02652 0.08773
# Poissons Ratio (z) = 0.86567 0.46974
#
# Static dielectric constant tensor:
#      x y z
#    x 2.201200 0.000000 0.000000 
#    y 0.000000 1.968940 0.000000 
#    z 0.000000 0.000000 2.123870 
# 
# From -- ./inp_files/15604.got.cif
#   From: 2010.05.17/outbox.cif.g08.bks.cpg/sg54_8_cif.got.tgz:15604.got - 2010.06.03 13:09:01.
