data_PCOD9423613
_publ_section_title
;
Structure prediction by ZEFSAII (Michael W. Deem and Ramdas Pophale) SiO2 
 PCOD9423613
Probable space group: P C C A
;
_chemical_formula_sum "Si O2"
_cell_formula_units_Z 40
_cell_length_a 17.851962
_cell_length_b 6.898528
_cell_length_c 13.355454
_cell_angle_alpha 90.000000
_cell_angle_beta 90.000000
_cell_angle_gamma 90.000000
_cell_volume 1644.754340
_symmetry_space_group_name_H-M "P C C A"
_symmetry_group_IT_number 54
_symmetry_cell_setting 'orthorhombic'
loop_
_space_group_symop_operation_xyz
x,y,z
1/2-x,-y,z
1/2+x,-y,1/2-z
-x,y,1/2-z
-x,-y,-z
1/2+x,y,-z
1/2-x,y,1/2+z
x,-y,1/2+z
loop_
_atom_site_type_symbol
_atom_site_label
_atom_site_fract_x
_atom_site_fract_y
_atom_site_fract_z
Si Si1 0.363925 0.264122 0.059428
Si Si2 0.130706 0.693993 0.829026
Si Si3 0.000000 0.828488 0.750000
Si Si4 0.974111 0.334145 0.646062
Si Si5 0.069950 0.872057 0.539187
Si Si6 0.250000 0.500000 0.694157
O O1 0.446761 0.345744 0.087982
O O2 0.304862 0.370591 0.127890
O O3 0.368038 0.030579 0.067727
O O4 0.348161 0.304115 0.943976
O O5 0.068050 0.524017 0.812757
O O6 0.200317 0.642719 0.761520
O O7 0.080796 0.881585 0.802492
O O8 0.958095 0.775296 0.858454
O O9 0.917805 0.258502 0.558838
O O10 0.000000 0.224017 0.750000
O O11 0.000000 0.000000 0.500000
#
# Coordination Sequence:
#
# PCOD9423613 Si02
#       6
#     8   8   4   8   8   4
#     4  11  24  44  67 101 140 187 236 297 358 421
#     4  12  24  41  69 101 134 188 240 296 350 424
#     4  12  22  42  74 104 136 174 252 300 354 410
#     4  11  21  40  73 107 132 176 246 305 350 401
#     4  10  24  38  70 102 135 173 225 309 359 407
#     4  12  26  44  68  94 148 192 236 278 354 452
#
# _framework density 24.319744
#
# number of rings (size 3 to 8) (size 9 to 14) (size 15 to 20)
#    0.000    0.800    7.000    1.200    8.400    0.000 
#    0.000    1.000    0.000    0.000    0.000    0.000 
#    0.000    0.000    0.000    0.000    0.000    0.000 
#
# Total GULP energy -222776.759286 kJ/mol
# GULP energy per Si atom -5569.418982 kJ/mol
# Density = 2.426439 g / cm^3
# Si number density = 24.319744 Si / 1000 Ang^3
#
#
#
# Elastic Constant Matrix: (Units=GPa)
#
#
# Indices 1 2 3 4 5 6 
#
# 1 98.3638 30.8513 33.5724 0.0000 0.0000 0.0000
# 2 30.8513 66.9365 60.8225 0.0000 0.0000 0.0000
# 3 33.5724 60.8225 198.9059 0.0000 0.0000 0.0000
# 4 0.0000 0.0000 0.0000 30.5513 0.0000 0.0000
# 5 0.0000 0.0000 0.0000 0.0000 31.5628 0.0000
# 6 0.0000 0.0000 0.0000 0.0000 0.0000 25.7613
#
#
#
# Elastic Compliance Matrix: (Units=1/GPa)
#
#
# Indices 1 2 3 4 5 6 
#
# 1 0.011915 -0.005074 -0.000459 0.000000 0.000000 0.000000
# 2 -0.005074 0.022849 -0.006130 0.000000 0.000000 0.000000
# 3 -0.000459 -0.006130 0.006980 0.000000 0.000000 0.000000
# 4 0.000000 0.000000 0.000000 0.032732 0.000000 0.000000
# 5 0.000000 0.000000 0.000000 0.000000 0.031683 0.000000
# 6 0.000000 0.000000 0.000000 0.000000 0.000000 0.038818
#
#
# Mechanical properties :
#
#
# Convention : Reuss Voigt Hill
#
# Bulk Modulus (GPa) = 54.30299 68.29983 61.30141
# Shear Modulus (GPa) = 28.66293 33.50574 31.08433
#
# Velocity S-wave (km/s) = 3.43678 3.71579 3.57900
# Velocity P-wave (km/s) = 6.17461 6.82309 6.50693
#
# Compressibility (1/GPa) = 0.01841519
#
# Stress axis : x y z
#
# Youngs Moduli (GPa) = 83.93069 43.76647 143.27437
#
# Poissons Ratio (x) = 0.22207 0.06583
# Poissons Ratio (y) = 0.42586 0.87832
# Poissons Ratio (z) = 0.03856 0.26830
#
# Static dielectric constant tensor:
#      x y z
#    x 1.890840 0.000000 0.000000 
#    y 0.000000 6.780440 0.000000 
#    z 0.000000 0.000000 1.954410 
# 
# From -- ./inp_files/8815.got.cif
#   From: 2010.05.17/outbox.cif.g08.bks.cpg/sg54_5_cif.got.tgz:8815.got - 2010.06.03 13:09:01.
