data_PCOD9423064
_publ_section_title
;
Structure prediction by ZEFSAII (Michael W. Deem and Ramdas Pophale) SiO2 
 PCOD9423064
Probable space group: P C C A
;
_chemical_formula_sum "Si O2"
_cell_formula_units_Z 48
_cell_length_a 9.205239
_cell_length_b 17.873217
_cell_length_c 14.443061
_cell_angle_alpha 90.000000
_cell_angle_beta 90.000000
_cell_angle_gamma 90.000000
_cell_volume 2376.276879
_symmetry_space_group_name_H-M "P C C A"
_symmetry_group_IT_number 54
_symmetry_cell_setting 'orthorhombic'
loop_
_space_group_symop_operation_xyz
x,y,z
1/2-x,-y,z
1/2+x,-y,1/2-z
-x,y,1/2-z
-x,-y,-z
1/2+x,y,-z
1/2-x,y,1/2+z
x,-y,1/2+z
loop_
_atom_site_type_symbol
_atom_site_label
_atom_site_fract_x
_atom_site_fract_y
_atom_site_fract_z
Si Si1 0.431203 0.740041 0.475689
Si Si2 0.250000 0.500000 0.127476
Si Si3 0.212486 0.336329 0.099210
Si Si4 0.277752 0.309352 0.306497
Si Si5 0.000000 0.568004 0.250000
Si Si6 0.000000 0.816147 0.250000
Si Si7 0.510539 0.102956 0.434714
Si Si8 0.250000 0.000000 0.478760
O O1 0.581687 0.700667 0.454341
O O2 0.356257 0.707614 0.567884
O O3 0.325534 0.712735 0.391855
O O4 0.469233 0.827341 0.493524
O O5 0.224783 0.423324 0.073505
O O6 0.108502 0.518172 0.189486
O O7 0.194814 0.328699 0.210140
O O8 0.394295 0.378024 0.311491
O O9 0.372487 0.236184 0.287238
O O10 0.950485 0.865915 0.334853
O O11 0.350704 0.064077 0.430345
O O12 0.629857 0.042731 0.462324
#
# Coordination Sequence:
#
# PCOD9423064 Si02
#       8
#     8   4   8   8   4   4   8   4
#     4  12  24  43  71  96 132 174 227 278 327 397
#     4  10  24  42  60  96 136 174 226 278 342 390
#     4  11  25  42  63  99 131 175 229 276 333 396
#     4  10  22  41  65  98 128 172 233 277 321 389
#     4   9  22  40  66  88 137 182 218 286 341 390
#     4  11  20  38  68  96 133 168 218 272 325 386
#     4  11  23  42  68  96 131 175 210 274 329 396
#     4  10  24  44  64  96 134 168 216 262 338 398
#
# _framework density 20.199666000000001
#
# number of rings (size 3 to 8) (size 9 to 14) (size 15 to 20)
#    0.000    1.333    1.667    3.500    9.333    1.333 
#    0.000    0.000    0.000    0.000    0.000    0.000 
#    0.000    0.000    0.000    0.000    0.000    0.000 
#
# Total GULP energy -267858.898913 kJ/mol
# GULP energy per Si atom -5580.393727 kJ/mol
# Density = 2.015369 g / cm^3
# Si number density = 20.199666 Si / 1000 Ang^3
#
#
#
# Elastic Constant Matrix: (Units=GPa)
#
#
# Indices 1 2 3 4 5 6 
#
# 1 109.8959 38.8922 16.4115 0.0000 0.0000 0.0000
# 2 38.8922 119.2592 16.1500 0.0000 0.0000 0.0000
# 3 16.4115 16.1500 56.4640 0.0000 0.0000 0.0000
# 4 0.0000 0.0000 0.0000 11.7303 0.0000 0.0000
# 5 0.0000 0.0000 0.0000 0.0000 -23.4741 0.0000
# 6 0.0000 0.0000 0.0000 0.0000 0.0000 29.1458
#
#
#
# Elastic Compliance Matrix: (Units=1/GPa)
#
#
# Indices 1 2 3 4 5 6 
#
# 1 0.010535 -0.003143 -0.002163 0.000000 0.000000 0.000000
# 2 -0.003143 0.009660 -0.001850 0.000000 0.000000 0.000000
# 3 -0.002163 -0.001850 0.018868 0.000000 0.000000 0.000000
# 4 0.000000 0.000000 0.000000 0.085249 0.000000 0.000000
# 5 0.000000 0.000000 0.000000 0.000000 -0.042600 0.000000
# 6 0.000000 0.000000 0.000000 0.000000 0.000000 0.034310
#
#
# Mechanical properties :
#
#
# Convention : Reuss Voigt Hill
#
# Bulk Modulus (GPa) = 40.39990 47.61405 44.00697
# Shear Modulus (GPa) = 36.07917 17.75811 26.91864
#
# Velocity S-wave (km/s) = 4.23084 2.96823 3.65448
# Velocity P-wave (km/s) = 6.62649 5.94727 6.29605
#
# Compressibility (1/GPa) = 0.02475254
#
# Stress axis : x y z
#
# Youngs Moduli (GPa) = 94.92425 103.51508 52.99929
#
# Poissons Ratio (x) = 0.32531 0.11464
# Poissons Ratio (y) = 0.29831 0.09803
# Poissons Ratio (z) = 0.20533 0.19147
#
# Static dielectric constant tensor:
#      x y z
#    x 1.737710 0.000000 0.000000 
#    y 0.000000 1.735990 0.000000 
#    z 0.000000 0.000000 1.741810 
# 
# From -- ./inp_files/11791.got.cif
#   From: 2010.05.17/outbox.cif.g08.bks.cpg/sg54_6_cif.got.tgz:11791.got - 2010.06.03 13:09:01.
