data_PCOD9423379
_publ_section_title
;
Structure prediction by ZEFSAII (Michael W. Deem and Ramdas Pophale) SiO2 
 PCOD9423379
Probable space group: P C C A
;
_chemical_formula_sum "Si O2"
_cell_formula_units_Z 40
_cell_length_a 5.385435
_cell_length_b 17.613266
_cell_length_c 18.676385
_cell_angle_alpha 90.000000
_cell_angle_beta 90.000000
_cell_angle_gamma 90.000000
_cell_volume 1771.550352
_symmetry_space_group_name_H-M "P C C A"
_symmetry_group_IT_number 54
_symmetry_cell_setting 'orthorhombic'
loop_
_space_group_symop_operation_xyz
x,y,z
1/2-x,-y,z
1/2+x,-y,1/2-z
-x,y,1/2-z
-x,-y,-z
1/2+x,y,-z
1/2-x,y,1/2+z
x,-y,1/2+z
loop_
_atom_site_type_symbol
_atom_site_label
_atom_site_fract_x
_atom_site_fract_y
_atom_site_fract_z
Si Si1 0.500000 0.306730 0.250000
Si Si2 0.000000 0.952449 0.250000
Si Si3 0.868749 0.622168 0.976577
Si Si4 0.194700 0.827827 0.811982
Si Si5 0.842196 0.585484 0.823144
Si Si6 0.237291 0.795151 0.972190
O O1 0.700798 0.251052 0.217254
O O2 0.389211 0.359449 0.189359
O O3 0.097521 0.893969 0.310681
O O4 0.250000 0.000000 0.231165
O O5 0.966279 0.615784 0.895299
O O6 0.592569 0.586391 0.978104
O O7 0.796623 0.707152 0.005010
O O8 0.125320 0.809688 0.893328
O O9 0.000000 0.850387 0.750000
O O10 0.750000 0.500000 0.831090
O O11 0.000000 0.589833 0.750000
O O12 0.518101 0.826945 0.977303
#
# Coordination Sequence:
#
# PCOD9423379 Si02
#       6
#     4   4   8   8   8   8
#     4  11  24  40  66 101 140 180 256 319 368 426
#     4  11  24  46  76 119 158 192 236 295 354 436
#     4  10  24  43  67  94 135 186 235 302 377 441
#     4  11  25  42  78 112 145 195 248 305 364 431
#     4  12  27  44  67  97 141 197 255 320 384 446
#     4  10  23  40  64 101 144 183 234 301 364 426
#
# _framework density 22.579094999999999
#
# number of rings (size 3 to 8) (size 9 to 14) (size 15 to 20)
#    0.000    1.200    2.000    3.000   19.600    0.800 
#    0.000    0.000    0.000    3.600    0.000    0.000 
#    0.000    0.000    0.000    0.000    0.000    0.000 
#
# Total GULP energy -222947.901091 kJ/mol
# GULP energy per Si atom -5573.697527 kJ/mol
# Density = 2.252770 g / cm^3
# Si number density = 22.579095 Si / 1000 Ang^3
#
#
#
# Elastic Constant Matrix: (Units=GPa)
#
#
# Indices 1 2 3 4 5 6 
#
# 1 141.1361 27.7955 29.4551 0.0000 0.0000 0.0000
# 2 27.7955 106.7630 26.1458 0.0000 0.0000 0.0000
# 3 29.4551 26.1458 145.0085 0.0000 0.0000 0.0000
# 4 0.0000 0.0000 0.0000 -3.5181 0.0000 0.0000
# 5 0.0000 0.0000 0.0000 0.0000 36.5817 0.0000
# 6 0.0000 0.0000 0.0000 0.0000 0.0000 -56.4933
#
#
#
# Elastic Compliance Matrix: (Units=1/GPa)
#
#
# Indices 1 2 3 4 5 6 
#
# 1 0.007681 -0.001692 -0.001255 0.000000 0.000000 0.000000
# 2 -0.001692 0.010172 -0.001490 0.000000 0.000000 0.000000
# 3 -0.001255 -0.001490 0.007420 0.000000 0.000000 0.000000
# 4 0.000000 0.000000 0.000000 -0.284243 0.000000 0.000000
# 5 0.000000 0.000000 0.000000 0.000000 0.027336 0.000000
# 6 0.000000 0.000000 0.000000 0.000000 0.000000 -0.017701
#
#
# Mechanical properties :
#
#
# Convention : Reuss Voigt Hill
#
# Bulk Modulus (GPa) = 60.98595 62.18895 61.58745
# Shear Modulus (GPa) = -21.27706 15.94812 -2.66447
#
# Velocity S-wave (km/s) = -3.07308 2.66056 -1.08748
# Velocity P-wave (km/s) = 3.80484 6.08610 5.07530
#
# Compressibility (1/GPa) = 0.01639722
#
# Stress axis : x y z
#
# Youngs Moduli (GPa) = 130.19888 98.30807 134.77476
#
# Poissons Ratio (x) = 0.16636 0.16914
# Poissons Ratio (y) = 0.22033 0.20086
# Poissons Ratio (z) = 0.16340 0.14651
#
# Static dielectric constant tensor:
#      x y z
#    x 2.081820 0.000000 0.000000 
#    y 0.000000 1.870890 0.000000 
#    z 0.000000 0.000000 1.672660 
# 
# From -- ./inp_files/15805.got.cif
#   From: 2010.05.17/outbox.cif.g08.bks.cpg/sg54_8_cif.got.tgz:15805.got - 2010.06.03 13:09:01.
