data_PCOD9423352
_publ_section_title
;
Structure prediction by ZEFSAII (Michael W. Deem and Ramdas Pophale) SiO2 
 PCOD9423352
Probable space group: P C C A
;
_chemical_formula_sum "Si O2"
_cell_formula_units_Z 52
_cell_length_a 20.641409
_cell_length_b 5.558116
_cell_length_c 17.006216
_cell_angle_alpha 90.000000
_cell_angle_beta 90.000000
_cell_angle_gamma 90.000000
_cell_volume 1951.078021
_symmetry_space_group_name_H-M "P C C A"
_symmetry_group_IT_number 54
_symmetry_cell_setting 'orthorhombic'
loop_
_space_group_symop_operation_xyz
x,y,z
1/2-x,-y,z
1/2+x,-y,1/2-z
-x,y,1/2-z
-x,-y,-z
1/2+x,y,-z
1/2-x,y,1/2+z
x,-y,1/2+z
loop_
_atom_site_type_symbol
_atom_site_label
_atom_site_fract_x
_atom_site_fract_y
_atom_site_fract_z
Si Si1 0.357871 0.716623 0.790408
Si Si2 0.170248 0.969090 0.128116
Si Si3 0.826255 0.526753 0.948594
Si Si4 0.359688 0.663849 0.399829
Si Si5 0.250000 0.000000 0.873688
Si Si6 0.011882 0.761082 0.391705
Si Si7 0.511192 0.256803 0.921464
O O1 0.356260 0.860564 0.709602
O O2 0.424469 0.774655 0.837377
O O3 0.289682 0.807365 0.824512
O O4 0.355184 0.429296 0.809451
O O5 0.150990 0.743048 0.072508
O O6 0.250000 0.000000 0.132499
O O7 0.149827 0.235817 0.097338
O O8 0.750000 0.500000 0.935293
O O9 0.841480 0.551559 0.040746
O O10 0.432223 0.742393 0.417443
O O11 0.306302 0.861844 0.417922
O O12 0.974448 0.509317 0.379101
O O13 0.027963 0.746876 0.485838
O O14 0.972210 0.005213 0.381782
#
# Coordination Sequence:
#
# PCOD9423352 Si02
#       7
#     8   8   8   8   4   8   8
#     4  11  22  36  58  89 122 154 201 255 305 350
#     4  10  23  38  57  78 120 162 198 231 295 368
#     4  10  23  39  55  80 119 165 198 234 289 369
#     4  11  24  36  59  90 126 159 202 258 302 357
#     4  12  22  32  56  92 124 156 198 256 308 354
#     4   9  18  33  55  83 115 150 197 241 297 350
#     4   9  18  34  54  83 115 153 191 244 297 350
#
# _framework density 26.651935000000002
#
# number of rings (size 3 to 8) (size 9 to 14) (size 15 to 20)
#    0.000    1.846    2.308    1.385    7.538    1.231 
#    0.000    0.000    0.000    0.923    0.000    2.154 
#    0.000    0.000    0.000    0.000    0.000    0.000 
#
# Total GULP energy -290475.062479 kJ/mol
# GULP energy per Si atom -5586.058894 kJ/mol
# Density = 2.659127 g / cm^3
# Si number density = 26.651935 Si / 1000 Ang^3
#
#
#
# Elastic Constant Matrix: (Units=GPa)
#
#
# Indices 1 2 3 4 5 6 
#
# 1 99.6183 43.6863 4.8609 0.0000 0.0000 0.0000
# 2 43.6863 189.7764 37.9693 0.0000 0.0000 0.0000
# 3 4.8609 37.9693 76.7955 0.0000 0.0000 0.0000
# 4 0.0000 0.0000 0.0000 16.5800 0.0000 0.0000
# 5 0.0000 0.0000 0.0000 0.0000 27.0673 0.0000
# 6 0.0000 0.0000 0.0000 0.0000 0.0000 55.5417
#
#
#
# Elastic Compliance Matrix: (Units=1/GPa)
#
#
# Indices 1 2 3 4 5 6 
#
# 1 0.011193 -0.002702 0.000628 0.000000 0.000000 0.000000
# 2 -0.002702 0.006500 -0.003043 0.000000 0.000000 0.000000
# 3 0.000628 -0.003043 0.014486 0.000000 0.000000 0.000000
# 4 0.000000 0.000000 0.000000 0.060314 0.000000 0.000000
# 5 0.000000 0.000000 0.000000 0.000000 0.036945 0.000000
# 6 0.000000 0.000000 0.000000 0.000000 0.000000 0.018004
#
#
# Mechanical properties :
#
#
# Convention : Reuss Voigt Hill
#
# Bulk Modulus (GPa) = 45.56973 59.91369 52.74171
# Shear Modulus (GPa) = 30.30454 38.48272 34.39363
#
# Velocity S-wave (km/s) = 3.37567 3.80399 3.59621
# Velocity P-wave (km/s) = 5.68584 6.46704 6.08898
#
# Compressibility (1/GPa) = 0.02194439
#
# Stress axis : x y z
#
# Youngs Moduli (GPa) = 89.34426 153.84244 69.03080
#
# Poissons Ratio (x) = 0.41570 -0.04332
# Poissons Ratio (y) = 0.24142 0.21005
# Poissons Ratio (z) = -0.05606 0.46811
#
# Static dielectric constant tensor:
#      x y z
#    x 2.115800 0.000000 0.000000 
#    y 0.000000 2.183660 0.000000 
#    z 0.000000 0.000000 2.106690 
# 
# From -- ./inp_files/19195.got.cif
#   From: 2010.05.17/outbox.cif.g08.bks.cpg/sg54_10_cif.got.tgz:19195.got - 2010.06.03 13:09:01.
