data_PCOD9423221
_publ_section_title
;
Structure prediction by ZEFSAII (Michael W. Deem and Ramdas Pophale) SiO2 
 PCOD9423221
Probable space group: P C C A
;
_chemical_formula_sum "Si O2"
_cell_formula_units_Z 32
_cell_length_a 10.825824
_cell_length_b 12.402241
_cell_length_c 11.150894
_cell_angle_alpha 90.000000
_cell_angle_beta 90.000000
_cell_angle_gamma 90.000000
_cell_volume 1497.168965
_symmetry_space_group_name_H-M "P C C A"
_symmetry_group_IT_number 54
_symmetry_cell_setting 'orthorhombic'
loop_
_space_group_symop_operation_xyz
x,y,z
1/2-x,-y,z
1/2+x,-y,1/2-z
-x,y,1/2-z
-x,-y,-z
1/2+x,y,-z
1/2-x,y,1/2+z
x,-y,1/2+z
loop_
_atom_site_type_symbol
_atom_site_label
_atom_site_fract_x
_atom_site_fract_y
_atom_site_fract_z
Si Si1 0.250000 0.500000 0.315276
Si Si2 0.505487 0.798856 0.422657
Si Si3 0.000000 0.602263 0.750000
Si Si4 0.801686 0.880817 0.730225
Si Si5 0.890649 0.292139 0.661946
O O1 0.369195 0.541718 0.241859
O O2 0.190191 0.604463 0.381051
O O3 0.488305 0.680877 0.363803
O O4 0.379484 0.861453 0.392662
O O5 0.607762 0.858373 0.341644
O O6 0.550113 0.777653 0.555525
O O7 0.698783 0.788535 0.732739
O O8 0.750000 0.000000 0.734064
O O9 0.000000 0.328456 0.750000
#
# Coordination Sequence:
#
# PCOD9423221 Si02
#       5
#     4   8   4   8   8
#     4  12  22  44  68 102 142 186 244 292 348 436
#     4  10  24  46  67  99 142 181 230 292 355 425
#     4  10  22  44  64  96 138 186 234 292 354 410
#     4  10  24  47  71  99 137 180 232 294 359 420
#     4  12  27  42  70 106 139 187 239 287 360 426
#
# _framework density 21.373671999999999
#
# number of rings (size 3 to 8) (size 9 to 14) (size 15 to 20)
#    0.000    1.500    6.250    0.000    7.000    4.000 
#    0.000    0.000    0.000    0.000    0.000    0.000 
#    0.000    0.000    0.000    0.000    0.000    0.000 
#
# Total GULP energy -178561.192247 kJ/mol
# GULP energy per Si atom -5580.037258 kJ/mol
# Density = 2.132502 g / cm^3
# Si number density = 21.373672 Si / 1000 Ang^3
#
#
#
# Elastic Constant Matrix: (Units=GPa)
#
#
# Indices 1 2 3 4 5 6 
#
# 1 146.0684 61.0206 22.4820 0.0000 0.0000 0.0000
# 2 61.0206 126.1867 4.2557 0.0000 0.0000 0.0000
# 3 22.4820 4.2557 42.6723 0.0000 0.0000 0.0000
# 4 0.0000 0.0000 0.0000 -7.0400 0.0000 0.0000
# 5 0.0000 0.0000 0.0000 0.0000 12.9338 0.0000
# 6 0.0000 0.0000 0.0000 0.0000 0.0000 42.7208
#
#
#
# Elastic Compliance Matrix: (Units=1/GPa)
#
#
# Indices 1 2 3 4 5 6 
#
# 1 0.009368 -0.004378 -0.004499 0.000000 0.000000 0.000000
# 2 -0.004378 0.009998 0.001310 0.000000 0.000000 0.000000
# 3 -0.004499 0.001310 0.025674 0.000000 0.000000 0.000000
# 4 0.000000 0.000000 0.000000 -0.142046 0.000000 0.000000
# 5 0.000000 0.000000 0.000000 0.000000 0.077317 0.000000
# 6 0.000000 0.000000 0.000000 0.000000 0.000000 0.023408
#
#
# Mechanical properties :
#
#
# Convention : Reuss Voigt Hill
#
# Bulk Modulus (GPa) = 33.43956 54.49379 43.96668
# Shear Modulus (GPa) = 173.48721 24.86752 99.17736
#
# Velocity S-wave (km/s) = 9.01914 3.41466 6.81927
# Velocity P-wave (km/s) = 11.14177 6.41074 9.08946
#
# Compressibility (1/GPa) = 0.02990470
#
# Stress axis : x y z
#
# Youngs Moduli (GPa) = 106.75188 100.02231 38.95001
#
# Poissons Ratio (x) = 0.43791 0.17522
# Poissons Ratio (y) = 0.46738 -0.05101
# Poissons Ratio (z) = 0.48024 -0.13099
#
# Static dielectric constant tensor:
#      x y z
#    x 1.822440 0.000000 0.000000 
#    y 0.000000 1.782120 0.000000 
#    z 0.000000 0.000000 1.770110 
# 
# From -- ./inp_files/6820.got.cif
#   From: 2010.05.17/outbox.cif.g08.bks.cpg/sg54_4_cif.got.tgz:6820.got - 2010.06.03 13:09:01.
