data_PCOD9423864
_publ_section_title
;
Structure prediction by ZEFSAII (Michael W. Deem and Ramdas Pophale) SiO2 
 PCOD9423864
Probable space group: P C C A
;
_chemical_formula_sum "Si O2"
_cell_formula_units_Z 48
_cell_length_a 26.617877
_cell_length_b 5.223528
_cell_length_c 13.397022
_cell_angle_alpha 90.000000
_cell_angle_beta 90.000000
_cell_angle_gamma 90.000000
_cell_volume 1862.711567
_symmetry_space_group_name_H-M "P C C A"
_symmetry_group_IT_number 54
_symmetry_cell_setting 'orthorhombic'
loop_
_space_group_symop_operation_xyz
x,y,z
1/2-x,-y,z
1/2+x,-y,1/2-z
-x,y,1/2-z
-x,-y,-z
1/2+x,y,-z
1/2-x,y,1/2+z
x,-y,1/2+z
loop_
_atom_site_type_symbol
_atom_site_label
_atom_site_fract_x
_atom_site_fract_y
_atom_site_fract_z
Si Si1 0.049417 0.378143 0.048633
Si Si2 0.264722 0.258585 0.110921
Si Si3 0.599935 0.138584 0.536304
Si Si4 0.856115 0.652410 0.278028
Si Si5 0.416734 0.163792 0.740067
Si Si6 0.701670 0.854074 0.589269
O O1 0.071699 0.119514 0.999619
O O2 0.088381 0.611923 0.030405
O O3 0.043273 0.278510 0.162438
O O4 0.000000 0.500000 0.000000
O O5 0.250000 0.500000 0.174465
O O6 0.228226 0.264833 0.011842
O O7 0.250000 0.000000 0.159744
O O8 0.325367 0.314495 0.326698
O O9 0.676234 0.266583 0.373904
O O10 0.657471 0.050605 0.557196
O O11 0.575851 0.206819 0.643592
O O12 0.900699 0.866493 0.271592
O O13 0.370783 0.356116 0.713951
O O14 0.750000 0.000000 0.630784
#
# Coordination Sequence:
#
# PCOD9423864 Si02
#       6
#     8   8   8   8   8   8
#     4  12  28  51  84 118 149 194 258 331 398 469
#     4  11  25  38  63  99 140 200 250 304 362 427
#     4  11  26  50  77 113 158 201 252 315 390 465
#     4  11  24  46  66 105 153 201 252 311 367 453
#     4  11  26  48  78 110 150 198 251 313 392 461
#     4  10  25  43  69 103 151 201 255 301 370 447
#
# _framework density 25.768882999999999
#
# number of rings (size 3 to 8) (size 9 to 14) (size 15 to 20)
#    0.000    1.000    0.000    5.000   11.667    8.000 
#    0.000    3.333    0.000    0.000    0.000    0.000 
#    0.000    0.000    0.000    0.000    0.000    0.000 
#
# Total GULP energy -267698.254826 kJ/mol
# GULP energy per Si atom -5577.046976 kJ/mol
# Density = 2.571023 g / cm^3
# Si number density = 25.768883 Si / 1000 Ang^3
#
#
#
# Elastic Constant Matrix: (Units=GPa)
#
#
# Indices 1 2 3 4 5 6 
#
# 1 96.1035 12.0684 27.7218 0.0000 0.0000 0.0000
# 2 12.0684 134.8710 35.6567 0.0000 0.0000 0.0000
# 3 27.7218 35.6567 143.3727 0.0000 0.0000 0.0000
# 4 0.0000 0.0000 0.0000 44.5399 0.0000 0.0000
# 5 0.0000 0.0000 0.0000 0.0000 26.9162 0.0000
# 6 0.0000 0.0000 0.0000 0.0000 0.0000 32.0888
#
#
#
# Elastic Compliance Matrix: (Units=1/GPa)
#
#
# Indices 1 2 3 4 5 6 
#
# 1 0.011046 -0.000454 -0.002023 0.000000 0.000000 0.000000
# 2 -0.000454 0.007955 -0.001891 0.000000 0.000000 0.000000
# 3 -0.002023 -0.001891 0.007836 0.000000 0.000000 0.000000
# 4 0.000000 0.000000 0.000000 0.022452 0.000000 0.000000
# 5 0.000000 0.000000 0.000000 0.000000 0.037152 0.000000
# 6 0.000000 0.000000 0.000000 0.000000 0.000000 0.031164
#
#
# Mechanical properties :
#
#
# Convention : Reuss Voigt Hill
#
# Bulk Modulus (GPa) = 55.24074 58.36014 56.80044
# Shear Modulus (GPa) = 37.77193 40.63567 39.20380
#
# Velocity S-wave (km/s) = 3.83273 3.97536 3.90470
# Velocity P-wave (km/s) = 6.40858 6.61574 6.51298
#
# Compressibility (1/GPa) = 0.01810258
#
# Stress axis : x y z
#
# Youngs Moduli (GPa) = 90.53089 125.70821 127.61294
#
# Poissons Ratio (x) = 0.05702 0.25816
# Poissons Ratio (y) = 0.04106 0.24128
# Poissons Ratio (z) = 0.18314 0.23767
#
# Static dielectric constant tensor:
#      x y z
#    x 2.388860 0.000000 0.000000 
#    y 0.000000 2.045160 0.000000 
#    z 0.000000 0.000000 2.074120 
# 
# From -- ./inp_files/15144.got.cif
#   From: 2010.05.17/outbox.cif.g08.bks.cpg/sg54_8_cif.got.tgz:15144.got - 2010.06.03 13:09:01.
