data_PCOD9423567
_publ_section_title
;
Structure prediction by ZEFSAII (Michael W. Deem and Ramdas Pophale) SiO2 
 PCOD9423567
Probable space group: P C C A
;
_chemical_formula_sum "Si O2"
_cell_formula_units_Z 60
_cell_length_a 8.283557
_cell_length_b 13.138077
_cell_length_c 25.093812
_cell_angle_alpha 90.000000
_cell_angle_beta 90.000000
_cell_angle_gamma 90.000000
_cell_volume 2730.959803
_symmetry_space_group_name_H-M "P C C A"
_symmetry_group_IT_number 54
_symmetry_cell_setting 'orthorhombic'
loop_
_space_group_symop_operation_xyz
x,y,z
1/2-x,-y,z
1/2+x,-y,1/2-z
-x,y,1/2-z
-x,-y,-z
1/2+x,y,-z
1/2-x,y,1/2+z
x,-y,1/2+z
loop_
_atom_site_type_symbol
_atom_site_label
_atom_site_fract_x
_atom_site_fract_y
_atom_site_fract_z
Si Si1 0.811032 0.613135 0.595422
Si Si2 0.749931 0.728938 0.490618
Si Si3 0.673307 0.213043 0.807070
Si Si4 0.516056 0.120878 0.999817
Si Si5 0.250000 0.000000 0.146342
Si Si6 0.903014 0.071332 0.611819
Si Si7 0.303776 0.613288 0.106754
Si Si8 0.787376 0.220547 0.185647
O O1 0.750000 0.500000 0.604923
O O2 0.729830 0.657294 0.541630
O O3 0.770904 0.685084 0.645511
O O4 0.006719 0.611670 0.589514
O O5 0.853231 0.822785 0.511651
O O6 0.623067 0.806570 0.462773
O O7 0.799201 0.653899 0.443556
O O8 0.748394 0.104635 0.821476
O O9 0.715698 0.304766 0.846531
O O10 0.479685 0.194211 0.813802
O O11 0.734257 0.241592 0.748087
O O12 0.559246 0.143725 0.061587
O O13 0.500000 0.000000 0.000000
O O14 0.073133 0.990067 0.117875
O O15 0.832819 0.133996 0.662240
O O16 0.750000 0.000000 0.597195
O O17 0.250000 0.500000 0.121716
#
# Coordination Sequence:
#
# PCOD9423567 Si02
#       8
#     8   8   8   8   4   8   8   8
#     4  11  25  44  70  99 131 182 241 294 361 429
#     4  12  24  45  68 101 142 181 237 287 355 440
#     4  10  24  45  71 105 140 184 244 295 361 439
#     4  12  27  41  68 105 147 192 230 287 362 439
#     4  12  26  40  72 110 142 188 242 288 354 442
#     4  12  25  44  70  99 147 193 238 288 353 426
#     4  11  26  45  69  98 139 181 238 310 361 420
#     4  10  23  46  71 100 141 186 234 300 358 432
#
# _framework density 21.970298
#
# number of rings (size 3 to 8) (size 9 to 14) (size 15 to 20)
#    0.000    0.800    4.000    2.400    6.533    3.200 
#    0.000    0.000    0.000    0.000    0.000    0.000 
#    0.000    0.000    0.000    0.000    0.000    0.000 
#
# Total GULP energy -334165.305749 kJ/mol
# GULP energy per Si atom -5569.421762 kJ/mol
# Density = 2.192029 g / cm^3
# Si number density = 21.970298 Si / 1000 Ang^3
#
#
#
# Elastic Constant Matrix: (Units=GPa)
#
#
# Indices 1 2 3 4 5 6 
#
# 1 60.6319 26.6765 13.9071 0.0000 0.0000 0.0000
# 2 26.6765 142.2037 51.1268 0.0000 0.0000 0.0000
# 3 13.9071 51.1268 143.4457 0.0000 0.0000 0.0000
# 4 0.0000 0.0000 0.0000 11.0971 0.0000 0.0000
# 5 0.0000 0.0000 0.0000 0.0000 18.0997 0.0000
# 6 0.0000 0.0000 0.0000 0.0000 0.0000 34.9748
#
#
#
# Elastic Compliance Matrix: (Units=1/GPa)
#
#
# Indices 1 2 3 4 5 6 
#
# 1 0.018025 -0.003158 -0.000622 0.000000 0.000000 0.000000
# 2 -0.003158 0.008619 -0.002766 0.000000 0.000000 0.000000
# 3 -0.000622 -0.002766 0.008017 0.000000 0.000000 0.000000
# 4 0.000000 0.000000 0.000000 0.090113 0.000000 0.000000
# 5 0.000000 0.000000 0.000000 0.000000 0.055250 0.000000
# 6 0.000000 0.000000 0.000000 0.000000 0.000000 0.028592
#
#
# Mechanical properties :
#
#
# Convention : Reuss Voigt Hill
#
# Bulk Modulus (GPa) = 46.36045 58.85579 52.60812
# Shear Modulus (GPa) = 21.84384 29.80571 25.82478
#
# Velocity S-wave (km/s) = 3.15658 3.68725 3.43219
# Velocity P-wave (km/s) = 5.86793 6.70632 6.30108
#
# Compressibility (1/GPa) = 0.02157011
#
# Stress axis : x y z
#
# Youngs Moduli (GPa) = 55.47859 116.02358 124.72907
#
# Poissons Ratio (x) = 0.36637 0.07759
# Poissons Ratio (y) = 0.17519 0.34498
# Poissons Ratio (z) = 0.03451 0.32090
#
# Static dielectric constant tensor:
#      x y z
#    x 1.872450 0.000000 0.000000 
#    y 0.000000 1.719180 0.000000 
#    z 0.000000 0.000000 1.813260 
# 
# From -- ./inp_files/25938.got.cif
#   From: 2010.05.17/outbox.cif.g08.bks.cpg/sg54_13_cif.got.tgz:25938.got - 2010.06.03 13:09:01.
