data_PCOD9423123
_publ_section_title
;
Structure prediction by ZEFSAII (Michael W. Deem and Ramdas Pophale) SiO2 
 PCOD9423123
Probable space group: P C C A
;
_chemical_formula_sum "Si O2"
_cell_formula_units_Z 60
_cell_length_a 18.309584
_cell_length_b 11.326824
_cell_length_c 13.956791
_cell_angle_alpha 90.000000
_cell_angle_beta 90.000000
_cell_angle_gamma 90.000000
_cell_volume 2894.491007
_symmetry_space_group_name_H-M "P C C A"
_symmetry_group_IT_number 54
_symmetry_cell_setting 'orthorhombic'
loop_
_space_group_symop_operation_xyz
x,y,z
1/2-x,-y,z
1/2+x,-y,1/2-z
-x,y,1/2-z
-x,-y,-z
1/2+x,y,-z
1/2-x,y,1/2+z
x,-y,1/2+z
loop_
_atom_site_type_symbol
_atom_site_label
_atom_site_fract_x
_atom_site_fract_y
_atom_site_fract_z
Si Si1 0.565743 0.928483 0.454915
Si Si2 0.797480 0.636111 0.054032
Si Si3 0.676367 0.926064 0.833610
Si Si4 0.544976 0.665295 0.462439
Si Si5 0.464729 0.428668 0.146191
Si Si6 0.250000 0.500000 0.778030
Si Si7 0.300472 0.344578 0.122528
Si Si8 0.808757 0.101627 0.611041
O O1 0.540741 0.797995 0.423193
O O2 0.624682 0.909658 0.538741
O O3 0.500000 0.000000 0.500000
O O4 0.607766 0.005251 0.376373
O O5 0.871292 0.641497 0.993139
O O6 0.730985 0.617662 0.980032
O O7 0.807975 0.546431 0.143036
O O8 0.781103 0.764864 0.098736
O O9 0.688529 0.795492 0.875221
O O10 0.667335 0.914215 0.720093
O O11 0.750000 0.000000 0.852287
O O12 0.522062 0.563136 0.388866
O O13 0.499087 0.650951 0.560993
O O14 0.500000 0.406070 0.250000
O O15 0.378109 0.403377 0.146843
O O16 0.255918 0.390925 0.704250
O O17 0.750000 0.000000 0.589349
#
# Coordination Sequence:
#
# PCOD9423123 Si02
#       8
#     8   8   8   8   8   4   8   8
#     4  11  23  42  67  97 130 172 222 275 330 405
#     4  11  22  41  66  94 133 163 223 278 318 402
#     4  11  23  43  67  96 131 169 216 272 335 394
#     4  10  23  44  64  94 130 177 219 270 340 387
#     4  11  24  42  65  92 136 179 219 268 331 403
#     4  12  22  36  58  98 128 164 222 266 320 380
#     4  12  24  40  67 100 127 177 218 273 335 386
#     4  10  22  42  66  94 129 172 210 269 338 388
#
# _framework density 20.729033000000001
#
# number of rings (size 3 to 8) (size 9 to 14) (size 15 to 20)
#    0.000    1.067    1.333    6.400    1.867    1.600 
#    2.400    0.000    0.000    0.000    0.000    0.000 
#    0.000    0.000    0.000    0.000    0.000    0.000 
#
# Total GULP energy -335172.067856 kJ/mol
# GULP energy per Si atom -5586.201131 kJ/mol
# Density = 2.068185 g / cm^3
# Si number density = 20.729033 Si / 1000 Ang^3
#
#
#
# Elastic Constant Matrix: (Units=GPa)
#
#
# Indices 1 2 3 4 5 6 
#
# 1 58.5564 12.6501 28.1329 0.0000 0.0000 0.0000
# 2 12.6501 126.8448 34.8253 0.0000 0.0000 0.0000
# 3 28.1329 34.8253 123.1097 0.0000 0.0000 0.0000
# 4 0.0000 0.0000 0.0000 34.0761 0.0000 0.0000
# 5 0.0000 0.0000 0.0000 0.0000 -115.0052 0.0000
# 6 0.0000 0.0000 0.0000 0.0000 0.0000 30.8444
#
#
#
# Elastic Compliance Matrix: (Units=1/GPa)
#
#
# Indices 1 2 3 4 5 6 
#
# 1 0.019253 -0.000772 -0.004181 0.000000 0.000000 0.000000
# 2 -0.000772 0.008578 -0.002250 0.000000 0.000000 0.000000
# 3 -0.004181 -0.002250 0.009715 0.000000 0.000000 0.000000
# 4 0.000000 0.000000 0.000000 0.029346 0.000000 0.000000
# 5 0.000000 0.000000 0.000000 0.000000 -0.008695 0.000000
# 6 0.000000 0.000000 0.000000 0.000000 0.000000 0.032421
#
#
# Mechanical properties :
#
#
# Convention : Reuss Voigt Hill
#
# Bulk Modulus (GPa) = 43.21663 51.08083 47.14873
# Shear Modulus (GPa) = 44.35039 5.50990 24.93015
#
# Velocity S-wave (km/s) = 4.63052 1.63212 3.47171
# Velocity P-wave (km/s) = 7.03439 5.31483 6.23418
#
# Compressibility (1/GPa) = 0.02313924
#
# Stress axis : x y z
#
# Youngs Moduli (GPa) = 51.93941 116.57114 102.93479
#
# Poissons Ratio (x) = 0.09001 0.43040
# Poissons Ratio (y) = 0.04010 0.23163
# Poissons Ratio (z) = 0.21717 0.26231
#
# Static dielectric constant tensor:
#      x y z
#    x 1.735010 0.000000 0.000000 
#    y 0.000000 1.803940 0.000000 
#    z 0.000000 0.000000 1.729230 
# 
# From -- ./inp_files/9603.got.cif
#   From: 2010.05.17/outbox.cif.g08.bks.cpg/sg54_5_cif.got.tgz:9603.got - 2010.06.03 13:09:01.
