data_PCOD9423928
_publ_section_title
;
Structure prediction by ZEFSAII (Michael W. Deem and Ramdas Pophale) SiO2 
 PCOD9423928
Probable space group: P C C A
;
_chemical_formula_sum "Si O2"
_cell_formula_units_Z 48
_cell_length_a 9.502963
_cell_length_b 18.470908
_cell_length_c 12.079982
_cell_angle_alpha 90.000000
_cell_angle_beta 90.000000
_cell_angle_gamma 90.000000
_cell_volume 2120.379373
_symmetry_space_group_name_H-M "P C C A"
_symmetry_group_IT_number 54
_symmetry_cell_setting 'orthorhombic'
loop_
_space_group_symop_operation_xyz
x,y,z
1/2-x,-y,z
1/2+x,-y,1/2-z
-x,y,1/2-z
-x,-y,-z
1/2+x,y,-z
1/2-x,y,1/2+z
x,-y,1/2+z
loop_
_atom_site_type_symbol
_atom_site_label
_atom_site_fract_x
_atom_site_fract_y
_atom_site_fract_z
Si Si1 0.788230 0.919285 0.629228
Si Si2 0.502223 0.861395 0.522812
Si Si3 0.499590 0.400844 0.447210
Si Si4 0.750000 0.500000 0.526424
Si Si5 0.452952 0.722380 0.120687
Si Si6 0.500000 0.296020 0.250000
Si Si7 0.791058 0.190310 0.799099
O O1 0.658922 0.885317 0.556740
O O2 0.928157 0.919228 0.556557
O O3 0.803249 0.866435 0.734110
O O4 0.750000 0.000000 0.663654
O O5 0.480530 0.785821 0.455230
O O6 0.407032 0.852610 0.631746
O O7 0.631919 0.454210 0.461117
O O8 0.355066 0.442965 0.414374
O O9 0.471914 0.354118 0.558911
O O10 0.536544 0.345109 0.352253
O O11 0.500000 0.718862 0.250000
O O12 0.296045 0.754522 0.126183
O O13 0.372371 0.243860 0.284080
#
# Coordination Sequence:
#
# PCOD9423928 Si02
#       7
#     8   8   8   4   8   4   8
#     4  12  26  45  68 100 143 193 231 297 374 427
#     4  12  24  47  70 102 140 180 247 298 347 432
#     4  11  25  47  71 104 139 185 225 282 353 421
#     4  10  26  50  64 104 152 176 226 272 346 444
#     4  12  25  43  74 104 137 186 242 296 352 410
#     4  12  24  42  80 100 132 182 238 294 350 406
#     4  12  24  44  68 105 141 178 246 303 350 426
#
# _framework density 22.637460000000001
#
# number of rings (size 3 to 8) (size 9 to 14) (size 15 to 20)
#    0.000    0.333    6.667    1.500    2.333    1.333 
#   12.000    0.000    0.000    0.000    0.000    0.000 
#    0.000    0.000    0.000    0.000    0.000    0.000 
#
# Total GULP energy -268069.897758 kJ/mol
# GULP energy per Si atom -5584.789537 kJ/mol
# Density = 2.258594 g / cm^3
# Si number density = 22.637460 Si / 1000 Ang^3
#
#
#
# Elastic Constant Matrix: (Units=GPa)
#
#
# Indices 1 2 3 4 5 6 
#
# 1 88.6378 18.5233 7.8941 0.0000 0.0000 0.0000
# 2 18.5233 111.4808 25.2721 0.0000 0.0000 0.0000
# 3 7.8941 25.2721 73.9390 0.0000 0.0000 0.0000
# 4 0.0000 0.0000 0.0000 15.0154 0.0000 0.0000
# 5 0.0000 0.0000 0.0000 0.0000 30.5608 0.0000
# 6 0.0000 0.0000 0.0000 0.0000 0.0000 23.3005
#
#
#
# Elastic Compliance Matrix: (Units=1/GPa)
#
#
# Indices 1 2 3 4 5 6 
#
# 1 0.011715 -0.001803 -0.000635 0.000000 0.000000 0.000000
# 2 -0.001803 0.010001 -0.003226 0.000000 0.000000 0.000000
# 3 -0.000635 -0.003226 0.014695 0.000000 0.000000 0.000000
# 4 0.000000 0.000000 0.000000 0.066598 0.000000 0.000000
# 5 0.000000 0.000000 0.000000 0.000000 0.032722 0.000000
# 6 0.000000 0.000000 0.000000 0.000000 0.000000 0.042917
#
#
# Mechanical properties :
#
#
# Convention : Reuss Voigt Hill
#
# Bulk Modulus (GPa) = 39.86477 41.93740 40.90109
# Shear Modulus (GPa) = 25.20970 28.59988 26.90479
#
# Velocity S-wave (km/s) = 3.34073 3.55827 3.45121
# Velocity P-wave (km/s) = 5.70341 5.95379 5.82995
#
# Compressibility (1/GPa) = 0.02508481
#
# Stress axis : x y z
#
# Youngs Moduli (GPa) = 85.35985 99.99036 68.05038
#
# Poissons Ratio (x) = 0.18025 0.04319
# Poissons Ratio (y) = 0.15388 0.21952
# Poissons Ratio (z) = 0.05417 0.32255
#
# Static dielectric constant tensor:
#      x y z
#    x 1.911770 0.000000 0.000000 
#    y 0.000000 1.842410 0.000000 
#    z 0.000000 0.000000 1.859670 
# 
# From -- ./inp_files/11767.got.cif
#   From: 2010.05.17/outbox.cif.g08.bks.cpg/sg54_6_cif.got.tgz:11767.got - 2010.06.03 13:09:01.
