data_PCOD9423911
_publ_section_title
;
Structure prediction by ZEFSAII (Michael W. Deem and Ramdas Pophale) SiO2 
 PCOD9423911
Probable space group: P C C A
;
_chemical_formula_sum "Si O2"
_cell_formula_units_Z 36
_cell_length_a 13.515253
_cell_length_b 11.045927
_cell_length_c 10.677207
_cell_angle_alpha 90.000000
_cell_angle_beta 90.000000
_cell_angle_gamma 90.000000
_cell_volume 1593.984196
_symmetry_space_group_name_H-M "P C C A"
_symmetry_group_IT_number 54
_symmetry_cell_setting 'orthorhombic'
loop_
_space_group_symop_operation_xyz
x,y,z
1/2-x,-y,z
1/2+x,-y,1/2-z
-x,y,1/2-z
-x,-y,-z
1/2+x,y,-z
1/2-x,y,1/2+z
x,-y,1/2+z
loop_
_atom_site_type_symbol
_atom_site_label
_atom_site_fract_x
_atom_site_fract_y
_atom_site_fract_z
Si Si1 0.750000 0.000000 0.870308
Si Si2 0.889954 0.802237 0.252440
Si Si3 0.803424 0.624482 0.432685
Si Si4 0.875090 0.208370 0.467681
Si Si5 0.530360 0.600803 0.107127
O O1 0.688711 0.903915 0.789678
O O2 0.837024 0.928704 0.946144
O O3 0.884965 0.686060 0.343273
O O4 0.000000 0.856256 0.250000
O O5 0.871505 0.761208 0.112892
O O6 0.750000 0.500000 0.401219
O O7 0.713845 0.715138 0.412761
O O8 0.854266 0.618123 0.570111
O O9 0.974771 0.269581 0.414984
O O10 0.500000 0.565992 0.250000
O O11 0.500000 0.500000 0.000000
#
# Coordination Sequence:
#
# PCOD9423911 Si02
#       5
#     4   8   8   8   8
#     4  10  26  46  68 106 142 196 244 312 364 428
#     4  11  24  46  75 101 143 190 248 301 366 434
#     4  11  25  44  71 105 143 188 233 298 372 439
#     4  11  25  46  70 104 144 188 249 302 365 439
#     4  12  28  46  72 109 150 189 240 300 376 449
#
# _framework density 22.584917999999998
#
# number of rings (size 3 to 8) (size 9 to 14) (size 15 to 20)
#    0.000    0.889    4.444    0.667    9.333    2.667 
#    0.000    0.000    0.000    0.000    0.000    0.000 
#    0.000    0.000    0.000    0.000    0.000    0.000 
#
# Total GULP energy -200582.154186 kJ/mol
# GULP energy per Si atom -5571.726505 kJ/mol
# Density = 2.253351 g / cm^3
# Si number density = 22.584918 Si / 1000 Ang^3
#
#
#
# Elastic Constant Matrix: (Units=GPa)
#
#
# Indices 1 2 3 4 5 6 
#
# 1 92.5935 34.7417 4.0119 0.0000 0.0000 0.0000
# 2 34.7417 95.1340 37.3826 0.0000 0.0000 0.0000
# 3 4.0119 37.3826 109.0485 0.0000 0.0000 0.0000
# 4 0.0000 0.0000 0.0000 24.3418 0.0000 0.0000
# 5 0.0000 0.0000 0.0000 0.0000 27.2428 0.0000
# 6 0.0000 0.0000 0.0000 0.0000 0.0000 43.5884
#
#
#
# Elastic Compliance Matrix: (Units=1/GPa)
#
#
# Indices 1 2 3 4 5 6 
#
# 1 0.012671 -0.005136 0.001294 0.000000 0.000000 0.000000
# 2 -0.005136 0.014230 -0.004689 0.000000 0.000000 0.000000
# 3 0.001294 -0.004689 0.010730 0.000000 0.000000 0.000000
# 4 0.000000 0.000000 0.000000 0.041082 0.000000 0.000000
# 5 0.000000 0.000000 0.000000 0.000000 0.036707 0.000000
# 6 0.000000 0.000000 0.000000 0.000000 0.000000 0.022942
#
#
# Mechanical properties :
#
#
# Convention : Reuss Voigt Hill
#
# Bulk Modulus (GPa) = 48.61561 49.89424 49.25493
# Shear Modulus (GPa) = 30.81126 33.74393 32.27760
#
# Velocity S-wave (km/s) = 3.69757 3.86954 3.78453
# Velocity P-wave (km/s) = 6.30887 6.48878 6.39946
#
# Compressibility (1/GPa) = 0.02056953
#
# Stress axis : x y z
#
# Youngs Moduli (GPa) = 78.92146 70.27605 93.19619
#
# Poissons Ratio (x) = 0.36093 -0.12064
# Poissons Ratio (y) = 0.40533 0.43700
# Poissons Ratio (z) = -0.10216 0.32953
#
# Static dielectric constant tensor:
#      x y z
#    x 2.537160 0.000000 0.000000 
#    y 0.000000 2.085500 0.000000 
#    z 0.000000 0.000000 1.798630 
# 
# From -- ./inp_files/8148.got.cif
#   From: 2010.05.17/outbox.cif.g08.bks.cpg/sg54_5_cif.got.tgz:8148.got - 2010.06.03 13:09:01.
