data_PCOD9423757
_publ_section_title
;
Structure prediction by ZEFSAII (Michael W. Deem and Ramdas Pophale) SiO2 
 PCOD9423757
Probable space group: P C C A
;
_chemical_formula_sum "Si O2"
_cell_formula_units_Z 36
_cell_length_a 8.856656
_cell_length_b 17.933304
_cell_length_c 8.762144
_cell_angle_alpha 90.000000
_cell_angle_beta 90.000000
_cell_angle_gamma 90.000000
_cell_volume 1391.683485
_symmetry_space_group_name_H-M "P C C A"
_symmetry_group_IT_number 54
_symmetry_cell_setting 'orthorhombic'
loop_
_space_group_symop_operation_xyz
x,y,z
1/2-x,-y,z
1/2+x,-y,1/2-z
-x,y,1/2-z
-x,-y,-z
1/2+x,y,-z
1/2-x,y,1/2+z
x,-y,1/2+z
loop_
_atom_site_type_symbol
_atom_site_label
_atom_site_fract_x
_atom_site_fract_y
_atom_site_fract_z
Si Si1 0.000000 0.385634 0.250000
Si Si2 0.250000 0.500000 0.747905
Si Si3 0.659110 0.293347 0.016875
Si Si4 0.500000 0.600571 0.750000
Si Si5 0.895180 0.049822 0.893246
Si Si6 0.569133 0.191598 0.578998
O O1 0.128780 0.441654 0.322126
O O2 0.103592 0.334784 0.137985
O O3 0.373372 0.551160 0.664966
O O4 0.573024 0.214887 0.021758
O O5 0.595577 0.348428 0.141087
O O6 0.826227 0.265193 0.054191
O O7 0.000000 0.071097 0.750000
O O8 0.750000 0.000000 0.847771
O O9 0.855533 0.120660 0.999229
O O10 0.000000 0.000000 0.000000
O O11 0.500000 0.178942 0.750000
#
# Coordination Sequence:
#
# PCOD9423757 Si02
#       6
#     4   4   8   4   8   8
#     4  11  24  48  74 114 161 208 274 332 415 496
#     4  10  24  44  74 108 156 214 262 342 410 498
#     4  12  27  48  77 116 160 210 270 343 406 490
#     4  11  26  44  72 112 157 208 274 340 415 490
#     4  12  28  54  84 122 165 213 270 335 403 488
#     4  12  29  51  81 117 162 212 272 328 408 479
#
# _framework density 25.867951000000001
#
# number of rings (size 3 to 8) (size 9 to 14) (size 15 to 20)
#    0.000    0.444    1.111    5.333    4.667    8.889 
#    2.000    1.111    0.000    0.000    0.000    0.000 
#    0.000    0.000    0.000    0.000    0.000    0.000 
#
# Total GULP energy -200831.974462 kJ/mol
# GULP energy per Si atom -5578.665957 kJ/mol
# Density = 2.580907 g / cm^3
# Si number density = 25.867951 Si / 1000 Ang^3
#
#
#
# Elastic Constant Matrix: (Units=GPa)
#
#
# Indices 1 2 3 4 5 6 
#
# 1 188.9098 75.3327 61.5290 0.0000 0.0000 0.0000
# 2 75.3327 152.9551 68.5050 0.0000 0.0000 0.0000
# 3 61.5290 68.5050 141.5607 0.0000 0.0000 0.0000
# 4 0.0000 0.0000 0.0000 30.8390 0.0000 0.0000
# 5 0.0000 0.0000 0.0000 0.0000 25.4345 0.0000
# 6 0.0000 0.0000 0.0000 0.0000 0.0000 71.3992
#
#
#
# Elastic Compliance Matrix: (Units=1/GPa)
#
#
# Indices 1 2 3 4 5 6 
#
# 1 0.006904 -0.002625 -0.001730 0.000000 0.000000 0.000000
# 2 -0.002625 0.009345 -0.003381 0.000000 0.000000 0.000000
# 3 -0.001730 -0.003381 0.009453 0.000000 0.000000 0.000000
# 4 0.000000 0.000000 0.000000 0.032426 0.000000 0.000000
# 5 0.000000 0.000000 0.000000 0.000000 0.039317 0.000000
# 6 0.000000 0.000000 0.000000 0.000000 0.000000 0.014006
#
#
# Mechanical properties :
#
#
# Convention : Reuss Voigt Hill
#
# Bulk Modulus (GPa) = 97.77288 99.35101 98.56195
# Shear Modulus (GPa) = 38.36293 44.07180 41.21737
#
# Velocity S-wave (km/s) = 3.85519 4.13209 3.99604
# Velocity P-wave (km/s) = 7.59576 7.82662 7.71206
#
# Compressibility (1/GPa) = 0.01022778
#
# Stress axis : x y z
#
# Youngs Moduli (GPa) = 144.84249 107.00542 105.79199
#
# Poissons Ratio (x) = 0.28093 0.18306
# Poissons Ratio (y) = 0.38027 0.35772
# Poissons Ratio (z) = 0.25063 0.36182
#
# Static dielectric constant tensor:
#      x y z
#    x 2.977220 0.000000 0.000000 
#    y 0.000000 2.118340 0.000000 
#    z 0.000000 0.000000 2.077690 
# 
# From -- ./inp_files/2510.got.cif
#   From: 2010.05.17/outbox.cif.g08.bks.cpg/sg54_2_cif.got.tgz:2510.got - 2010.06.03 13:09:01.
