data_PCOD9423932
_publ_section_title
;
Structure prediction by ZEFSAII (Michael W. Deem and Ramdas Pophale) SiO2 
 PCOD9423932
Probable space group: P C C A
;
_chemical_formula_sum "Si O2"
_cell_formula_units_Z 28
_cell_length_a 25.928363
_cell_length_b 5.047984
_cell_length_c 8.942390
_cell_angle_alpha 90.000000
_cell_angle_beta 90.000000
_cell_angle_gamma 90.000000
_cell_volume 1170.433314
_symmetry_space_group_name_H-M "P C C A"
_symmetry_group_IT_number 54
_symmetry_cell_setting 'orthorhombic'
loop_
_space_group_symop_operation_xyz
x,y,z
1/2-x,-y,z
1/2+x,-y,1/2-z
-x,y,1/2-z
-x,-y,-z
1/2+x,y,-z
1/2-x,y,1/2+z
x,-y,1/2+z
loop_
_atom_site_type_symbol
_atom_site_label
_atom_site_fract_x
_atom_site_fract_y
_atom_site_fract_z
Si Si1 0.094207 0.348649 0.463045
Si Si2 0.941801 0.834824 0.211866
Si Si3 0.800585 0.328771 0.556083
Si Si4 0.250000 0.000000 0.695110
O O1 0.057548 0.584578 0.401445
O O2 0.083454 0.266146 0.633748
O O3 0.149779 0.487840 0.447658
O O4 0.086929 0.084007 0.363914
O O5 0.000000 0.918748 0.250000
O O6 0.750000 0.500000 0.560229
O O7 0.790826 0.153610 0.701476
O O8 0.789763 0.159050 0.409153
#
# Coordination Sequence:
#
# PCOD9423932 Si02
#       4
#     8   8   8   4
#     4  12  29  48  83 116 159 214 265 324 411 472
#     4  12  27  53  82 119 161 207 272 339 397 470
#     4  11  27  45  76 111 160 206 262 322 391 480
#     4  10  26  50  72 106 168 204 260 320 394 456
#
# _framework density 23.922764000000001
#
# number of rings (size 3 to 8) (size 9 to 14) (size 15 to 20)
#    0.000    0.571    0.000    5.143   16.000    0.000 
#    0.000    0.000    0.000    0.000    0.000    0.000 
#    0.000    0.000    0.000    0.000    0.000    0.000 
#
# Total GULP energy -156868.774480 kJ/mol
# GULP energy per Si atom -5602.456231 kJ/mol
# Density = 2.386831 g / cm^3
# Si number density = 23.922764 Si / 1000 Ang^3
#
#
#
# Elastic Constant Matrix: (Units=GPa)
#
#
# Indices 1 2 3 4 5 6 
#
# 1 124.5183 50.8677 61.4996 0.0000 0.0000 0.0000
# 2 50.8677 181.5043 110.6102 0.0000 0.0000 0.0000
# 3 61.4996 110.6102 175.8002 0.0000 0.0000 0.0000
# 4 0.0000 0.0000 0.0000 81.6648 0.0000 0.0000
# 5 0.0000 0.0000 0.0000 0.0000 9.8398 0.0000
# 6 0.0000 0.0000 0.0000 0.0000 0.0000 50.5115
#
#
#
# Elastic Compliance Matrix: (Units=1/GPa)
#
#
# Indices 1 2 3 4 5 6 
#
# 1 0.009835 -0.001070 -0.002767 0.000000 0.000000 0.000000
# 2 -0.001070 0.009052 -0.005321 0.000000 0.000000 0.000000
# 3 -0.002767 -0.005321 0.010004 0.000000 0.000000 0.000000
# 4 0.000000 0.000000 0.000000 0.012245 0.000000 0.000000
# 5 0.000000 0.000000 0.000000 0.000000 0.101628 0.000000
# 6 0.000000 0.000000 0.000000 0.000000 0.000000 0.019797
#
#
# Mechanical properties :
#
#
# Convention : Reuss Voigt Hill
#
# Bulk Modulus (GPa) = 94.56660 103.08642 98.82651
# Shear Modulus (GPa) = 27.11452 45.65959 36.38705
#
# Velocity S-wave (km/s) = 3.37028 4.37352 3.90426
# Velocity P-wave (km/s) = 7.40006 8.28785 7.85650
#
# Compressibility (1/GPa) = 0.01057456
#
# Stress axis : x y z
#
# Youngs Moduli (GPa) = 101.67992 110.47174 99.95653
#
# Poissons Ratio (x) = 0.11818 0.27662
# Poissons Ratio (y) = 0.10878 0.53188
# Poissons Ratio (z) = 0.28139 0.58784
#
# Static dielectric constant tensor:
#      x y z
#    x 1.881240 0.000000 0.000000 
#    y 0.000000 1.673170 0.000000 
#    z 0.000000 0.000000 1.856480 
# 
# From -- ./inp_files/5372.got.cif
#   From: 2010.05.17/outbox.cif.g08.bks.cpg/sg54_3_cif.got.tgz:5372.got - 2010.06.03 13:09:01.
