data_PCOD9423492
_publ_section_title
;
Structure prediction by ZEFSAII (Michael W. Deem and Ramdas Pophale) SiO2 
 PCOD9423492
Probable space group: P C C A
;
_chemical_formula_sum "Si O2"
_cell_formula_units_Z 36
_cell_length_a 25.705068
_cell_length_b 4.871982
_cell_length_c 11.461243
_cell_angle_alpha 90.000000
_cell_angle_beta 90.000000
_cell_angle_gamma 90.000000
_cell_volume 1435.344510
_symmetry_space_group_name_H-M "P C C A"
_symmetry_group_IT_number 54
_symmetry_cell_setting 'orthorhombic'
loop_
_space_group_symop_operation_xyz
x,y,z
1/2-x,-y,z
1/2+x,-y,1/2-z
-x,y,1/2-z
-x,-y,-z
1/2+x,y,-z
1/2-x,y,1/2+z
x,-y,1/2+z
loop_
_atom_site_type_symbol
_atom_site_label
_atom_site_fract_x
_atom_site_fract_y
_atom_site_fract_z
Si Si1 0.250000 0.000000 0.799801
Si Si2 0.395803 0.412653 0.279890
Si Si3 0.906442 0.074931 0.365748
Si Si4 0.500000 0.815303 0.750000
Si Si5 0.750000 0.500000 0.875011
Si Si6 0.664970 0.216320 0.541519
O O1 0.238716 0.748078 0.713537
O O2 0.202414 0.991563 0.889870
O O3 0.378958 0.116132 0.233358
O O4 0.456148 0.365086 0.314269
O O5 0.362170 0.563912 0.374482
O O6 0.397971 0.611733 0.166661
O O7 0.966454 0.993532 0.341601
O O8 0.880071 0.964771 0.481379
O O9 0.797053 0.386210 0.954320
#
# Coordination Sequence:
#
# PCOD9423492 Si02
#       6
#     4   8   8   4   4   8
#     4  12  28  48  72 106 154 188 254 322 358 448
#     4  10  23  43  71 104 147 187 240 308 360 448
#     4  10  23  43  71 104 146 187 239 306 362 446
#     4   8  22  46  70 102 156 180 238 320 356 430
#     4  12  28  48  72 106 152 192 252 320 362 446
#     4  12  26  47  77 106 142 207 249 297 397 439
#
# _framework density 25.081088000000001
#
# number of rings (size 3 to 8) (size 9 to 14) (size 15 to 20)
#    1.333    0.000    0.000    4.667    0.000    9.778 
#    0.000    2.222    0.000    0.000    0.000    0.000 
#    0.000    0.000    0.000    0.000    0.000    0.000 
#
# Total GULP energy -201402.155552 kJ/mol
# GULP energy per Si atom -5594.504321 kJ/mol
# Density = 2.502400 g / cm^3
# Si number density = 25.081088 Si / 1000 Ang^3
#
#
#
# Elastic Constant Matrix: (Units=GPa)
#
#
# Indices 1 2 3 4 5 6 
#
# 1 106.2715 7.9287 16.7367 0.0000 0.0000 0.0000
# 2 7.9287 95.5877 -8.0214 0.0000 0.0000 0.0000
# 3 16.7367 -8.0214 44.6403 0.0000 0.0000 0.0000
# 4 0.0000 0.0000 0.0000 42.3812 0.0000 0.0000
# 5 0.0000 0.0000 0.0000 0.0000 57.5437 0.0000
# 6 0.0000 0.0000 0.0000 0.0000 0.0000 39.6432
#
#
#
# Elastic Compliance Matrix: (Units=1/GPa)
#
#
# Indices 1 2 3 4 5 6 
#
# 1 0.010129 -0.001177 -0.004009 0.000000 0.000000 0.000000
# 2 -0.001177 0.010758 0.002374 0.000000 0.000000 0.000000
# 3 -0.004009 0.002374 0.024331 0.000000 0.000000 0.000000
# 4 0.000000 0.000000 0.000000 0.023595 0.000000 0.000000
# 5 0.000000 0.000000 0.000000 0.000000 0.017378 0.000000
# 6 0.000000 0.000000 0.000000 0.000000 0.000000 0.025225
#
#
# Mechanical properties :
#
#
# Convention : Reuss Voigt Hill
#
# Bulk Modulus (GPa) = 25.25520 31.08750 28.17135
# Shear Modulus (GPa) = 38.39121 43.23732 40.81426
#
# Velocity S-wave (km/s) = 3.91664 4.15649 4.03835
# Velocity P-wave (km/s) = 5.52673 5.95457 5.74463
#
# Compressibility (1/GPa) = 0.03959580
#
# Stress axis : x y z
#
# Youngs Moduli (GPa) = 98.72620 92.95032 41.09988
#
# Poissons Ratio (x) = 0.10936 0.16477
# Poissons Ratio (y) = 0.11616 -0.09758
# Poissons Ratio (z) = 0.39580 -0.22069
#
# Static dielectric constant tensor:
#      x y z
#    x 1.970810 0.000000 0.000000 
#    y 0.000000 1.884170 0.000000 
#    z 0.000000 0.000000 2.019690 
# 
# From -- ./inp_files/10417.got.cif
#   From: 2010.05.17/outbox.cif.g08.bks.cpg/sg54_6_cif.got.tgz:10417.got - 2010.06.03 13:09:01.
