data_PCOD9423288
_publ_section_title
;
Structure prediction by ZEFSAII (Michael W. Deem and Ramdas Pophale) SiO2 
 PCOD9423288
Probable space group: P C C A
;
_chemical_formula_sum "Si O2"
_cell_formula_units_Z 32
_cell_length_a 13.334669
_cell_length_b 9.281850
_cell_length_c 11.196561
_cell_angle_alpha 90.000000
_cell_angle_beta 90.000000
_cell_angle_gamma 90.000000
_cell_volume 1385.802805
_symmetry_space_group_name_H-M "P C C A"
_symmetry_group_IT_number 54
_symmetry_cell_setting 'orthorhombic'
loop_
_space_group_symop_operation_xyz
x,y,z
1/2-x,-y,z
1/2+x,-y,1/2-z
-x,y,1/2-z
-x,-y,-z
1/2+x,y,-z
1/2-x,y,1/2+z
x,-y,1/2+z
loop_
_atom_site_type_symbol
_atom_site_label
_atom_site_fract_x
_atom_site_fract_y
_atom_site_fract_z
Si Si1 0.430282 0.363848 0.635859
Si Si2 0.521135 0.923110 0.628110
Si Si3 0.790798 0.157669 0.492620
Si Si4 0.103886 0.329596 0.557850
O O1 0.500000 0.358904 0.750000
O O2 0.351989 0.236087 0.613204
O O3 0.377505 0.519808 0.623338
O O4 0.509861 0.351594 0.528750
O O5 0.500000 0.010946 0.750000
O O6 0.633459 0.865170 0.603726
O O7 0.438671 0.796774 0.641252
O O8 0.500000 0.000000 0.500000
O O9 0.697799 0.264728 0.513588
O O10 0.750000 0.000000 0.460406
#
# Coordination Sequence:
#
# PCOD9423288 Si02
#       4
#     8   8   8   8
#     4  10  23  43  72 100 142 193 244 307 380 450
#     4  11  24  44  68 100 149 194 242 311 384 444
#     4  11  23  45  67 106 142 189 246 311 373 453
#     4  10  22  45  67 100 142 188 246 307 368 452
#
# _framework density 23.091308000000001
#
# number of rings (size 3 to 8) (size 9 to 14) (size 15 to 20)
#    0.000    1.500    2.500    1.500    0.000    6.000 
#    4.500    7.500    0.000    0.000    0.000    0.000 
#    0.000    0.000    0.000    0.000    0.000    0.000 
#
# Total GULP energy -178607.436227 kJ/mol
# GULP energy per Si atom -5581.482382 kJ/mol
# Density = 2.303875 g / cm^3
# Si number density = 23.091308 Si / 1000 Ang^3
#
#
#
# Elastic Constant Matrix: (Units=GPa)
#
#
# Indices 1 2 3 4 5 6 
#
# 1 124.9585 59.3220 13.0922 0.0000 0.0000 0.0000
# 2 59.3220 163.5104 45.0453 0.0000 0.0000 0.0000
# 3 13.0922 45.0453 73.4540 0.0000 0.0000 0.0000
# 4 0.0000 0.0000 0.0000 12.7758 0.0000 0.0000
# 5 0.0000 0.0000 0.0000 0.0000 35.5933 0.0000
# 6 0.0000 0.0000 0.0000 0.0000 0.0000 60.1149
#
#
#
# Elastic Compliance Matrix: (Units=1/GPa)
#
#
# Indices 1 2 3 4 5 6 
#
# 1 0.009684 -0.003655 0.000516 0.000000 0.000000 0.000000
# 2 -0.003655 0.008739 -0.004708 0.000000 0.000000 0.000000
# 3 0.000516 -0.004708 0.016409 0.000000 0.000000 0.000000
# 4 0.000000 0.000000 0.000000 0.078273 0.000000 0.000000
# 5 0.000000 0.000000 0.000000 0.000000 0.028095 0.000000
# 6 0.000000 0.000000 0.000000 0.000000 0.000000 0.016635
#
#
# Mechanical properties :
#
#
# Convention : Reuss Voigt Hill
#
# Bulk Modulus (GPa) = 52.25444 66.31575 59.28510
# Shear Modulus (GPa) = 27.79186 37.99435 32.89311
#
# Velocity S-wave (km/s) = 3.47301 4.06075 3.77832
# Velocity P-wave (km/s) = 6.22583 7.12513 6.69061
#
# Compressibility (1/GPa) = 0.01913713
#
# Stress axis : x y z
#
# Youngs Moduli (GPa) = 103.26326 114.43102 60.94236
#
# Poissons Ratio (x) = 0.41829 -0.03142
# Poissons Ratio (y) = 0.37747 0.28689
# Poissons Ratio (z) = -0.05325 0.53869
#
# Static dielectric constant tensor:
#      x y z
#    x 1.906430 0.000000 0.000000 
#    y 0.000000 1.968170 0.000000 
#    z 0.000000 0.000000 1.979240 
# 
# From -- ./inp_files/7906.got.cif
#   From: 2010.05.17/outbox.cif.g08.bks.cpg/sg54_4_cif.got.tgz:7906.got - 2010.06.03 13:09:01.
