data_PCOD9423538
_publ_section_title
;
Structure prediction by ZEFSAII (Michael W. Deem and Ramdas Pophale) SiO2 
 PCOD9423538
Probable space group: P C C A
;
_chemical_formula_sum "Si O2"
_cell_formula_units_Z 36
_cell_length_a 9.389082
_cell_length_b 12.629163
_cell_length_c 11.394685
_cell_angle_alpha 90.000000
_cell_angle_beta 90.000000
_cell_angle_gamma 90.000000
_cell_volume 1351.138983
_symmetry_space_group_name_H-M "P C C A"
_symmetry_group_IT_number 54
_symmetry_cell_setting 'orthorhombic'
loop_
_space_group_symop_operation_xyz
x,y,z
1/2-x,-y,z
1/2+x,-y,1/2-z
-x,y,1/2-z
-x,-y,-z
1/2+x,y,-z
1/2-x,y,1/2+z
x,-y,1/2+z
loop_
_atom_site_type_symbol
_atom_site_label
_atom_site_fract_x
_atom_site_fract_y
_atom_site_fract_z
Si Si1 0.029082 0.198473 0.522453
Si Si2 0.019149 0.579823 0.391282
Si Si3 0.349463 0.288180 0.682346
Si Si4 0.750000 0.500000 0.726984
Si Si5 0.776971 0.881939 0.150967
O O1 0.060813 0.310852 0.585848
O O2 0.901609 0.239431 0.438282
O O3 0.940109 0.123373 0.607744
O O4 0.156481 0.145791 0.449201
O O5 0.188658 0.584207 0.371411
O O6 0.000000 0.545559 0.250000
O O7 0.000000 0.500000 0.500000
O O8 0.500000 0.292455 0.750000
O O9 0.301941 0.409488 0.682443
O O10 0.250251 0.205213 0.749565
O O11 0.750000 0.000000 0.194697
#
# Coordination Sequence:
#
# PCOD9423538 Si02
#       5
#     8   8   8   4   8
#     4  11  25  45  72 109 148 192 258 321 388 465
#     4  12  27  44  71 110 154 205 257 318 388 467
#     4  10  23  45  66 101 149 198 250 320 392 462
#     4  12  22  44  72 102 150 202 260 308 392 472
#     4  11  24  47  73 104 144 198 257 324 393 458
#
# _framework density 26.644188
#
# number of rings (size 3 to 8) (size 9 to 14) (size 15 to 20)
#    0.000    0.889    2.222    5.333    3.111    2.667 
#    0.000    5.556    0.000    0.000    0.000    0.000 
#    0.000    0.000    0.000    0.000    0.000    0.000 
#
# Total GULP energy -200746.209480 kJ/mol
# GULP energy per Si atom -5576.283597 kJ/mol
# Density = 2.658354 g / cm^3
# Si number density = 26.644188 Si / 1000 Ang^3
#
#
#
# Elastic Constant Matrix: (Units=GPa)
#
#
# Indices 1 2 3 4 5 6 
#
# 1 49.4463 28.5684 24.5199 0.0000 0.0000 0.0000
# 2 28.5684 170.0148 37.3030 0.0000 0.0000 0.0000
# 3 24.5199 37.3030 116.8564 0.0000 0.0000 0.0000
# 4 0.0000 0.0000 0.0000 7.6921 0.0000 0.0000
# 5 0.0000 0.0000 0.0000 0.0000 30.4523 0.0000
# 6 0.0000 0.0000 0.0000 0.0000 0.0000 41.1024
#
#
#
# Elastic Compliance Matrix: (Units=1/GPa)
#
#
# Indices 1 2 3 4 5 6 
#
# 1 0.024050 -0.003155 -0.004039 0.000000 0.000000 0.000000
# 2 -0.003155 0.006739 -0.001489 0.000000 0.000000 0.000000
# 3 -0.004039 -0.001489 0.009880 0.000000 0.000000 0.000000
# 4 0.000000 0.000000 0.000000 0.130004 0.000000 0.000000
# 5 0.000000 0.000000 0.000000 0.000000 0.032838 0.000000
# 6 0.000000 0.000000 0.000000 0.000000 0.000000 0.024329
#
#
# Mechanical properties :
#
#
# Convention : Reuss Voigt Hill
#
# Bulk Modulus (GPa) = 42.91422 57.45554 50.18488
# Shear Modulus (GPa) = 19.76486 32.24445 26.00465
#
# Velocity S-wave (km/s) = 2.72657 3.48255 3.12748
# Velocity P-wave (km/s) = 5.10427 6.14668 5.64957
#
# Compressibility (1/GPa) = 0.02330230
#
# Stress axis : x y z
#
# Youngs Moduli (GPa) = 41.58045 148.39627 101.21024
#
# Poissons Ratio (x) = 0.46818 0.40881
# Poissons Ratio (y) = 0.13118 0.15072
# Poissons Ratio (z) = 0.16795 0.22098
#
# Static dielectric constant tensor:
#      x y z
#    x 1.634680 0.000000 0.000000 
#    y 0.000000 1.996460 0.000000 
#    z 0.000000 0.000000 2.121240 
# 
# From -- ./inp_files/7410.got.cif
#   From: 2010.05.17/outbox.cif.g08.bks.cpg/sg54_4_cif.got.tgz:7410.got - 2010.06.03 13:09:01.
