data_PCOD9423423
_publ_section_title
;
Structure prediction by ZEFSAII (Michael W. Deem and Ramdas Pophale) SiO2 
 PCOD9423423
Probable space group: P C C A
;
_chemical_formula_sum "Si O2"
_cell_formula_units_Z 24
_cell_length_a 5.151798
_cell_length_b 7.313992
_cell_length_c 25.629128
_cell_angle_alpha 90.000000
_cell_angle_beta 90.000000
_cell_angle_gamma 90.000000
_cell_volume 965.710909
_symmetry_space_group_name_H-M "P C C A"
_symmetry_group_IT_number 54
_symmetry_cell_setting 'orthorhombic'
loop_
_space_group_symop_operation_xyz
x,y,z
1/2-x,-y,z
1/2+x,-y,1/2-z
-x,y,1/2-z
-x,-y,-z
1/2+x,y,-z
1/2-x,y,1/2+z
x,-y,1/2+z
loop_
_atom_site_type_symbol
_atom_site_label
_atom_site_fract_x
_atom_site_fract_y
_atom_site_fract_z
Si Si1 0.850120 0.298214 0.200532
Si Si2 0.157823 0.792769 0.138271
Si Si3 0.495064 0.294242 0.023179
O O1 0.750000 0.500000 0.215739
O O2 0.590185 0.207283 0.177335
O O3 0.000000 0.211220 0.250000
O O4 0.084435 0.309575 0.158954
O O5 0.063642 0.708877 0.083945
O O6 0.250000 0.000000 0.129976
O O7 0.500000 0.500000 0.000000
O O8 0.765835 0.205139 0.009459
#
# Coordination Sequence:
#
# PCOD9423423 Si02
#       3
#     8   8   8
#     4  12  27  49  76 108 146 197 256 307 368 458
#     4  12  27  46  76 113 153 196 247 315 383 443
#     4  10  23  41  68 107 143 200 247 303 361 441
#
# _framework density 24.852156999999998
#
# number of rings (size 3 to 8) (size 9 to 14) (size 15 to 20)
#    0.000    0.667    0.000    7.000   14.000    4.000 
#    0.000    1.667    0.000    0.000    0.000    0.000 
#    0.000    0.000    0.000    0.000    0.000    0.000 
#
# Total GULP energy -134353.011876 kJ/mol
# GULP energy per Si atom -5598.042162 kJ/mol
# Density = 2.479559 g / cm^3
# Si number density = 24.852157 Si / 1000 Ang^3
#
#
#
# Elastic Constant Matrix: (Units=GPa)
#
#
# Indices 1 2 3 4 5 6 
#
# 1 223.7780 28.0968 59.6363 0.0000 0.0000 0.0000
# 2 28.0968 102.1732 34.4824 0.0000 0.0000 0.0000
# 3 59.6363 34.4824 137.4837 0.0000 0.0000 0.0000
# 4 0.0000 0.0000 0.0000 -81.3859 0.0000 0.0000
# 5 0.0000 0.0000 0.0000 0.0000 -86.1624 0.0000
# 6 0.0000 0.0000 0.0000 0.0000 0.0000 18.8668
#
#
#
# Elastic Compliance Matrix: (Units=1/GPa)
#
#
# Indices 1 2 3 4 5 6 
#
# 1 0.005100 -0.000717 -0.002033 0.000000 0.000000 0.000000
# 2 -0.000717 0.010793 -0.002396 0.000000 0.000000 0.000000
# 3 -0.002033 -0.002396 0.008756 0.000000 0.000000 0.000000
# 4 0.000000 0.000000 0.000000 -0.012287 0.000000 0.000000
# 5 0.000000 0.000000 0.000000 0.000000 -0.011606 0.000000
# 6 0.000000 0.000000 0.000000 0.000000 0.000000 0.053003
#
#
# Mechanical properties :
#
#
# Convention : Reuss Voigt Hill
#
# Bulk Modulus (GPa) = 69.64333 78.65175 74.14754
# Shear Modulus (GPa) = 72.63550 -6.98833 32.82359
#
# Velocity S-wave (km/s) = 5.41207 -1.67871 3.63816
# Velocity P-wave (km/s) = 8.19377 5.28764 6.89554
#
# Compressibility (1/GPa) = 0.01435888
#
# Stress axis : x y z
#
# Youngs Moduli (GPa) = 196.06360 92.65237 114.20361
#
# Poissons Ratio (x) = 0.06639 0.23214
# Poissons Ratio (y) = 0.14049 0.27365
# Poissons Ratio (z) = 0.39853 0.22201
#
# Static dielectric constant tensor:
#      x y z
#    x 1.769530 0.000000 0.000000 
#    y 0.000000 2.021050 0.000000 
#    z 0.000000 0.000000 1.963410 
# 
# From -- ./inp_files/22527.got.cif
#   From: 2010.05.17/outbox.cif.g08.bks.cpg/sg54_12_cif.got.tgz:22527.got - 2010.06.03 13:09:01.
