data_PCOD9423602
_publ_section_title
;
Structure prediction by ZEFSAII (Michael W. Deem and Ramdas Pophale) SiO2 
 PCOD9423602
Probable space group: P C C A
;
_chemical_formula_sum "Si O2"
_cell_formula_units_Z 56
_cell_length_a 7.914602
_cell_length_b 15.372783
_cell_length_c 21.275360
_cell_angle_alpha 90.000000
_cell_angle_beta 90.000000
_cell_angle_gamma 90.000000
_cell_volume 2588.561543
_symmetry_space_group_name_H-M "P C C A"
_symmetry_group_IT_number 54
_symmetry_cell_setting 'orthorhombic'
loop_
_space_group_symop_operation_xyz
x,y,z
1/2-x,-y,z
1/2+x,-y,1/2-z
-x,y,1/2-z
-x,-y,-z
1/2+x,y,-z
1/2-x,y,1/2+z
x,-y,1/2+z
loop_
_atom_site_type_symbol
_atom_site_label
_atom_site_fract_x
_atom_site_fract_y
_atom_site_fract_z
Si Si1 0.887518 0.332636 0.081059
Si Si2 0.427264 0.162251 0.144439
Si Si3 0.500000 0.276528 0.250000
Si Si4 0.996043 0.305286 0.557579
Si Si5 0.945962 0.793562 0.821304
Si Si6 0.445184 0.981096 0.323062
Si Si7 0.750000 0.500000 0.148427
Si Si8 0.603728 0.573114 0.828882
O O1 0.701866 0.292632 0.071331
O O2 0.838257 0.427549 0.105635
O O3 0.998499 0.283518 0.132925
O O4 0.978159 0.330592 0.014152
O O5 0.554366 0.213653 0.192634
O O6 0.423902 0.213895 0.079216
O O7 0.249710 0.180886 0.177368
O O8 0.461487 0.060463 0.142475
O O9 0.369094 0.344481 0.217597
O O10 0.075701 0.379798 0.603081
O O11 0.000000 0.775538 0.750000
O O12 0.027705 0.883416 0.845828
O O13 0.500000 0.984030 0.250000
O O14 0.250000 0.000000 0.326400
O O15 0.585820 0.464210 0.185173
O O16 0.750000 0.500000 0.828643
#
# Coordination Sequence:
#
# PCOD9423602 Si02
#       8
#     8   8   4   8   8   8   4   8
#     4  11  24  45  65  98 130 175 234 278 347 400
#     4  11  22  41  66  95 137 173 223 275 344 408
#     4  10  24  38  62  92 132 180 214 278 338 402
#     4  10  24  41  69  93 132 176 225 284 334 409
#     4  11  25  39  68  99 133 178 222 278 344 412
#     4  11  21  37  63  96 134 172 222 274 334 415
#     4  10  26  40  66  92 130 170 236 284 332 412
#     4  10  24  42  62  94 130 178 229 278 348 393
#
# _framework density 21.633637
#
# number of rings (size 3 to 8) (size 9 to 14) (size 15 to 20)
#    0.000    1.429    0.714    3.857   14.000    1.143 
#    1.286    0.714    0.000    0.000    0.000    0.000 
#    0.000    0.000    0.000    0.000    0.000    0.000 
#
# Total GULP energy -312750.253552 kJ/mol
# GULP energy per Si atom -5584.825956 kJ/mol
# Density = 2.158440 g / cm^3
# Si number density = 21.633637 Si / 1000 Ang^3
#
#
#
# Elastic Constant Matrix: (Units=GPa)
#
#
# Indices 1 2 3 4 5 6 
#
# 1 67.6326 0.1007 22.2503 0.0000 0.0000 0.0000
# 2 0.1007 103.9793 37.8059 0.0000 0.0000 0.0000
# 3 22.2503 37.8059 85.1209 0.0000 0.0000 0.0000
# 4 0.0000 0.0000 0.0000 -19.0860 0.0000 0.0000
# 5 0.0000 0.0000 0.0000 0.0000 23.6778 0.0000
# 6 0.0000 0.0000 0.0000 0.0000 0.0000 32.1533
#
#
#
# Elastic Compliance Matrix: (Units=1/GPa)
#
#
# Indices 1 2 3 4 5 6 
#
# 1 0.016469 0.001848 -0.005126 0.000000 0.000000 0.000000
# 2 0.001848 0.011677 -0.005669 0.000000 0.000000 0.000000
# 3 -0.005126 -0.005669 0.015606 0.000000 0.000000 0.000000
# 4 0.000000 0.000000 0.000000 -0.052394 0.000000 0.000000
# 5 0.000000 0.000000 0.000000 0.000000 0.042234 0.000000
# 6 0.000000 0.000000 0.000000 0.000000 0.000000 0.031101
#
#
# Mechanical properties :
#
#
# Convention : Reuss Voigt Hill
#
# Bulk Modulus (GPa) = 38.67337 41.89406 40.28372
# Shear Modulus (GPa) = 54.82136 20.45409 37.63772
#
# Velocity S-wave (km/s) = 5.03943 3.07820 4.17559
# Velocity P-wave (km/s) = 7.19558 5.66048 6.47369
#
# Compressibility (1/GPa) = 0.02585759
#
# Stress axis : x y z
#
# Youngs Moduli (GPa) = 60.71911 85.64028 64.07908
#
# Poissons Ratio (x) = -0.15824 0.32845
# Poissons Ratio (y) = -0.11219 0.36327
# Poissons Ratio (z) = 0.31122 0.48551
#
# Static dielectric constant tensor:
#      x y z
#    x 1.866120 0.000000 0.000000 
#    y 0.000000 1.851000 0.000000 
#    z 0.000000 0.000000 1.785480 
# 
# From -- ./inp_files/20597.got.cif
#   From: 2010.05.17/outbox.cif.g08.bks.cpg/sg54_11_cif.got.tgz:20597.got - 2010.06.03 13:09:01.
