data_PCOD9423216
_publ_section_title
;
Structure prediction by ZEFSAII (Michael W. Deem and Ramdas Pophale) SiO2 
 PCOD9423216
Probable space group: P C C A
;
_chemical_formula_sum "Si O2"
_cell_formula_units_Z 56
_cell_length_a 13.869100
_cell_length_b 13.370628
_cell_length_c 15.180763
_cell_angle_alpha 90.000000
_cell_angle_beta 90.000000
_cell_angle_gamma 90.000000
_cell_volume 2815.099085
_symmetry_space_group_name_H-M "P C C A"
_symmetry_group_IT_number 54
_symmetry_cell_setting 'orthorhombic'
loop_
_space_group_symop_operation_xyz
x,y,z
1/2-x,-y,z
1/2+x,-y,1/2-z
-x,y,1/2-z
-x,-y,-z
1/2+x,y,-z
1/2-x,y,1/2+z
x,-y,1/2+z
loop_
_atom_site_type_symbol
_atom_site_label
_atom_site_fract_x
_atom_site_fract_y
_atom_site_fract_z
Si Si1 0.545959 0.215302 0.590977
Si Si2 0.340271 0.142969 0.072549
Si Si3 0.006240 0.549521 0.901261
Si Si4 0.388269 0.239057 0.251673
Si Si5 0.638799 0.525537 0.748736
Si Si6 0.223606 0.890204 0.813039
Si Si7 0.642931 0.914758 0.385003
O O1 0.588552 0.191991 0.495800
O O2 0.513144 0.330265 0.595153
O O3 0.635765 0.175693 0.649390
O O4 0.453611 0.147963 0.611570
O O5 0.345831 0.212412 0.157045
O O6 0.226735 0.129318 0.051376
O O7 0.374672 0.030249 0.092400
O O8 0.099619 0.520362 0.842786
O O9 0.920733 0.513416 0.834579
O O10 0.000000 0.500000 0.000000
O O11 0.500000 0.208977 0.250000
O O12 0.378832 0.356737 0.263512
O O13 0.321036 0.174972 0.316052
O O14 0.750000 0.500000 0.761152
O O15 0.188496 0.911384 0.712785
O O16 0.250000 0.000000 0.851785
#
# Coordination Sequence:
#
# PCOD9423216 Si02
#       7
#     8   8   8   8   8   8   8
#     4  12  26  39  73  95 138 177 230 281 352 401
#     4  10  23  42  61 101 132 175 219 280 334 417
#     4  11  26  49  68 106 140 180 242 295 351 418
#     4  11  22  42  70  91 132 180 223 270 346 410
#     4  11  25  46  73  99 137 183 241 297 349 417
#     4  11  24  41  66 103 133 175 226 275 340 425
#     4  10  22  44  63  93 140 173 223 272 344 415
#
# _framework density 19.892727000000001
#
# number of rings (size 3 to 8) (size 9 to 14) (size 15 to 20)
#    0.000    1.143    4.286    2.571   12.000    1.714 
#    2.571    0.000    0.000    0.000    0.000    0.000 
#    0.000    0.000    0.000    0.000    0.000    0.000 
#
# Total GULP energy -312412.132142 kJ/mol
# GULP energy per Si atom -5578.788074 kJ/mol
# Density = 1.984745 g / cm^3
# Si number density = 19.892727 Si / 1000 Ang^3
#
#
#
# Elastic Constant Matrix: (Units=GPa)
#
#
# Indices 1 2 3 4 5 6 
#
# 1 118.9451 47.0750 2.8647 0.0000 0.0000 0.0000
# 2 47.0750 119.3620 13.5594 0.0000 0.0000 0.0000
# 3 2.8647 13.5594 59.1385 0.0000 0.0000 0.0000
# 4 0.0000 0.0000 0.0000 20.5458 0.0000 0.0000
# 5 0.0000 0.0000 0.0000 0.0000 25.1300 0.0000
# 6 0.0000 0.0000 0.0000 0.0000 0.0000 50.6931
#
#
#
# Elastic Compliance Matrix: (Units=1/GPa)
#
#
# Indices 1 2 3 4 5 6 
#
# 1 0.009973 -0.003982 0.000430 0.000000 0.000000 0.000000
# 2 -0.003982 0.010192 -0.002144 0.000000 0.000000 0.000000
# 3 0.000430 -0.002144 0.017380 0.000000 0.000000 0.000000
# 4 0.000000 0.000000 0.000000 0.048672 0.000000 0.000000
# 5 0.000000 0.000000 0.000000 0.000000 0.039793 0.000000
# 6 0.000000 0.000000 0.000000 0.000000 0.000000 0.019727
#
#
# Mechanical properties :
#
#
# Convention : Reuss Voigt Hill
#
# Bulk Modulus (GPa) = 38.23671 47.16042 42.69857
# Shear Modulus (GPa) = 30.14848 34.87022 32.50935
#
# Velocity S-wave (km/s) = 3.89723 4.19132 4.04695
# Velocity P-wave (km/s) = 6.28605 6.86890 6.58393
#
# Compressibility (1/GPa) = 0.02615288
#
# Stress axis : x y z
#
# Youngs Moduli (GPa) = 100.27221 98.11733 57.53673
#
# Poissons Ratio (x) = 0.39070 -0.02474
# Poissons Ratio (y) = 0.39929 0.12335
# Poissons Ratio (z) = -0.04311 0.21036
#
# Static dielectric constant tensor:
#      x y z
#    x 1.716850 0.000000 0.000000 
#    y 0.000000 1.723200 0.000000 
#    z 0.000000 0.000000 1.795470 
# 
# From -- ./inp_files/13474.got.cif
#   From: 2010.05.17/outbox.cif.g08.bks.cpg/sg54_7_cif.got.tgz:13474.got - 2010.06.03 13:09:01.
