data_PCOD9423073
_publ_section_title
;
Structure prediction by ZEFSAII (Michael W. Deem and Ramdas Pophale) SiO2 
 PCOD9423073
Probable space group: P C C A
;
_chemical_formula_sum "Si O2"
_cell_formula_units_Z 52
_cell_length_a 13.717558
_cell_length_b 10.101978
_cell_length_c 14.405876
_cell_angle_alpha 90.000000
_cell_angle_beta 90.000000
_cell_angle_gamma 90.000000
_cell_volume 1996.286619
_symmetry_space_group_name_H-M "P C C A"
_symmetry_group_IT_number 54
_symmetry_cell_setting 'orthorhombic'
loop_
_space_group_symop_operation_xyz
x,y,z
1/2-x,-y,z
1/2+x,-y,1/2-z
-x,y,1/2-z
-x,-y,-z
1/2+x,y,-z
1/2-x,y,1/2+z
x,-y,1/2+z
loop_
_atom_site_type_symbol
_atom_site_label
_atom_site_fract_x
_atom_site_fract_y
_atom_site_fract_z
Si Si1 0.527788 0.211775 0.388301
Si Si2 0.500000 0.000000 0.250000
Si Si3 0.797697 0.366686 0.147943
Si Si4 0.702303 0.366686 0.352058
Si Si5 0.185968 0.883253 0.602862
Si Si6 0.814032 0.116747 0.602862
Si Si7 0.527788 0.211775 0.611699
O O1 0.412652 0.192306 0.364899
O O2 0.585563 0.343696 0.356497
O O3 0.536635 0.200102 0.500000
O O4 0.561941 0.089781 0.322246
O O5 0.587348 0.807695 0.364899
O O6 0.750000 0.500000 0.108613
O O7 0.750000 0.357071 0.250000
O O8 0.760835 0.237313 0.096732
O O9 0.914437 0.343696 0.143504
O O10 0.750000 0.500000 0.391387
O O11 0.739165 0.237313 0.403268
O O12 0.158827 0.934232 0.500000
O O13 0.250000 0.000000 0.647169
O O14 0.750000 0.000000 0.647169
O O15 0.938059 0.910220 0.677754
#
# Coordination Sequence:
#
# PCOD9423073 Si02
#       7
#     8   4   8   8   8   8   8
#     4  11  24  42  69 105 145 194 250 309 381 463
#     4  12  22  40  70 104 148 190 234 306 386 458
#     4  11  25  44  66  96 140 195 255 318 380 444
#     4  11  25  44  66  96 140 195 255 318 380 444
#     4  10  22  41  67 101 139 180 234 303 379 460
#     4  10  22  41  67 101 139 180 234 303 379 460
#     4  11  24  42  69 105 145 194 250 309 381 463
#
# _framework density 26.048361
#
# number of rings (size 3 to 8) (size 9 to 14) (size 15 to 20)
#    0.000    1.231    0.000    5.077    0.000    6.769 
#    0.000    6.154    0.000    0.000    0.000    0.000 
#    0.000    0.000    0.000    0.000    0.000    0.000 
#
# Total GULP energy -289701.184001 kJ/mol
# GULP energy per Si atom -5571.176615 kJ/mol
# Density = 2.598907 g / cm^3
# Si number density = 26.048361 Si / 1000 Ang^3
#
#
#
# Elastic Constant Matrix: (Units=GPa)
#
#
# Indices 1 2 3 4 5 6 
#
# 1 193.5334 58.4924 8.6956 0.0000 0.0000 0.0000
# 2 58.4924 174.8405 19.6022 0.0000 0.0000 0.0000
# 3 8.6956 19.6022 183.7216 0.0000 0.0000 0.0000
# 4 0.0000 0.0000 0.0000 28.4764 0.0000 0.0000
# 5 0.0000 0.0000 0.0000 0.0000 19.1453 0.0000
# 6 0.0000 0.0000 0.0000 0.0000 0.0000 57.4432
#
#
#
# Elastic Compliance Matrix: (Units=1/GPa)
#
#
# Indices 1 2 3 4 5 6 
#
# 1 0.005749 -0.001916 -0.000068 0.000000 0.000000 0.000000
# 2 -0.001916 0.006427 -0.000595 0.000000 0.000000 0.000000
# 3 -0.000068 -0.000595 0.005510 0.000000 0.000000 0.000000
# 4 0.000000 0.000000 0.000000 0.035117 0.000000 0.000000
# 5 0.000000 0.000000 0.000000 0.000000 0.052232 0.000000
# 6 0.000000 0.000000 0.000000 0.000000 0.000000 0.017409
#
#
# Mechanical properties :
#
#
# Convention : Reuss Voigt Hill
#
# Bulk Modulus (GPa) = 79.81555 80.63066 80.22311
# Shear Modulus (GPa) = 37.94293 52.03332 44.98813
#
# Velocity S-wave (km/s) = 3.82073 4.47426 4.16035
# Velocity P-wave (km/s) = 7.08320 7.59694 7.34456
#
# Compressibility (1/GPa) = 0.01252889
#
# Stress axis : x y z
#
# Youngs Moduli (GPa) = 173.93978 155.59048 181.49763
#
# Poissons Ratio (x) = 0.29807 0.01229
# Poissons Ratio (y) = 0.33323 0.10800
# Poissons Ratio (z) = 0.01178 0.09259
#
# Static dielectric constant tensor:
#      x y z
#    x 2.227950 0.000000 0.000000 
#    y 0.000000 2.097850 0.000000 
#    z 0.000000 0.000000 2.159020 
# 
# From -- ./inp_files/14911.got.cif
#   From: 2010.05.17/outbox.cif.g08.bks.cpg/sg54_8_cif.got.tgz:14911.got - 2010.06.03 13:09:01.
