data_PCOD9423712
_publ_section_title
;
Structure prediction by ZEFSAII (Michael W. Deem and Ramdas Pophale) SiO2 
 PCOD9423712
Probable space group: P C C A
;
_chemical_formula_sum "Si O2"
_cell_formula_units_Z 64
_cell_length_a 14.113608
_cell_length_b 14.532254
_cell_length_c 12.086378
_cell_angle_alpha 90.000000
_cell_angle_beta 90.000000
_cell_angle_gamma 90.000000
_cell_volume 2478.946783
_symmetry_space_group_name_H-M "P C C A"
_symmetry_group_IT_number 54
_symmetry_cell_setting 'orthorhombic'
loop_
_space_group_symop_operation_xyz
x,y,z
1/2-x,-y,z
1/2+x,-y,1/2-z
-x,y,1/2-z
-x,-y,-z
1/2+x,y,-z
1/2-x,y,1/2+z
x,-y,1/2+z
loop_
_atom_site_type_symbol
_atom_site_label
_atom_site_fract_x
_atom_site_fract_y
_atom_site_fract_z
Si Si1 0.187716 0.402218 0.957589
Si Si2 0.905200 0.604644 0.826144
Si Si3 0.633669 0.793081 0.538826
Si Si4 0.655787 0.943602 0.349169
Si Si5 0.111539 0.410052 0.720382
Si Si6 0.910331 0.737420 0.460091
Si Si7 0.390365 0.783409 0.286041
Si Si8 0.396048 0.866897 0.727280
O O1 0.250000 0.500000 0.964205
O O2 0.204669 0.292449 0.988884
O O3 0.162974 0.379574 0.830977
O O4 0.097939 0.415428 0.042269
O O5 0.853905 0.514125 0.787279
O O6 0.857465 0.699136 0.790688
O O7 0.000000 0.607141 0.750000
O O8 0.631039 0.875848 0.449412
O O9 0.525253 0.753601 0.540206
O O10 0.653501 0.840314 0.657799
O O11 0.663185 0.875865 0.244663
O O12 0.750000 0.000000 0.374870
O O13 0.590956 0.027736 0.309229
O O14 0.117687 0.355637 0.605288
O O15 0.000000 0.409166 0.750000
O O16 0.888388 0.749480 0.588837
O O17 0.862661 0.814592 0.382351
O O18 0.500000 0.802381 0.250000
O O19 0.500000 0.827104 0.750000
#
# Coordination Sequence:
#
# PCOD9423712 Si02
#       8
#     8   8   8   8   8   8   8   8
#     4  12  25  48  75 117 166 214 260 333 416 503
#     4  10  24  43  74 113 153 205 274 332 397 481
#     4  11  22  49  76 111 155 201 267 335 401 481
#     4  12  27  47  69 104 162 209 262 322 413 493
#     4  11  23  42  76 116 159 200 267 326 413 480
#     4  11  21  43  82 116 150 191 264 349 397 459
#     4  11  22  44  75 113 151 198 261 335 392 475
#     4  10  24  43  76 115 146 201 268 340 393 465
#
# _framework density 25.817415
#
# number of rings (size 3 to 8) (size 9 to 14) (size 15 to 20)
#    0.000    1.000    5.000    1.500    3.500    3.000 
#    4.500    0.000    0.000    0.000    0.000    0.000 
#    0.000    0.000    0.000    0.000    0.000    0.000 
#
# Total GULP energy -356705.693190 kJ/mol
# GULP energy per Si atom -5573.526456 kJ/mol
# Density = 2.575865 g / cm^3
# Si number density = 25.817415 Si / 1000 Ang^3
#
#
#
# Elastic Constant Matrix: (Units=GPa)
#
#
# Indices 1 2 3 4 5 6 
#
# 1 74.4355 23.3061 37.2010 0.0000 0.0000 0.0000
# 2 23.3061 204.6526 63.8755 0.0000 0.0000 0.0000
# 3 37.2010 63.8755 181.0944 0.0000 0.0000 0.0000
# 4 0.0000 0.0000 0.0000 64.5440 0.0000 0.0000
# 5 0.0000 0.0000 0.0000 0.0000 26.7546 0.0000
# 6 0.0000 0.0000 0.0000 0.0000 0.0000 5.7164
#
#
#
# Elastic Compliance Matrix: (Units=1/GPa)
#
#
# Indices 1 2 3 4 5 6 
#
# 1 0.015100 -0.000844 -0.002804 0.000000 0.000000 0.000000
# 2 -0.000844 0.005538 -0.001780 0.000000 0.000000 0.000000
# 3 -0.002804 -0.001780 0.006726 0.000000 0.000000 0.000000
# 4 0.000000 0.000000 0.000000 0.015493 0.000000 0.000000
# 5 0.000000 0.000000 0.000000 0.000000 0.037377 0.000000
# 6 0.000000 0.000000 0.000000 0.000000 0.000000 0.174935
#
#
# Mechanical properties :
#
#
# Convention : Reuss Voigt Hill
#
# Bulk Modulus (GPa) = 60.57948 78.77196 69.67572
# Shear Modulus (GPa) = 18.41429 41.78966 30.10197
#
# Velocity S-wave (km/s) = 2.67357 4.02762 3.41831
# Velocity P-wave (km/s) = 5.74858 7.22540 6.52888
#
# Compressibility (1/GPa) = 0.01650724
#
# Stress axis : x y z
#
# Youngs Moduli (GPa) = 66.22403 180.56955 148.68082
#
# Poissons Ratio (x) = 0.15248 0.41692
# Poissons Ratio (y) = 0.05592 0.26464
# Poissons Ratio (z) = 0.18570 0.32140
#
# Static dielectric constant tensor:
#      x y z
#    x 2.438730 0.000000 0.000000 
#    y 0.000000 2.096350 0.000000 
#    z 0.000000 0.000000 2.078800 
# 
# From -- ./inp_files/9070.got.cif
#   From: 2010.05.17/outbox.cif.g08.bks.cpg/sg54_5_cif.got.tgz:9070.got - 2010.06.03 13:09:01.
