data_PCOD9423803
_publ_section_title
;
Structure prediction by ZEFSAII (Michael W. Deem and Ramdas Pophale) SiO2 
 PCOD9423803
Probable space group: P C C A
;
_chemical_formula_sum "Si O2"
_cell_formula_units_Z 32
_cell_length_a 17.746351
_cell_length_b 6.813852
_cell_length_c 9.595864
_cell_angle_alpha 90.000000
_cell_angle_beta 90.000000
_cell_angle_gamma 90.000000
_cell_volume 1160.341560
_symmetry_space_group_name_H-M "P C C A"
_symmetry_group_IT_number 54
_symmetry_cell_setting 'orthorhombic'
loop_
_space_group_symop_operation_xyz
x,y,z
1/2-x,-y,z
1/2+x,-y,1/2-z
-x,y,1/2-z
-x,-y,-z
1/2+x,y,-z
1/2-x,y,1/2+z
x,-y,1/2+z
loop_
_atom_site_type_symbol
_atom_site_label
_atom_site_fract_x
_atom_site_fract_y
_atom_site_fract_z
Si Si1 0.101082 0.544416 0.496860
Si Si2 0.324198 0.873111 0.782400
Si Si3 0.415428 0.923801 0.515720
Si Si4 0.500000 0.491867 0.250000
Si Si5 0.250000 0.500000 0.646033
O O1 0.142260 0.944157 0.428581
O O2 0.052526 0.595535 0.635315
O O3 0.185924 0.585409 0.544111
O O4 0.057989 0.616867 0.356850
O O5 0.293623 0.656716 0.741597
O O6 0.250000 0.000000 0.756998
O O7 0.388656 0.932107 0.673661
O O8 0.500000 0.000000 0.500000
O O9 0.404097 0.693813 0.476245
#
# Coordination Sequence:
#
# PCOD9423803 Si02
#       5
#     8   8   8   4   4
#     4  10  25  46  76 118 159 219 273 350 412 516
#     4  11  26  51  77 117 163 217 271 340 414 510
#     4  11  26  47  80 118 164 210 277 350 427 497
#     4  10  24  46  72 116 164 210 284 338 426 486
#     4  10  26  50  78 112 164 220 266 334 422 506
#
# _framework density 27.578084
#
# number of rings (size 3 to 8) (size 9 to 14) (size 15 to 20)
#    0.000    1.500    0.000    1.500   14.000    3.000 
#   13.500    0.000    0.000    0.000    0.000    0.000 
#    0.000    0.000    0.000    0.000    0.000    0.000 
#
# Total GULP energy -179284.730529 kJ/mol
# GULP energy per Si atom -5602.647829 kJ/mol
# Density = 2.751532 g / cm^3
# Si number density = 27.578084 Si / 1000 Ang^3
#
#
#
# Elastic Constant Matrix: (Units=GPa)
#
#
# Indices 1 2 3 4 5 6 
#
# 1 210.3487 41.3124 76.5949 0.0000 0.0000 0.0000
# 2 41.3124 153.4571 45.2184 0.0000 0.0000 0.0000
# 3 76.5949 45.2184 228.0442 0.0000 0.0000 0.0000
# 4 0.0000 0.0000 0.0000 42.3875 0.0000 0.0000
# 5 0.0000 0.0000 0.0000 0.0000 68.8073 0.0000
# 6 0.0000 0.0000 0.0000 0.0000 0.0000 41.7663
#
#
#
# Elastic Compliance Matrix: (Units=1/GPa)
#
#
# Indices 1 2 3 4 5 6 
#
# 1 0.005559 -0.001005 -0.001668 0.000000 0.000000 0.000000
# 2 -0.001005 0.007103 -0.001071 0.000000 0.000000 0.000000
# 3 -0.001668 -0.001071 0.005158 0.000000 0.000000 0.000000
# 4 0.000000 0.000000 0.000000 0.023592 0.000000 0.000000
# 5 0.000000 0.000000 0.000000 0.000000 0.014533 0.000000
# 6 0.000000 0.000000 0.000000 0.000000 0.000000 0.023943
#
#
# Mechanical properties :
#
#
# Convention : Reuss Voigt Hill
#
# Bulk Modulus (GPa) = 96.78938 102.01127 99.40033
# Shear Modulus (GPa) = 55.05525 59.17383 57.11454
#
# Velocity S-wave (km/s) = 4.47289 4.63718 4.55577
# Velocity P-wave (km/s) = 7.86437 8.10811 7.98717
#
# Compressibility (1/GPa) = 0.01033171
#
# Stress axis : x y z
#
# Youngs Moduli (GPa) = 179.89871 140.79412 193.88861
#
# Poissons Ratio (x) = 0.14150 0.32336
# Poissons Ratio (y) = 0.18080 0.20761
# Poissons Ratio (z) = 0.30003 0.15076
#
# Static dielectric constant tensor:
#      x y z
#    x 2.053390 0.000000 0.000000 
#    y 0.000000 2.315630 0.000000 
#    z 0.000000 0.000000 2.144140 
# 
# From -- ./inp_files/9267.got.cif
#   From: 2010.05.17/outbox.cif.g08.bks.cpg/sg54_5_cif.got.tgz:9267.got - 2010.06.03 13:09:01.
