data_PCOD9423222
_publ_section_title
;
Structure prediction by ZEFSAII (Michael W. Deem and Ramdas Pophale) SiO2 
 PCOD9423222
Probable space group: P C C A
;
_chemical_formula_sum "Si O2"
_cell_formula_units_Z 40
_cell_length_a 9.330911
_cell_length_b 13.125455
_cell_length_c 15.131141
_cell_angle_alpha 90.000000
_cell_angle_beta 90.000000
_cell_angle_gamma 90.000000
_cell_volume 1853.147946
_symmetry_space_group_name_H-M "P C C A"
_symmetry_group_IT_number 54
_symmetry_cell_setting 'orthorhombic'
loop_
_space_group_symop_operation_xyz
x,y,z
1/2-x,-y,z
1/2+x,-y,1/2-z
-x,y,1/2-z
-x,-y,-z
1/2+x,y,-z
1/2-x,y,1/2+z
x,-y,1/2+z
loop_
_atom_site_type_symbol
_atom_site_label
_atom_site_fract_x
_atom_site_fract_y
_atom_site_fract_z
Si Si1 0.885040 0.721663 0.688120
Si Si2 0.085082 0.037493 0.914354
Si Si3 0.570165 0.731554 0.653454
Si Si4 0.000000 0.085937 0.250000
Si Si5 0.495342 0.362045 0.528720
Si Si6 0.750000 0.500000 0.497326
O O1 0.726609 0.684538 0.672380
O O2 0.872573 0.832087 0.735607
O O3 0.964045 0.730196 0.593492
O O4 0.000000 0.663480 0.750000
O O5 0.085845 0.157528 0.892237
O O6 0.250000 0.000000 0.917920
O O7 0.001237 0.983960 0.834245
O O8 0.000000 0.000000 0.000000
O O9 0.500000 0.738244 0.750000
O O10 0.498956 0.666248 0.574631
O O11 0.620055 0.444298 0.547312
O O12 0.340617 0.410656 0.550449
#
# Coordination Sequence:
#
# PCOD9423222 Si02
#       6
#     8   8   8   4   8   4
#     4  10  23  43  69  95 138 179 216 274 333 395
#     4  12  25  43  65 101 137 184 229 273 327 389
#     4  12  26  41  68 102 135 178 231 273 332 401
#     4  10  22  44  64  96 142 176 224 270 316 392
#     4  11  23  47  69 102 133 177 220 281 351 394
#     4  10  24  44  76  94 136 170 224 286 338 426
#
# _framework density 21.584893999999998
#
# number of rings (size 3 to 8) (size 9 to 14) (size 15 to 20)
#    0.600    0.400    5.000    1.200    2.800    2.400 
#    0.000    6.000    0.000    0.000    0.000    0.000 
#    0.000    0.000    0.000    0.000    0.000    0.000 
#
# Total GULP energy -222730.276913 kJ/mol
# GULP energy per Si atom -5568.256923 kJ/mol
# Density = 2.153577 g / cm^3
# Si number density = 21.584894 Si / 1000 Ang^3
#
#
#
# Elastic Constant Matrix: (Units=GPa)
#
#
# Indices 1 2 3 4 5 6 
#
# 1 119.6434 30.2206 63.0120 0.0000 0.0000 0.0000
# 2 30.2206 67.7827 26.9796 0.0000 0.0000 0.0000
# 3 63.0120 26.9796 171.5158 0.0000 0.0000 0.0000
# 4 0.0000 0.0000 0.0000 3.4838 0.0000 0.0000
# 5 0.0000 0.0000 0.0000 0.0000 27.0258 0.0000
# 6 0.0000 0.0000 0.0000 0.0000 0.0000 22.5047
#
#
#
# Elastic Compliance Matrix: (Units=1/GPa)
#
#
# Indices 1 2 3 4 5 6 
#
# 1 0.011111 -0.003551 -0.003523 0.000000 0.000000 0.000000
# 2 -0.003551 0.016874 -0.001350 0.000000 0.000000 0.000000
# 3 -0.003523 -0.001350 0.007337 0.000000 0.000000 0.000000
# 4 0.000000 0.000000 0.000000 0.287042 0.000000 0.000000
# 5 0.000000 0.000000 0.000000 0.000000 0.037002 0.000000
# 6 0.000000 0.000000 0.000000 0.000000 0.000000 0.044435
#
#
# Mechanical properties :
#
#
# Convention : Reuss Voigt Hill
#
# Bulk Modulus (GPa) = 54.13280 66.59626 60.36453
# Shear Modulus (GPa) = 11.71492 26.51816 19.11654
#
# Velocity S-wave (km/s) = 2.33220 3.50887 2.97921
# Velocity P-wave (km/s) = 5.69084 6.88015 6.31356
#
# Compressibility (1/GPa) = 0.01847309
#
# Stress axis : x y z
#
# Youngs Moduli (GPa) = 90.00263 59.26443 136.29463
#
# Poissons Ratio (x) = 0.21047 0.48021
# Poissons Ratio (y) = 0.31963 0.18393
# Poissons Ratio (z) = 0.31711 0.07998
#
# Static dielectric constant tensor:
#      x y z
#    x 1.787180 0.000000 0.000000 
#    y 0.000000 1.840510 0.000000 
#    z 0.000000 0.000000 1.797600 
# 
# From -- ./inp_files/6924.got.cif
#   From: 2010.05.17/outbox.cif.g08.bks.cpg/sg54_4_cif.got.tgz:6924.got - 2010.06.03 13:09:01.
