data_PCOD9423016
_publ_section_title
;
Structure prediction by ZEFSAII (Michael W. Deem and Ramdas Pophale) SiO2 
 PCOD9423016
Probable space group: P C C A
;
_chemical_formula_sum "Si O2"
_cell_formula_units_Z 60
_cell_length_a 16.081837
_cell_length_b 9.034919
_cell_length_c 18.317171
_cell_angle_alpha 90.000000
_cell_angle_beta 90.000000
_cell_angle_gamma 90.000000
_cell_volume 2661.450046
_symmetry_space_group_name_H-M "P C C A"
_symmetry_group_IT_number 54
_symmetry_cell_setting 'orthorhombic'
loop_
_space_group_symop_operation_xyz
x,y,z
1/2-x,-y,z
1/2+x,-y,1/2-z
-x,y,1/2-z
-x,-y,-z
1/2+x,y,-z
1/2-x,y,1/2+z
x,-y,1/2+z
loop_
_atom_site_type_symbol
_atom_site_label
_atom_site_fract_x
_atom_site_fract_y
_atom_site_fract_z
Si Si1 0.585260 0.237031 0.786971
Si Si2 0.648318 0.569726 0.399898
Si Si3 0.917831 0.458024 0.547204
Si Si4 0.341569 0.831176 0.910496
Si Si5 0.682627 0.265674 0.361715
Si Si6 0.691809 0.360287 0.655153
Si Si7 0.344846 0.947060 0.758323
Si Si8 0.250000 0.000000 0.036999
O O1 0.500000 0.273508 0.750000
O O2 0.584913 0.314684 0.865132
O O3 0.653629 0.297230 0.729416
O O4 0.600496 0.062306 0.787064
O O5 0.653947 0.566565 0.486158
O O6 0.622592 0.401695 0.381516
O O7 0.731818 0.642221 0.367677
O O8 0.912477 0.295078 0.582965
O O9 0.881963 0.580980 0.602225
O O10 0.000000 0.500000 0.500000
O O11 0.254487 0.754680 0.883925
O O12 0.367152 0.936630 0.843141
O O13 0.316651 0.918307 0.983993
O O14 0.655659 0.208293 0.283058
O O15 0.702467 0.123539 0.413242
O O16 0.750000 0.500000 0.672498
O O17 0.250000 0.000000 0.752913
#
# Coordination Sequence:
#
# PCOD9423016 Si02
#       8
#     8   8   8   8   8   8   8   4
#     4  12  25  43  68  99 140 177 221 284 354 408
#     4  11  23  40  65  96 124 173 223 274 337 391
#     4  11  24  42  62  97 140 173 223 285 347 403
#     4  11  22  38  72  94 129 177 238 276 331 415
#     4  11  23  37  67  95 131 162 226 283 325 385
#     4  10  22  40  68  97 128 180 234 281 325 412
#     4  12  22  43  65  98 131 178 224 282 333 418
#     4  12  18  36  62 100 124 162 212 288 338 384
#
# _framework density 22.544101999999999
#
# number of rings (size 3 to 8) (size 9 to 14) (size 15 to 20)
#    0.000    0.800    5.333    1.600    9.333    0.000 
#    2.400    0.000    0.000    3.200    0.000    0.000 
#    0.000    0.000    0.000    0.000    0.000    0.000 
#
# Total GULP energy -334759.359298 kJ/mol
# GULP energy per Si atom -5579.322655 kJ/mol
# Density = 2.249279 g / cm^3
# Si number density = 22.544102 Si / 1000 Ang^3
#
#
#
# Elastic Constant Matrix: (Units=GPa)
#
#
# Indices 1 2 3 4 5 6 
#
# 1 46.2483 5.4200 0.9600 0.0000 0.0000 0.0000
# 2 5.4200 98.3376 24.0239 0.0000 0.0000 0.0000
# 3 0.9600 24.0239 82.6031 0.0000 0.0000 0.0000
# 4 0.0000 0.0000 0.0000 21.3084 0.0000 0.0000
# 5 0.0000 0.0000 0.0000 0.0000 14.1312 0.0000
# 6 0.0000 0.0000 0.0000 0.0000 0.0000 12.3686
#
#
#
# Elastic Compliance Matrix: (Units=1/GPa)
#
#
# Indices 1 2 3 4 5 6 
#
# 1 0.021764 -0.001225 0.000103 0.000000 0.000000 0.000000
# 2 -0.001225 0.011016 -0.003190 0.000000 0.000000 0.000000
# 3 0.000103 -0.003190 0.013033 0.000000 0.000000 0.000000
# 4 0.000000 0.000000 0.000000 0.046930 0.000000 0.000000
# 5 0.000000 0.000000 0.000000 0.000000 0.070765 0.000000
# 6 0.000000 0.000000 0.000000 0.000000 0.000000 0.080850
#
#
# Mechanical properties :
#
#
# Convention : Reuss Voigt Hill
#
# Bulk Modulus (GPa) = 26.88896 31.99966 29.44431
# Shear Modulus (GPa) = 18.84120 22.68064 20.76092
#
# Velocity S-wave (km/s) = 2.89407 3.17528 3.03793
# Velocity P-wave (km/s) = 4.80840 5.26006 5.03929
#
# Compressibility (1/GPa) = 0.03718999
#
# Stress axis : x y z
#
# Youngs Moduli (GPa) = 45.94785 90.77904 76.73114
#
# Poissons Ratio (x) = 0.11118 -0.00792
# Poissons Ratio (y) = 0.05628 0.24474
# Poissons Ratio (z) = -0.00474 0.28954
#
# Static dielectric constant tensor:
#      x y z
#    x 5.414770 0.000000 0.000000 
#    y 0.000000 2.609790 0.000000 
#    z 0.000000 0.000000 1.863020 
# 
# From -- ./inp_files/18665.got.cif
#   From: 2010.05.17/outbox.cif.g08.bks.cpg/sg54_10_cif.got.tgz:18665.got - 2010.06.03 13:09:01.
