data_PCOD9423085
_publ_section_title
;
Structure prediction by ZEFSAII (Michael W. Deem and Ramdas Pophale) SiO2 
 PCOD9423085
Probable space group: P C C A
;
_chemical_formula_sum "Si O2"
_cell_formula_units_Z 32
_cell_length_a 7.850323
_cell_length_b 5.432565
_cell_length_c 32.800082
_cell_angle_alpha 90.000000
_cell_angle_beta 90.000000
_cell_angle_gamma 90.000000
_cell_volume 1398.837888
_symmetry_space_group_name_H-M "P C C A"
_symmetry_group_IT_number 54
_symmetry_cell_setting 'orthorhombic'
loop_
_space_group_symop_operation_xyz
x,y,z
1/2-x,-y,z
1/2+x,-y,1/2-z
-x,y,1/2-z
-x,-y,-z
1/2+x,y,-z
1/2-x,y,1/2+z
x,-y,1/2+z
loop_
_atom_site_type_symbol
_atom_site_label
_atom_site_fract_x
_atom_site_fract_y
_atom_site_fract_z
Si Si1 0.071803 0.357188 0.578334
Si Si2 0.250000 0.000000 0.284071
Si Si3 0.066393 0.363638 0.831654
Si Si4 0.250000 0.000000 0.526450
Si Si5 0.750000 0.500000 0.027356
Si Si6 0.500000 0.630433 0.250000
O O1 0.250000 0.500000 0.574398
O O2 0.027219 0.349279 0.625794
O O3 0.920115 0.495930 0.554646
O O4 0.099573 0.089723 0.557068
O O5 0.104894 0.905512 0.314163
O O6 0.331310 0.791302 0.256777
O O7 0.250000 0.500000 0.837692
O O8 0.980864 0.489675 0.792586
O O9 0.235211 0.754858 0.498474
#
# Coordination Sequence:
#
# PCOD9423085 Si02
#       6
#     8   4   8   4   4   4
#     4  12  28  47  77 116 149 202 260 319 385 471
#     4  10  22  41  71 104 144 206 240 312 374 440
#     4  10  23  46  70 104 151 198 250 309 385 451
#     4  12  28  51  83 114 152 206 260 320 402 460
#     4  12  28  54  80 108 162 200 256 330 390 470
#     4  10  22  42  72 102 146 200 250 296 382 460
#
# _framework density 22.87613
#
# number of rings (size 3 to 8) (size 9 to 14) (size 15 to 20)
#    0.000    1.000    2.500    2.250    3.500   10.000 
#    0.000    1.250    0.000    0.000    0.000    0.000 
#    0.000    0.000    0.000    0.000    0.000    0.000 
#
# Total GULP energy -178804.114672 kJ/mol
# GULP energy per Si atom -5587.628584 kJ/mol
# Density = 2.282406 g / cm^3
# Si number density = 22.876130 Si / 1000 Ang^3
#
#
#
# Elastic Constant Matrix: (Units=GPa)
#
#
# Indices 1 2 3 4 5 6 
#
# 1 133.1124 52.4806 96.0167 0.0000 0.0000 0.0000
# 2 52.4806 135.3897 101.9564 0.0000 0.0000 0.0000
# 3 96.0167 101.9564 244.2496 0.0000 0.0000 0.0000
# 4 0.0000 0.0000 0.0000 -8.9466 0.0000 0.0000
# 5 0.0000 0.0000 0.0000 0.0000 32.0996 0.0000
# 6 0.0000 0.0000 0.0000 0.0000 0.0000 28.4597
#
#
#
# Elastic Compliance Matrix: (Units=1/GPa)
#
#
# Indices 1 2 3 4 5 6 
#
# 1 0.010671 -0.001425 -0.003600 0.000000 0.000000 0.000000
# 2 -0.001425 0.010963 -0.004016 0.000000 0.000000 0.000000
# 3 -0.003600 -0.004016 0.007186 0.000000 0.000000 0.000000
# 4 0.000000 0.000000 0.000000 -0.111775 0.000000 0.000000
# 5 0.000000 0.000000 0.000000 0.000000 0.031153 0.000000
# 6 0.000000 0.000000 0.000000 0.000000 0.000000 0.035137
#
#
# Mechanical properties :
#
#
# Convention : Reuss Voigt Hill
#
# Bulk Modulus (GPa) = 93.13415 112.62879 102.88147
# Shear Modulus (GPa) = 1000.71327 27.80909 514.26118
#
# Velocity S-wave (km/s) = 20.93796 3.49038 15.00968
# Velocity P-wave (km/s) = 25.00664 8.09844 18.58651
#
# Compressibility (1/GPa) = 0.01073720
#
# Stress axis : x y z
#
# Youngs Moduli (GPa) = 93.71087 91.21794 139.16703
#
# Poissons Ratio (x) = 0.13003 0.50098
# Poissons Ratio (y) = 0.13358 0.55886
# Poissons Ratio (z) = 0.33735 0.36631
#
# Static dielectric constant tensor:
#      x y z
#    x 1.886290 0.000000 0.000000 
#    y 0.000000 1.937150 0.000000 
#    z 0.000000 0.000000 1.841450 
# 
# From -- ./inp_files/27445.got.cif
#   From: 2010.05.17/outbox.cif.g08.bks.cpg/sg54_14_cif.got.tgz:27445.got - 2010.06.03 13:09:01.
