data_PCOD9423703
_publ_section_title
;
Structure prediction by ZEFSAII (Michael W. Deem and Ramdas Pophale) SiO2 
 PCOD9423703
Probable space group: P C C A
;
_chemical_formula_sum "Si O2"
_cell_formula_units_Z 48
_cell_length_a 9.321385
_cell_length_b 9.346039
_cell_length_c 27.613804
_cell_angle_alpha 90.000000
_cell_angle_beta 90.000000
_cell_angle_gamma 90.000000
_cell_volume 2405.660143
_symmetry_space_group_name_H-M "P C C A"
_symmetry_group_IT_number 54
_symmetry_cell_setting 'orthorhombic'
loop_
_space_group_symop_operation_xyz
x,y,z
1/2-x,-y,z
1/2+x,-y,1/2-z
-x,y,1/2-z
-x,-y,-z
1/2+x,y,-z
1/2-x,y,1/2+z
x,-y,1/2+z
loop_
_atom_site_type_symbol
_atom_site_label
_atom_site_fract_x
_atom_site_fract_y
_atom_site_fract_z
Si Si1 0.404570 0.577223 0.959163
Si Si2 0.577924 0.510656 0.149737
Si Si3 0.595635 0.973362 0.869706
Si Si4 0.589452 0.723791 0.795142
Si Si5 0.418968 0.241956 0.699519
Si Si6 0.402568 0.925094 0.959828
O O1 0.250000 0.500000 0.962578
O O2 0.458270 0.540744 0.904678
O O3 0.397854 0.750807 0.964491
O O4 0.500000 0.500000 0.000000
O O5 0.750000 0.500000 0.154948
O O6 0.499789 0.414328 0.189684
O O7 0.510931 0.663855 0.161827
O O8 0.587195 0.824936 0.841708
O O9 0.470964 0.970273 0.908537
O O10 0.750000 0.000000 0.894822
O O11 0.592463 0.090901 0.827454
O O12 0.500000 0.787664 0.750000
O O13 0.759185 0.699758 0.787909
O O14 0.500000 0.230662 0.750000
O O15 0.250000 0.000000 0.963660
O O16 0.500000 0.000000 0.000000
#
# Coordination Sequence:
#
# PCOD9423703 Si02
#       6
#     8   8   8   8   8   8
#     4  11  26  46  70 101 137 178 224 277 341 407
#     4  11  24  42  65  95 132 172 226 269 335 398
#     4  10  24  43  66  97 133 172 224 273 338 398
#     4  11  22  42  65  92 132 172 221 277 333 398
#     4  11  24  40  65  98 131 178 223 277 336 396
#     4  12  26  45  73 103 137 178 226 280 341 406
#
# _framework density 19.952942
#
# number of rings (size 3 to 8) (size 9 to 14) (size 15 to 20)
#    0.000    1.000    1.667    4.000    7.000    2.667 
#    0.000    0.000    0.000    0.000    0.000    0.000 
#    0.000    0.000    0.000    0.000    0.000    0.000 
#
# Total GULP energy -267980.735600 kJ/mol
# GULP energy per Si atom -5582.931992 kJ/mol
# Density = 1.990753 g / cm^3
# Si number density = 19.952942 Si / 1000 Ang^3
#
#
#
# Elastic Constant Matrix: (Units=GPa)
#
#
# Indices 1 2 3 4 5 6 
#
# 1 149.3499 29.3615 68.7666 0.0000 0.0000 0.0000
# 2 29.3615 86.8143 20.5825 0.0000 0.0000 0.0000
# 3 68.7666 20.5825 104.5156 0.0000 0.0000 0.0000
# 4 0.0000 0.0000 0.0000 23.5214 0.0000 0.0000
# 5 0.0000 0.0000 0.0000 0.0000 47.0887 0.0000
# 6 0.0000 0.0000 0.0000 0.0000 0.0000 27.9043
#
#
#
# Elastic Compliance Matrix: (Units=1/GPa)
#
#
# Indices 1 2 3 4 5 6 
#
# 1 0.009893 -0.001891 -0.006137 0.000000 0.000000 0.000000
# 2 -0.001891 0.012444 -0.001207 0.000000 0.000000 0.000000
# 3 -0.006137 -0.001207 0.013843 0.000000 0.000000 0.000000
# 4 0.000000 0.000000 0.000000 0.042514 0.000000 0.000000
# 5 0.000000 0.000000 0.000000 0.000000 0.021237 0.000000
# 6 0.000000 0.000000 0.000000 0.000000 0.000000 0.035837
#
#
# Mechanical properties :
#
#
# Convention : Reuss Voigt Hill
#
# Bulk Modulus (GPa) = 56.45831 64.23343 60.34587
# Shear Modulus (GPa) = 31.22245 34.50084 32.86164
#
# Velocity S-wave (km/s) = 3.96005 4.16277 4.06267
# Velocity P-wave (km/s) = 7.01901 7.44091 7.23304
#
# Compressibility (1/GPa) = 0.01771218
#
# Stress axis : x y z
#
# Youngs Moduli (GPa) = 101.08082 80.35711 72.23711
#
# Poissons Ratio (x) = 0.15195 0.44331
# Poissons Ratio (y) = 0.19114 0.08716
# Poissons Ratio (z) = 0.62031 0.09695
#
# Static dielectric constant tensor:
#      x y z
#    x 1.730990 0.000000 0.000000 
#    y 0.000000 1.685510 0.000000 
#    z 0.000000 0.000000 1.690330 
# 
# From -- ./inp_files/27693.got.cif
#   From: 2010.05.17/outbox.cif.g08.bks.cpg/sg54_14_cif.got.tgz:27693.got - 2010.06.03 13:09:01.
