data_PCOD9423535
_publ_section_title
;
Structure prediction by ZEFSAII (Michael W. Deem and Ramdas Pophale) SiO2 
 PCOD9423535
Probable space group: P C C A
;
_chemical_formula_sum "Si O2"
_cell_formula_units_Z 64
_cell_length_a 23.583576
_cell_length_b 9.076607
_cell_length_c 15.766459
_cell_angle_alpha 90.000000
_cell_angle_beta 90.000000
_cell_angle_gamma 90.000000
_cell_volume 3374.950098
_symmetry_space_group_name_H-M "P C C A"
_symmetry_group_IT_number 54
_symmetry_cell_setting 'orthorhombic'
loop_
_space_group_symop_operation_xyz
x,y,z
1/2-x,-y,z
1/2+x,-y,1/2-z
-x,y,1/2-z
-x,-y,-z
1/2+x,y,-z
1/2-x,y,1/2+z
x,-y,1/2+z
loop_
_atom_site_type_symbol
_atom_site_label
_atom_site_fract_x
_atom_site_fract_y
_atom_site_fract_z
Si Si1 0.502177 0.294992 0.154285
Si Si2 0.815464 0.175421 0.737090
Si Si3 0.990997 0.404892 0.087262
Si Si4 0.890160 0.843689 0.071591
Si Si5 0.182117 0.175563 0.257847
Si Si6 0.883265 0.805440 0.569140
Si Si7 0.118315 0.324759 0.101325
Si Si8 0.872027 0.329344 0.896409
O O1 0.500000 0.237275 0.250000
O O2 0.522887 0.465289 0.153687
O O3 0.546842 0.207614 0.097776
O O4 0.438783 0.294779 0.118035
O O5 0.848611 0.200882 0.648936
O O6 0.748749 0.207642 0.733556
O O7 0.841288 0.268417 0.813706
O O8 0.823317 0.000884 0.754376
O O9 0.941278 0.287620 0.077640
O O10 0.049941 0.328628 0.112410
O O11 0.000000 0.500000 0.000000
O O12 0.891349 0.019434 0.061393
O O13 0.871640 0.763976 0.985396
O O14 0.152223 0.219053 0.345631
O O15 0.151512 0.254201 0.179505
O O16 0.853858 0.748668 0.483286
O O17 0.134737 0.496027 0.093612
#
# Coordination Sequence:
#
# PCOD9423535 Si02
#       8
#     8   8   8   8   8   8   8   8
#     4  11  21  37  60  91 124 166 196 252 319 375
#     4  10  23  45  63  86 121 166 212 264 315 362
#     4  11  21  40  59  91 129 166 196 249 316 381
#     4  11  22  39  65  92 126 163 210 257 312 377
#     4  10  25  43  62  88 122 163 217 261 308 369
#     4  11  23  39  62  95 125 166 207 257 309 379
#     4  11  23  40  62  94 125 163 205 253 314 378
#     4  11  22  39  65  91 127 161 204 254 319 375
#
# _framework density 18.963244
#
# number of rings (size 3 to 8) (size 9 to 14) (size 15 to 20)
#    0.000    1.250    5.000    0.750    3.500    5.500 
#    0.000    2.500    0.000    0.000    0.000    0.000 
#    0.000    0.000    0.000    0.000    0.000    0.000 
#
# Total GULP energy -357534.544038 kJ/mol
# GULP energy per Si atom -5586.477251 kJ/mol
# Density = 1.892008 g / cm^3
# Si number density = 18.963244 Si / 1000 Ang^3
#
#
#
# Elastic Constant Matrix: (Units=GPa)
#
#
# Indices 1 2 3 4 5 6 
#
# 1 106.8240 74.5545 66.2363 0.0000 0.0000 0.0000
# 2 74.5545 96.0899 91.4380 0.0000 0.0000 0.0000
# 3 66.2363 91.4380 162.5218 0.0000 0.0000 0.0000
# 4 0.0000 0.0000 0.0000 36.0838 0.0000 0.0000
# 5 0.0000 0.0000 0.0000 0.0000 2.1575 0.0000
# 6 0.0000 0.0000 0.0000 0.0000 0.0000 24.4767
#
#
#
# Elastic Compliance Matrix: (Units=1/GPa)
#
#
# Indices 1 2 3 4 5 6 
#
# 1 0.020540 -0.017156 0.001281 0.000000 0.000000 0.000000
# 2 -0.017156 0.036728 -0.013672 0.000000 0.000000 0.000000
# 3 0.001281 -0.013672 0.013323 0.000000 0.000000 0.000000
# 4 0.000000 0.000000 0.000000 0.027713 0.000000 0.000000
# 5 0.000000 0.000000 0.000000 0.000000 0.463507 0.000000
# 6 0.000000 0.000000 0.000000 0.000000 0.000000 0.040855
#
#
# Mechanical properties :
#
#
# Convention : Reuss Voigt Hill
#
# Bulk Modulus (GPa) = 86.97430 92.21036 89.59233
# Shear Modulus (GPa) = 7.51210 21.42404 14.46807
#
# Velocity S-wave (km/s) = 1.99249 3.36485 2.76516
# Velocity P-wave (km/s) = 7.15944 7.98922 7.58569
#
# Compressibility (1/GPa) = 0.01149765
#
# Stress axis : x y z
#
# Youngs Moduli (GPa) = 48.68470 27.22729 75.05774
#
# Poissons Ratio (x) = 0.46711 -0.09614
# Poissons Ratio (y) = 0.83523 1.02618
# Poissons Ratio (z) = -0.06236 0.37225
#
# Static dielectric constant tensor:
#      x y z
#    x 1.642260 0.000000 0.000000 
#    y 0.000000 1.648010 0.000000 
#    z 0.000000 0.000000 1.677770 
# 
# From -- ./inp_files/15006.got.cif
#   From: 2010.05.17/outbox.cif.g08.bks.cpg/sg54_8_cif.got.tgz:15006.got - 2010.06.03 13:09:01.
