data_PCOD9423862
_publ_section_title
;
Structure prediction by ZEFSAII (Michael W. Deem and Ramdas Pophale) SiO2 
 PCOD9423862
Probable space group: P C C A
;
_chemical_formula_sum "Si O2"
_cell_formula_units_Z 32
_cell_length_a 5.343405
_cell_length_b 10.383123
_cell_length_c 24.915214
_cell_angle_alpha 90.000000
_cell_angle_beta 90.000000
_cell_angle_gamma 90.000000
_cell_volume 1382.326752
_symmetry_space_group_name_H-M "P C C A"
_symmetry_group_IT_number 54
_symmetry_cell_setting 'orthorhombic'
loop_
_space_group_symop_operation_xyz
x,y,z
1/2-x,-y,z
1/2+x,-y,1/2-z
-x,y,1/2-z
-x,-y,-z
1/2+x,y,-z
1/2-x,y,1/2+z
x,-y,1/2+z
loop_
_atom_site_type_symbol
_atom_site_label
_atom_site_fract_x
_atom_site_fract_y
_atom_site_fract_z
Si Si1 0.000000 0.207076 0.250000
Si Si2 0.995362 0.430138 0.329262
Si Si3 0.250000 0.000000 0.620852
Si Si4 0.750000 0.000000 0.192951
Si Si5 0.750000 0.500000 0.933787
Si Si6 0.655338 0.786772 0.968872
O O1 0.972416 0.292737 0.302776
O O2 0.230463 0.119253 0.266619
O O3 0.750000 0.500000 0.307476
O O4 0.961386 0.443554 0.393211
O O5 0.250000 0.500000 0.314413
O O6 0.218940 0.127791 0.583522
O O7 0.502020 0.004390 0.656426
O O8 0.658535 0.630144 0.962248
O O9 0.378537 0.820227 0.989812
#
# Coordination Sequence:
#
# PCOD9423862 Si02
#       6
#     4   8   4   4   4   8
#     4  12  26  48  68 110 140 194 244 286 362 414
#     4  10  25  42  72  99 146 188 235 290 349 437
#     4  12  27  51  70 104 140 196 240 295 371 420
#     4  12  29  43  76 100 150 186 240 303 339 438
#     4  10  26  42  70 108 142 182 230 300 362 414
#     4  12  26  45  75 103 142 184 242 300 363 439
#
# _framework density 23.149373000000001
#
# number of rings (size 3 to 8) (size 9 to 14) (size 15 to 20)
#    0.750    0.000    0.000    6.000    7.000    4.000 
#    0.000    0.000    0.000    0.000    0.000    0.000 
#    0.000    0.000    0.000    0.000    0.000    0.000 
#
# Total GULP energy -178691.171536 kJ/mol
# GULP energy per Si atom -5584.099111 kJ/mol
# Density = 2.309668 g / cm^3
# Si number density = 23.149373 Si / 1000 Ang^3
#
#
#
# Elastic Constant Matrix: (Units=GPa)
#
#
# Indices 1 2 3 4 5 6 
#
# 1 152.6929 40.5190 42.4751 0.0000 0.0000 0.0000
# 2 40.5190 129.8067 24.0087 0.0000 0.0000 0.0000
# 3 42.4751 24.0087 74.8631 0.0000 0.0000 0.0000
# 4 0.0000 0.0000 0.0000 42.2658 0.0000 0.0000
# 5 0.0000 0.0000 0.0000 0.0000 44.3042 0.0000
# 6 0.0000 0.0000 0.0000 0.0000 0.0000 29.3940
#
#
#
# Elastic Compliance Matrix: (Units=1/GPa)
#
#
# Indices 1 2 3 4 5 6 
#
# 1 0.008152 -0.001796 -0.004049 0.000000 0.000000 0.000000
# 2 -0.001796 0.008585 -0.001734 0.000000 0.000000 0.000000
# 3 -0.004049 -0.001734 0.016211 0.000000 0.000000 0.000000
# 4 0.000000 0.000000 0.000000 0.023660 0.000000 0.000000
# 5 0.000000 0.000000 0.000000 0.000000 0.022571 0.000000
# 6 0.000000 0.000000 0.000000 0.000000 0.000000 0.034021
#
#
# Mechanical properties :
#
#
# Convention : Reuss Voigt Hill
#
# Bulk Modulus (GPa) = 56.21255 63.48538 59.84896
# Shear Modulus (GPa) = 37.23318 39.88347 38.55833
#
# Velocity S-wave (km/s) = 4.01482 4.15526 4.08564
# Velocity P-wave (km/s) = 6.76956 7.10671 6.94018
#
# Compressibility (1/GPa) = 0.01778962
#
# Stress axis : x y z
#
# Youngs Moduli (GPa) = 122.66900 116.48111 61.68491
#
# Poissons Ratio (x) = 0.20916 0.24978
# Poissons Ratio (y) = 0.22028 0.10699
# Poissons Ratio (z) = 0.49673 0.20203
#
# Static dielectric constant tensor:
#      x y z
#    x 1.852570 0.000000 0.000000 
#    y 0.000000 1.910850 0.000000 
#    z 0.000000 0.000000 1.907170 
# 
# From -- ./inp_files/26980.got.cif
#   From: 2010.05.17/outbox.cif.g08.bks.cpg/sg54_14_cif.got.tgz:26980.got - 2010.06.03 13:09:01.
