data_PCOD9423373
_publ_section_title
;
Structure prediction by ZEFSAII (Michael W. Deem and Ramdas Pophale) SiO2 
 PCOD9423373
Probable space group: P C C A
;
_chemical_formula_sum "Si O2"
_cell_formula_units_Z 24
_cell_length_a 11.879362
_cell_length_b 16.323811
_cell_length_c 5.347271
_cell_angle_alpha 90.000000
_cell_angle_beta 90.000000
_cell_angle_gamma 90.000000
_cell_volume 1036.923863
_symmetry_space_group_name_H-M "P C C A"
_symmetry_group_IT_number 54
_symmetry_cell_setting 'orthorhombic'
loop_
_space_group_symop_operation_xyz
x,y,z
1/2-x,-y,z
1/2+x,-y,1/2-z
-x,y,1/2-z
-x,-y,-z
1/2+x,y,-z
1/2-x,y,1/2+z
x,-y,1/2+z
loop_
_atom_site_type_symbol
_atom_site_label
_atom_site_fract_x
_atom_site_fract_y
_atom_site_fract_z
Si Si1 0.500000 0.054734 0.250000
Si Si2 0.700939 0.407794 0.518781
Si Si3 0.322101 0.198365 0.299326
Si Si4 0.000000 0.337127 0.750000
O O1 0.393642 0.114796 0.289604
O O2 0.500000 0.000000 0.500000
O O3 0.750000 0.500000 0.543636
O O4 0.725685 0.372368 0.790192
O O5 0.572148 0.394673 0.436595
O O6 0.232510 0.201768 0.523191
O O7 0.409165 0.272503 0.351263
#
# Coordination Sequence:
#
# PCOD9423373 Si02
#       4
#     4   8   8   4
#     4  11  24  42  68 100 131 168 210 258 315 374
#     4  10  23  40  61  91 122 160 210 265 324 377
#     4  11  25  43  65  95 130 172 214 258 315 376
#     4  11  24  42  66  90 129 170 216 266 317 384
#
# _framework density 23.145384
#
# number of rings (size 3 to 8) (size 9 to 14) (size 15 to 20)
#    0.000    1.333    0.000    4.000    0.000   17.333 
#    0.000    0.000    0.000    0.000    0.000    0.000 
#    0.000    0.000    0.000    0.000    0.000    0.000 
#
# Total GULP energy -133994.873434 kJ/mol
# GULP energy per Si atom -5583.119726 kJ/mol
# Density = 2.309270 g / cm^3
# Si number density = 23.145384 Si / 1000 Ang^3
#
#
#
# Elastic Constant Matrix: (Units=GPa)
#
#
# Indices 1 2 3 4 5 6 
#
# 1 98.1455 50.3205 32.1755 0.0000 0.0000 0.0000
# 2 50.3205 140.6339 42.2420 0.0000 0.0000 0.0000
# 3 32.1755 42.2420 172.9910 0.0000 0.0000 0.0000
# 4 0.0000 0.0000 0.0000 45.6494 0.0000 0.0000
# 5 0.0000 0.0000 0.0000 0.0000 27.9560 0.0000
# 6 0.0000 0.0000 0.0000 0.0000 0.0000 57.0032
#
#
#
# Elastic Compliance Matrix: (Units=1/GPa)
#
#
# Indices 1 2 3 4 5 6 
#
# 1 0.012767 -0.004160 -0.001359 0.000000 0.000000 0.000000
# 2 -0.004160 0.009029 -0.001431 0.000000 0.000000 0.000000
# 3 -0.001359 -0.001431 0.006383 0.000000 0.000000 0.000000
# 4 0.000000 0.000000 0.000000 0.021906 0.000000 0.000000
# 5 0.000000 0.000000 0.000000 0.000000 0.035770 0.000000
# 6 0.000000 0.000000 0.000000 0.000000 0.000000 0.017543
#
#
# Mechanical properties :
#
#
# Convention : Reuss Voigt Hill
#
# Bulk Modulus (GPa) = 70.03158 73.47182 71.75170
# Shear Modulus (GPa) = 40.96398 45.25722 43.11060
#
# Velocity S-wave (km/s) = 4.21153 4.42673 4.32047
# Velocity P-wave (km/s) = 7.34658 7.61186 7.48040
#
# Compressibility (1/GPa) = 0.01427927
#
# Stress axis : x y z
#
# Youngs Moduli (GPa) = 78.32448 110.75364 156.67080
#
# Poissons Ratio (x) = 0.46076 0.21289
# Poissons Ratio (y) = 0.32584 0.22419
# Poissons Ratio (z) = 0.10643 0.15849
#
# Static dielectric constant tensor:
#      x y z
#    x 1.925560 0.000000 0.000000 
#    y 0.000000 -3.155270 0.000000 
#    z 0.000000 0.000000 1.916460 
# 
# From -- ./inp_files/115.got.cif
#   From: 2010.05.17/outbox.cif.g08.bks.cpg/sg54_1_cif.got.tgz:115.got - 2010.06.03 13:09:01.
