data_PCOD9423432
_publ_section_title
;
Structure prediction by ZEFSAII (Michael W. Deem and Ramdas Pophale) SiO2 
 PCOD9423432
Probable space group: P C C A
;
_chemical_formula_sum "Si O2"
_cell_formula_units_Z 52
_cell_length_a 17.049854
_cell_length_b 6.516600
_cell_length_c 24.015046
_cell_angle_alpha 90.000000
_cell_angle_beta 90.000000
_cell_angle_gamma 90.000000
_cell_volume 2668.241603
_symmetry_space_group_name_H-M "P C C A"
_symmetry_group_IT_number 54
_symmetry_cell_setting 'orthorhombic'
loop_
_space_group_symop_operation_xyz
x,y,z
1/2-x,-y,z
1/2+x,-y,1/2-z
-x,y,1/2-z
-x,-y,-z
1/2+x,y,-z
1/2-x,y,1/2+z
x,-y,1/2+z
loop_
_atom_site_type_symbol
_atom_site_label
_atom_site_fract_x
_atom_site_fract_y
_atom_site_fract_z
Si Si1 0.661776 0.936266 0.637486
Si Si2 0.549762 0.321526 0.618796
Si Si3 0.662910 0.400840 0.044270
Si Si4 0.250000 0.000000 0.137950
Si Si5 0.625919 0.316157 0.916185
Si Si6 0.071271 0.363685 0.782125
Si Si7 0.330369 0.385650 0.177823
O O1 0.604422 0.128480 0.631973
O O2 0.750000 0.000000 0.651492
O O3 0.664138 0.807703 0.580107
O O4 0.626474 0.787655 0.684043
O O5 0.597799 0.453936 0.573093
O O6 0.543638 0.464825 0.673860
O O7 0.463871 0.254923 0.597292
O O8 0.750000 0.500000 0.047565
O O9 0.640008 0.359854 0.980761
O O10 0.307882 0.847942 0.103560
O O11 0.191393 0.853476 0.172672
O O12 0.750000 0.500000 0.812924
O O13 0.637543 0.524631 0.880224
O O14 0.117780 0.450778 0.729754
O O15 0.000000 0.253401 0.750000
#
# Coordination Sequence:
#
# PCOD9423432 Si02
#       7
#     8   8   8   4   8   8   8
#     4  11  26  42  68 102 131 176 227 272 336 400
#     4  11  25  44  66  97 134 173 225 278 330 399
#     4  11  23  43  68  95 134 174 219 276 333 401
#     4  10  24  38  66  94 132 166 220 272 324 412
#     4  11  24  43  68  97 132 176 219 274 339 395
#     4  11  25  43  67  93 133 176 218 279 329 395
#     4  10  23  42  62  95 127 172 219 266 330 397
#
# _framework density 19.488491
#
# number of rings (size 3 to 8) (size 9 to 14) (size 15 to 20)
#    0.000    1.231    3.077    1.846    6.462    3.692 
#    0.000    0.000    0.000    0.000    0.000    0.000 
#    0.000    0.000    0.000    0.000    0.000    0.000 
#
# Total GULP energy -290251.451545 kJ/mol
# GULP energy per Si atom -5581.758684 kJ/mol
# Density = 1.944413 g / cm^3
# Si number density = 19.488491 Si / 1000 Ang^3
#
#
#
# Elastic Constant Matrix: (Units=GPa)
#
#
# Indices 1 2 3 4 5 6 
#
# 1 144.2483 30.9320 51.3068 0.0000 0.0000 0.0000
# 2 30.9320 78.4065 33.4102 0.0000 0.0000 0.0000
# 3 51.3068 33.4102 146.3123 0.0000 0.0000 0.0000
# 4 0.0000 0.0000 0.0000 -12.2988 0.0000 0.0000
# 5 0.0000 0.0000 0.0000 0.0000 14.8710 0.0000
# 6 0.0000 0.0000 0.0000 0.0000 0.0000 15.9629
#
#
#
# Elastic Compliance Matrix: (Units=1/GPa)
#
#
# Indices 1 2 3 4 5 6 
#
# 1 0.008262 -0.002243 -0.002385 0.000000 0.000000 0.000000
# 2 -0.002243 0.014738 -0.002579 0.000000 0.000000 0.000000
# 3 -0.002385 -0.002579 0.008260 0.000000 0.000000 0.000000
# 4 0.000000 0.000000 0.000000 -0.081309 0.000000 0.000000
# 5 0.000000 0.000000 0.000000 0.000000 0.067245 0.000000
# 6 0.000000 0.000000 0.000000 0.000000 0.000000 0.062645
#
#
# Mechanical properties :
#
#
# Convention : Reuss Voigt Hill
#
# Bulk Modulus (GPa) = 59.36172 66.69614 63.02893
# Shear Modulus (GPa) = 50.06516 20.59489 35.33003
#
# Velocity S-wave (km/s) = 5.07399 3.25433 4.26240
# Velocity P-wave (km/s) = 8.05315 6.95834 7.52568
#
# Compressibility (1/GPa) = 0.01684587
#
# Stress axis : x y z
#
# Youngs Moduli (GPa) = 121.03953 67.85266 121.06734
#
# Poissons Ratio (x) = 0.15220 0.28874
# Poissons Ratio (y) = 0.27150 0.31221
# Poissons Ratio (z) = 0.28867 0.17498
#
# Static dielectric constant tensor:
#      x y z
#    x 1.762010 0.000000 0.000000 
#    y 0.000000 1.692170 0.000000 
#    z 0.000000 0.000000 1.673430 
# 
# From -- ./inp_files/26621.got.cif
#   From: 2010.05.17/outbox.cif.g08.bks.cpg/sg54_14_cif.got.tgz:26621.got - 2010.06.03 13:09:01.
