data_PCOD9423618
_publ_section_title
;
Structure prediction by ZEFSAII (Michael W. Deem and Ramdas Pophale) SiO2 
 PCOD9423618
Probable space group: P C C A
;
_chemical_formula_sum "Si O2"
_cell_formula_units_Z 60
_cell_length_a 20.651117
_cell_length_b 11.556158
_cell_length_c 11.823118
_cell_angle_alpha 90.000000
_cell_angle_beta 90.000000
_cell_angle_gamma 90.000000
_cell_volume 2821.558392
_symmetry_space_group_name_H-M "P C C A"
_symmetry_group_IT_number 54
_symmetry_cell_setting 'orthorhombic'
loop_
_space_group_symop_operation_xyz
x,y,z
1/2-x,-y,z
1/2+x,-y,1/2-z
-x,y,1/2-z
-x,-y,-z
1/2+x,y,-z
1/2-x,y,1/2+z
x,-y,1/2+z
loop_
_atom_site_type_symbol
_atom_site_label
_atom_site_fract_x
_atom_site_fract_y
_atom_site_fract_z
Si Si1 0.744176 0.733406 0.855157
Si Si2 0.000000 0.818162 0.750000
Si Si3 0.182214 0.551896 0.304874
Si Si4 0.319778 0.983358 0.794676
Si Si5 0.645925 0.145493 0.499937
Si Si6 0.133326 0.696884 0.799386
Si Si7 0.657365 0.234778 0.055071
Si Si8 0.420130 0.945123 0.100532
O O1 0.706610 0.621546 0.806318
O O2 0.689534 0.825448 0.891760
O O3 0.802633 0.748037 0.763847
O O4 0.783679 0.730432 0.972770
O O5 0.064987 0.743465 0.754661
O O6 0.011171 0.902998 0.644602
O O7 0.250000 0.500000 0.355863
O O8 0.139750 0.439501 0.282192
O O9 0.144219 0.643575 0.383023
O O10 0.250000 0.000000 0.739470
O O11 0.375695 0.030656 0.712472
O O12 0.326525 0.854340 0.844206
O O13 0.319882 0.061348 0.909235
O O14 0.634286 0.261868 0.570451
O O15 0.585614 0.068347 0.460227
O O16 0.609202 0.158012 0.977248
#
# Coordination Sequence:
#
# PCOD9423618 Si02
#       8
#     8   4   8   8   8   8   8   8
#     4  11  20  39  67  99 136 168 212 283 349 391
#     4  12  24  50  66  88 146 180 236 268 336 416
#     4  10  24  39  64  95 134 170 221 285 339 394
#     4  11  22  37  61 100 140 164 211 276 343 400
#     4  11  23  40  67 103 131 169 224 272 345 405
#     4  11  25  45  67 100 134 183 222 281 337 398
#     4  11  22  39  61  98 131 171 222 264 342 402
#     4  11  26  39  67  91 130 184 214 276 331 400
#
# _framework density 21.264844
#
# number of rings (size 3 to 8) (size 9 to 14) (size 15 to 20)
#    0.000    1.067    4.000    2.400    5.600    5.333 
#    0.000    0.667    0.000    0.800    0.000    0.000 
#    0.000    0.000    0.000    0.000    0.000    0.000 
#
# Total GULP energy -334566.063557 kJ/mol
# GULP energy per Si atom -5576.101059 kJ/mol
# Density = 2.121644 g / cm^3
# Si number density = 21.264844 Si / 1000 Ang^3
#
#
#
# Elastic Constant Matrix: (Units=GPa)
#
#
# Indices 1 2 3 4 5 6 
#
# 1 85.4617 49.1053 42.7084 0.0000 0.0000 0.0000
# 2 49.1053 140.8939 55.6978 0.0000 0.0000 0.0000
# 3 42.7084 55.6978 122.6859 0.0000 0.0000 0.0000
# 4 0.0000 0.0000 0.0000 32.4569 0.0000 0.0000
# 5 0.0000 0.0000 0.0000 0.0000 34.1999 0.0000
# 6 0.0000 0.0000 0.0000 0.0000 0.0000 24.5856
#
#
#
# Elastic Compliance Matrix: (Units=1/GPa)
#
#
# Indices 1 2 3 4 5 6 
#
# 1 0.015884 -0.004083 -0.003676 0.000000 0.000000 0.000000
# 2 -0.004083 0.009699 -0.002982 0.000000 0.000000 0.000000
# 3 -0.003676 -0.002982 0.010784 0.000000 0.000000 0.000000
# 4 0.000000 0.000000 0.000000 0.030810 0.000000 0.000000
# 5 0.000000 0.000000 0.000000 0.000000 0.029240 0.000000
# 6 0.000000 0.000000 0.000000 0.000000 0.000000 0.040674
#
#
# Mechanical properties :
#
#
# Convention : Reuss Voigt Hill
#
# Bulk Modulus (GPa) = 67.17661 71.56273 69.36967
# Shear Modulus (GPa) = 30.57434 31.68381 31.12908
#
# Velocity S-wave (km/s) = 3.79593 3.86419 3.83021
# Velocity P-wave (km/s) = 7.13240 7.32362 7.22864
#
# Compressibility (1/GPa) = 0.01488613
#
# Stress axis : x y z
#
# Youngs Moduli (GPa) = 62.95602 103.09884 92.72706
#
# Poissons Ratio (x) = 0.42094 0.34085
# Poissons Ratio (y) = 0.25704 0.27652
# Poissons Ratio (z) = 0.23142 0.30745
#
# Static dielectric constant tensor:
#      x y z
#    x 1.754150 0.000000 0.000000 
#    y 0.000000 1.830270 0.000000 
#    z 0.000000 0.000000 1.847110 
# 
# From -- ./inp_files/9599.got.cif
#   From: 2010.05.17/outbox.cif.g08.bks.cpg/sg54_5_cif.got.tgz:9599.got - 2010.06.03 13:09:01.
