data_PCOD9423892
_publ_section_title
;
Structure prediction by ZEFSAII (Michael W. Deem and Ramdas Pophale) SiO2 
 PCOD9423892
Probable space group: P C C A
;
_chemical_formula_sum "Si O2"
_cell_formula_units_Z 32
_cell_length_a 7.421008
_cell_length_b 16.514683
_cell_length_c 9.487524
_cell_angle_alpha 90.000000
_cell_angle_beta 90.000000
_cell_angle_gamma 90.000000
_cell_volume 1162.749146
_symmetry_space_group_name_H-M "P C C A"
_symmetry_group_IT_number 54
_symmetry_cell_setting 'orthorhombic'
loop_
_space_group_symop_operation_xyz
x,y,z
1/2-x,-y,z
1/2+x,-y,1/2-z
-x,y,1/2-z
-x,-y,-z
1/2+x,y,-z
1/2-x,y,1/2+z
x,-y,1/2+z
loop_
_atom_site_type_symbol
_atom_site_label
_atom_site_fract_x
_atom_site_fract_y
_atom_site_fract_z
Si Si1 0.167098 0.911591 0.643755
Si Si2 0.005332 0.811656 0.067639
Si Si3 0.827417 0.410376 0.855620
Si Si4 0.810687 0.304821 0.129968
O O1 0.326885 0.844231 0.658904
O O2 0.000000 0.909242 0.750000
O O3 0.100635 0.890524 0.485065
O O4 0.250000 0.000000 0.651119
O O5 0.072616 0.771045 0.920684
O O6 0.886193 0.737482 0.121206
O O7 0.750000 0.500000 0.867175
O O8 0.689619 0.348485 0.779344
O O9 0.000000 0.415308 0.750000
O O10 0.845997 0.373550 0.011615
#
# Coordination Sequence:
#
# PCOD9423892 Si02
#       4
#     8   8   8   8
#     4  11  26  48  77 111 150 200 253 318 393 471
#     4  10  25  47  75 106 153 198 253 322 385 458
#     4  12  28  47  73 113 158 206 265 328 397 464
#     4  11  25  47  78 109 154 207 266 322 388 469
#
# _framework density 27.520983999999999
#
# number of rings (size 3 to 8) (size 9 to 14) (size 15 to 20)
#    0.000    1.000    2.500    1.500   10.500    7.000 
#    0.000    0.000    0.000    0.000    0.000    0.000 
#    0.000    0.000    0.000    0.000    0.000    0.000 
#
# Total GULP energy -179296.872048 kJ/mol
# GULP energy per Si atom -5603.027251 kJ/mol
# Density = 2.745835 g / cm^3
# Si number density = 27.520984 Si / 1000 Ang^3
#
#
#
# Elastic Constant Matrix: (Units=GPa)
#
#
# Indices 1 2 3 4 5 6 
#
# 1 113.9014 59.4813 18.5519 0.0000 0.0000 0.0000
# 2 59.4813 210.3338 60.9598 0.0000 0.0000 0.0000
# 3 18.5519 60.9598 124.3596 0.0000 0.0000 0.0000
# 4 0.0000 0.0000 0.0000 46.2895 0.0000 0.0000
# 5 0.0000 0.0000 0.0000 0.0000 42.9902 0.0000
# 6 0.0000 0.0000 0.0000 0.0000 0.0000 48.1086
#
#
#
# Elastic Compliance Matrix: (Units=1/GPa)
#
#
# Indices 1 2 3 4 5 6 
#
# 1 0.010302 -0.002877 -0.000127 0.000000 0.000000 0.000000
# 2 -0.002877 0.006345 -0.002681 0.000000 0.000000 0.000000
# 3 -0.000127 -0.002681 0.009374 0.000000 0.000000 0.000000
# 4 0.000000 0.000000 0.000000 0.021603 0.000000 0.000000
# 5 0.000000 0.000000 0.000000 0.000000 0.023261 0.000000
# 6 0.000000 0.000000 0.000000 0.000000 0.000000 0.020786
#
#
# Mechanical properties :
#
#
# Convention : Reuss Voigt Hill
#
# Bulk Modulus (GPa) = 68.24741 80.73120 74.48930
# Shear Modulus (GPa) = 46.32822 48.11780 47.22301
#
# Velocity S-wave (km/s) = 4.10735 4.18593 4.14683
# Velocity P-wave (km/s) = 6.88084 7.26366 7.07484
#
# Compressibility (1/GPa) = 0.01465257
#
# Stress axis : x y z
#
# Youngs Moduli (GPa) = 97.06425 157.60665 106.67421
#
# Poissons Ratio (x) = 0.45339 0.01352
# Poissons Ratio (y) = 0.27923 0.28600
# Poissons Ratio (z) = 0.01230 0.42255
#
# Static dielectric constant tensor:
#      x y z
#    x 2.410180 0.000000 0.000000 
#    y 0.000000 2.006180 0.000000 
#    z 0.000000 0.000000 2.236490 
# 
# From -- ./inp_files/6706.got.cif
#   From: 2010.05.17/outbox.cif.g08.bks.cpg/sg54_4_cif.got.tgz:6706.got - 2010.06.03 13:09:01.
