data_PCOD9423663
_publ_section_title
;
Structure prediction by ZEFSAII (Michael W. Deem and Ramdas Pophale) SiO2 
 PCOD9423663
Probable space group: P C C A
;
_chemical_formula_sum "Si O2"
_cell_formula_units_Z 48
_cell_length_a 13.679267
_cell_length_b 9.460036
_cell_length_c 17.720546
_cell_angle_alpha 90.000000
_cell_angle_beta 90.000000
_cell_angle_gamma 90.000000
_cell_volume 2293.151324
_symmetry_space_group_name_H-M "P C C A"
_symmetry_group_IT_number 54
_symmetry_cell_setting 'orthorhombic'
loop_
_space_group_symop_operation_xyz
x,y,z
1/2-x,-y,z
1/2+x,-y,1/2-z
-x,y,1/2-z
-x,-y,-z
1/2+x,y,-z
1/2-x,y,1/2+z
x,-y,1/2+z
loop_
_atom_site_type_symbol
_atom_site_label
_atom_site_fract_x
_atom_site_fract_y
_atom_site_fract_z
Si Si1 0.047235 0.081649 0.430745
Si Si2 0.585476 0.567148 0.688731
Si Si3 0.281858 0.729874 0.582705
Si Si4 0.981037 0.836621 0.337966
Si Si5 0.076408 0.396107 0.459159
Si Si6 0.250000 0.000000 0.493054
Si Si7 0.750000 0.500000 0.803800
O O1 0.027567 0.245360 0.440614
O O2 0.007088 0.994448 0.361363
O O3 0.161967 0.052286 0.441150
O O4 0.000000 0.000000 0.500000
O O5 0.500000 0.529561 0.750000
O O6 0.554605 0.707748 0.641349
O O7 0.605411 0.456550 0.622389
O O8 0.674741 0.572873 0.746471
O O9 0.375391 0.794148 0.628968
O O10 0.333738 0.638900 0.515839
O O11 0.227109 0.863890 0.545925
O O12 0.221759 0.627008 0.638322
O O13 0.000000 0.830803 0.250000
O O14 0.000000 0.500000 0.500000
#
# Coordination Sequence:
#
# PCOD9423663 Si02
#       7
#     8   8   8   8   8   4   4
#     4  11  22  41  69  94 133 179 220 281 338 398
#     4  11  23  42  63  97 139 169 221 283 338 407
#     4  11  23  45  65  97 132 177 227 278 341 407
#     4  11  21  45  68  91 137 185 215 279 348 401
#     4  11  21  40  70 100 130 174 229 277 337 408
#     4  10  24  42  66 100 130 166 238 280 332 414
#     4  12  24  42  68  94 132 180 220 278 346 400
#
# _framework density 20.931895000000001
#
# number of rings (size 3 to 8) (size 9 to 14) (size 15 to 20)
#    0.000    1.000    8.333    0.000    0.000    8.000 
#    3.000    0.000    0.000    0.000    0.000    0.000 
#    0.000    0.000    0.000    0.000    0.000    0.000 
#
# Total GULP energy -267481.772978 kJ/mol
# GULP energy per Si atom -5572.536937 kJ/mol
# Density = 2.088425 g / cm^3
# Si number density = 20.931895 Si / 1000 Ang^3
#
#
#
# Elastic Constant Matrix: (Units=GPa)
#
#
# Indices 1 2 3 4 5 6 
#
# 1 22.3386 0.5520 -11.2504 0.0000 0.0000 0.0000
# 2 0.5520 135.3002 27.8567 0.0000 0.0000 0.0000
# 3 -11.2504 27.8567 88.8386 0.0000 0.0000 0.0000
# 4 0.0000 0.0000 0.0000 22.1929 0.0000 0.0000
# 5 0.0000 0.0000 0.0000 0.0000 22.8185 0.0000
# 6 0.0000 0.0000 0.0000 0.0000 0.0000 26.8709
#
#
#
# Elastic Compliance Matrix: (Units=1/GPa)
#
#
# Indices 1 2 3 4 5 6 
#
# 1 0.048118 -0.001551 0.006580 0.000000 0.000000 0.000000
# 2 -0.001551 0.007951 -0.002690 0.000000 0.000000 0.000000
# 3 0.006580 -0.002690 0.012933 0.000000 0.000000 0.000000
# 4 0.000000 0.000000 0.000000 0.045059 0.000000 0.000000
# 5 0.000000 0.000000 0.000000 0.000000 0.043824 0.000000
# 6 0.000000 0.000000 0.000000 0.000000 0.000000 0.037215
#
#
# Mechanical properties :
#
#
# Convention : Reuss Voigt Hill
#
# Bulk Modulus (GPa) = 13.57212 31.19936 22.38574
# Shear Modulus (GPa) = 23.25777 29.66441 26.46109
#
# Velocity S-wave (km/s) = 3.33696 3.76864 3.55935
# Velocity P-wave (km/s) = 4.62007 5.82017 5.25450
#
# Compressibility (1/GPa) = 0.07368045
#
# Stress axis : x y z
#
# Youngs Moduli (GPa) = 20.78231 125.76943 77.32156
#
# Poissons Ratio (x) = 0.19508 -0.50877
# Poissons Ratio (y) = 0.03223 0.20796
# Poissons Ratio (z) = -0.13675 0.33827
#
# Static dielectric constant tensor:
#      x y z
#    x 1.841710 0.000000 0.000000 
#    y 0.000000 0.959300 0.000000 
#    z 0.000000 0.000000 1.442150 
# 
# From -- ./inp_files/18070.got.cif
#   From: 2010.05.17/outbox.cif.g08.bks.cpg/sg54_10_cif.got.tgz:18070.got - 2010.06.03 13:09:01.
