data_PCOD9423799
_publ_section_title
;
Structure prediction by ZEFSAII (Michael W. Deem and Ramdas Pophale) SiO2 
 PCOD9423799
Probable space group: P C C A
;
_chemical_formula_sum "Si O2"
_cell_formula_units_Z 32
_cell_length_a 5.074042
_cell_length_b 11.689369
_cell_length_c 22.774067
_cell_angle_alpha 90.000000
_cell_angle_beta 90.000000
_cell_angle_gamma 90.000000
_cell_volume 1350.783416
_symmetry_space_group_name_H-M "P C C A"
_symmetry_group_IT_number 54
_symmetry_cell_setting 'orthorhombic'
loop_
_space_group_symop_operation_xyz
x,y,z
1/2-x,-y,z
1/2+x,-y,1/2-z
-x,y,1/2-z
-x,-y,-z
1/2+x,y,-z
1/2-x,y,1/2+z
x,-y,1/2+z
loop_
_atom_site_type_symbol
_atom_site_label
_atom_site_fract_x
_atom_site_fract_y
_atom_site_fract_z
Si Si1 0.997894 0.728460 0.532847
Si Si2 0.496032 0.078350 0.320015
Si Si3 0.500000 0.432647 0.250000
Si Si4 0.750000 0.500000 0.559469
Si Si5 0.396208 0.315670 0.132416
O O1 0.217323 0.777221 0.487973
O O2 0.136791 0.722242 0.596204
O O3 0.928526 0.593712 0.526556
O O4 0.500000 0.105280 0.250000
O O5 0.464810 0.195034 0.355715
O O6 0.750000 0.000000 0.333222
O O7 0.250000 0.000000 0.332198
O O8 0.250000 0.500000 0.276643
O O9 0.357901 0.364407 0.197582
O O10 0.560600 0.585599 0.598469
#
# Coordination Sequence:
#
# PCOD9423799 Si02
#       5
#     8   8   4   4   8
#     4  12  26  44  68 101 144 187 236 279 334 417
#     4  10  24  46  71  98 133 182 236 286 336 406
#     4  12  26  42  62 104 152 178 212 272 364 436
#     4  12  24  42  68 108 140 188 222 282 356 402
#     4  12  26  43  72 104 142 184 225 287 349 418
#
# _framework density 23.689954
#
# number of rings (size 3 to 8) (size 9 to 14) (size 15 to 20)
#    0.000    0.500    5.000    3.000    3.500    0.000 
#    0.000    0.000    0.000    4.500    0.000    0.000 
#    0.000    0.000    0.000    0.000    0.000    0.000 
#
# Total GULP energy -178470.191165 kJ/mol
# GULP energy per Si atom -5577.193474 kJ/mol
# Density = 2.363603 g / cm^3
# Si number density = 23.689954 Si / 1000 Ang^3
#
#
#
# Elastic Constant Matrix: (Units=GPa)
#
#
# Indices 1 2 3 4 5 6 
#
# 1 164.1513 30.5178 32.4090 0.0000 0.0000 0.0000
# 2 30.5178 70.9564 9.7916 0.0000 0.0000 0.0000
# 3 32.4090 9.7916 118.2420 0.0000 0.0000 0.0000
# 4 0.0000 0.0000 0.0000 49.8013 0.0000 0.0000
# 5 0.0000 0.0000 0.0000 0.0000 45.1342 0.0000
# 6 0.0000 0.0000 0.0000 0.0000 0.0000 206.4110
#
#
#
# Elastic Compliance Matrix: (Units=1/GPa)
#
#
# Indices 1 2 3 4 5 6 
#
# 1 0.006934 -0.002751 -0.001673 0.000000 0.000000 0.000000
# 2 -0.002751 0.015348 -0.000517 0.000000 0.000000 0.000000
# 3 -0.001673 -0.000517 0.008958 0.000000 0.000000 0.000000
# 4 0.000000 0.000000 0.000000 0.020080 0.000000 0.000000
# 5 0.000000 0.000000 0.000000 0.000000 0.022156 0.000000
# 6 0.000000 0.000000 0.000000 0.000000 0.000000 0.004845
#
#
# Mechanical properties :
#
#
# Convention : Reuss Voigt Hill
#
# Bulk Modulus (GPa) = 46.81993 55.42072 51.12032
# Shear Modulus (GPa) = 52.45401 78.97805 65.71603
#
# Velocity S-wave (km/s) = 4.71062 5.78019 5.27260
# Velocity P-wave (km/s) = 7.02802 8.24575 7.66112
#
# Compressibility (1/GPa) = 0.02135843
#
# Stress axis : x y z
#
# Youngs Moduli (GPa) = 144.22362 65.15589 111.62607
#
# Poissons Ratio (x) = 0.17926 0.18671
# Poissons Ratio (y) = 0.39680 0.05769
# Poissons Ratio (z) = 0.24123 0.03368
#
# Static dielectric constant tensor:
#      x y z
#    x 1.997060 0.000000 0.000000 
#    y 0.000000 1.841240 0.000000 
#    z 0.000000 0.000000 1.520010 
# 
# From -- ./inp_files/25123.got.cif
#   From: 2010.05.17/outbox.cif.g08.bks.cpg/sg54_13_cif.got.tgz:25123.got - 2010.06.03 13:09:01.
