data_PCOD9423146
_publ_section_title
;
Structure prediction by ZEFSAII (Michael W. Deem and Ramdas Pophale) SiO2 
 PCOD9423146
Probable space group: P C C A
;
_chemical_formula_sum "Si O2"
_cell_formula_units_Z 40
_cell_length_a 20.275689
_cell_length_b 5.252587
_cell_length_c 15.738789
_cell_angle_alpha 90.000000
_cell_angle_beta 90.000000
_cell_angle_gamma 90.000000
_cell_volume 1676.178203
_symmetry_space_group_name_H-M "P C C A"
_symmetry_group_IT_number 54
_symmetry_cell_setting 'orthorhombic'
loop_
_space_group_symop_operation_xyz
x,y,z
1/2-x,-y,z
1/2+x,-y,1/2-z
-x,y,1/2-z
-x,-y,-z
1/2+x,y,-z
1/2-x,y,1/2+z
x,-y,1/2+z
loop_
_atom_site_type_symbol
_atom_site_label
_atom_site_fract_x
_atom_site_fract_y
_atom_site_fract_z
Si Si1 0.610254 0.111607 0.283805
Si Si2 0.179243 0.375352 0.264751
Si Si3 0.569779 0.875738 0.601562
Si Si4 0.825915 0.515052 0.044446
Si Si5 0.941853 0.734720 0.454934
O O1 0.630044 0.407502 0.270203
O O2 0.566618 0.060646 0.200196
O O3 0.578065 0.086924 0.375322
O O4 0.667236 0.899641 0.275490
O O5 0.250000 0.500000 0.249539
O O6 0.171304 0.354817 0.367284
O O7 0.643369 0.780790 0.577763
O O8 0.515835 0.658506 0.574843
O O9 0.553039 0.107840 0.541332
O O10 0.750000 0.500000 0.016178
O O11 0.877495 0.436309 0.971828
#
# Coordination Sequence:
#
# PCOD9423146 Si02
#       5
#     8   8   8   8   8
#     4  11  23  42  67 100 132 182 232 279 349 411
#     4  10  22  43  66  94 139 182 219 282 346 413
#     4  10  23  44  64  95 138 179 231 291 358 414
#     4  10  22  42  68  96 135 184 232 286 359 423
#     4  11  23  41  67  97 134 180 233 295 344 425
#
# _framework density 23.863809
#
# number of rings (size 3 to 8) (size 9 to 14) (size 15 to 20)
#    0.000    1.600    2.000    1.800    2.800    1.600 
#    3.600    2.000    0.000    0.000    0.000    0.000 
#    0.000    0.000    0.000    0.000    0.000    0.000 
#
# Total GULP energy -223162.535063 kJ/mol
# GULP energy per Si atom -5579.063377 kJ/mol
# Density = 2.380949 g / cm^3
# Si number density = 23.863809 Si / 1000 Ang^3
#
#
#
# Elastic Constant Matrix: (Units=GPa)
#
#
# Indices 1 2 3 4 5 6 
#
# 1 141.4841 26.4102 36.1920 0.0000 0.0000 0.0000
# 2 26.4102 77.9618 22.0048 0.0000 0.0000 0.0000
# 3 36.1920 22.0048 131.8844 0.0000 0.0000 0.0000
# 4 0.0000 0.0000 0.0000 21.7937 0.0000 0.0000
# 5 0.0000 0.0000 0.0000 0.0000 16.8574 0.0000
# 6 0.0000 0.0000 0.0000 0.0000 0.0000 34.1322
#
#
#
# Elastic Compliance Matrix: (Units=1/GPa)
#
#
# Indices 1 2 3 4 5 6 
#
# 1 0.007939 -0.002177 -0.001815 0.000000 0.000000 0.000000
# 2 -0.002177 0.014058 -0.001748 0.000000 0.000000 0.000000
# 3 -0.001815 -0.001748 0.008372 0.000000 0.000000 0.000000
# 4 0.000000 0.000000 0.000000 0.045885 0.000000 0.000000
# 5 0.000000 0.000000 0.000000 0.000000 0.059321 0.000000
# 6 0.000000 0.000000 0.000000 0.000000 0.000000 0.029298
#
#
# Mechanical properties :
#
#
# Convention : Reuss Voigt Hill
#
# Bulk Modulus (GPa) = 52.94411 57.83825 55.39118
# Shear Modulus (GPa) = 27.37492 32.33822 29.85657
#
# Velocity S-wave (km/s) = 3.39061 3.68518 3.54096
# Velocity P-wave (km/s) = 6.12882 6.51129 6.32294
#
# Compressibility (1/GPa) = 0.01888784
#
# Stress axis : x y z
#
# Youngs Moduli (GPa) = 125.96599 71.13566 119.44249
#
# Poissons Ratio (x) = 0.15486 0.21683
# Poissons Ratio (y) = 0.27422 0.20880
# Poissons Ratio (z) = 0.22867 0.12435
#
# Static dielectric constant tensor:
#      x y z
#    x 2.010190 0.000000 0.000000 
#    y 0.000000 2.007040 0.000000 
#    z 0.000000 0.000000 1.893540 
# 
# From -- ./inp_files/18337.got.cif
#   From: 2010.05.17/outbox.cif.g08.bks.cpg/sg54_10_cif.got.tgz:18337.got - 2010.06.03 13:09:01.
