data_PCOD9423455
_publ_section_title
;
Structure prediction by ZEFSAII (Michael W. Deem and Ramdas Pophale) SiO2 
 PCOD9423455
Probable space group: P C C A
;
_chemical_formula_sum "Si O2"
_cell_formula_units_Z 40
_cell_length_a 5.256787
_cell_length_b 23.786746
_cell_length_c 13.729304
_cell_angle_alpha 90.000000
_cell_angle_beta 90.000000
_cell_angle_gamma 90.000000
_cell_volume 1716.737669
_symmetry_space_group_name_H-M "P C C A"
_symmetry_group_IT_number 54
_symmetry_cell_setting 'orthorhombic'
loop_
_space_group_symop_operation_xyz
x,y,z
1/2-x,-y,z
1/2+x,-y,1/2-z
-x,y,1/2-z
-x,-y,-z
1/2+x,y,-z
1/2-x,y,1/2+z
x,-y,1/2+z
loop_
_atom_site_type_symbol
_atom_site_label
_atom_site_fract_x
_atom_site_fract_y
_atom_site_fract_z
Si Si1 0.896933 0.083360 0.955582
Si Si2 0.556196 0.791399 0.035857
Si Si3 0.883081 0.610759 0.433916
Si Si4 0.750000 0.500000 0.814430
Si Si5 0.000000 0.233383 0.250000
Si Si6 0.500000 0.961918 0.750000
Si Si7 0.000000 0.690175 0.250000
O O1 0.978550 0.075314 0.845859
O O2 0.119145 0.059056 0.023818
O O3 0.890839 0.149146 0.983080
O O4 0.499772 0.800537 0.149161
O O5 0.321892 0.760758 0.984636
O O6 0.614426 0.617341 0.489778
O O7 0.856595 0.549895 0.382151
O O8 0.943974 0.652437 0.344581
O O9 0.500000 0.482113 0.750000
O O10 0.749005 0.271057 0.241994
O O11 0.250000 0.000000 0.756757
#
# Coordination Sequence:
#
# PCOD9423455 Si02
#       7
#     8   8   8   4   4   4   4
#     4  10  23  42  67  97 134 174 226 279 334 400
#     4  10  23  42  69  99 130 171 226 287 340 404
#     4  12  26  46  72 103 141 190 235 286 354 418
#     4  12  24  44  76 104 146 184 244 294 346 412
#     4  12  26  44  70 100 134 177 230 283 366 412
#     4  12  26  42  66 100 140 184 224 272 346 418
#     4  12  28  46  68 102 144 183 224 297 350 436
#
# _framework density 23.300006
#
# number of rings (size 3 to 8) (size 9 to 14) (size 15 to 20)
#    0.000    0.800    1.000    5.400    1.400   13.600 
#    0.000    0.000    0.000    0.000    0.000    0.000 
#    0.000    0.000    0.000    0.000    0.000    0.000 
#
# Total GULP energy -223866.620965 kJ/mol
# GULP energy per Si atom -5596.665524 kJ/mol
# Density = 2.324697 g / cm^3
# Si number density = 23.300006 Si / 1000 Ang^3
#
#
#
# Elastic Constant Matrix: (Units=GPa)
#
#
# Indices 1 2 3 4 5 6 
#
# 1 194.6843 26.6250 27.1175 0.0000 0.0000 0.0000
# 2 26.6250 94.9312 55.7554 0.0000 0.0000 0.0000
# 3 27.1175 55.7554 162.2076 0.0000 0.0000 0.0000
# 4 0.0000 0.0000 0.0000 -12.5242 0.0000 0.0000
# 5 0.0000 0.0000 0.0000 0.0000 47.7760 0.0000
# 6 0.0000 0.0000 0.0000 0.0000 0.0000 19.1505
#
#
#
# Elastic Compliance Matrix: (Units=1/GPa)
#
#
# Indices 1 2 3 4 5 6 
#
# 1 0.005371 -0.001227 -0.000476 0.000000 0.000000 0.000000
# 2 -0.001227 0.013479 -0.004428 0.000000 0.000000 0.000000
# 3 -0.000476 -0.004428 0.007767 0.000000 0.000000 0.000000
# 4 0.000000 0.000000 0.000000 -0.079845 0.000000 0.000000
# 5 0.000000 0.000000 0.000000 0.000000 0.020931 0.000000
# 6 0.000000 0.000000 0.000000 0.000000 0.000000 0.052218
#
#
# Mechanical properties :
#
#
# Convention : Reuss Voigt Hill
#
# Bulk Modulus (GPa) = 69.66560 74.53545 72.10052
# Shear Modulus (GPa) = 135.26124 33.70215 84.48169
#
# Velocity S-wave (km/s) = 7.62745 3.80734 6.02801
# Velocity P-wave (km/s) = 10.36991 7.16845 8.91408
#
# Compressibility (1/GPa) = 0.01435429
#
# Stress axis : x y z
#
# Youngs Moduli (GPa) = 186.19886 74.19183 128.75717
#
# Poissons Ratio (x) = 0.09100 0.06132
# Poissons Ratio (y) = 0.22839 0.57013
# Poissons Ratio (z) = 0.08868 0.32852
#
# Static dielectric constant tensor:
#      x y z
#    x 1.975920 0.000000 0.000000 
#    y 0.000000 2.076700 0.000000 
#    z 0.000000 0.000000 1.838790 
# 
# From -- ./inp_files/6484.got.cif
#   From: 2010.05.17/outbox.cif.g08.bks.cpg/sg54_4_cif.got.tgz:6484.got - 2010.06.03 13:09:01.
