data_PCOD9423952
_publ_section_title
;
Structure prediction by ZEFSAII (Michael W. Deem and Ramdas Pophale) SiO2 
 PCOD9423952
Probable space group: P C C A
;
_chemical_formula_sum "Si O2"
_cell_formula_units_Z 48
_cell_length_a 9.375395
_cell_length_b 13.453266
_cell_length_c 17.938160
_cell_angle_alpha 90.000000
_cell_angle_beta 90.000000
_cell_angle_gamma 90.000000
_cell_volume 2262.534431
_symmetry_space_group_name_H-M "P C C A"
_symmetry_group_IT_number 54
_symmetry_cell_setting 'orthorhombic'
loop_
_space_group_symop_operation_xyz
x,y,z
1/2-x,-y,z
1/2+x,-y,1/2-z
-x,y,1/2-z
-x,-y,-z
1/2+x,y,-z
1/2-x,y,1/2+z
x,-y,1/2+z
loop_
_atom_site_type_symbol
_atom_site_label
_atom_site_fract_x
_atom_site_fract_y
_atom_site_fract_z
Si Si1 0.884145 0.069945 0.188005
Si Si2 0.457008 0.172391 0.577501
Si Si3 0.601284 0.444265 0.062438
Si Si4 0.274166 0.266020 0.001822
Si Si5 0.648684 0.274138 0.769373
Si Si6 0.654445 0.402202 0.354437
O O1 0.967172 0.075239 0.109785
O O2 0.834355 0.182147 0.212323
O O3 0.000000 0.039499 0.250000
O O4 0.750000 0.000000 0.187121
O O5 0.586354 0.237533 0.544203
O O6 0.320972 0.170280 0.523913
O O7 0.391244 0.223640 0.651544
O O8 0.750000 0.500000 0.072470
O O9 0.658723 0.336978 0.037510
O O10 0.507839 0.435702 0.136865
O O11 0.500000 0.500000 0.000000
O O12 0.323160 0.329511 0.074048
O O13 0.500000 0.329534 0.750000
O O14 0.783468 0.343339 0.783720
O O15 0.750000 0.500000 0.364976
#
# Coordination Sequence:
#
# PCOD9423952 Si02
#       6
#     8   8   8   8   8   8
#     4   9  19  43  67  84 106 146 201 254 304 358
#     4   9  19  32  57  87 113 150 185 239 295 355
#     4  12  19  29  46  82 125 158 205 233 271 344
#     4  11  17  31  51  83 125 153 190 230 285 354
#     4   8  19  39  63  78 110 157 206 255 299 342
#     4  11  20  32  57  82 121 163 200 240 288 346
#
# _framework density 21.215147000000002
#
# number of rings (size 3 to 8) (size 9 to 14) (size 15 to 20)
#    0.000    2.333    5.000    0.000    2.333    0.000 
#    3.000    0.833    7.333    4.000    0.000    0.000 
#    0.000    0.000    0.000    0.000    0.000    0.000 
#
# Total GULP energy -267351.416388 kJ/mol
# GULP energy per Si atom -5569.821175 kJ/mol
# Density = 2.116686 g / cm^3
# Si number density = 21.215147 Si / 1000 Ang^3
#
#
#
# Elastic Constant Matrix: (Units=GPa)
#
#
# Indices 1 2 3 4 5 6 
#
# 1 125.2755 40.8305 6.6640 0.0000 0.0000 0.0000
# 2 40.8305 41.5041 13.7409 0.0000 0.0000 0.0000
# 3 6.6640 13.7409 13.1716 0.0000 0.0000 0.0000
# 4 0.0000 0.0000 0.0000 -9.8711 0.0000 0.0000
# 5 0.0000 0.0000 0.0000 0.0000 29.4290 0.0000
# 6 0.0000 0.0000 0.0000 0.0000 0.0000 37.6196
#
#
#
# Elastic Compliance Matrix: (Units=1/GPa)
#
#
# Indices 1 2 3 4 5 6 
#
# 1 0.012553 -0.015653 0.009979 0.000000 0.000000 0.000000
# 2 -0.015653 0.056325 -0.050841 0.000000 0.000000 0.000000
# 3 0.009979 -0.050841 0.123911 0.000000 0.000000 0.000000
# 4 0.000000 0.000000 0.000000 -0.101306 0.000000 0.000000
# 5 0.000000 0.000000 0.000000 0.000000 0.033980 0.000000
# 6 0.000000 0.000000 0.000000 0.000000 0.000000 0.026582
#
#
# Mechanical properties :
#
#
# Convention : Reuss Voigt Hill
#
# Bulk Modulus (GPa) = 12.53771 33.60244 23.07008
# Shear Modulus (GPa) = 17.14307 19.34987 18.24647
#
# Velocity S-wave (km/s) = 2.84572 3.02334 2.93587
# Velocity P-wave (km/s) = 4.08902 5.29724 4.73185
#
# Compressibility (1/GPa) = 0.07975935
#
# Stress axis : x y z
#
# Youngs Moduli (GPa) = 79.65945 17.75397 8.07031
#
# Poissons Ratio (x) = 0.27791 -0.08053
# Poissons Ratio (y) = 1.24694 0.41030
# Poissons Ratio (z) = -0.79491 0.90262
#
# Static dielectric constant tensor:
#      x y z
#    x 1.808610 0.000000 0.000000 
#    y 0.000000 1.839430 0.000000 
#    z 0.000000 0.000000 1.858550 
# 
# From -- ./inp_files/16641.got.cif
#   From: 2010.05.17/outbox.cif.g08.bks.cpg/sg54_9_cif.got.tgz:16641.got - 2010.06.03 13:09:01.
