data_PCOD9423386
_publ_section_title
;
Structure prediction by ZEFSAII (Michael W. Deem and Ramdas Pophale) SiO2 
 PCOD9423386
Probable space group: P C C A
;
_chemical_formula_sum "Si O2"
_cell_formula_units_Z 32
_cell_length_a 5.262185
_cell_length_b 7.634340
_cell_length_c 35.463330
_cell_angle_alpha 90.000000
_cell_angle_beta 90.000000
_cell_angle_gamma 90.000000
_cell_volume 1424.679330
_symmetry_space_group_name_H-M "P C C A"
_symmetry_group_IT_number 54
_symmetry_cell_setting 'orthorhombic'
loop_
_space_group_symop_operation_xyz
x,y,z
1/2-x,-y,z
1/2+x,-y,1/2-z
-x,y,1/2-z
-x,-y,-z
1/2+x,y,-z
1/2-x,y,1/2+z
x,-y,1/2+z
loop_
_atom_site_type_symbol
_atom_site_label
_atom_site_fract_x
_atom_site_fract_y
_atom_site_fract_z
Si Si1 0.050166 0.803415 0.984913
Si Si2 0.692439 0.207508 0.359237
Si Si3 0.247734 0.786118 0.227676
Si Si4 0.684560 0.696752 0.096120
O O1 0.143819 0.803600 0.942181
O O2 0.772876 0.719522 0.990004
O O3 0.000000 0.000000 0.000000
O O4 0.718329 0.265799 0.315827
O O5 0.415910 0.237694 0.377552
O O6 0.918291 0.298688 0.382055
O O7 0.750000 0.000000 0.360739
O O8 0.500000 0.729778 0.250000
O O9 0.000000 0.727227 0.250000
O O10 0.250000 0.000000 0.227806
O O11 0.750000 0.500000 0.084692
#
# Coordination Sequence:
#
# PCOD9423386 Si02
#       4
#     8   8   8   8
#     4  10  23  40  65  92 122 166 213 275 318 388
#     4  11  24  40  69  99 128 177 223 267 322 392
#     4   9  17  33  59  93 129 161 214 276 318 360
#     4  12  26  43  65  96 137 172 212 272 335 391
#
# _framework density 22.461193999999999
#
# number of rings (size 3 to 8) (size 9 to 14) (size 15 to 20)
#    0.000    1.500    0.000    4.500   10.500    5.000 
#    0.000    0.000    0.000   15.000    0.000    0.000 
#    0.000    0.000    0.000    0.000    0.000    0.000 
#
# Total GULP energy -178956.980353 kJ/mol
# GULP energy per Si atom -5592.405636 kJ/mol
# Density = 2.241007 g / cm^3
# Si number density = 22.461194 Si / 1000 Ang^3
#
#
#
# Elastic Constant Matrix: (Units=GPa)
#
#
# Indices 1 2 3 4 5 6 
#
# 1 204.8334 6.6651 87.6982 0.0000 0.0000 0.0000
# 2 6.6651 63.3536 28.4410 0.0000 0.0000 0.0000
# 3 87.6982 28.4410 203.3711 0.0000 0.0000 0.0000
# 4 0.0000 0.0000 0.0000 -86.4478 0.0000 0.0000
# 5 0.0000 0.0000 0.0000 0.0000 42.5905 0.0000
# 6 0.0000 0.0000 0.0000 0.0000 0.0000 18.3375
#
#
#
# Elastic Compliance Matrix: (Units=1/GPa)
#
#
# Indices 1 2 3 4 5 6 
#
# 1 0.006006 0.000566 -0.002669 0.000000 0.000000 0.000000
# 2 0.000566 0.016895 -0.002607 0.000000 0.000000 0.000000
# 3 -0.002669 -0.002607 0.006433 0.000000 0.000000 0.000000
# 4 0.000000 0.000000 0.000000 -0.011568 0.000000 0.000000
# 5 0.000000 0.000000 0.000000 0.000000 0.023479 0.000000
# 6 0.000000 0.000000 0.000000 0.000000 0.000000 0.054533
#
#
# Mechanical properties :
#
#
# Convention : Reuss Voigt Hill
#
# Bulk Modulus (GPa) = 50.21449 79.68520 64.94985
# Shear Modulus (GPa) = 44.70787 18.14630 31.42708
#
# Velocity S-wave (km/s) = 4.46629 2.84543 3.74461
# Velocity P-wave (km/s) = 7.00011 6.80802 6.90474
#
# Compressibility (1/GPa) = 0.01991457
#
# Stress axis : x y z
#
# Youngs Moduli (GPa) = 166.48795 59.18852 155.45391
#
# Poissons Ratio (x) = -0.03353 0.41496
# Poissons Ratio (y) = -0.09430 0.40527
# Poissons Ratio (z) = 0.44441 0.15430
#
# Static dielectric constant tensor:
#      x y z
#    x 0.504180 0.000000 0.000000 
#    y 0.000000 1.604080 0.000000 
#    z 0.000000 0.000000 1.815710 
# 
# From -- ./inp_files/26943.got.cif
#   From: 2010.05.17/outbox.cif.g08.bks.cpg/sg54_14_cif.got.tgz:26943.got - 2010.06.03 13:09:01.
