data_PCOD9423270
_publ_section_title
;
Structure prediction by ZEFSAII (Michael W. Deem and Ramdas Pophale) SiO2 
 PCOD9423270
Probable space group: P C C A
;
_chemical_formula_sum "Si O2"
_cell_formula_units_Z 60
_cell_length_a 23.602571
_cell_length_b 5.102013
_cell_length_c 20.291003
_cell_angle_alpha 90.000000
_cell_angle_beta 90.000000
_cell_angle_gamma 90.000000
_cell_volume 2443.455244
_symmetry_space_group_name_H-M "P C C A"
_symmetry_group_IT_number 54
_symmetry_cell_setting 'orthorhombic'
loop_
_space_group_symop_operation_xyz
x,y,z
1/2-x,-y,z
1/2+x,-y,1/2-z
-x,y,1/2-z
-x,-y,-z
1/2+x,y,-z
1/2-x,y,1/2+z
x,-y,1/2+z
loop_
_atom_site_type_symbol
_atom_site_label
_atom_site_fract_x
_atom_site_fract_y
_atom_site_fract_z
Si Si1 0.891964 0.264414 0.451521
Si Si2 0.184966 0.766109 0.073020
Si Si3 0.250000 0.500000 0.681326
Si Si4 0.716191 0.750764 0.073710
Si Si5 0.423701 0.978238 0.260034
Si Si6 0.859762 0.465158 0.732045
Si Si7 0.895458 0.477647 0.597186
Si Si8 0.996434 0.196727 0.359737
O O1 0.861887 0.530267 0.424951
O O2 0.897908 0.309969 0.530210
O O3 0.952981 0.191018 0.420369
O O4 0.850009 0.032895 0.430823
O O5 0.229458 0.725837 0.131392
O O6 0.219834 0.747470 0.005488
O O7 0.302879 0.495307 0.729443
O O8 0.750000 0.500000 0.099487
O O9 0.648898 0.714494 0.082352
O O10 0.750000 0.000000 0.099197
O O11 0.378042 0.764139 0.279638
O O12 0.463352 0.023145 0.324499
O O13 0.454182 0.800530 0.203152
O O14 0.400196 0.250486 0.231916
O O15 0.864123 0.342432 0.658904
O O16 0.956843 0.585909 0.619915
#
# Coordination Sequence:
#
# PCOD9423270 Si02
#       8
#     8   8   4   8   8   8   8   8
#     4  11  24  44  72 107 146 187 240 315 375 452
#     4  11  25  43  70 105 136 184 250 302 371 443
#     4  12  26  46  74 104 144 190 256 316 366 446
#     4  11  23  44  69  96 141 191 234 299 376 440
#     4  10  24  45  70 100 147 194 243 301 383 445
#     4  11  26  46  67 105 144 193 245 308 368 451
#     4  10  25  46  71 111 148 196 251 304 385 472
#     4  10  22  44  73 105 145 193 242 307 373 454
#
# _framework density 24.555389000000002
#
# number of rings (size 3 to 8) (size 9 to 14) (size 15 to 20)
#    0.000    1.333    0.667    3.600    0.933   14.400 
#    0.000    4.000    0.000    0.000    0.000    0.000 
#    0.000    0.000    0.000    0.000    0.000    0.000 
#
# Total GULP energy -334411.221232 kJ/mol
# GULP energy per Si atom -5573.520354 kJ/mol
# Density = 2.449950 g / cm^3
# Si number density = 24.555389 Si / 1000 Ang^3
#
#
#
# Elastic Constant Matrix: (Units=GPa)
#
#
# Indices 1 2 3 4 5 6 
#
# 1 113.3082 65.9948 55.8400 0.0000 0.0000 0.0000
# 2 65.9948 142.4590 19.6262 0.0000 0.0000 0.0000
# 3 55.8400 19.6262 135.7579 0.0000 0.0000 0.0000
# 4 0.0000 0.0000 0.0000 26.9786 0.0000 0.0000
# 5 0.0000 0.0000 0.0000 0.0000 68.3269 0.0000
# 6 0.0000 0.0000 0.0000 0.0000 0.0000 30.4700
#
#
#
# Elastic Compliance Matrix: (Units=1/GPa)
#
#
# Indices 1 2 3 4 5 6 
#
# 1 0.015080 -0.006256 -0.005298 0.000000 0.000000 0.000000
# 2 -0.006256 0.009758 0.001163 0.000000 0.000000 0.000000
# 3 -0.005298 0.001163 0.009377 0.000000 0.000000 0.000000
# 4 0.000000 0.000000 0.000000 0.037066 0.000000 0.000000
# 5 0.000000 0.000000 0.000000 0.000000 0.014636 0.000000
# 6 0.000000 0.000000 0.000000 0.000000 0.000000 0.032819
#
#
# Mechanical properties :
#
#
# Convention : Reuss Voigt Hill
#
# Bulk Modulus (GPa) = 74.45206 74.93855 74.69530
# Shear Modulus (GPa) = 34.72282 41.82604 38.27443
#
# Velocity S-wave (km/s) = 3.76448 4.13162 3.95232
# Velocity P-wave (km/s) = 7.02004 7.30376 7.16330
#
# Compressibility (1/GPa) = 0.01343146
#
# Stress axis : x y z
#
# Youngs Moduli (GPa) = 66.31108 102.48455 106.64011
#
# Poissons Ratio (x) = 0.64116 0.56503
# Poissons Ratio (y) = 0.41485 -0.12398
# Poissons Ratio (z) = 0.35135 -0.11915
#
# Static dielectric constant tensor:
#      x y z
#    x 2.054340 0.000000 0.000000 
#    y 0.000000 1.946950 0.000000 
#    z 0.000000 0.000000 2.052660 
# 
# From -- ./inp_files/22331.got.cif
#   From: 2010.05.17/outbox.cif.g08.bks.cpg/sg54_12_cif.got.tgz:22331.got - 2010.06.03 13:09:01.
