data_PCOD9423944
_publ_section_title
;
Structure prediction by ZEFSAII (Michael W. Deem and Ramdas Pophale) SiO2 
 PCOD9423944
Probable space group: P C C A
;
_chemical_formula_sum "Si O2"
_cell_formula_units_Z 32
_cell_length_a 6.739684
_cell_length_b 9.553640
_cell_length_c 17.724160
_cell_angle_alpha 90.000000
_cell_angle_beta 90.000000
_cell_angle_gamma 90.000000
_cell_volume 1141.232336
_symmetry_space_group_name_H-M "P C C A"
_symmetry_group_IT_number 54
_symmetry_cell_setting 'orthorhombic'
loop_
_space_group_symop_operation_xyz
x,y,z
1/2-x,-y,z
1/2+x,-y,1/2-z
-x,y,1/2-z
-x,-y,-z
1/2+x,y,-z
1/2-x,y,1/2+z
x,-y,1/2+z
loop_
_atom_site_type_symbol
_atom_site_label
_atom_site_fract_x
_atom_site_fract_y
_atom_site_fract_z
Si Si1 0.750000 0.500000 0.877652
Si Si2 0.552949 0.235675 0.936440
Si Si3 0.648608 0.152217 0.099157
Si Si4 0.217794 0.849857 0.203202
Si Si5 0.500000 0.395745 0.750000
O O1 0.697033 0.369582 0.930323
O O2 0.559501 0.494010 0.820777
O O3 0.330971 0.260804 0.906607
O O4 0.648082 0.136117 0.873221
O O5 0.538546 0.173243 0.019370
O O6 0.501195 0.171089 0.169367
O O7 0.750000 0.000000 0.097321
O O8 0.318598 0.716554 0.243244
O O9 0.250000 0.000000 0.241504
#
# Coordination Sequence:
#
# PCOD9423944 Si02
#       5
#     4   8   8   8   4
#     4  10  26  56  72 104 160 218 298 320 394 476
#     4  11  23  43  76 122 167 218 251 335 416 503
#     4  12  22  41  80 127 180 201 253 341 438 512
#     4  11  23  48  77 122 163 206 271 337 419 486
#     4  10  26  58  76 104 154 226 280 350 378 472
#
# _framework density 28.039863
#
# number of rings (size 3 to 8) (size 9 to 14) (size 15 to 20)
#    0.000    1.000    5.000    1.500    0.000    1.000 
#   27.000    1.250    0.000    0.000    0.000    0.000 
#    0.000    0.000    0.000    0.000    0.000    0.000 
#
# Total GULP energy -179045.322214 kJ/mol
# GULP energy per Si atom -5595.166319 kJ/mol
# Density = 2.797604 g / cm^3
# Si number density = 28.039863 Si / 1000 Ang^3
#
#
#
# Elastic Constant Matrix: (Units=GPa)
#
#
# Indices 1 2 3 4 5 6 
#
# 1 202.4188 65.6582 57.4641 0.0000 0.0000 0.0000
# 2 65.6582 143.2340 44.3517 0.0000 0.0000 0.0000
# 3 57.4641 44.3517 183.7062 0.0000 0.0000 0.0000
# 4 0.0000 0.0000 0.0000 38.5047 0.0000 0.0000
# 5 0.0000 0.0000 0.0000 0.0000 66.6462 0.0000
# 6 0.0000 0.0000 0.0000 0.0000 0.0000 55.6352
#
#
#
# Elastic Compliance Matrix: (Units=1/GPa)
#
#
# Indices 1 2 3 4 5 6 
#
# 1 0.006090 -0.002380 -0.001330 0.000000 0.000000 0.000000
# 2 -0.002380 0.008476 -0.001302 0.000000 0.000000 0.000000
# 3 -0.001330 -0.001302 0.006174 0.000000 0.000000 0.000000
# 4 0.000000 0.000000 0.000000 0.025971 0.000000 0.000000
# 5 0.000000 0.000000 0.000000 0.000000 0.015005 0.000000
# 6 0.000000 0.000000 0.000000 0.000000 0.000000 0.017974
#
#
# Mechanical properties :
#
#
# Convention : Reuss Voigt Hill
#
# Bulk Modulus (GPa) = 93.32294 96.03412 94.67853
# Shear Modulus (GPa) = 53.59945 56.28289 54.94117
#
# Velocity S-wave (km/s) = 4.37686 4.48509 4.43131
# Velocity P-wave (km/s) = 7.67444 7.81952 7.74732
#
# Compressibility (1/GPa) = 0.01071548
#
# Stress axis : x y z
#
# Youngs Moduli (GPa) = 164.20886 117.98712 161.97106
#
# Poissons Ratio (x) = 0.28076 0.21549
# Poissons Ratio (y) = 0.39075 0.21087
# Poissons Ratio (z) = 0.21847 0.15360
#
# Static dielectric constant tensor:
#      x y z
#    x 2.303640 0.000000 0.000000 
#    y 0.000000 2.204120 0.000000 
#    z 0.000000 0.000000 2.245480 
# 
# From -- ./inp_files/20068.got.cif
#   From: 2010.05.17/outbox.cif.g08.bks.cpg/sg54_11_cif.got.tgz:20068.got - 2010.06.03 13:09:01.
