data_PCOD9423300
_publ_section_title
;
Structure prediction by ZEFSAII (Michael W. Deem and Ramdas Pophale) SiO2 
 PCOD9423300
Probable space group: P C C A
;
_chemical_formula_sum "Si O2"
_cell_formula_units_Z 40
_cell_length_a 7.609138
_cell_length_b 11.717775
_cell_length_c 17.181817
_cell_angle_alpha 90.000000
_cell_angle_beta 90.000000
_cell_angle_gamma 90.000000
_cell_volume 1531.968037
_symmetry_space_group_name_H-M "P C C A"
_symmetry_group_IT_number 54
_symmetry_cell_setting 'orthorhombic'
loop_
_space_group_symop_operation_xyz
x,y,z
1/2-x,-y,z
1/2+x,-y,1/2-z
-x,y,1/2-z
-x,-y,-z
1/2+x,y,-z
1/2-x,y,1/2+z
x,-y,1/2+z
loop_
_atom_site_type_symbol
_atom_site_label
_atom_site_fract_x
_atom_site_fract_y
_atom_site_fract_z
Si Si1 0.750000 0.000000 0.045189
Si Si2 0.459149 0.893402 0.827875
Si Si3 0.704242 0.693010 0.226123
Si Si4 0.720391 0.776782 0.941116
Si Si5 0.250000 0.500000 0.648454
Si Si6 0.550354 0.636032 0.073667
O O1 0.908617 0.978576 0.103999
O O2 0.730506 0.886445 0.996195
O O3 0.500000 0.962344 0.750000
O O4 0.310556 0.807019 0.795192
O O5 0.604158 0.813734 0.868331
O O6 0.500000 0.711684 0.250000
O O7 0.779261 0.606215 0.291658
O O8 0.693670 0.633402 0.141344
O O9 0.914865 0.741734 0.916874
O O10 0.642315 0.672353 0.992802
O O11 0.081821 0.532443 0.595017
#
# Coordination Sequence:
#
# PCOD9423300 Si02
#       6
#     4   8   8   8   4   8
#     4  12  26  48  74 110 156 206 256 338 396 466
#     4  12  26  45  74 111 149 205 261 321 392 479
#     4  10  22  45  72 106 151 196 254 320 389 461
#     4  12  25  47  75 109 155 201 260 324 394 475
#     4  10  24  42  74 108 148 204 242 328 386 452
#     4  11  23  45  74 107 149 202 255 314 393 470
#
# _framework density 26.110206000000002
#
# number of rings (size 3 to 8) (size 9 to 14) (size 15 to 20)
#    0.000    0.800    4.000    3.000    0.000    9.600 
#    0.000    2.000    0.000    0.000    0.000    0.000 
#    0.000    0.000    0.000    0.000    0.000    0.000 
#
# Total GULP energy -223688.014199 kJ/mol
# GULP energy per Si atom -5592.200355 kJ/mol
# Density = 2.605078 g / cm^3
# Si number density = 26.110206 Si / 1000 Ang^3
#
#
#
# Elastic Constant Matrix: (Units=GPa)
#
#
# Indices 1 2 3 4 5 6 
#
# 1 38.9580 15.4632 19.6841 0.0000 0.0000 0.0000
# 2 15.4632 137.2650 64.2270 0.0000 0.0000 0.0000
# 3 19.6841 64.2270 161.0322 0.0000 0.0000 0.0000
# 4 0.0000 0.0000 0.0000 21.7709 0.0000 0.0000
# 5 0.0000 0.0000 0.0000 0.0000 33.0409 0.0000
# 6 0.0000 0.0000 0.0000 0.0000 0.0000 40.0374
#
#
#
# Elastic Compliance Matrix: (Units=1/GPa)
#
#
# Indices 1 2 3 4 5 6 
#
# 1 0.027752 -0.001892 -0.002638 0.000000 0.000000 0.000000
# 2 -0.001892 0.009086 -0.003392 0.000000 0.000000 0.000000
# 3 -0.002638 -0.003392 0.007885 0.000000 0.000000 0.000000
# 4 0.000000 0.000000 0.000000 0.045933 0.000000 0.000000
# 5 0.000000 0.000000 0.000000 0.000000 0.030266 0.000000
# 6 0.000000 0.000000 0.000000 0.000000 0.000000 0.024977
#
#
# Mechanical properties :
#
#
# Convention : Reuss Voigt Hill
#
# Bulk Modulus (GPa) = 34.62741 59.55597 47.09169
# Shear Modulus (GPa) = 29.17671 34.82858 32.00265
#
# Velocity S-wave (km/s) = 3.34645 3.65623 3.50476
# Velocity P-wave (km/s) = 5.31248 6.37832 5.86964
#
# Compressibility (1/GPa) = 0.02887886
#
# Stress axis : x y z
#
# Youngs Moduli (GPa) = 36.03287 110.06305 126.81596
#
# Poissons Ratio (x) = 0.20826 0.33450
# Poissons Ratio (y) = 0.06818 0.43022
# Poissons Ratio (z) = 0.09504 0.37339
#
# Static dielectric constant tensor:
#      x y z
#    x 2.159000 0.000000 0.000000 
#    y 0.000000 2.030340 0.000000 
#    z 0.000000 0.000000 2.077410 
# 
# From -- ./inp_files/16359.got.cif
#   From: 2010.05.17/outbox.cif.g08.bks.cpg/sg54_9_cif.got.tgz:16359.got - 2010.06.03 13:09:01.
