data_PCOD9423734
_publ_section_title
;
Structure prediction by ZEFSAII (Michael W. Deem and Ramdas Pophale) SiO2 
 PCOD9423734
Probable space group: P C C A
;
_chemical_formula_sum "Si O2"
_cell_formula_units_Z 40
_cell_length_a 9.895915
_cell_length_b 9.436617
_cell_length_c 21.897982
_cell_angle_alpha 90.000000
_cell_angle_beta 90.000000
_cell_angle_gamma 90.000000
_cell_volume 2044.920269
_symmetry_space_group_name_H-M "P C C A"
_symmetry_group_IT_number 54
_symmetry_cell_setting 'orthorhombic'
loop_
_space_group_symop_operation_xyz
x,y,z
1/2-x,-y,z
1/2+x,-y,1/2-z
-x,y,1/2-z
-x,-y,-z
1/2+x,y,-z
1/2-x,y,1/2+z
x,-y,1/2+z
loop_
_atom_site_type_symbol
_atom_site_label
_atom_site_fract_x
_atom_site_fract_y
_atom_site_fract_z
Si Si1 0.526683 0.092145 0.062329
Si Si2 0.750000 0.500000 0.808121
Si Si3 0.000000 0.338473 0.250000
Si Si4 0.270006 0.264045 0.094012
Si Si5 0.533091 0.820484 0.125268
Si Si6 0.751142 0.662799 0.544437
O O1 0.384351 0.147690 0.086419
O O2 0.625926 0.227488 0.054936
O O3 0.578571 0.980613 0.112429
O O4 0.500000 0.000000 0.000000
O O5 0.873501 0.564815 0.770060
O O6 0.698247 0.624374 0.852875
O O7 0.044805 0.241007 0.306921
O O8 0.124061 0.197889 0.107661
O O9 0.267535 0.338766 0.028316
O O10 0.620757 0.729496 0.078121
O O11 0.750000 0.500000 0.566012
#
# Coordination Sequence:
#
# PCOD9423734 Si02
#       6
#     8   4   4   8   8   8
#     4  12  24  41  68 103 144 179 221 287 354 421
#     4  10  24  44  70 100 138 184 232 292 340 408
#     4  10  26  48  66  96 140 186 238 276 332 418
#     4  11  22  40  69 100 136 176 225 277 359 406
#     4  11  25  44  69  96 143 181 227 284 341 416
#     4  12  25  39  68 108 141 174 225 289 354 416
#
# _framework density 19.560666000000001
#
# number of rings (size 3 to 8) (size 9 to 14) (size 15 to 20)
#    0.000    0.800    5.000    1.200    7.000    1.600 
#    0.000    9.000    0.000    0.000    0.000    0.000 
#    0.000    0.000    0.000    0.000    0.000    0.000 
#
# Total GULP energy -223379.107721 kJ/mol
# GULP energy per Si atom -5584.477693 kJ/mol
# Density = 1.951614 g / cm^3
# Si number density = 19.560666 Si / 1000 Ang^3
#
#
#
# Elastic Constant Matrix: (Units=GPa)
#
#
# Indices 1 2 3 4 5 6 
#
# 1 113.6519 73.8668 63.5661 0.0000 0.0000 0.0000
# 2 73.8668 160.1571 55.5377 0.0000 0.0000 0.0000
# 3 63.5661 55.5377 123.9351 0.0000 0.0000 0.0000
# 4 0.0000 0.0000 0.0000 31.0149 0.0000 0.0000
# 5 0.0000 0.0000 0.0000 0.0000 33.6799 0.0000
# 6 0.0000 0.0000 0.0000 0.0000 0.0000 30.5065
#
#
#
# Elastic Compliance Matrix: (Units=1/GPa)
#
#
# Indices 1 2 3 4 5 6 
#
# 1 0.015192 -0.005097 -0.005508 0.000000 0.000000 0.000000
# 2 -0.005097 0.009103 -0.001465 0.000000 0.000000 0.000000
# 3 -0.005508 -0.001465 0.011550 0.000000 0.000000 0.000000
# 4 0.000000 0.000000 0.000000 0.032243 0.000000 0.000000
# 5 0.000000 0.000000 0.000000 0.000000 0.029691 0.000000
# 6 0.000000 0.000000 0.000000 0.000000 0.000000 0.032780
#
#
# Mechanical properties :
#
#
# Convention : Reuss Voigt Hill
#
# Bulk Modulus (GPa) = 85.43019 87.07614 86.25316
# Shear Modulus (GPa) = 31.52588 32.69182 32.10885
#
# Velocity S-wave (km/s) = 4.01895 4.09259 4.05594
# Velocity P-wave (km/s) = 8.08117 8.18199 8.13174
#
# Compressibility (1/GPa) = 0.01170546
#
# Stress axis : x y z
#
# Youngs Moduli (GPa) = 65.82392 109.85913 86.57831
#
# Poissons Ratio (x) = 0.55993 0.47687
# Poissons Ratio (y) = 0.33549 0.12683
# Poissons Ratio (z) = 0.36256 0.16093
#
# Static dielectric constant tensor:
#      x y z
#    x 1.709090 0.000000 0.000000 
#    y 0.000000 1.781770 0.000000 
#    z 0.000000 0.000000 1.671540 
# 
# From -- ./inp_files/23316.got.cif
#   From: 2010.05.17/outbox.cif.g08.bks.cpg/sg54_12_cif.got.tgz:23316.got - 2010.06.03 13:09:01.
