data_PCOD9423125
_publ_section_title
;
Structure prediction by ZEFSAII (Michael W. Deem and Ramdas Pophale) SiO2 
 PCOD9423125
Probable space group: P C C A
;
_chemical_formula_sum "Si O2"
_cell_formula_units_Z 28
_cell_length_a 9.929628
_cell_length_b 7.859139
_cell_length_c 14.584592
_cell_angle_alpha 90.000000
_cell_angle_beta 90.000000
_cell_angle_gamma 90.000000
_cell_volume 1138.157155
_symmetry_space_group_name_H-M "P C C A"
_symmetry_group_IT_number 54
_symmetry_cell_setting 'orthorhombic'
loop_
_space_group_symop_operation_xyz
x,y,z
1/2-x,-y,z
1/2+x,-y,1/2-z
-x,y,1/2-z
-x,-y,-z
1/2+x,y,-z
1/2-x,y,1/2+z
x,-y,1/2+z
loop_
_atom_site_type_symbol
_atom_site_label
_atom_site_fract_x
_atom_site_fract_y
_atom_site_fract_z
Si Si1 0.412178 0.850798 0.911044
Si Si2 0.431681 0.179059 0.615267
Si Si3 0.250000 0.000000 0.263608
Si Si4 0.088744 0.533719 0.090722
O O1 0.537601 0.724620 0.887325
O O2 0.448886 0.051076 0.910288
O O3 0.309488 0.849275 0.827132
O O4 0.359726 0.812060 0.013969
O O5 0.356057 0.083543 0.695394
O O6 0.460869 0.369627 0.647213
O O7 0.250000 0.500000 0.085313
O O8 0.000000 0.500000 0.000000
#
# Coordination Sequence:
#
# PCOD9423125 Si02
#       4
#     8   8   4   8
#     4  10  23  43  69  99 138 188 237 293 360 431
#     4  10  22  42  66  94 135 182 232 287 352 424
#     4  12  22  40  68 102 142 186 236 300 364 430
#     4  10  22  42  70  99 131 177 231 289 353 423
#
# _framework density 24.601172999999999
#
# number of rings (size 3 to 8) (size 9 to 14) (size 15 to 20)
#    0.000    1.714    0.000    3.429    0.000   11.429 
#    0.000   14.286    0.000    6.857    0.000    0.000 
#    0.000    0.000    0.000    0.000    0.000    0.000 
#
# Total GULP energy -155901.988198 kJ/mol
# GULP energy per Si atom -5567.928150 kJ/mol
# Density = 2.454518 g / cm^3
# Si number density = 24.601173 Si / 1000 Ang^3
#
#
#
# Elastic Constant Matrix: (Units=GPa)
#
#
# Indices 1 2 3 4 5 6 
#
# 1 91.5115 53.6310 44.0505 0.0000 0.0000 0.0000
# 2 53.6310 159.1262 17.9253 0.0000 0.0000 0.0000
# 3 44.0505 17.9253 154.7113 0.0000 0.0000 0.0000
# 4 0.0000 0.0000 0.0000 -25.2646 0.0000 0.0000
# 5 0.0000 0.0000 0.0000 0.0000 29.1017 0.0000
# 6 0.0000 0.0000 0.0000 0.0000 0.0000 34.4733
#
#
#
# Elastic Compliance Matrix: (Units=1/GPa)
#
#
# Indices 1 2 3 4 5 6 
#
# 1 0.015631 -0.004830 -0.003891 0.000000 0.000000 0.000000
# 2 -0.004830 0.007860 0.000465 0.000000 0.000000 0.000000
# 3 -0.003891 0.000465 0.007518 0.000000 0.000000 0.000000
# 4 0.000000 0.000000 0.000000 -0.039581 0.000000 0.000000
# 5 0.000000 0.000000 0.000000 0.000000 0.034362 0.000000
# 6 0.000000 0.000000 0.000000 0.000000 0.000000 0.029008
#
#
# Mechanical properties :
#
#
# Convention : Reuss Voigt Hill
#
# Bulk Modulus (GPa) = 68.98481 70.72919 69.85700
# Shear Modulus (GPa) = 65.66621 26.97823 46.32222
#
# Velocity S-wave (km/s) = 5.17206 3.31512 4.34398
# Velocity P-wave (km/s) = 7.98556 6.59289 7.32241
#
# Compressibility (1/GPa) = 0.01449595
#
# Stress axis : x y z
#
# Youngs Moduli (GPa) = 63.97459 127.22893 133.01930
#
# Poissons Ratio (x) = 0.61451 0.51758
# Poissons Ratio (y) = 0.30899 -0.06179
# Poissons Ratio (z) = 0.24893 -0.05910
#
# Static dielectric constant tensor:
#      x y z
#    x 1.977320 0.000000 0.000000 
#    y 0.000000 2.138140 0.000000 
#    z 0.000000 0.000000 2.069710 
# 
# From -- ./inp_files/12067.got.cif
#   From: 2010.05.17/outbox.cif.g08.bks.cpg/sg54_7_cif.got.tgz:12067.got - 2010.06.03 13:09:01.
