data_PCOD9423108
_publ_section_title
;
Structure prediction by ZEFSAII (Michael W. Deem and Ramdas Pophale) SiO2 
 PCOD9423108
Probable space group: P C C A
;
_chemical_formula_sum "Si O2"
_cell_formula_units_Z 48
_cell_length_a 19.490974
_cell_length_b 5.390366
_cell_length_c 20.828903
_cell_angle_alpha 90.000000
_cell_angle_beta 90.000000
_cell_angle_gamma 90.000000
_cell_volume 2188.357108
_symmetry_space_group_name_H-M "P C C A"
_symmetry_group_IT_number 54
_symmetry_cell_setting 'orthorhombic'
loop_
_space_group_symop_operation_xyz
x,y,z
1/2-x,-y,z
1/2+x,-y,1/2-z
-x,y,1/2-z
-x,-y,-z
1/2+x,y,-z
1/2-x,y,1/2+z
x,-y,1/2+z
loop_
_atom_site_type_symbol
_atom_site_label
_atom_site_fract_x
_atom_site_fract_y
_atom_site_fract_z
Si Si1 0.500000 0.085800 0.750000
Si Si2 0.905359 0.537223 0.952476
Si Si3 0.920384 0.029121 0.019923
Si Si4 0.823728 0.380406 0.324086
Si Si5 0.122499 0.278192 0.788240
Si Si6 0.250000 0.000000 0.262289
Si Si7 0.537662 0.358340 0.626555
O O1 0.494624 0.252080 0.686463
O O2 0.434167 0.918032 0.764752
O O3 0.890654 0.260186 0.978161
O O4 0.862516 0.622555 0.890774
O O5 0.984196 0.537772 0.925988
O O6 0.892302 0.756377 0.004140
O O7 0.921820 0.133253 0.092228
O O8 0.000000 0.000000 0.000000
O O9 0.750000 0.500000 0.337036
O O10 0.864044 0.545510 0.272717
O O11 0.803244 0.134608 0.285511
O O12 0.198408 0.170574 0.802928
O O13 0.088754 0.439480 0.844642
#
# Coordination Sequence:
#
# PCOD9423108 Si02
#       7
#     4   8   8   8   8   4   8
#     4  12  24  36  66 100 134 168 212 286 332 406
#     4  11  23  41  65  98 130 172 220 280 332 395
#     4  10  24  39  64  94 132 172 217 266 339 396
#     4  10  23  40  65  95 123 169 224 282 331 393
#     4  11  23  38  63  97 134 171 224 276 343 402
#     4  10  22  42  64  94 130 176 222 280 342 402
#     4  11  23  38  59  98 133 172 212 271 337 402
#
# _framework density 21.934263999999999
#
# number of rings (size 3 to 8) (size 9 to 14) (size 15 to 20)
#    0.000    1.333    0.000    6.500   16.333    0.000 
#    0.000    0.000    0.000    6.000    0.000    0.000 
#    0.000    0.000    0.000    0.000    0.000    0.000 
#
# Total GULP energy -268167.268493 kJ/mol
# GULP energy per Si atom -5586.818094 kJ/mol
# Density = 2.188434 g / cm^3
# Si number density = 21.934264 Si / 1000 Ang^3
#
#
#
# Elastic Constant Matrix: (Units=GPa)
#
#
# Indices 1 2 3 4 5 6 
#
# 1 80.6524 43.3533 45.3323 0.0000 0.0000 0.0000
# 2 43.3533 117.4278 47.7918 0.0000 0.0000 0.0000
# 3 45.3323 47.7918 118.0401 0.0000 0.0000 0.0000
# 4 0.0000 0.0000 0.0000 -1.4662 0.0000 0.0000
# 5 0.0000 0.0000 0.0000 0.0000 27.3173 0.0000
# 6 0.0000 0.0000 0.0000 0.0000 0.0000 38.2032
#
#
#
# Elastic Compliance Matrix: (Units=1/GPa)
#
#
# Indices 1 2 3 4 5 6 
#
# 1 0.017584 -0.004482 -0.004938 0.000000 0.000000 0.000000
# 2 -0.004482 0.011338 -0.002869 0.000000 0.000000 0.000000
# 3 -0.004938 -0.002869 0.011530 0.000000 0.000000 0.000000
# 4 0.000000 0.000000 0.000000 -0.682022 0.000000 0.000000
# 5 0.000000 0.000000 0.000000 0.000000 0.036607 0.000000
# 6 0.000000 0.000000 0.000000 0.000000 0.000000 0.026176
#
#
# Mechanical properties :
#
#
# Convention : Reuss Voigt Hill
#
# Bulk Modulus (GPa) = 63.00061 65.45280 64.22670
# Shear Modulus (GPa) = -9.10885 24.78704 7.83910
#
# Velocity S-wave (km/s) = -2.04005 3.36528 1.89253
# Velocity P-wave (km/s) = 4.82035 6.70861 5.84128
#
# Compressibility (1/GPa) = 0.01587286
#
# Stress axis : x y z
#
# Youngs Moduli (GPa) = 56.87085 88.19604 86.73063
#
# Poissons Ratio (x) = 0.39529 0.42830
# Poissons Ratio (y) = 0.25489 0.24887
# Poissons Ratio (z) = 0.28084 0.25307
#
# Static dielectric constant tensor:
#      x y z
#    x 1.376570 0.000000 0.000000 
#    y 0.000000 1.921760 0.000000 
#    z 0.000000 0.000000 1.550160 
# 
# From -- ./inp_files/22117.got.cif
#   From: 2010.05.17/outbox.cif.g08.bks.cpg/sg54_12_cif.got.tgz:22117.got - 2010.06.03 13:09:01.
