data_PCOD9423635
_publ_section_title
;
Structure prediction by ZEFSAII (Michael W. Deem and Ramdas Pophale) SiO2 
 PCOD9423635
Probable space group: P C C A
;
_chemical_formula_sum "Si O2"
_cell_formula_units_Z 48
_cell_length_a 15.584164
_cell_length_b 16.115059
_cell_length_c 8.845737
_cell_angle_alpha 90.000000
_cell_angle_beta 90.000000
_cell_angle_gamma 90.000000
_cell_volume 2221.515934
_symmetry_space_group_name_H-M "P C C A"
_symmetry_group_IT_number 54
_symmetry_cell_setting 'orthorhombic'
loop_
_space_group_symop_operation_xyz
x,y,z
1/2-x,-y,z
1/2+x,-y,1/2-z
-x,y,1/2-z
-x,-y,-z
1/2+x,y,-z
1/2-x,y,1/2+z
x,-y,1/2+z
loop_
_atom_site_type_symbol
_atom_site_label
_atom_site_fract_x
_atom_site_fract_y
_atom_site_fract_z
Si Si1 0.750000 0.500000 0.116656
Si Si2 0.842969 0.914151 0.399479
Si Si3 0.035255 0.310706 0.986209
Si Si4 0.663797 0.901533 0.262278
Si Si5 0.500000 0.180098 0.250000
Si Si6 0.500000 0.453732 0.250000
Si Si7 0.149049 0.574857 0.649175
Si Si8 0.500000 0.787902 0.250000
O O1 0.775245 0.425487 0.228875
O O2 0.677745 0.471375 0.002238
O O3 0.757341 0.874085 0.324276
O O4 0.833899 0.911695 0.580536
O O5 0.930614 0.871479 0.343790
O O6 0.848180 0.008790 0.340592
O O7 0.051577 0.241081 0.862170
O O8 0.005560 0.392454 0.894994
O O9 0.113269 0.338749 0.092192
O O10 0.972093 0.269772 0.108625
O O11 0.581187 0.844369 0.296743
O O12 0.578469 0.516051 0.274512
#
# Coordination Sequence:
#
# PCOD9423635 Si02
#       8
#     4   8   8   8   4   4   8   4
#     4  10  24  40  70  98 132 162 236 294 334 396
#     4  11  24  45  72 103 136 185 240 285 337 416
#     4  11  25  42  66 100 133 180 228 282 352 414
#     4  11  25  43  74 101 137 187 236 284 340 408
#     4  11  25  46  67 101 150 180 230 287 355 416
#     4  11  23  44  75  89 130 186 228 281 327 424
#     4  11  22  46  67  99 127 178 231 281 337 408
#     4  12  26  44  66 104 142 184 230 280 356 416
#
# _framework density 21.606867999999999
#
# number of rings (size 3 to 8) (size 9 to 14) (size 15 to 20)
#    0.000    1.000    3.333    3.500    7.000    1.333 
#    3.000    0.000    0.000    0.000    0.000    0.000 
#    0.000    0.000    0.000    0.000    0.000    0.000 
#
# Total GULP energy -267986.923473 kJ/mol
# GULP energy per Si atom -5583.060906 kJ/mol
# Density = 2.155769 g / cm^3
# Si number density = 21.606868 Si / 1000 Ang^3
#
#
#
# Elastic Constant Matrix: (Units=GPa)
#
#
# Indices 1 2 3 4 5 6 
#
# 1 89.6745 34.9925 33.0548 0.0000 0.0000 0.0000
# 2 34.9925 65.8196 29.8564 0.0000 0.0000 0.0000
# 3 33.0548 29.8564 146.8705 0.0000 0.0000 0.0000
# 4 0.0000 0.0000 0.0000 16.8960 0.0000 0.0000
# 5 0.0000 0.0000 0.0000 0.0000 30.6334 0.0000
# 6 0.0000 0.0000 0.0000 0.0000 0.0000 15.5160
#
#
#
# Elastic Compliance Matrix: (Units=1/GPa)
#
#
# Indices 1 2 3 4 5 6 
#
# 1 0.014523 -0.006872 -0.001872 0.000000 0.000000 0.000000
# 2 -0.006872 0.019988 -0.002517 0.000000 0.000000 0.000000
# 3 -0.001872 -0.002517 0.007742 0.000000 0.000000 0.000000
# 4 0.000000 0.000000 0.000000 0.059186 0.000000 0.000000
# 5 0.000000 0.000000 0.000000 0.000000 0.032644 0.000000
# 6 0.000000 0.000000 0.000000 0.000000 0.000000 0.064450
#
#
# Mechanical properties :
#
#
# Convention : Reuss Voigt Hill
#
# Bulk Modulus (GPa) = 50.67894 55.35242 53.01568
# Shear Modulus (GPa) = 21.96552 26.23982 24.10267
#
# Velocity S-wave (km/s) = 3.19187 3.48863 3.34355
# Velocity P-wave (km/s) = 6.09016 6.47310 6.28455
#
# Compressibility (1/GPa) = 0.01973206
#
# Stress axis : x y z
#
# Youngs Moduli (GPa) = 68.85678 50.02982 129.17355
#
# Poissons Ratio (x) = 0.34381 0.24176
# Poissons Ratio (y) = 0.47319 0.32508
# Poissons Ratio (z) = 0.12887 0.12591
#
# Static dielectric constant tensor:
#      x y z
#    x 1.836990 0.000000 0.000000 
#    y 0.000000 1.816650 0.000000 
#    z 0.000000 0.000000 1.800040 
# 
# From -- ./inp_files/3640.got.cif
#   From: 2010.05.17/outbox.cif.g08.bks.cpg/sg54_2_cif.got.tgz:3640.got - 2010.06.03 13:09:01.
