data_PCOD9423629
_publ_section_title
;
Structure prediction by ZEFSAII (Michael W. Deem and Ramdas Pophale) SiO2 
 PCOD9423629
Probable space group: P C C A
;
_chemical_formula_sum "Si O2"
_cell_formula_units_Z 36
_cell_length_a 9.785231
_cell_length_b 7.531163
_cell_length_c 20.277504
_cell_angle_alpha 90.000000
_cell_angle_beta 90.000000
_cell_angle_gamma 90.000000
_cell_volume 1494.333820
_symmetry_space_group_name_H-M "P C C A"
_symmetry_group_IT_number 54
_symmetry_cell_setting 'orthorhombic'
loop_
_space_group_symop_operation_xyz
x,y,z
1/2-x,-y,z
1/2+x,-y,1/2-z
-x,y,1/2-z
-x,-y,-z
1/2+x,y,-z
1/2-x,y,1/2+z
x,-y,1/2+z
loop_
_atom_site_type_symbol
_atom_site_label
_atom_site_fract_x
_atom_site_fract_y
_atom_site_fract_z
Si Si1 0.759848 0.301518 0.025924
Si Si2 0.500000 0.225902 0.250000
Si Si3 0.621236 0.877950 0.632616
Si Si4 0.901098 0.443791 0.306029
Si Si5 0.553124 0.824345 0.425049
O O1 0.750000 0.500000 0.998184
O O2 0.670247 0.296637 0.093569
O O3 0.916186 0.249998 0.039343
O O4 0.676113 0.176402 0.976445
O O5 0.385730 0.120555 0.287869
O O6 0.538323 0.355955 0.310740
O O7 0.750000 0.000000 0.614171
O O8 0.489817 0.984940 0.605092
O O9 0.750000 0.500000 0.282983
O O10 0.907193 0.314451 0.367362
O O11 0.000000 0.363050 0.250000
#
# Coordination Sequence:
#
# PCOD9423629 Si02
#       5
#     8   4   8   8   8
#     4  11  23  42  68  96 136 180 233 284 347 417
#     4  10  24  40  66  98 134 178 232 280 348 418
#     4  10  24  41  65  99 139 185 231 290 356 417
#     4  10  25  43  71 101 138 175 236 285 350 419
#     4  11  24  43  69 100 139 179 231 288 355 414
#
# _framework density 24.091003000000001
#
# number of rings (size 3 to 8) (size 9 to 14) (size 15 to 20)
#    0.667    0.889    0.000    3.333    7.778    1.778 
#    0.000    2.222    0.000    0.000    0.000    0.000 
#    0.000    0.000    0.000    0.000    0.000    0.000 
#
# Total GULP energy -200658.555999 kJ/mol
# GULP energy per Si atom -5573.848778 kJ/mol
# Density = 2.403617 g / cm^3
# Si number density = 24.091003 Si / 1000 Ang^3
#
#
#
# Elastic Constant Matrix: (Units=GPa)
#
#
# Indices 1 2 3 4 5 6 
#
# 1 101.2138 14.3621 50.1704 0.0000 0.0000 0.0000
# 2 14.3621 64.3861 11.3154 0.0000 0.0000 0.0000
# 3 50.1704 11.3154 112.0796 0.0000 0.0000 0.0000
# 4 0.0000 0.0000 0.0000 100.2189 0.0000 0.0000
# 5 0.0000 0.0000 0.0000 0.0000 41.5097 0.0000
# 6 0.0000 0.0000 0.0000 0.0000 0.0000 14.0073
#
#
#
# Elastic Compliance Matrix: (Units=1/GPa)
#
#
# Indices 1 2 3 4 5 6 
#
# 1 0.012922 -0.001900 -0.005592 0.000000 0.000000 0.000000
# 2 -0.001900 0.016091 -0.000774 0.000000 0.000000 0.000000
# 3 -0.005592 -0.000774 0.011504 0.000000 0.000000 0.000000
# 4 0.000000 0.000000 0.000000 0.009978 0.000000 0.000000
# 5 0.000000 0.000000 0.000000 0.000000 0.024091 0.000000
# 6 0.000000 0.000000 0.000000 0.000000 0.000000 0.071391
#
#
# Mechanical properties :
#
#
# Convention : Reuss Voigt Hill
#
# Bulk Modulus (GPa) = 41.69414 47.70837 44.70126
# Shear Modulus (GPa) = 29.32489 44.60264 36.96377
#
# Velocity S-wave (km/s) = 3.49270 4.30748 3.92131
# Velocity P-wave (km/s) = 5.79740 6.67725 6.25282
#
# Compressibility (1/GPa) = 0.02398419
#
# Stress axis : x y z
#
# Youngs Moduli (GPa) = 77.38920 62.14624 86.92830
#
# Poissons Ratio (x) = 0.11805 0.48614
# Poissons Ratio (y) = 0.14700 0.06730
# Poissons Ratio (z) = 0.43279 0.04812
#
# Static dielectric constant tensor:
#      x y z
#    x 2.062520 0.000000 0.000000 
#    y 0.000000 2.162640 0.000000 
#    z 0.000000 0.000000 1.922170 
# 
# From -- ./inp_files/20102.got.cif
#   From: 2010.05.17/outbox.cif.g08.bks.cpg/sg54_11_cif.got.tgz:20102.got - 2010.06.03 13:09:01.
