data_PCOD9423933
_publ_section_title
;
Structure prediction by ZEFSAII (Michael W. Deem and Ramdas Pophale) SiO2 
 PCOD9423933
Probable space group: P C C A
;
_chemical_formula_sum "Si O2"
_cell_formula_units_Z 24
_cell_length_a 9.623982
_cell_length_b 10.441217
_cell_length_c 8.959426
_cell_angle_alpha 90.000000
_cell_angle_beta 90.000000
_cell_angle_gamma 90.000000
_cell_volume 900.297638
_symmetry_space_group_name_H-M "P C C A"
_symmetry_group_IT_number 54
_symmetry_cell_setting 'orthorhombic'
loop_
_space_group_symop_operation_xyz
x,y,z
1/2-x,-y,z
1/2+x,-y,1/2-z
-x,y,1/2-z
-x,-y,-z
1/2+x,y,-z
1/2-x,y,1/2+z
x,-y,1/2+z
loop_
_atom_site_type_symbol
_atom_site_label
_atom_site_fract_x
_atom_site_fract_y
_atom_site_fract_z
Si Si1 0.402796 0.882545 0.121012
Si Si2 0.750000 0.500000 0.517818
Si Si3 0.750000 0.000000 0.150011
Si Si4 0.492036 0.328876 0.090883
O O1 0.500000 0.939058 0.250000
O O2 0.269834 0.882274 0.232730
O O3 0.363081 0.959905 0.974437
O O4 0.472712 0.755743 0.054778
O O5 0.659368 0.393050 0.430898
O O6 0.879399 0.430436 0.599315
O O7 0.500000 0.260800 0.250000
#
# Coordination Sequence:
#
# PCOD9423933 Si02
#       4
#     8   4   4   8
#     4  11  26  46  77 112 151 208 251 320 389 466
#     4  10  26  50  72 118 154 198 260 322 396 458
#     4  10  26  50  74 110 164 194 266 312 390 464
#     4  11  26  46  82 111 157 200 261 318 394 460
#
# _framework density 26.65785
#
# number of rings (size 3 to 8) (size 9 to 14) (size 15 to 20)
#    0.000    1.333    0.000    2.000    9.333    9.333 
#    0.000    0.000    0.000    0.000    0.000    0.000 
#    0.000    0.000    0.000    0.000    0.000    0.000 
#
# Total GULP energy -133609.808775 kJ/mol
# GULP energy per Si atom -5567.075366 kJ/mol
# Density = 2.659718 g / cm^3
# Si number density = 26.657850 Si / 1000 Ang^3
#
#
#
# Elastic Constant Matrix: (Units=GPa)
#
#
# Indices 1 2 3 4 5 6 
#
# 1 167.6874 50.9046 61.5837 0.0000 0.0000 0.0000
# 2 50.9046 70.6500 54.7867 0.0000 0.0000 0.0000
# 3 61.5837 54.7867 242.9366 0.0000 0.0000 0.0000
# 4 0.0000 0.0000 0.0000 12.8578 0.0000 0.0000
# 5 0.0000 0.0000 0.0000 0.0000 18.2450 0.0000
# 6 0.0000 0.0000 0.0000 0.0000 0.0000 41.3733
#
#
#
# Elastic Compliance Matrix: (Units=1/GPa)
#
#
# Indices 1 2 3 4 5 6 
#
# 1 0.007778 -0.004939 -0.000858 0.000000 0.000000 0.000000
# 2 -0.004939 0.020290 -0.003324 0.000000 0.000000 0.000000
# 3 -0.000858 -0.003324 0.005083 0.000000 0.000000 0.000000
# 4 0.000000 0.000000 0.000000 0.077774 0.000000 0.000000
# 5 0.000000 0.000000 0.000000 0.000000 0.054810 0.000000
# 6 0.000000 0.000000 0.000000 0.000000 0.000000 0.024170
#
#
# Mechanical properties :
#
#
# Convention : Reuss Voigt Hill
#
# Bulk Modulus (GPa) = 67.06720 90.64710 78.85715
# Shear Modulus (GPa) = 23.46138 35.42849 29.44493
#
# Velocity S-wave (km/s) = 2.96985 3.64951 3.32708
# Velocity P-wave (km/s) = 6.08056 7.19974 6.66369
#
# Compressibility (1/GPa) = 0.01491042
#
# Stress axis : x y z
#
# Youngs Moduli (GPa) = 128.57131 49.28461 196.72031
#
# Poissons Ratio (x) = 0.24341 0.16876
# Poissons Ratio (y) = 0.63499 0.65387
# Poissons Ratio (z) = 0.11030 0.16382
#
# Static dielectric constant tensor:
#      x y z
#    x 4.223680 0.000000 0.000000 
#    y 0.000000 1.737560 0.000000 
#    z 0.000000 0.000000 1.957210 
# 
# From -- ./inp_files/2714.got.cif
#   From: 2010.05.17/outbox.cif.g08.bks.cpg/sg54_2_cif.got.tgz:2714.got - 2010.06.03 13:09:01.
