data_PCOD9423474
_publ_section_title
;
Structure prediction by ZEFSAII (Michael W. Deem and Ramdas Pophale) SiO2 
 PCOD9423474
Probable space group: P C C A
;
_chemical_formula_sum "Si O2"
_cell_formula_units_Z 48
_cell_length_a 9.444219
_cell_length_b 16.724159
_cell_length_c 15.602903
_cell_angle_alpha 90.000000
_cell_angle_beta 90.000000
_cell_angle_gamma 90.000000
_cell_volume 2464.425794
_symmetry_space_group_name_H-M "P C C A"
_symmetry_group_IT_number 54
_symmetry_cell_setting 'orthorhombic'
loop_
_space_group_symop_operation_xyz
x,y,z
1/2-x,-y,z
1/2+x,-y,1/2-z
-x,y,1/2-z
-x,-y,-z
1/2+x,y,-z
1/2-x,y,1/2+z
x,-y,1/2+z
loop_
_atom_site_type_symbol
_atom_site_label
_atom_site_fract_x
_atom_site_fract_y
_atom_site_fract_z
Si Si1 0.168079 0.416914 0.654212
Si Si2 0.169387 0.584188 0.352551
Si Si3 0.461536 0.807990 0.006913
Si Si4 0.583982 0.099394 0.163865
Si Si5 0.582074 0.091909 0.663091
Si Si6 0.287069 0.698297 0.500254
O O1 0.250000 0.500000 0.642738
O O2 0.191035 0.391288 0.753040
O O3 0.224030 0.354662 0.585052
O O4 0.999729 0.427268 0.638374
O O5 0.250000 0.500000 0.366353
O O6 0.228883 0.648938 0.419133
O O7 0.511206 0.864074 0.083432
O O8 0.552426 0.726785 0.011386
O O9 0.477126 0.852608 0.916508
O O10 0.300305 0.779670 0.012562
O O11 0.500000 0.121047 0.250000
O O12 0.752420 0.114281 0.171039
O O13 0.569837 0.003836 0.150808
O O14 0.500000 0.112760 0.750000
#
# Coordination Sequence:
#
# PCOD9423474 Si02
#       6
#     8   8   8   8   8   8
#     4  10  23  43  66  89 119 165 209 253 307 367
#     4  10  23  43  65  90 122 161 208 256 304 371
#     4  12  25  42  61  94 129 167 206 257 317 374
#     4  10  23  43  67  91 125 168 211 261 312 368
#     4  10  23  43  66  94 123 165 217 259 307 373
#     4  12  25  40  63  92 128 166 204 255 316 371
#
# _framework density 19.477153999999999
#
# number of rings (size 3 to 8) (size 9 to 14) (size 15 to 20)
#    0.000    1.333    3.333    1.000    4.667    4.000 
#    0.000    0.000    0.000    0.000    0.000    0.000 
#    0.000    0.000    0.000    0.000    0.000    0.000 
#
# Total GULP energy -268259.527876 kJ/mol
# GULP energy per Si atom -5588.740164 kJ/mol
# Density = 1.943282 g / cm^3
# Si number density = 19.477154 Si / 1000 Ang^3
#
#
#
# Elastic Constant Matrix: (Units=GPa)
#
#
# Indices 1 2 3 4 5 6 
#
# 1 60.9362 30.3770 55.6623 0.0000 0.0000 0.0000
# 2 30.3770 50.0868 77.2039 0.0000 0.0000 0.0000
# 3 55.6623 77.2039 163.5029 0.0000 0.0000 0.0000
# 4 0.0000 0.0000 0.0000 80.7838 0.0000 0.0000
# 5 0.0000 0.0000 0.0000 0.0000 7.5283 0.0000
# 6 0.0000 0.0000 0.0000 0.0000 0.0000 5.1795
#
#
#
# Elastic Compliance Matrix: (Units=1/GPa)
#
#
# Indices 1 2 3 4 5 6 
#
# 1 0.024536 -0.007369 -0.004873 0.000000 0.000000 0.000000
# 2 -0.007369 0.075569 -0.033174 0.000000 0.000000 0.000000
# 3 -0.004873 -0.033174 0.023440 0.000000 0.000000 0.000000
# 4 0.000000 0.000000 0.000000 0.012379 0.000000 0.000000
# 5 0.000000 0.000000 0.000000 0.000000 0.132833 0.000000
# 6 0.000000 0.000000 0.000000 0.000000 0.000000 0.193067
#
#
# Mechanical properties :
#
#
# Convention : Reuss Voigt Hill
#
# Bulk Modulus (GPa) = 30.57002 66.77913 48.67458
# Shear Modulus (GPa) = 8.87219 26.11716 17.49467
#
# Velocity S-wave (km/s) = 2.13660 3.66582 3.00027
# Velocity P-wave (km/s) = 4.67078 7.23035 6.08663
#
# Compressibility (1/GPa) = 0.03271179
#
# Stress axis : x y z
#
# Youngs Moduli (GPa) = 40.75720 13.23297 42.66292
#
# Poissons Ratio (x) = 0.09751 0.20792
# Poissons Ratio (y) = 0.30032 1.41530
# Poissons Ratio (z) = 0.19863 0.43899
#
# Static dielectric constant tensor:
#      x y z
#    x 1.656190 0.000000 0.000000 
#    y 0.000000 1.664800 0.000000 
#    z 0.000000 0.000000 1.642840 
# 
# From -- ./inp_files/11692.got.cif
#   From: 2010.05.17/outbox.cif.g08.bks.cpg/sg54_6_cif.got.tgz:11692.got - 2010.06.03 13:09:01.
