data_PCOD9423584
_publ_section_title
;
Structure prediction by ZEFSAII (Michael W. Deem and Ramdas Pophale) SiO2 
 PCOD9423584
Probable space group: P C C A
;
_chemical_formula_sum "Si O2"
_cell_formula_units_Z 56
_cell_length_a 14.443674
_cell_length_b 14.042278
_cell_length_c 12.230539
_cell_angle_alpha 90.000000
_cell_angle_beta 90.000000
_cell_angle_gamma 90.000000
_cell_volume 2480.623429
_symmetry_space_group_name_H-M "P C C A"
_symmetry_group_IT_number 54
_symmetry_cell_setting 'orthorhombic'
loop_
_space_group_symop_operation_xyz
x,y,z
1/2-x,-y,z
1/2+x,-y,1/2-z
-x,y,1/2-z
-x,-y,-z
1/2+x,y,-z
1/2-x,y,1/2+z
x,-y,1/2+z
loop_
_atom_site_type_symbol
_atom_site_label
_atom_site_fract_x
_atom_site_fract_y
_atom_site_fract_z
Si Si1 0.722025 0.885589 0.838555
Si Si2 0.408791 0.162026 0.553851
Si Si3 0.000000 0.929333 0.750000
Si Si4 0.593604 0.279399 0.321694
Si Si5 0.842920 0.046142 0.633544
Si Si6 0.000000 0.575048 0.750000
Si Si7 0.522874 0.639268 0.497557
Si Si8 0.155057 0.443340 0.828570
O O1 0.809628 0.833959 0.888404
O O2 0.633909 0.820004 0.872456
O O3 0.706072 0.875034 0.708631
O O4 0.750000 0.000000 0.850963
O O5 0.480934 0.134899 0.645959
O O6 0.405299 0.079970 0.464074
O O7 0.429071 0.258563 0.495023
O O8 0.909932 0.991104 0.718012
O O9 0.500000 0.260304 0.250000
O O10 0.565492 0.347152 0.423628
O O11 0.657808 0.342983 0.239272
O O12 0.750000 0.000000 0.585512
O O13 0.003211 0.625484 0.631112
O O14 0.090506 0.509963 0.754292
O O15 0.594823 0.569799 0.559476
O O16 0.250000 0.500000 0.846951
#
# Coordination Sequence:
#
# PCOD9423584 Si02
#       8
#     8   8   4   8   8   4   8   8
#     4  11  24  45  68 105 145 192 253 312 362 445
#     4  12  26  44  68 105 146 189 249 309 379 443
#     4  12  25  46  69 106 138 194 260 313 375 442
#     4  10  23  47  76 109 149 200 255 311 382 454
#     4  11  24  43  72  95 140 194 256 308 373 439
#     4  12  25  50  77 108 158 186 246 311 389 470
#     4  11  26  47  71 115 151 197 243 318 381 464
#     4  11  25  47  84 111 149 197 253 311 390 463
#
# _framework density 22.574968999999999
#
# number of rings (size 3 to 8) (size 9 to 14) (size 15 to 20)
#    0.000    0.857    5.000    3.429    5.000    4.000 
#    2.571    0.000    0.000    0.000    0.000    0.000 
#    0.000    0.000    0.000    0.000    0.000    0.000 
#
# Total GULP energy -311929.783972 kJ/mol
# GULP energy per Si atom -5570.174714 kJ/mol
# Density = 2.252359 g / cm^3
# Si number density = 22.574969 Si / 1000 Ang^3
#
#
#
# Elastic Constant Matrix: (Units=GPa)
#
#
# Indices 1 2 3 4 5 6 
#
# 1 76.0432 43.0175 22.8760 0.0000 0.0000 0.0000
# 2 43.0175 85.8092 28.0744 0.0000 0.0000 0.0000
# 3 22.8760 28.0744 134.5022 0.0000 0.0000 0.0000
# 4 0.0000 0.0000 0.0000 56.3642 0.0000 0.0000
# 5 0.0000 0.0000 0.0000 0.0000 12.1832 0.0000
# 6 0.0000 0.0000 0.0000 0.0000 0.0000 31.8757
#
#
#
# Elastic Compliance Matrix: (Units=1/GPa)
#
#
# Indices 1 2 3 4 5 6 
#
# 1 0.018567 -0.008881 -0.001304 0.000000 0.000000 0.000000
# 2 -0.008881 0.016756 -0.001987 0.000000 0.000000 0.000000
# 3 -0.001304 -0.001987 0.008071 0.000000 0.000000 0.000000
# 4 0.000000 0.000000 0.000000 0.017742 0.000000 0.000000
# 5 0.000000 0.000000 0.000000 0.000000 0.082081 0.000000
# 6 0.000000 0.000000 0.000000 0.000000 0.000000 0.031372
#
#
# Mechanical properties :
#
#
# Convention : Reuss Voigt Hill
#
# Bulk Modulus (GPa) = 52.49389 53.81004 53.15197
# Shear Modulus (GPa) = 24.35666 33.57706 28.96686
#
# Velocity S-wave (km/s) = 3.28826 3.86081 3.58598
# Velocity P-wave (km/s) = 6.14170 6.61531 6.38290
#
# Compressibility (1/GPa) = 0.01904983
#
# Stress axis : x y z
#
# Youngs Moduli (GPa) = 53.85966 59.67980 123.89495
#
# Poissons Ratio (x) = 0.53002 0.16157
# Poissons Ratio (y) = 0.47834 0.24618
# Poissons Ratio (z) = 0.07024 0.11858
#
# Static dielectric constant tensor:
#      x y z
#    x 1.910040 0.000000 0.000000 
#    y 0.000000 2.075560 0.000000 
#    z 0.000000 0.000000 1.883230 
# 
# From -- ./inp_files/8500.got.cif
#   From: 2010.05.17/outbox.cif.g08.bks.cpg/sg54_5_cif.got.tgz:8500.got - 2010.06.03 13:09:01.
