data_PCOD9423176
_publ_section_title
;
Structure prediction by ZEFSAII (Michael W. Deem and Ramdas Pophale) SiO2 
 PCOD9423176
Probable space group: P C C A
;
_chemical_formula_sum "Si O2"
_cell_formula_units_Z 36
_cell_length_a 18.372361
_cell_length_b 5.090873
_cell_length_c 16.562227
_cell_angle_alpha 90.000000
_cell_angle_beta 90.000000
_cell_angle_gamma 90.000000
_cell_volume 1549.087559
_symmetry_space_group_name_H-M "P C C A"
_symmetry_group_IT_number 54
_symmetry_cell_setting 'orthorhombic'
loop_
_space_group_symop_operation_xyz
x,y,z
1/2-x,-y,z
1/2+x,-y,1/2-z
-x,y,1/2-z
-x,-y,-z
1/2+x,y,-z
1/2-x,y,1/2+z
x,-y,1/2+z
loop_
_atom_site_type_symbol
_atom_site_label
_atom_site_fract_x
_atom_site_fract_y
_atom_site_fract_z
Si Si1 0.115974 0.342593 0.954509
Si Si2 0.453122 0.711805 0.576778
Si Si3 0.250000 0.000000 0.940813
Si Si4 0.062382 0.802474 0.686114
Si Si5 0.177744 0.621987 0.809779
O O1 0.132312 0.408745 0.860828
O O2 0.034721 0.222249 0.954769
O O3 0.187124 0.178415 0.982876
O O4 0.100818 0.603744 0.007606
O O5 0.458548 0.462259 0.637756
O O6 0.425560 0.962663 0.624287
O O7 0.204947 0.812546 0.880715
O O8 0.000000 0.874528 0.750000
O O9 0.868105 0.752333 0.759210
O O10 0.250000 0.500000 0.773018
#
# Coordination Sequence:
#
# PCOD9423176 Si02
#       5
#     8   8   4   8   8
#     4  10  23  44  68 108 136 196 242 303 357 443
#     4  11  26  41  74 105 149 176 248 308 364 410
#     4  10  22  42  74  90 142 192 246 280 368 444
#     4  12  24  43  69 107 140 188 234 304 362 433
#     4  10  23  42  70  99 139 192 240 284 358 448
#
# _framework density 23.239488000000001
#
# number of rings (size 3 to 8) (size 9 to 14) (size 15 to 20)
#    0.000    1.333    2.222    2.000    9.333    1.778 
#    0.000    4.444    0.000    0.000    0.000    0.000 
#    0.000    0.000    0.000    0.000    0.000    0.000 
#
# Total GULP energy -201349.596016 kJ/mol
# GULP energy per Si atom -5593.044334 kJ/mol
# Density = 2.318659 g / cm^3
# Si number density = 23.239488 Si / 1000 Ang^3
#
#
#
# Elastic Constant Matrix: (Units=GPa)
#
#
# Indices 1 2 3 4 5 6 
#
# 1 200.5391 82.2465 83.7221 0.0000 0.0000 0.0000
# 2 82.2465 107.4206 42.1700 0.0000 0.0000 0.0000
# 3 83.7221 42.1700 100.6743 0.0000 0.0000 0.0000
# 4 0.0000 0.0000 0.0000 481.5148 0.0000 0.0000
# 5 0.0000 0.0000 0.0000 0.0000 36.1118 0.0000
# 6 0.0000 0.0000 0.0000 0.0000 0.0000 37.5586
#
#
#
# Elastic Compliance Matrix: (Units=1/GPa)
#
#
# Indices 1 2 3 4 5 6 
#
# 1 0.009424 -0.004953 -0.005762 0.000000 0.000000 0.000000
# 2 -0.004953 0.013745 -0.001638 0.000000 0.000000 0.000000
# 3 -0.005762 -0.001638 0.015411 0.000000 0.000000 0.000000
# 4 0.000000 0.000000 0.000000 0.002077 0.000000 0.000000
# 5 0.000000 0.000000 0.000000 0.000000 0.027692 0.000000
# 6 0.000000 0.000000 0.000000 0.000000 0.000000 0.026625
#
#
# Mechanical properties :
#
#
# Convention : Reuss Voigt Hill
#
# Bulk Modulus (GPa) = 72.08504 91.65681 81.87092
# Shear Modulus (GPa) = 40.22411 124.40341 82.31376
#
# Velocity S-wave (km/s) = 4.16486 7.32443 5.95791
# Velocity P-wave (km/s) = 7.36300 10.53828 9.09036
#
# Compressibility (1/GPa) = 0.01387250
#
# Stress axis : x y z
#
# Youngs Moduli (GPa) = 106.11766 72.75544 64.88890
#
# Poissons Ratio (x) = 0.36037 0.37389
# Poissons Ratio (y) = 0.52561 0.10630
# Poissons Ratio (z) = 0.61145 0.11919
#
# Static dielectric constant tensor:
#      x y z
#    x 1.963450 0.000000 0.000000 
#    y 0.000000 1.999160 0.000000 
#    z 0.000000 0.000000 1.842820 
# 
# From -- ./inp_files/21350.got.cif
#   From: 2010.05.17/outbox.cif.g08.bks.cpg/sg54_11_cif.got.tgz:21350.got - 2010.06.03 13:09:01.
