data_PCOD9423083
_publ_section_title
;
Structure prediction by ZEFSAII (Michael W. Deem and Ramdas Pophale) SiO2 
 PCOD9423083
Probable space group: P C C A
;
_chemical_formula_sum "Si O2"
_cell_formula_units_Z 60
_cell_length_a 25.545606
_cell_length_b 6.684188
_cell_length_c 16.799625
_cell_angle_alpha 90.000000
_cell_angle_beta 90.000000
_cell_angle_gamma 90.000000
_cell_volume 2868.563404
_symmetry_space_group_name_H-M "P C C A"
_symmetry_group_IT_number 54
_symmetry_cell_setting 'orthorhombic'
loop_
_space_group_symop_operation_xyz
x,y,z
1/2-x,-y,z
1/2+x,-y,1/2-z
-x,y,1/2-z
-x,-y,-z
1/2+x,y,-z
1/2-x,y,1/2+z
x,-y,1/2+z
loop_
_atom_site_type_symbol
_atom_site_label
_atom_site_fract_x
_atom_site_fract_y
_atom_site_fract_z
Si Si1 0.942594 0.868184 0.383282
Si Si2 0.641199 0.094003 0.618433
Si Si3 0.555976 0.451418 0.245471
Si Si4 0.443022 0.766446 0.922428
Si Si5 0.291663 0.339036 0.580858
Si Si6 0.250000 0.000000 0.464106
Si Si7 0.374257 0.808921 0.200835
Si Si8 0.113224 0.571248 0.998666
O O1 0.948628 0.734828 0.304513
O O2 0.905350 0.742314 0.441168
O O3 0.000322 0.870670 0.421733
O O4 0.915073 0.070477 0.354674
O O5 0.699500 0.046204 0.589387
O O6 0.634942 0.086867 0.713753
O O7 0.626028 0.310964 0.582781
O O8 0.601693 0.933745 0.579484
O O9 0.500000 0.564212 0.250000
O O10 0.562702 0.360553 0.158676
O O11 0.600902 0.595584 0.276632
O O12 0.431207 0.599309 0.988868
O O13 0.250000 0.500000 0.612010
O O14 0.321503 0.222694 0.650982
O O15 0.336020 0.459433 0.532103
O O16 0.263546 0.186118 0.521186
#
# Coordination Sequence:
#
# PCOD9423083 Si02
#       8
#     8   8   8   8   8   4   8   8
#     4  11  25  42  71 106 145 184 233 283 353 435
#     4  12  26  44  72 103 140 183 241 299 355 423
#     4  10  22  41  69  98 142 188 225 279 347 427
#     4  11  24  44  71 105 144 189 230 284 355 433
#     4  12  27  49  74  95 138 189 241 301 359 422
#     4  12  26  50  72 100 132 184 238 312 366 402
#     4  12  26  45  70 108 141 185 238 293 356 431
#     4  12  24  46  70 104 141 185 236 295 357 422
#
# _framework density 20.916394
#
# number of rings (size 3 to 8) (size 9 to 14) (size 15 to 20)
#    0.000    0.533    6.667    1.200    1.867    1.067 
#    4.800    0.000    0.000    0.000    0.000    0.000 
#    0.000    0.000    0.000    0.000    0.000    0.000 
#
# Total GULP energy -335576.712464 kJ/mol
# GULP energy per Si atom -5592.945208 kJ/mol
# Density = 2.086879 g / cm^3
# Si number density = 20.916394 Si / 1000 Ang^3
#
#
#
# Elastic Constant Matrix: (Units=GPa)
#
#
# Indices 1 2 3 4 5 6 
#
# 1 83.6426 33.8917 -5.7018 0.0000 0.0000 0.0000
# 2 33.8917 74.1324 29.4193 0.0000 0.0000 0.0000
# 3 -5.7018 29.4193 54.7435 0.0000 0.0000 0.0000
# 4 0.0000 0.0000 0.0000 36.2457 0.0000 0.0000
# 5 0.0000 0.0000 0.0000 0.0000 44.7530 0.0000
# 6 0.0000 0.0000 0.0000 0.0000 0.0000 45.8378
#
#
#
# Elastic Compliance Matrix: (Units=1/GPa)
#
#
# Indices 1 2 3 4 5 6 
#
# 1 0.016770 -0.010626 0.007457 0.000000 0.000000 0.000000
# 2 -0.010626 0.023879 -0.013939 0.000000 0.000000 0.000000
# 3 0.007457 -0.013939 0.026535 0.000000 0.000000 0.000000
# 4 0.000000 0.000000 0.000000 0.027589 0.000000 0.000000
# 5 0.000000 0.000000 0.000000 0.000000 0.022345 0.000000
# 6 0.000000 0.000000 0.000000 0.000000 0.000000 0.021816
#
#
# Mechanical properties :
#
#
# Convention : Reuss Voigt Hill
#
# Bulk Modulus (GPa) = 30.33360 36.41523 33.37442
# Shear Modulus (GPa) = 27.15328 35.69457 31.42393
#
# Velocity S-wave (km/s) = 3.60694 4.13551 3.88023
# Velocity P-wave (km/s) = 5.64628 6.34436 6.00547
#
# Compressibility (1/GPa) = 0.03296674
#
# Stress axis : x y z
#
# Youngs Moduli (GPa) = 59.63178 41.87745 37.68634
#
# Poissons Ratio (x) = 0.44499 -0.28103
# Poissons Ratio (y) = 0.63365 0.52533
# Poissons Ratio (z) = -0.44468 0.58375
#
# Static dielectric constant tensor:
#      x y z
#    x 1.744770 0.000000 0.000000 
#    y 0.000000 1.737170 0.000000 
#    z 0.000000 0.000000 1.749810 
# 
# From -- ./inp_files/19244.got.cif
#   From: 2010.05.17/outbox.cif.g08.bks.cpg/sg54_10_cif.got.tgz:19244.got - 2010.06.03 13:09:01.
