data_PCOD9423105
_publ_section_title
;
Structure prediction by ZEFSAII (Michael W. Deem and Ramdas Pophale) SiO2 
 PCOD9423105
Probable space group: P C C A
;
_chemical_formula_sum "Si O2"
_cell_formula_units_Z 28
_cell_length_a 4.906033
_cell_length_b 20.564225
_cell_length_c 11.560092
_cell_angle_alpha 90.000000
_cell_angle_beta 90.000000
_cell_angle_gamma 90.000000
_cell_volume 1166.283422
_symmetry_space_group_name_H-M "P C C A"
_symmetry_group_IT_number 54
_symmetry_cell_setting 'orthorhombic'
loop_
_space_group_symop_operation_xyz
x,y,z
1/2-x,-y,z
1/2+x,-y,1/2-z
-x,y,1/2-z
-x,-y,-z
1/2+x,y,-z
1/2-x,y,1/2+z
x,-y,1/2+z
loop_
_atom_site_type_symbol
_atom_site_label
_atom_site_fract_x
_atom_site_fract_y
_atom_site_fract_z
Si Si1 0.851887 0.711519 0.080827
Si Si2 0.000000 0.606040 0.250000
Si Si3 0.250000 0.500000 0.087818
Si Si4 0.500000 0.957323 0.750000
Si Si5 0.256142 0.145325 0.922713
O O1 0.821298 0.653596 0.170089
O O2 0.799137 0.783447 0.130692
O O3 0.653407 0.706681 0.971225
O O4 0.808717 0.560615 0.328313
O O5 0.500000 0.500000 0.000000
O O6 0.347713 0.911910 0.842305
O O7 0.250000 0.000000 0.699186
O O8 0.568902 0.142084 0.961653
#
# Coordination Sequence:
#
# PCOD9423105 Si02
#       5
#     8   4   4   4   8
#     4  10  23  42  68  98 125 163 220 272 327 395
#     4  12  25  46  72  95 134 180 214 276 338 383
#     4  12  28  46  66 100 138 176 224 266 326 410
#     4  12  25  38  60  93 126 170 220 258 312 393
#     4  10  22  42  64  91 128 166 210 271 327 379
#
# _framework density 24.007885999999999
#
# number of rings (size 3 to 8) (size 9 to 14) (size 15 to 20)
#    0.000    1.143    0.000    5.143    0.000    9.143 
#    0.000    8.571    0.000    0.000    0.000    0.000 
#    0.000    0.000    0.000    0.000    0.000    0.000 
#
# Total GULP energy -156872.303815 kJ/mol
# GULP energy per Si atom -5602.582279 kJ/mol
# Density = 2.395324 g / cm^3
# Si number density = 24.007886 Si / 1000 Ang^3
#
#
#
# Elastic Constant Matrix: (Units=GPa)
#
#
# Indices 1 2 3 4 5 6 
#
# 1 95.9892 27.3311 8.3626 0.0000 0.0000 0.0000
# 2 27.3311 166.3941 59.4651 0.0000 0.0000 0.0000
# 3 8.3626 59.4651 62.5879 0.0000 0.0000 0.0000
# 4 0.0000 0.0000 0.0000 46.8691 0.0000 0.0000
# 5 0.0000 0.0000 0.0000 0.0000 29.3185 0.0000
# 6 0.0000 0.0000 0.0000 0.0000 0.0000 18.2798
#
#
#
# Elastic Compliance Matrix: (Units=1/GPa)
#
#
# Indices 1 2 3 4 5 6 
#
# 1 0.010935 -0.001929 0.000372 0.000000 0.000000 0.000000
# 2 -0.001929 0.009440 -0.008711 0.000000 0.000000 0.000000
# 3 0.000372 -0.008711 0.024204 0.000000 0.000000 0.000000
# 4 0.000000 0.000000 0.000000 0.021336 0.000000 0.000000
# 5 0.000000 0.000000 0.000000 0.000000 0.034108 0.000000
# 6 0.000000 0.000000 0.000000 0.000000 0.000000 0.054705
#
#
# Mechanical properties :
#
#
# Convention : Reuss Voigt Hill
#
# Bulk Modulus (GPa) = 41.59369 57.25432 49.42401
# Shear Modulus (GPa) = 27.28086 34.21430 30.74758
#
# Velocity S-wave (km/s) = 3.37461 3.77918 3.58261
# Velocity P-wave (km/s) = 5.70496 6.55308 6.14367
#
# Compressibility (1/GPa) = 0.02404211
#
# Stress axis : x y z
#
# Youngs Moduli (GPa) = 91.45214 105.93483 41.31497
#
# Poissons Ratio (x) = 0.20434 -0.01535
# Poissons Ratio (y) = 0.17640 0.35990
# Poissons Ratio (z) = -0.03398 0.92280
#
# Static dielectric constant tensor:
#      x y z
#    x 1.870050 0.000000 0.000000 
#    y 0.000000 1.930620 0.000000 
#    z 0.000000 0.000000 1.907360 
# 
# From -- ./inp_files/6249.got.cif
#   From: 2010.05.17/outbox.cif.g08.bks.cpg/sg54_4_cif.got.tgz:6249.got - 2010.06.03 13:09:01.
