data_PCOD9423789
_publ_section_title
;
Structure prediction by ZEFSAII (Michael W. Deem and Ramdas Pophale) SiO2 
 PCOD9423789
Probable space group: P C C A
;
_chemical_formula_sum "Si O2"
_cell_formula_units_Z 44
_cell_length_a 14.842498
_cell_length_b 9.007777
_cell_length_c 14.081749
_cell_angle_alpha 90.000000
_cell_angle_beta 90.000000
_cell_angle_gamma 90.000000
_cell_volume 1882.700440
_symmetry_space_group_name_H-M "P C C A"
_symmetry_group_IT_number 54
_symmetry_cell_setting 'orthorhombic'
loop_
_space_group_symop_operation_xyz
x,y,z
1/2-x,-y,z
1/2+x,-y,1/2-z
-x,y,1/2-z
-x,-y,-z
1/2+x,y,-z
1/2-x,y,1/2+z
x,-y,1/2+z
loop_
_atom_site_type_symbol
_atom_site_label
_atom_site_fract_x
_atom_site_fract_y
_atom_site_fract_z
Si Si1 0.371074 0.842498 0.151738
Si Si2 0.000000 0.378275 0.250000
Si Si3 0.282546 0.663042 0.996717
Si Si4 0.970287 0.406273 0.590801
Si Si5 0.246597 0.160513 0.330675
Si Si6 0.413631 0.158102 0.185943
O O1 0.449687 0.724061 0.172269
O O2 0.333008 0.858052 0.257004
O O3 0.394156 0.010725 0.123776
O O4 0.294913 0.769711 0.085930
O O5 0.054345 0.491675 0.318197
O O6 0.250000 0.500000 0.024980
O O7 0.380913 0.672759 0.947129
O O8 0.222953 0.720625 0.910200
O O9 0.000000 0.500000 0.500000
O O10 0.050933 0.296966 0.624085
O O11 0.332770 0.190154 0.261087
O O12 0.250000 0.000000 0.380439
O O13 0.500000 0.117841 0.250000
#
# Coordination Sequence:
#
# PCOD9423789 Si02
#       6
#     8   4   8   8   8   8
#     4  11  26  44  71 104 139 189 238 303 360 436
#     4  12  22  44  68 100 142 180 240 294 364 424
#     4  12  26  45  68 104 142 187 237 292 369 433
#     4  12  25  43  69 106 139 189 237 298 356 435
#     4  10  24  46  69 102 136 183 237 295 358 425
#     4  11  22  46  74  97 141 184 239 293 362 425
#
# _framework density 23.370685000000002
#
# number of rings (size 3 to 8) (size 9 to 14) (size 15 to 20)
#    0.000    0.727    5.455    1.091    2.545    5.091 
#    6.545    0.000    0.000    0.000    0.000    0.000 
#    0.000    0.000    0.000    0.000    0.000    0.000 
#
# Total GULP energy -245586.984468 kJ/mol
# GULP energy per Si atom -5581.522374 kJ/mol
# Density = 2.331749 g / cm^3
# Si number density = 23.370685 Si / 1000 Ang^3
#
#
#
# Elastic Constant Matrix: (Units=GPa)
#
#
# Indices 1 2 3 4 5 6 
#
# 1 17.9291 7.5034 -7.0139 0.0000 0.0000 0.0000
# 2 7.5034 140.7244 53.9455 0.0000 0.0000 0.0000
# 3 -7.0139 53.9455 89.3860 0.0000 0.0000 0.0000
# 4 0.0000 0.0000 0.0000 10.5738 0.0000 0.0000
# 5 0.0000 0.0000 0.0000 0.0000 24.0637 0.0000
# 6 0.0000 0.0000 0.0000 0.0000 0.0000 38.0330
#
#
#
# Elastic Compliance Matrix: (Units=1/GPa)
#
#
# Indices 1 2 3 4 5 6 
#
# 1 0.062091 -0.006737 0.008938 0.000000 0.000000 0.000000
# 2 -0.006737 0.009976 -0.006549 0.000000 0.000000 0.000000
# 3 0.008938 -0.006549 0.015841 0.000000 0.000000 0.000000
# 4 0.000000 0.000000 0.000000 0.094573 0.000000 0.000000
# 5 0.000000 0.000000 0.000000 0.000000 0.041556 0.000000
# 6 0.000000 0.000000 0.000000 0.000000 0.000000 0.026293
#
#
# Mechanical properties :
#
#
# Convention : Reuss Voigt Hill
#
# Bulk Modulus (GPa) = 12.62435 39.65660 26.14047
# Shear Modulus (GPa) = 17.51737 27.44109 22.47923
#
# Velocity S-wave (km/s) = 2.74075 3.43033 3.10474
# Velocity P-wave (km/s) = 3.92799 5.71795 4.90531
#
# Compressibility (1/GPa) = 0.07921202
#
# Stress axis : x y z
#
# Youngs Moduli (GPa) = 16.10534 100.24186 63.12622
#
# Poissons Ratio (x) = 0.67533 -0.56422
# Poissons Ratio (y) = 0.10850 0.41343
# Poissons Ratio (z) = -0.14395 0.65650
#
# Static dielectric constant tensor:
#      x y z
#    x 2.214160 0.000000 0.000000 
#    y 0.000000 2.046780 0.000000 
#    z 0.000000 0.000000 1.926130 
# 
# From -- ./inp_files/13996.got.cif
#   From: 2010.05.17/outbox.cif.g08.bks.cpg/sg54_7_cif.got.tgz:13996.got - 2010.06.03 13:09:01.
