data_PCOD9423819
_publ_section_title
;
Structure prediction by ZEFSAII (Michael W. Deem and Ramdas Pophale) SiO2 
 PCOD9423819
Probable space group: P C C A
;
_chemical_formula_sum "Si O2"
_cell_formula_units_Z 36
_cell_length_a 11.843872
_cell_length_b 4.803615
_cell_length_c 23.134128
_cell_angle_alpha 90.000000
_cell_angle_beta 90.000000
_cell_angle_gamma 90.000000
_cell_volume 1316.179226
_symmetry_space_group_name_H-M "P C C A"
_symmetry_group_IT_number 54
_symmetry_cell_setting 'orthorhombic'
loop_
_space_group_symop_operation_xyz
x,y,z
1/2-x,-y,z
1/2+x,-y,1/2-z
-x,y,1/2-z
-x,-y,-z
1/2+x,y,-z
1/2-x,y,1/2+z
x,-y,1/2+z
loop_
_atom_site_type_symbol
_atom_site_label
_atom_site_fract_x
_atom_site_fract_y
_atom_site_fract_z
Si Si1 0.142142 0.697992 0.319269
Si Si2 0.442047 0.180033 0.565243
Si Si3 0.362066 0.629446 0.949051
Si Si4 0.896815 0.349627 0.855675
Si Si5 0.750000 0.000000 0.769498
O O1 0.250000 0.500000 0.301712
O O2 0.164188 0.758649 0.386807
O O3 0.149641 0.969575 0.278698
O O4 0.013176 0.586767 0.319645
O O5 0.554684 0.369536 0.562423
O O6 0.403191 0.167488 0.499097
O O7 0.367846 0.383642 0.605963
O O8 0.434323 0.890022 0.598485
O O9 0.250000 0.500000 0.974135
O O10 0.802801 0.226712 0.813211
#
# Coordination Sequence:
#
# PCOD9423819 Si02
#       5
#     8   8   8   8   4
#     4  10  25  48  71 109 144 202 255 311 379 452
#     4  10  24  47  70 113 146 192 243 314 386 454
#     4   9  21  43  75 105 148 190 247 310 380 458
#     4  11  27  47  76 107 153 194 252 312 383 462
#     4  12  28  46  76 106 150 208 252 318 380 450
#
# _framework density 27.351900000000001
#
# number of rings (size 3 to 8) (size 9 to 14) (size 15 to 20)
#    0.000    1.778    0.000    0.667   15.556    8.000 
#    0.000    0.000    0.000    0.000    0.000    0.000 
#    0.000    0.000    0.000    0.000    0.000    0.000 
#
# Total GULP energy -200969.060273 kJ/mol
# GULP energy per Si atom -5582.473896 kJ/mol
# Density = 2.728965 g / cm^3
# Si number density = 27.351900 Si / 1000 Ang^3
#
#
#
# Elastic Constant Matrix: (Units=GPa)
#
#
# Indices 1 2 3 4 5 6 
#
# 1 98.1013 29.1597 39.1348 0.0000 0.0000 0.0000
# 2 29.1597 138.1880 53.6928 0.0000 0.0000 0.0000
# 3 39.1348 53.6928 179.1735 0.0000 0.0000 0.0000
# 4 0.0000 0.0000 0.0000 27.7186 0.0000 0.0000
# 5 0.0000 0.0000 0.0000 0.0000 37.2006 0.0000
# 6 0.0000 0.0000 0.0000 0.0000 0.0000 41.7492
#
#
#
# Elastic Compliance Matrix: (Units=1/GPa)
#
#
# Indices 1 2 3 4 5 6 
#
# 1 0.011486 -0.001640 -0.002017 0.000000 0.000000 0.000000
# 2 -0.001640 0.008424 -0.002166 0.000000 0.000000 0.000000
# 3 -0.002017 -0.002166 0.006671 0.000000 0.000000 0.000000
# 4 0.000000 0.000000 0.000000 0.036077 0.000000 0.000000
# 5 0.000000 0.000000 0.000000 0.000000 0.026881 0.000000
# 6 0.000000 0.000000 0.000000 0.000000 0.000000 0.023953
#
#
# Mechanical properties :
#
#
# Convention : Reuss Voigt Hill
#
# Bulk Modulus (GPa) = 66.96100 73.27081 70.11591
# Shear Modulus (GPa) = 38.42708 40.89871 39.66289
#
# Velocity S-wave (km/s) = 3.75229 3.87108 3.81214
# Velocity P-wave (km/s) = 6.58083 6.84300 6.71320
#
# Compressibility (1/GPa) = 0.01493406
#
# Stress axis : x y z
#
# Youngs Moduli (GPa) = 87.06468 118.70459 149.90315
#
# Poissons Ratio (x) = 0.19466 0.30240
# Poissons Ratio (y) = 0.14277 0.32474
# Poissons Ratio (z) = 0.17563 0.25715
#
# Static dielectric constant tensor:
#      x y z
#    x 2.305210 0.000000 0.000000 
#    y 0.000000 2.233070 0.000000 
#    z 0.000000 0.000000 2.081080 
# 
# From -- ./inp_files/24291.got.cif
#   From: 2010.05.17/outbox.cif.g08.bks.cpg/sg54_13_cif.got.tgz:24291.got - 2010.06.03 13:09:01.
