data_PCOD9423337
_publ_section_title
;
Structure prediction by ZEFSAII (Michael W. Deem and Ramdas Pophale) SiO2 
 PCOD9423337
Probable space group: P C C A
;
_chemical_formula_sum "Si O2"
_cell_formula_units_Z 56
_cell_length_a 28.597483
_cell_length_b 5.304253
_cell_length_c 14.557771
_cell_angle_alpha 90.000000
_cell_angle_beta 90.000000
_cell_angle_gamma 90.000000
_cell_volume 2208.243316
_symmetry_space_group_name_H-M "P C C A"
_symmetry_group_IT_number 54
_symmetry_cell_setting 'orthorhombic'
loop_
_space_group_symop_operation_xyz
x,y,z
1/2-x,-y,z
1/2+x,-y,1/2-z
-x,y,1/2-z
-x,-y,-z
1/2+x,y,-z
1/2-x,y,1/2+z
x,-y,1/2+z
loop_
_atom_site_type_symbol
_atom_site_label
_atom_site_fract_x
_atom_site_fract_y
_atom_site_fract_z
Si Si1 0.932854 0.480547 0.158679
Si Si2 0.106833 0.239557 0.171115
Si Si3 0.500000 0.846163 0.750000
Si Si4 0.840347 0.388556 0.563049
Si Si5 0.484845 0.801895 0.077437
Si Si6 0.167557 0.109499 0.559413
Si Si7 0.301057 0.577651 0.250911
Si Si8 0.250000 0.000000 0.693062
O O1 0.912854 0.256316 0.223956
O O2 0.956650 0.667479 0.229733
O O3 0.892395 0.617973 0.104228
O O4 0.973882 0.399747 0.089666
O O5 0.066806 0.314034 0.096703
O O6 0.153395 0.415531 0.185588
O O7 0.126155 0.977169 0.129474
O O8 0.511223 0.022477 0.833707
O O9 0.828834 0.136106 0.507625
O O10 0.809694 0.439075 0.654102
O O11 0.838451 0.640435 0.500614
O O12 0.500000 0.000000 0.000000
O O13 0.213870 0.124671 0.620532
O O14 0.250000 0.500000 0.213655
O O15 0.287909 0.870934 0.260665
#
# Coordination Sequence:
#
# PCOD9423337 Si02
#       8
#     8   8   4   8   8   8   8   4
#     4  11  24  47  68 107 146 201 256 310 388 468
#     4  10  22  48  68 104 151 194 254 319 388 477
#     4  12  24  44  76  98 156 198 254 322 382 468
#     4  11  28  46  75 110 152 193 259 319 389 467
#     4  12  25  44  73 110 152 203 258 322 396 475
#     4  11  27  47  73 110 150 193 253 328 387 463
#     4  10  25  46  74 105 144 205 254 316 397 478
#     4  10  26  46  74 104 148 196 248 314 398 466
#
# _framework density 25.359524
#
# number of rings (size 3 to 8) (size 9 to 14) (size 15 to 20)
#    0.000    1.143    2.857    0.857   12.000    2.857 
#    5.143    0.000    0.000    0.000    0.000    0.000 
#    0.000    0.000    0.000    0.000    0.000    0.000 
#
# Total GULP energy -312746.718941 kJ/mol
# GULP energy per Si atom -5584.762838 kJ/mol
# Density = 2.530180 g / cm^3
# Si number density = 25.359524 Si / 1000 Ang^3
#
#
#
# Elastic Constant Matrix: (Units=GPa)
#
#
# Indices 1 2 3 4 5 6 
#
# 1 165.0611 22.5556 33.3496 0.0000 0.0000 0.0000
# 2 22.5556 91.3870 49.9914 0.0000 0.0000 0.0000
# 3 33.3496 49.9914 114.8419 0.0000 0.0000 0.0000
# 4 0.0000 0.0000 0.0000 -8.2990 0.0000 0.0000
# 5 0.0000 0.0000 0.0000 0.0000 36.1758 0.0000
# 6 0.0000 0.0000 0.0000 0.0000 0.0000 19.3062
#
#
#
# Elastic Compliance Matrix: (Units=1/GPa)
#
#
# Indices 1 2 3 4 5 6 
#
# 1 0.006475 -0.000748 -0.001555 0.000000 0.000000 0.000000
# 2 -0.000748 0.014449 -0.006073 0.000000 0.000000 0.000000
# 3 -0.001555 -0.006073 0.011803 0.000000 0.000000 0.000000
# 4 0.000000 0.000000 0.000000 -0.120496 0.000000 0.000000
# 5 0.000000 0.000000 0.000000 0.000000 0.027643 0.000000
# 6 0.000000 0.000000 0.000000 0.000000 0.000000 0.051797
#
#
# Mechanical properties :
#
#
# Convention : Reuss Voigt Hill
#
# Bulk Modulus (GPa) = 62.59297 64.78702 63.69000
# Shear Modulus (GPa) = 363.78272 27.12949 195.45610
#
# Velocity S-wave (km/s) = 11.99006 3.27432 8.78871
# Velocity P-wave (km/s) = 14.71115 6.31647 11.32068
#
# Compressibility (1/GPa) = 0.01597623
#
# Stress axis : x y z
#
# Youngs Moduli (GPa) = 154.44843 69.20952 84.72721
#
# Poissons Ratio (x) = 0.05173 0.13174
# Poissons Ratio (y) = 0.11545 0.51452
# Poissons Ratio (z) = 0.24014 0.42028
#
# Static dielectric constant tensor:
#      x y z
#    x 2.205170 0.000000 0.000000 
#    y 0.000000 3.453490 0.000000 
#    z 0.000000 0.000000 2.038940 
# 
# From -- ./inp_files/15384.got.cif
#   From: 2010.05.17/outbox.cif.g08.bks.cpg/sg54_8_cif.got.tgz:15384.got - 2010.06.03 13:09:01.
