data_PCOD9423639
_publ_section_title
;
Structure prediction by ZEFSAII (Michael W. Deem and Ramdas Pophale) SiO2 
 PCOD9423639
Probable space group: P C C A
;
_chemical_formula_sum "Si O2"
_cell_formula_units_Z 32
_cell_length_a 8.810766
_cell_length_b 11.264885
_cell_length_c 13.285056
_cell_angle_alpha 90.000000
_cell_angle_beta 90.000000
_cell_angle_gamma 90.000000
_cell_volume 1318.571909
_symmetry_space_group_name_H-M "P C C A"
_symmetry_group_IT_number 54
_symmetry_cell_setting 'orthorhombic'
loop_
_space_group_symop_operation_xyz
x,y,z
1/2-x,-y,z
1/2+x,-y,1/2-z
-x,y,1/2-z
-x,-y,-z
1/2+x,y,-z
1/2-x,y,1/2+z
x,-y,1/2+z
loop_
_atom_site_type_symbol
_atom_site_label
_atom_site_fract_x
_atom_site_fract_y
_atom_site_fract_z
Si Si1 0.952522 0.807348 0.423086
Si Si2 0.250000 0.500000 0.754350
Si Si3 0.707807 0.127676 0.613058
Si Si4 0.250000 0.000000 0.192599
Si Si5 0.019367 0.548832 0.111196
O O1 0.919452 0.817248 0.542364
O O2 0.899276 0.677128 0.388987
O O3 0.130054 0.809899 0.397687
O O4 0.868022 0.917432 0.368273
O O5 0.359994 0.566887 0.831861
O O6 0.378333 0.457941 0.675438
O O7 0.673543 0.093250 0.728205
O O8 0.750000 0.000000 0.565811
O O9 0.000000 0.500000 0.000000
#
# Coordination Sequence:
#
# PCOD9423639 Si02
#       5
#     8   4   8   4   8
#     4  12  25  45  72 105 147 197 238 315 382 449
#     4  10  26  46  74 108 142 196 264 310 376 468
#     4  10  25  40  69 102 146 183 243 292 369 451
#     4  10  24  40  72 100 146 184 244 294 370 460
#     4  11  27  48  77 107 154 195 262 322 382 450
#
# _framework density 24.268681999999998
#
# number of rings (size 3 to 8) (size 9 to 14) (size 15 to 20)
#    0.750    0.500    1.250    2.250   14.000    0.000 
#    0.000    0.000    5.500    0.000    0.000    0.000 
#    0.000    0.000    0.000    0.000    0.000    0.000 
#
# Total GULP energy -178201.695063 kJ/mol
# GULP energy per Si atom -5568.802971 kJ/mol
# Density = 2.421345 g / cm^3
# Si number density = 24.268682 Si / 1000 Ang^3
#
#
#
# Elastic Constant Matrix: (Units=GPa)
#
#
# Indices 1 2 3 4 5 6 
#
# 1 86.9089 48.4447 47.5568 0.0000 0.0000 0.0000
# 2 48.4447 85.4849 36.4096 0.0000 0.0000 0.0000
# 3 47.5568 36.4096 170.3517 0.0000 0.0000 0.0000
# 4 0.0000 0.0000 0.0000 3.1724 0.0000 0.0000
# 5 0.0000 0.0000 0.0000 0.0000 13.2164 0.0000
# 6 0.0000 0.0000 0.0000 0.0000 0.0000 32.9251
#
#
#
# Elastic Compliance Matrix: (Units=1/GPa)
#
#
# Indices 1 2 3 4 5 6 
#
# 1 0.018257 -0.008994 -0.003174 0.000000 0.000000 0.000000
# 2 -0.008994 0.017301 -0.001187 0.000000 0.000000 0.000000
# 3 -0.003174 -0.001187 0.007010 0.000000 0.000000 0.000000
# 4 0.000000 0.000000 0.000000 0.315215 0.000000 0.000000
# 5 0.000000 0.000000 0.000000 0.000000 0.075664 0.000000
# 6 0.000000 0.000000 0.000000 0.000000 0.000000 0.030372
#
#
# Mechanical properties :
#
#
# Convention : Reuss Voigt Hill
#
# Bulk Modulus (GPa) = 63.06495 67.50752 65.28624
# Shear Modulus (GPa) = 10.08441 23.88508 16.98475
#
# Velocity S-wave (km/s) = 2.04067 3.14059 2.64836
# Velocity P-wave (km/s) = 5.62094 6.40532 6.02591
#
# Compressibility (1/GPa) = 0.01585667
#
# Stress axis : x y z
#
# Youngs Moduli (GPa) = 54.77381 57.80169 142.65239
#
# Poissons Ratio (x) = 0.51988 0.45283
# Poissons Ratio (y) = 0.49265 0.16929
# Poissons Ratio (z) = 0.17387 0.06860
#
# Static dielectric constant tensor:
#      x y z
#    x 1.746350 0.000000 0.000000 
#    y 0.000000 1.946440 0.000000 
#    z 0.000000 0.000000 1.941620 
# 
# From -- ./inp_files/11348.got.cif
#   From: 2010.05.17/outbox.cif.g08.bks.cpg/sg54_6_cif.got.tgz:11348.got - 2010.06.03 13:09:01.
