data_PCOD9423812
_publ_section_title
;
Structure prediction by ZEFSAII (Michael W. Deem and Ramdas Pophale) SiO2 
 PCOD9423812
Probable space group: P C C A
;
_chemical_formula_sum "Si O2"
_cell_formula_units_Z 32
_cell_length_a 5.598446
_cell_length_b 12.594643
_cell_length_c 18.939510
_cell_angle_alpha 90.000000
_cell_angle_beta 90.000000
_cell_angle_gamma 90.000000
_cell_volume 1335.432970
_symmetry_space_group_name_H-M "P C C A"
_symmetry_group_IT_number 54
_symmetry_cell_setting 'orthorhombic'
loop_
_space_group_symop_operation_xyz
x,y,z
1/2-x,-y,z
1/2+x,-y,1/2-z
-x,y,1/2-z
-x,-y,-z
1/2+x,y,-z
1/2-x,y,1/2+z
x,-y,1/2+z
loop_
_atom_site_type_symbol
_atom_site_label
_atom_site_fract_x
_atom_site_fract_y
_atom_site_fract_z
Si Si1 0.311368 0.766207 0.533751
Si Si2 0.250000 0.000000 0.071862
Si Si3 0.250000 0.500000 0.294731
Si Si4 0.113974 0.899616 0.818018
Si Si5 0.053397 0.284239 0.833315
O O1 0.559858 0.729174 0.498251
O O2 0.328314 0.727340 0.615265
O O3 0.327780 0.895325 0.530128
O O4 0.051771 0.047558 0.124182
O O5 0.500000 0.517264 0.250000
O O6 0.310039 0.395208 0.339153
O O7 0.284684 0.815421 0.854105
O O8 0.000000 0.843989 0.750000
O O9 0.250000 0.000000 0.784647
O O10 0.000000 0.272097 0.750000
#
# Coordination Sequence:
#
# PCOD9423812 Si02
#       5
#     8   4   4   8   8
#     4  12  27  45  67 102 145 191 236 288 353 423
#     4  12  24  40  62  94 144 198 238 278 344 436
#     4  10  24  46  76 108 136 180 240 300 354 412
#     4  12  21  36  61 104 141 178 226 292 357 412
#     4  11  24  47  74 102 138 185 239 295 352 421
#
# _framework density 23.962267000000001
#
# number of rings (size 3 to 8) (size 9 to 14) (size 15 to 20)
#    0.000    0.500    3.750    5.250    0.000    6.000 
#    0.000    1.250    0.000    0.000    0.000    0.000 
#    0.000    0.000    0.000    0.000    0.000    0.000 
#
# Total GULP energy -179040.056679 kJ/mol
# GULP energy per Si atom -5595.001771 kJ/mol
# Density = 2.390773 g / cm^3
# Si number density = 23.962267 Si / 1000 Ang^3
#
#
#
# Elastic Constant Matrix: (Units=GPa)
#
#
# Indices 1 2 3 4 5 6 
#
# 1 121.0437 13.6200 46.3345 0.0000 0.0000 0.0000
# 2 13.6200 102.6384 -9.7376 0.0000 0.0000 0.0000
# 3 46.3345 -9.7376 106.4476 0.0000 0.0000 0.0000
# 4 0.0000 0.0000 0.0000 -419.7983 0.0000 0.0000
# 5 0.0000 0.0000 0.0000 0.0000 51.7471 0.0000
# 6 0.0000 0.0000 0.0000 0.0000 0.0000 36.0152
#
#
#
# Elastic Compliance Matrix: (Units=1/GPa)
#
#
# Indices 1 2 3 4 5 6 
#
# 1 0.010231 -0.001796 -0.004618 0.000000 0.000000 0.000000
# 2 -0.001796 0.010143 0.001710 0.000000 0.000000 0.000000
# 3 -0.004618 0.001710 0.011561 0.000000 0.000000 0.000000
# 4 0.000000 0.000000 0.000000 -0.002382 0.000000 0.000000
# 5 0.000000 0.000000 0.000000 0.000000 0.019325 0.000000
# 6 0.000000 0.000000 0.000000 0.000000 0.000000 0.027766
#
#
# Mechanical properties :
#
#
# Convention : Reuss Voigt Hill
#
# Bulk Modulus (GPa) = 44.39025 47.84039 46.11532
# Shear Modulus (GPa) = 53.44115 -47.74634 2.84740
#
# Velocity S-wave (km/s) = 4.72764 -4.46866 1.09127
# Velocity P-wave (km/s) = 6.95458 2.57235 4.56887
#
# Compressibility (1/GPa) = 0.02252747
#
# Stress axis : x y z
#
# Youngs Moduli (GPa) = 97.74075 98.58600 86.50021
#
# Poissons Ratio (x) = 0.17704 0.39943
# Poissons Ratio (y) = 0.17552 -0.14788
# Poissons Ratio (z) = 0.45134 -0.16854
#
# Static dielectric constant tensor:
#      x y z
#    x 2.007840 0.000000 0.000000 
#    y 0.000000 1.869770 0.000000 
#    z 0.000000 0.000000 1.961920 
# 
# From -- ./inp_files/19516.got.cif
#   From: 2010.05.17/outbox.cif.g08.bks.cpg/sg54_10_cif.got.tgz:19516.got - 2010.06.03 13:09:01.
