data_PCOD9423490
_publ_section_title
;
Structure prediction by ZEFSAII (Michael W. Deem and Ramdas Pophale) SiO2 
 PCOD9423490
Probable space group: P C C A
;
_chemical_formula_sum "Si O2"
_cell_formula_units_Z 24
_cell_length_a 4.751682
_cell_length_b 10.139529
_cell_length_c 18.608121
_cell_angle_alpha 90.000000
_cell_angle_beta 90.000000
_cell_angle_gamma 90.000000
_cell_volume 896.535873
_symmetry_space_group_name_H-M "P C C A"
_symmetry_group_IT_number 54
_symmetry_cell_setting 'orthorhombic'
loop_
_space_group_symop_operation_xyz
x,y,z
1/2-x,-y,z
1/2+x,-y,1/2-z
-x,y,1/2-z
-x,-y,-z
1/2+x,y,-z
1/2-x,y,1/2+z
x,-y,1/2+z
loop_
_atom_site_type_symbol
_atom_site_label
_atom_site_fract_x
_atom_site_fract_y
_atom_site_fract_z
Si Si1 0.823198 0.281276 0.952024
Si Si2 0.483245 0.086624 0.640479
Si Si3 0.549596 0.618114 0.167214
O O1 0.714352 0.139869 0.924492
O O2 0.717051 0.368004 0.885754
O O3 0.639768 0.303253 0.024009
O O4 0.622274 0.223551 0.670123
O O5 0.750000 0.000000 0.620627
O O6 0.250000 0.000000 0.684831
O O7 0.750000 0.500000 0.141804
O O8 0.500000 0.585311 0.250000
#
# Coordination Sequence:
#
# PCOD9423490 Si02
#       3
#     8   8   8
#     4  10  23  43  70 104 142 185 240 297 364 433
#     4  10  23  43  70 104 142 185 240 298 364 433
#     4  10  26  46  71 103 143 194 241 301 364 440
#
# _framework density 26.769705999999999
#
# number of rings (size 3 to 8) (size 9 to 14) (size 15 to 20)
#    2.000    0.000    0.000    2.000    0.000   12.000 
#    0.000    0.000    0.000    0.000    0.000    0.000 
#    0.000    0.000    0.000    0.000    0.000    0.000 
#
# Total GULP energy -133755.711011 kJ/mol
# GULP energy per Si atom -5573.154625 kJ/mol
# Density = 2.670878 g / cm^3
# Si number density = 26.769706 Si / 1000 Ang^3
#
#
#
# Elastic Constant Matrix: (Units=GPa)
#
#
# Indices 1 2 3 4 5 6 
#
# 1 127.6633 64.0094 10.1821 0.0000 0.0000 0.0000
# 2 64.0094 202.3469 25.5307 0.0000 0.0000 0.0000
# 3 10.1821 25.5307 74.4314 0.0000 0.0000 0.0000
# 4 0.0000 0.0000 0.0000 30.1568 0.0000 0.0000
# 5 0.0000 0.0000 0.0000 0.0000 15.0070 0.0000
# 6 0.0000 0.0000 0.0000 0.0000 0.0000 58.2891
#
#
#
# Elastic Compliance Matrix: (Units=1/GPa)
#
#
# Indices 1 2 3 4 5 6 
#
# 1 0.009315 -0.002912 -0.000275 0.000000 0.000000 0.000000
# 2 -0.002912 0.006076 -0.001686 0.000000 0.000000 0.000000
# 3 -0.000275 -0.001686 0.014051 0.000000 0.000000 0.000000
# 4 0.000000 0.000000 0.000000 0.033160 0.000000 0.000000
# 5 0.000000 0.000000 0.000000 0.000000 0.066636 0.000000
# 6 0.000000 0.000000 0.000000 0.000000 0.000000 0.017156
#
#
# Mechanical properties :
#
#
# Convention : Reuss Voigt Hill
#
# Bulk Modulus (GPa) = 50.77231 67.09845 58.93538
# Shear Modulus (GPa) = 30.73048 41.00521 35.86784
#
# Velocity S-wave (km/s) = 3.39183 3.91804 3.66439
# Velocity P-wave (km/s) = 5.86062 6.75185 6.32196
#
# Compressibility (1/GPa) = 0.01969578
#
# Stress axis : x y z
#
# Youngs Moduli (GPa) = 107.35266 164.58613 71.16884
#
# Poissons Ratio (x) = 0.47926 0.01960
# Poissons Ratio (y) = 0.31260 0.11997
# Poissons Ratio (z) = 0.02957 0.27745
#
# Static dielectric constant tensor:
#      x y z
#    x 1.952620 0.000000 0.000000 
#    y 0.000000 2.252400 0.000000 
#    z 0.000000 0.000000 2.126220 
# 
# From -- ./inp_files/22541.got.cif
#   From: 2010.05.17/outbox.cif.g08.bks.cpg/sg54_12_cif.got.tgz:22541.got - 2010.06.03 13:09:01.
