data_PCOD9423214
_publ_section_title
;
Structure prediction by ZEFSAII (Michael W. Deem and Ramdas Pophale) SiO2 
 PCOD9423214
Probable space group: P C C A
;
_chemical_formula_sum "Si O2"
_cell_formula_units_Z 60
_cell_length_a 15.738346
_cell_length_b 11.553102
_cell_length_c 17.232896
_cell_angle_alpha 90.000000
_cell_angle_beta 90.000000
_cell_angle_gamma 90.000000
_cell_volume 3133.400898
_symmetry_space_group_name_H-M "P C C A"
_symmetry_group_IT_number 54
_symmetry_cell_setting 'orthorhombic'
loop_
_space_group_symop_operation_xyz
x,y,z
1/2-x,-y,z
1/2+x,-y,1/2-z
-x,y,1/2-z
-x,-y,-z
1/2+x,y,-z
1/2-x,y,1/2+z
x,-y,1/2+z
loop_
_atom_site_type_symbol
_atom_site_label
_atom_site_fract_x
_atom_site_fract_y
_atom_site_fract_z
Si Si1 0.549021 0.076809 0.174021
Si Si2 0.659209 0.281622 0.249282
Si Si3 0.801679 0.672661 0.631306
Si Si4 0.750000 0.500000 0.005344
Si Si5 0.069428 0.559670 0.053104
Si Si6 0.335189 0.924382 0.436515
Si Si7 0.446197 0.501849 0.313067
Si Si8 0.606334 0.194838 0.413333
O O1 0.500000 0.026063 0.250000
O O2 0.616854 0.170611 0.206533
O O3 0.477061 0.144739 0.126863
O O4 0.593741 0.990081 0.114361
O O5 0.749094 0.312483 0.210721
O O6 0.602771 0.393527 0.225791
O O7 0.660587 0.247665 0.340667
O O8 0.747216 0.609974 0.563485
O O9 0.823112 0.800009 0.602985
O O10 0.880124 0.585510 0.644575
O O11 0.836772 0.494371 0.956016
O O12 0.081775 0.694259 0.035380
O O13 0.020261 0.549895 0.133611
O O14 0.000000 0.500000 0.000000
O O15 0.355528 0.898456 0.527224
O O16 0.250000 0.000000 0.431568
O O17 0.500000 0.572475 0.250000
#
# Coordination Sequence:
#
# PCOD9423214 Si02
#       8
#     8   8   8   4   8   8   8   8
#     4  10  22  43  73  94 125 181 231 275 336 402
#     4  11  20  42  71  96 128 182 227 270 338 421
#     4  12  24  42  67  97 133 183 223 275 350 411
#     4  12  24  38  66  98 140 180 232 278 358 412
#     4  12  22  39  65  98 138 173 222 276 337 423
#     4  12  25  45  66  97 140 174 227 290 343 391
#     4  12  22  40  68 100 139 173 218 283 343 409
#     4  11  23  42  67  99 131 176 231 271 340 413
#
# _framework density 19.148522
#
# number of rings (size 3 to 8) (size 9 to 14) (size 15 to 20)
#    0.000    0.533    8.000    0.800    0.000    1.600 
#    4.800    0.000    0.000    0.000    0.000    0.000 
#    0.000    0.000    0.000    0.000    0.000    0.000 
#
# Total GULP energy -334580.967875 kJ/mol
# GULP energy per Si atom -5576.349465 kJ/mol
# Density = 1.910494 g / cm^3
# Si number density = 19.148522 Si / 1000 Ang^3
#
#
#
# Elastic Constant Matrix: (Units=GPa)
#
#
# Indices 1 2 3 4 5 6 
#
# 1 102.5820 36.7901 40.9053 0.0000 0.0000 0.0000
# 2 36.7901 98.5244 39.9031 0.0000 0.0000 0.0000
# 3 40.9053 39.9031 87.8119 0.0000 0.0000 0.0000
# 4 0.0000 0.0000 0.0000 37.4659 0.0000 0.0000
# 5 0.0000 0.0000 0.0000 0.0000 23.8021 0.0000
# 6 0.0000 0.0000 0.0000 0.0000 0.0000 25.5991
#
#
#
# Elastic Compliance Matrix: (Units=1/GPa)
#
#
# Indices 1 2 3 4 5 6 
#
# 1 0.012594 -0.002851 -0.004571 0.000000 0.000000 0.000000
# 2 -0.002851 0.013085 -0.004618 0.000000 0.000000 0.000000
# 3 -0.004571 -0.004618 0.015615 0.000000 0.000000 0.000000
# 4 0.000000 0.000000 0.000000 0.026691 0.000000 0.000000
# 5 0.000000 0.000000 0.000000 0.000000 0.042013 0.000000
# 6 0.000000 0.000000 0.000000 0.000000 0.000000 0.039064
#
#
# Mechanical properties :
#
#
# Convention : Reuss Voigt Hill
#
# Bulk Modulus (GPa) = 58.09148 58.23503 58.16325
# Shear Modulus (GPa) = 27.95182 28.79472 28.37327
#
# Velocity S-wave (km/s) = 3.82480 3.88204 3.85352
# Velocity P-wave (km/s) = 7.06460 7.11139 7.08804
#
# Compressibility (1/GPa) = 0.01721423
#
# Stress axis : x y z
#
# Youngs Moduli (GPa) = 79.40588 76.42520 64.03905
#
# Poissons Ratio (x) = 0.21792 0.29270
# Poissons Ratio (y) = 0.22642 0.29571
# Poissons Ratio (z) = 0.36294 0.35290
#
# Static dielectric constant tensor:
#      x y z
#    x 1.637910 0.000000 0.000000 
#    y 0.000000 1.645440 0.000000 
#    z 0.000000 0.000000 1.799660 
# 
# From -- ./inp_files/18196.got.cif
#   From: 2010.05.17/outbox.cif.g08.bks.cpg/sg54_10_cif.got.tgz:18196.got - 2010.06.03 13:09:01.
