data_PCOD9423452
_publ_section_title
;
Structure prediction by ZEFSAII (Michael W. Deem and Ramdas Pophale) SiO2 
 PCOD9423452
Probable space group: P C C A
;
_chemical_formula_sum "Si O2"
_cell_formula_units_Z 64
_cell_length_a 15.372923
_cell_length_b 21.125968
_cell_length_c 9.211311
_cell_angle_alpha 90.000000
_cell_angle_beta 90.000000
_cell_angle_gamma 90.000000
_cell_volume 2991.537940
_symmetry_space_group_name_H-M "P C C A"
_symmetry_group_IT_number 54
_symmetry_cell_setting 'orthorhombic'
loop_
_space_group_symop_operation_xyz
x,y,z
1/2-x,-y,z
1/2+x,-y,1/2-z
-x,y,1/2-z
-x,-y,-z
1/2+x,y,-z
1/2-x,y,1/2+z
x,-y,1/2+z
loop_
_atom_site_type_symbol
_atom_site_label
_atom_site_fract_x
_atom_site_fract_y
_atom_site_fract_z
Si Si1 0.097085 0.973919 0.755637
Si Si2 0.095170 0.190929 0.750838
Si Si3 0.650792 0.860689 0.437885
Si Si4 0.231325 0.739266 0.663711
Si Si5 0.341390 0.080094 0.062254
Si Si6 0.610124 0.559370 0.606166
Si Si7 0.416581 0.427449 0.051787
Si Si8 0.270899 0.653635 0.417318
O O1 0.097993 0.913245 0.649519
O O2 0.000000 0.001208 0.750000
O O3 0.158744 0.027166 0.687606
O O4 0.124027 0.951814 0.915504
O O5 0.173856 0.237789 0.714757
O O6 0.100609 0.136902 0.626741
O O7 0.000000 0.221278 0.750000
O O8 0.112337 0.159398 0.907727
O O9 0.667361 0.799112 0.336703
O O10 0.746249 0.890919 0.463847
O O11 0.238253 0.715916 0.499680
O O12 0.206669 0.677962 0.757216
O O13 0.611105 0.488718 0.541843
O O14 0.600736 0.557321 0.779879
O O15 0.519566 0.586537 0.540914
O O16 0.695364 0.600977 0.576379
O O17 0.355668 0.371443 0.998556
#
# Coordination Sequence:
#
# PCOD9423452 Si02
#       8
#     8   8   8   8   8   8   8   8
#     4  12  24  40  64  96 126 156 206 261 320 381
#     4  11  23  43  68  90 125 169 215 271 328 375
#     4  11  24  44  62  90 125 168 211 259 316 383
#     4  11  25  42  64  91 129 168 225 261 316 389
#     4  11  23  40  65  92 126 163 207 258 319 392
#     4  10  23  42  66  98 131 171 213 270 327 397
#     4  10  23  42  67  97 133 168 217 265 333 389
#     4  12  23  43  67  94 130 176 218 273 317 390
#
# _framework density 21.393678999999999
#
# number of rings (size 3 to 8) (size 9 to 14) (size 15 to 20)
#    0.000    1.000    2.500    4.500    3.500    3.000 
#    0.000    0.000    0.000    0.000    0.000    0.000 
#    0.000    0.000    0.000    0.000    0.000    0.000 
#
# Total GULP energy -357941.304790 kJ/mol
# GULP energy per Si atom -5592.832887 kJ/mol
# Density = 2.134499 g / cm^3
# Si number density = 21.393679 Si / 1000 Ang^3
#
#
#
# Elastic Constant Matrix: (Units=GPa)
#
#
# Indices 1 2 3 4 5 6 
#
# 1 53.2944 8.8051 15.1323 0.0000 0.0000 0.0000
# 2 8.8051 41.4394 4.8679 0.0000 0.0000 0.0000
# 3 15.1323 4.8679 84.2689 0.0000 0.0000 0.0000
# 4 0.0000 0.0000 0.0000 34.2800 0.0000 0.0000
# 5 0.0000 0.0000 0.0000 0.0000 0.6103 0.0000
# 6 0.0000 0.0000 0.0000 0.0000 0.0000 22.0706
#
#
#
# Elastic Compliance Matrix: (Units=1/GPa)
#
#
# Indices 1 2 3 4 5 6 
#
# 1 0.020388 -0.003929 -0.003434 0.000000 0.000000 0.000000
# 2 -0.003929 0.025054 -0.000742 0.000000 0.000000 0.000000
# 3 -0.003434 -0.000742 0.012526 0.000000 0.000000 0.000000
# 4 0.000000 0.000000 0.000000 0.029172 0.000000 0.000000
# 5 0.000000 0.000000 0.000000 0.000000 1.638544 0.000000
# 6 0.000000 0.000000 0.000000 0.000000 0.000000 0.045309
#
#
# Mechanical properties :
#
#
# Convention : Reuss Voigt Hill
#
# Bulk Modulus (GPa) = 23.94718 26.29038 25.11878
# Shear Modulus (GPa) = 2.77605 21.40534 12.09069
#
# Velocity S-wave (km/s) = 1.14036 3.16657 2.37987
# Velocity P-wave (km/s) = 3.59886 5.06805 4.39527
#
# Compressibility (1/GPa) = 0.04175856
#
# Stress axis : x y z
#
# Youngs Moduli (GPa) = 49.04887 39.91458 79.83207
#
# Poissons Ratio (x) = 0.15681 0.27415
# Poissons Ratio (y) = 0.19269 0.05922
# Poissons Ratio (z) = 0.16844 0.02961
#
# Static dielectric constant tensor:
#      x y z
#    x 1.762970 0.000000 0.000000 
#    y 0.000000 1.758010 0.000000 
#    z 0.000000 0.000000 1.753830 
# 
# From -- ./inp_files/3744.got.cif
#   From: 2010.05.17/outbox.cif.g08.bks.cpg/sg54_2_cif.got.tgz:3744.got - 2010.06.03 13:09:01.
