data_PCOD9423546
_publ_section_title
;
Structure prediction by ZEFSAII (Michael W. Deem and Ramdas Pophale) SiO2 
 PCOD9423546
Probable space group: P C C A
;
_chemical_formula_sum "Si O2"
_cell_formula_units_Z 32
_cell_length_a 11.600454
_cell_length_b 13.810528
_cell_length_c 8.067517
_cell_angle_alpha 90.000000
_cell_angle_beta 90.000000
_cell_angle_gamma 90.000000
_cell_volume 1292.483948
_symmetry_space_group_name_H-M "P C C A"
_symmetry_group_IT_number 54
_symmetry_cell_setting 'orthorhombic'
loop_
_space_group_symop_operation_xyz
x,y,z
1/2-x,-y,z
1/2+x,-y,1/2-z
-x,y,1/2-z
-x,-y,-z
1/2+x,y,-z
1/2-x,y,1/2+z
x,-y,1/2+z
loop_
_atom_site_type_symbol
_atom_site_label
_atom_site_fract_x
_atom_site_fract_y
_atom_site_fract_z
Si Si1 0.840004 0.412813 0.995564
Si Si2 0.000000 0.155658 0.250000
Si Si3 0.500000 0.475623 0.750000
Si Si4 0.085906 0.223941 0.603568
Si Si5 0.875350 0.007438 0.909012
O O1 0.750000 0.500000 0.998907
O O2 0.940762 0.453373 0.879548
O O3 0.816290 0.305395 0.928677
O O4 0.898013 0.411187 0.175746
O O5 0.024373 0.210998 0.422820
O O6 0.891807 0.083155 0.284937
O O7 0.124740 0.116976 0.658367
O O8 0.000000 0.255603 0.750000
O O9 0.750000 0.000000 0.993098
O O10 0.000000 0.000000 0.000000
#
# Coordination Sequence:
#
# PCOD9423546 Si02
#       5
#     8   4   4   8   8
#     4  11  23  46  72 103 143 198 253 323 390 466
#     4  10  23  45  74 112 156 200 261 327 394 482
#     4  10  23  45  68  96 150 174 253 325 380 450
#     4  11  23  47  76 109 147 205 257 321 404 472
#     4  10  23  47  74 115 163 208 261 329 396 480
#
# _framework density 24.758527000000001
#
# number of rings (size 3 to 8) (size 9 to 14) (size 15 to 20)
#    0.000    1.500    2.500    1.500    0.000    4.000 
#   27.000    0.000    0.000    0.000    0.000    0.000 
#    0.000    0.000    0.000    0.000    0.000    0.000 
#
# Total GULP energy -178299.517984 kJ/mol
# GULP energy per Si atom -5571.859937 kJ/mol
# Density = 2.470218 g / cm^3
# Si number density = 24.758527 Si / 1000 Ang^3
#
#
#
# Elastic Constant Matrix: (Units=GPa)
#
#
# Indices 1 2 3 4 5 6 
#
# 1 131.1035 37.0521 36.1655 0.0000 0.0000 0.0000
# 2 37.0521 165.4431 23.1259 0.0000 0.0000 0.0000
# 3 36.1655 23.1259 117.1149 0.0000 0.0000 0.0000
# 4 0.0000 0.0000 0.0000 -25.8662 0.0000 0.0000
# 5 0.0000 0.0000 0.0000 0.0000 23.9080 0.0000
# 6 0.0000 0.0000 0.0000 0.0000 0.0000 49.5793
#
#
#
# Elastic Compliance Matrix: (Units=1/GPa)
#
#
# Indices 1 2 3 4 5 6 
#
# 1 0.008743 -0.001626 -0.002379 0.000000 0.000000 0.000000
# 2 -0.001626 0.006518 -0.000785 0.000000 0.000000 0.000000
# 3 -0.002379 -0.000785 0.009428 0.000000 0.000000 0.000000
# 4 0.000000 0.000000 0.000000 -0.038660 0.000000 0.000000
# 5 0.000000 0.000000 0.000000 0.000000 0.041827 0.000000
# 6 0.000000 0.000000 0.000000 0.000000 0.000000 0.020170
#
#
# Mechanical properties :
#
#
# Convention : Reuss Voigt Hill
#
# Bulk Modulus (GPa) = 66.17958 67.37207 66.77582
# Shear Modulus (GPa) = 79.81868 30.67876 55.24872
#
# Velocity S-wave (km/s) = 5.68409 3.52393 4.72900
# Velocity P-wave (km/s) = 8.35862 6.62029 7.53972
#
# Compressibility (1/GPa) = 0.01511040
#
# Stress axis : x y z
#
# Youngs Moduli (GPa) = 114.37434 153.41718 106.06388
#
# Poissons Ratio (x) = 0.24939 0.25232
# Poissons Ratio (y) = 0.18592 0.08327
# Poissons Ratio (z) = 0.27209 0.12045
#
# Static dielectric constant tensor:
#      x y z
#    x 1.972250 0.000000 0.000000 
#    y 0.000000 1.992300 0.000000 
#    z 0.000000 0.000000 2.148020 
# 
# From -- ./inp_files/2869.got.cif
#   From: 2010.05.17/outbox.cif.g08.bks.cpg/sg54_2_cif.got.tgz:2869.got - 2010.06.03 13:09:01.
