data_PCOD9423008
_publ_section_title
;
Structure prediction by ZEFSAII (Michael W. Deem and Ramdas Pophale) SiO2 
 PCOD9423008
Probable space group: P C C A
;
_chemical_formula_sum "Si O2"
_cell_formula_units_Z 28
_cell_length_a 7.450629
_cell_length_b 10.276406
_cell_length_c 17.391454
_cell_angle_alpha 90.000000
_cell_angle_beta 90.000000
_cell_angle_gamma 90.000000
_cell_volume 1331.588651
_symmetry_space_group_name_H-M "P C C A"
_symmetry_group_IT_number 54
_symmetry_cell_setting 'orthorhombic'
loop_
_space_group_symop_operation_xyz
x,y,z
1/2-x,-y,z
1/2+x,-y,1/2-z
-x,y,1/2-z
-x,-y,-z
1/2+x,y,-z
1/2-x,y,1/2+z
x,-y,1/2+z
loop_
_atom_site_type_symbol
_atom_site_label
_atom_site_fract_x
_atom_site_fract_y
_atom_site_fract_z
Si Si1 0.655252 0.124357 0.690736
Si Si2 0.962187 0.624217 0.410257
Si Si3 0.000000 0.252673 0.750000
Si Si4 0.538981 0.326778 0.925001
O O1 0.500000 0.085050 0.750000
O O2 0.812935 0.176512 0.746680
O O3 0.431855 0.228592 0.869124
O O4 0.750000 0.000000 0.650598
O O5 0.030031 0.475875 0.419847
O O6 0.748308 0.650119 0.407228
O O7 0.022632 0.666421 0.327102
O O8 0.027091 0.705489 0.484267
#
# Coordination Sequence:
#
# PCOD9423008 Si02
#       4
#     8   8   4   8
#     4  12  25  45  68  98 139 188 240 286 341 423
#     4  10  22  40  68 102 140 178 225 300 362 417
#     4  12  24  40  70 100 136 176 232 296 354 410
#     4  10  22  42  66 100 142 182 231 289 360 424
#
# _framework density 21.027514
#
# number of rings (size 3 to 8) (size 9 to 14) (size 15 to 20)
#    0.000    1.143    4.286    1.714    2.000    3.429 
#    0.000    7.143    0.000    0.000    0.000    0.000 
#    0.000    0.000    0.000    0.000    0.000    0.000 
#
# Total GULP energy -155963.871345 kJ/mol
# GULP energy per Si atom -5570.138262 kJ/mol
# Density = 2.097965 g / cm^3
# Si number density = 21.027514 Si / 1000 Ang^3
#
#
#
# Elastic Constant Matrix: (Units=GPa)
#
#
# Indices 1 2 3 4 5 6 
#
# 1 83.7902 36.6950 38.6392 0.0000 0.0000 0.0000
# 2 36.6950 98.3395 61.5780 0.0000 0.0000 0.0000
# 3 38.6392 61.5780 121.7875 0.0000 0.0000 0.0000
# 4 0.0000 0.0000 0.0000 197.1678 0.0000 0.0000
# 5 0.0000 0.0000 0.0000 0.0000 36.1552 0.0000
# 6 0.0000 0.0000 0.0000 0.0000 0.0000 34.5828
#
#
#
# Elastic Compliance Matrix: (Units=1/GPa)
#
#
# Indices 1 2 3 4 5 6 
#
# 1 0.014892 -0.003802 -0.002802 0.000000 0.000000 0.000000
# 2 -0.003802 0.015851 -0.006808 0.000000 0.000000 0.000000
# 3 -0.002802 -0.006808 0.012542 0.000000 0.000000 0.000000
# 4 0.000000 0.000000 0.000000 0.005072 0.000000 0.000000
# 5 0.000000 0.000000 0.000000 0.000000 0.027659 0.000000
# 6 0.000000 0.000000 0.000000 0.000000 0.000000 0.028916
#
#
# Mechanical properties :
#
#
# Convention : Reuss Voigt Hill
#
# Bulk Modulus (GPa) = 60.75351 64.19351 62.47351
# Shear Modulus (GPa) = 36.43168 64.71483 50.57325
#
# Velocity S-wave (km/s) = 4.16693 5.55365 4.90950
# Velocity P-wave (km/s) = 7.21846 8.46869 7.86845
#
# Compressibility (1/GPa) = 0.01645996
#
# Stress axis : x y z
#
# Youngs Moduli (GPa) = 67.15043 63.08879 79.72961
#
# Poissons Ratio (x) = 0.23987 0.22343
# Poissons Ratio (y) = 0.25531 0.54281
# Poissons Ratio (z) = 0.18818 0.42951
#
# Static dielectric constant tensor:
#      x y z
#    x 1.822850 0.000000 0.000000 
#    y 0.000000 1.817970 0.000000 
#    z 0.000000 0.000000 1.769860 
# 
# From -- ./inp_files/11164.got.cif
#   From: 2010.05.17/outbox.cif.g08.bks.cpg/sg54_6_cif.got.tgz:11164.got - 2010.06.03 13:09:01.
