data_PCOD9423672
_publ_section_title
;
Structure prediction by ZEFSAII (Michael W. Deem and Ramdas Pophale) SiO2 
 PCOD9423672
Probable space group: P C C A
;
_chemical_formula_sum "Si O2"
_cell_formula_units_Z 28
_cell_length_a 7.714016
_cell_length_b 10.942638
_cell_length_c 13.772054
_cell_angle_alpha 90.000000
_cell_angle_beta 90.000000
_cell_angle_gamma 90.000000
_cell_volume 1162.522279
_symmetry_space_group_name_H-M "P C C A"
_symmetry_group_IT_number 54
_symmetry_cell_setting 'orthorhombic'
loop_
_space_group_symop_operation_xyz
x,y,z
1/2-x,-y,z
1/2+x,-y,1/2-z
-x,y,1/2-z
-x,-y,-z
1/2+x,y,-z
1/2-x,y,1/2+z
x,-y,1/2+z
loop_
_atom_site_type_symbol
_atom_site_label
_atom_site_fract_x
_atom_site_fract_y
_atom_site_fract_z
Si Si1 0.182149 0.327332 0.291906
Si Si2 0.250000 0.500000 0.962564
Si Si3 0.782241 0.142652 0.573059
Si Si4 0.625627 0.712386 0.904954
O O1 0.282186 0.398174 0.378514
O O2 0.150370 0.199413 0.347074
O O3 0.302885 0.318832 0.199670
O O4 0.000000 0.377767 0.250000
O O5 0.373538 0.417733 0.033910
O O6 0.758528 0.208806 0.469823
O O7 0.970072 0.190572 0.604969
O O8 0.750000 0.000000 0.565303
#
# Coordination Sequence:
#
# PCOD9423672 Si02
#       4
#     8   4   8   8
#     4  11  25  42  66 102 141 185 237 294 362 432
#     4  10  24  42  68 100 140 184 232 288 358 432
#     4  11  25  44  68 100 137 186 243 298 359 427
#     4  11  23  43  69 100 142 189 238 296 364 433
#
# _framework density 24.085560999999998
#
# number of rings (size 3 to 8) (size 9 to 14) (size 15 to 20)
#    0.000    1.143    0.000    6.000    0.000   18.286 
#    0.000    0.000    0.000    0.000    0.000    0.000 
#    0.000    0.000    0.000    0.000    0.000    0.000 
#
# Total GULP energy -155914.743538 kJ/mol
# GULP energy per Si atom -5568.383698 kJ/mol
# Density = 2.403074 g / cm^3
# Si number density = 24.085561 Si / 1000 Ang^3
#
#
#
# Elastic Constant Matrix: (Units=GPa)
#
#
# Indices 1 2 3 4 5 6 
#
# 1 102.7240 44.3925 51.4146 0.0000 0.0000 0.0000
# 2 44.3925 171.1292 59.7417 0.0000 0.0000 0.0000
# 3 51.4146 59.7417 199.1721 0.0000 0.0000 0.0000
# 4 0.0000 0.0000 0.0000 20.4712 0.0000 0.0000
# 5 0.0000 0.0000 0.0000 0.0000 54.7584 0.0000
# 6 0.0000 0.0000 0.0000 0.0000 0.0000 29.3659
#
#
#
# Elastic Compliance Matrix: (Units=1/GPa)
#
#
# Indices 1 2 3 4 5 6 
#
# 1 0.011908 -0.002252 -0.002399 0.000000 0.000000 0.000000
# 2 -0.002252 0.006953 -0.001504 0.000000 0.000000 0.000000
# 3 -0.002399 -0.001504 0.006091 0.000000 0.000000 0.000000
# 4 0.000000 0.000000 0.000000 0.048849 0.000000 0.000000
# 5 0.000000 0.000000 0.000000 0.000000 0.018262 0.000000
# 6 0.000000 0.000000 0.000000 0.000000 0.000000 0.034053
#
#
# Mechanical properties :
#
#
# Convention : Reuss Voigt Hill
#
# Bulk Modulus (GPa) = 79.09429 87.12477 83.10953
# Shear Modulus (GPa) = 35.05316 42.08419 38.56867
#
# Velocity S-wave (km/s) = 3.81906 4.18458 4.00599
# Velocity P-wave (km/s) = 7.23582 7.72005 7.48185
#
# Compressibility (1/GPa) = 0.01264314
#
# Stress axis : x y z
#
# Youngs Moduli (GPa) = 83.97365 143.82692 164.17218
#
# Poissons Ratio (x) = 0.32387 0.39379
# Poissons Ratio (y) = 0.18909 0.24695
# Poissons Ratio (z) = 0.20142 0.21635
#
# Static dielectric constant tensor:
#      x y z
#    x 2.083810 0.000000 0.000000 
#    y 0.000000 2.052000 0.000000 
#    z 0.000000 0.000000 1.880820 
# 
# From -- ./inp_files/11185.got.cif
#   From: 2010.05.17/outbox.cif.g08.bks.cpg/sg54_6_cif.got.tgz:11185.got - 2010.06.03 13:09:01.
