data_PCOD9423787
_publ_section_title
;
Structure prediction by ZEFSAII (Michael W. Deem and Ramdas Pophale) SiO2 
 PCOD9423787
Probable space group: P C C A
;
_chemical_formula_sum "Si O2"
_cell_formula_units_Z 36
_cell_length_a 8.858349
_cell_length_b 18.209732
_cell_length_c 9.859928
_cell_angle_alpha 90.000000
_cell_angle_beta 90.000000
_cell_angle_gamma 90.000000
_cell_volume 1590.486856
_symmetry_space_group_name_H-M "P C C A"
_symmetry_group_IT_number 54
_symmetry_cell_setting 'orthorhombic'
loop_
_space_group_symop_operation_xyz
x,y,z
1/2-x,-y,z
1/2+x,-y,1/2-z
-x,y,1/2-z
-x,-y,-z
1/2+x,y,-z
1/2-x,y,1/2+z
x,-y,1/2+z
loop_
_atom_site_type_symbol
_atom_site_label
_atom_site_fract_x
_atom_site_fract_y
_atom_site_fract_z
Si Si1 0.250000 0.500000 0.011388
Si Si2 0.313782 0.171442 0.976843
Si Si3 0.942364 0.733702 0.094688
Si Si4 0.315368 0.079599 0.237373
Si Si5 0.508734 0.602979 0.102767
O O1 0.377478 0.541378 0.097488
O O2 0.335551 0.439249 0.922578
O O3 0.480924 0.200270 0.008629
O O4 0.271966 0.138003 0.122393
O O5 0.230895 0.244313 0.921230
O O6 0.270089 0.108370 0.871168
O O7 0.000000 0.734188 0.250000
O O8 0.980252 0.658572 0.020062
O O9 0.500000 0.077610 0.250000
O O10 0.250000 0.000000 0.202461
O O11 0.500000 0.639663 0.250000
#
# Coordination Sequence:
#
# PCOD9423787 Si02
#       5
#     4   8   8   8   8
#     4  10  24  46  68 106 150 174 230 296 342 416
#     4  12  24  48  70  98 148 178 234 292 348 406
#     4  12  27  47  67 105 141 186 238 291 341 418
#     4  12  28  48  72 108 138 181 234 290 348 419
#     4  11  25  43  74 105 139 188 235 282 354 410
#
# _framework density 22.634578999999999
#
# number of rings (size 3 to 8) (size 9 to 14) (size 15 to 20)
#    0.000    0.444    4.444    2.667    6.222   10.667 
#    0.000    0.000    0.000    0.000    0.000    0.000 
#    0.000    0.000    0.000    0.000    0.000    0.000 
#
# Total GULP energy -201160.112588 kJ/mol
# GULP energy per Si atom -5587.780905 kJ/mol
# Density = 2.258306 g / cm^3
# Si number density = 22.634579 Si / 1000 Ang^3
#
#
#
# Elastic Constant Matrix: (Units=GPa)
#
#
# Indices 1 2 3 4 5 6 
#
# 1 67.4333 13.8987 24.1807 0.0000 0.0000 0.0000
# 2 13.8987 83.1278 12.9257 0.0000 0.0000 0.0000
# 3 24.1807 12.9257 107.2847 0.0000 0.0000 0.0000
# 4 0.0000 0.0000 0.0000 25.6769 0.0000 0.0000
# 5 0.0000 0.0000 0.0000 0.0000 16.9495 0.0000
# 6 0.0000 0.0000 0.0000 0.0000 0.0000 25.9779
#
#
#
# Elastic Compliance Matrix: (Units=1/GPa)
#
#
# Indices 1 2 3 4 5 6 
#
# 1 0.016528 -0.002226 -0.003457 0.000000 0.000000 0.000000
# 2 -0.002226 0.012559 -0.001011 0.000000 0.000000 0.000000
# 3 -0.003457 -0.001011 0.010222 0.000000 0.000000 0.000000
# 4 0.000000 0.000000 0.000000 0.038946 0.000000 0.000000
# 5 0.000000 0.000000 0.000000 0.000000 0.058999 0.000000
# 6 0.000000 0.000000 0.000000 0.000000 0.000000 0.038494
#
#
# Mechanical properties :
#
#
# Convention : Reuss Voigt Hill
#
# Bulk Modulus (GPa) = 38.57973 39.98400 39.28186
# Shear Modulus (GPa) = 25.28105 27.51022 26.39564
#
# Velocity S-wave (km/s) = 3.34566 3.49005 3.41862
# Velocity P-wave (km/s) = 5.65740 5.82614 5.74239
#
# Compressibility (1/GPa) = 0.02592035
#
# Stress axis : x y z
#
# Youngs Moduli (GPa) = 60.50385 79.62353 97.82799
#
# Poissons Ratio (x) = 0.17723 0.33819
# Poissons Ratio (y) = 0.13467 0.09895
# Poissons Ratio (z) = 0.20916 0.08053
#
# Static dielectric constant tensor:
#      x y z
#    x 1.898390 0.000000 0.000000 
#    y 0.000000 1.821120 0.000000 
#    z 0.000000 0.000000 1.826720 
# 
# From -- ./inp_files/2493.got.cif
#   From: 2010.05.17/outbox.cif.g08.bks.cpg/sg54_2_cif.got.tgz:2493.got - 2010.06.03 13:09:01.
