data_PCOD9423638
_publ_section_title
;
Structure prediction by ZEFSAII (Michael W. Deem and Ramdas Pophale) SiO2 
 PCOD9423638
Probable space group: P C C A
;
_chemical_formula_sum "Si O2"
_cell_formula_units_Z 36
_cell_length_a 14.280765
_cell_length_b 4.863490
_cell_length_c 18.446477
_cell_angle_alpha 90.000000
_cell_angle_beta 90.000000
_cell_angle_gamma 90.000000
_cell_volume 1281.188213
_symmetry_space_group_name_H-M "P C C A"
_symmetry_group_IT_number 54
_symmetry_cell_setting 'orthorhombic'
loop_
_space_group_symop_operation_xyz
x,y,z
1/2-x,-y,z
1/2+x,-y,1/2-z
-x,y,1/2-z
-x,-y,-z
1/2+x,y,-z
1/2-x,y,1/2+z
x,-y,1/2+z
loop_
_atom_site_type_symbol
_atom_site_label
_atom_site_fract_x
_atom_site_fract_y
_atom_site_fract_z
Si Si1 0.250000 0.000000 0.940906
Si Si2 0.600497 0.409551 0.627105
Si Si3 0.431620 0.732433 0.012835
Si Si4 0.844299 0.117449 0.340744
Si Si5 0.000000 0.055049 0.250000
Si Si6 0.750000 0.500000 0.221509
O O1 0.179373 0.798942 0.899703
O O2 0.326389 0.814992 0.982478
O O3 0.546768 0.509907 0.553900
O O4 0.542911 0.252077 0.688332
O O5 0.664615 0.622583 0.672504
O O6 0.398035 0.718559 0.096881
O O7 0.500000 0.000000 0.000000
O O8 0.800333 0.290213 0.275189
O O9 0.919327 0.915867 0.299827
O O10 0.750000 0.000000 0.375325
#
# Coordination Sequence:
#
# PCOD9423638 Si02
#       6
#     4   8   8   8   4   4
#     4  12  26  46  76 104 156 210 264 330 414 494
#     4  11  24  47  71 106 148 199 256 326 399 482
#     4  12  25  47  73 109 150 207 267 331 402 497
#     4  11  25  46  73 107 153 200 255 327 403 490
#     4  10  24  46  68 110 148 188 262 316 402 488
#     4  10  24  40  72 100 144 202 242 318 402 470
#
# _framework density 28.098914000000001
#
# number of rings (size 3 to 8) (size 9 to 14) (size 15 to 20)
#    0.000    0.889    5.556    0.000    9.333    0.889 
#    4.000    5.556    0.000    0.000    0.000    0.000 
#    0.000    0.000    0.000    0.000    0.000    0.000 
#
# Total GULP energy -200787.359463 kJ/mol
# GULP energy per Si atom -5577.426652 kJ/mol
# Density = 2.803496 g / cm^3
# Si number density = 28.098914 Si / 1000 Ang^3
#
#
#
# Elastic Constant Matrix: (Units=GPa)
#
#
# Indices 1 2 3 4 5 6 
#
# 1 102.3769 -22.7285 58.0412 0.0000 0.0000 0.0000
# 2 -22.7285 38.8416 5.7438 0.0000 0.0000 0.0000
# 3 58.0412 5.7438 170.4948 0.0000 0.0000 0.0000
# 4 0.0000 0.0000 0.0000 115.5936 0.0000 0.0000
# 5 0.0000 0.0000 0.0000 0.0000 89.5238 0.0000
# 6 0.0000 0.0000 0.0000 0.0000 0.0000 -159.8117
#
#
#
# Elastic Compliance Matrix: (Units=1/GPa)
#
#
# Indices 1 2 3 4 5 6 
#
# 1 0.014958 0.009554 -0.005414 0.000000 0.000000 0.000000
# 2 0.009554 0.031976 -0.004330 0.000000 0.000000 0.000000
# 3 -0.005414 -0.004330 0.007854 0.000000 0.000000 0.000000
# 4 0.000000 0.000000 0.000000 0.008651 0.000000 0.000000
# 5 0.000000 0.000000 0.000000 0.000000 0.011170 0.000000
# 6 0.000000 0.000000 0.000000 0.000000 0.000000 -0.006257
#
#
# Mechanical properties :
#
#
# Convention : Reuss Voigt Hill
#
# Bulk Modulus (GPa) = 18.37945 43.75847 31.06896
# Shear Modulus (GPa) = 57.55809 27.10491 42.33150
#
# Velocity S-wave (km/s) = 4.53085 3.10921 3.88560
# Velocity P-wave (km/s) = 5.82465 5.33820 5.58673
#
# Compressibility (1/GPa) = 0.05440860
#
# Stress axis : x y z
#
# Youngs Moduli (GPa) = 66.85289 31.27325 127.31991
#
# Poissons Ratio (x) = -0.29877 0.68932
# Poissons Ratio (y) = -0.63868 0.55124
# Poissons Ratio (z) = 0.36194 0.13540
#
# Static dielectric constant tensor:
#      x y z
#    x -0.519350 0.000000 0.000000 
#    y 0.000000 2.480470 0.000000 
#    z 0.000000 0.000000 2.293120 
# 
# From -- ./inp_files/17796.got.cif
#   From: 2010.05.17/outbox.cif.g08.bks.cpg/sg54_9_cif.got.tgz:17796.got - 2010.06.03 13:09:01.
