data_PCOD9423036
_publ_section_title
;
Structure prediction by ZEFSAII (Michael W. Deem and Ramdas Pophale) SiO2 
 PCOD9423036
Probable space group: P C C A
;
_chemical_formula_sum "Si O2"
_cell_formula_units_Z 32
_cell_length_a 10.395365
_cell_length_b 5.771890
_cell_length_c 22.861230
_cell_angle_alpha 90.000000
_cell_angle_beta 90.000000
_cell_angle_gamma 90.000000
_cell_volume 1371.694450
_symmetry_space_group_name_H-M "P C C A"
_symmetry_group_IT_number 54
_symmetry_cell_setting 'orthorhombic'
loop_
_space_group_symop_operation_xyz
x,y,z
1/2-x,-y,z
1/2+x,-y,1/2-z
-x,y,1/2-z
-x,-y,-z
1/2+x,y,-z
1/2-x,y,1/2+z
x,-y,1/2+z
loop_
_atom_site_type_symbol
_atom_site_label
_atom_site_fract_x
_atom_site_fract_y
_atom_site_fract_z
Si Si1 0.389612 0.386378 0.038270
Si Si2 0.716922 0.251289 0.636674
Si Si3 0.250000 0.000000 0.076762
Si Si4 0.923232 0.648285 0.849479
Si Si5 0.750000 0.500000 0.745576
O O1 0.250000 0.500000 0.026967
O O2 0.357628 0.116672 0.035651
O O3 0.426148 0.432628 0.105842
O O4 0.500000 0.500000 0.000000
O O5 0.750000 0.500000 0.605508
O O6 0.565678 0.252335 0.650595
O O7 0.785216 0.295017 0.699874
O O8 0.750000 0.000000 0.611154
O O9 0.174766 0.176341 0.118704
O O10 0.864743 0.574845 0.787914
#
# Coordination Sequence:
#
# PCOD9423036 Si02
#       5
#     8   8   4   8   4
#     4  10  23  43  66  99 131 174 231 287 357 426
#     4  10  26  42  63 102 138 183 228 281 340 403
#     4  10  22  40  76  90 134 180 228 284 358 412
#     4  11  22  43  66  98 132 177 226 285 341 416
#     4  10  22  42  64  94 130 180 224 280 328 408
#
# _framework density 23.328810000000001
#
# number of rings (size 3 to 8) (size 9 to 14) (size 15 to 20)
#    0.750    1.000    3.750    0.750    5.250    5.000 
#    6.750    0.000    0.000    0.000    0.000    0.000 
#    0.000    0.000    0.000    0.000    0.000    0.000 
#
# Total GULP energy -178467.130713 kJ/mol
# GULP energy per Si atom -5577.097835 kJ/mol
# Density = 2.327571 g / cm^3
# Si number density = 23.328810 Si / 1000 Ang^3
#
#
#
# Elastic Constant Matrix: (Units=GPa)
#
#
# Indices 1 2 3 4 5 6 
#
# 1 125.0515 32.0082 9.5793 0.0000 0.0000 0.0000
# 2 32.0082 119.9065 18.1029 0.0000 0.0000 0.0000
# 3 9.5793 18.1029 78.7452 0.0000 0.0000 0.0000
# 4 0.0000 0.0000 0.0000 -17.1111 0.0000 0.0000
# 5 0.0000 0.0000 0.0000 0.0000 -8.5497 0.0000
# 6 0.0000 0.0000 0.0000 0.0000 0.0000 34.3458
#
#
#
# Elastic Compliance Matrix: (Units=1/GPa)
#
#
# Indices 1 2 3 4 5 6 
#
# 1 0.008605 -0.002216 -0.000537 0.000000 0.000000 0.000000
# 2 -0.002216 0.009210 -0.001848 0.000000 0.000000 0.000000
# 3 -0.000537 -0.001848 0.013189 0.000000 0.000000 0.000000
# 4 0.000000 0.000000 0.000000 -0.058441 0.000000 0.000000
# 5 0.000000 0.000000 0.000000 0.000000 -0.116964 0.000000
# 6 0.000000 0.000000 0.000000 0.000000 0.000000 0.029116
#
#
# Mechanical properties :
#
#
# Convention : Reuss Voigt Hill
#
# Bulk Modulus (GPa) = 45.86630 49.23156 47.54893
# Shear Modulus (GPa) = -50.59970 19.33784 -15.63093
#
# Velocity S-wave (km/s) = -4.66228 2.88223 -2.59130
# Velocity P-wave (km/s) = 3.04615 5.67675 3.38722
#
# Compressibility (1/GPa) = 0.02180250
#
# Stress axis : x y z
#
# Youngs Moduli (GPa) = 116.21066 108.57370 75.81869
#
# Poissons Ratio (x) = 0.24059 0.04074
# Poissons Ratio (y) = 0.25751 0.14010
# Poissons Ratio (z) = 0.06245 0.20062
#
# Static dielectric constant tensor:
#      x y z
#    x 1.882510 0.000000 0.000000 
#    y 0.000000 2.075520 0.000000 
#    z 0.000000 0.000000 1.875590 
# 
# From -- ./inp_files/27526.got.cif
#   From: 2010.05.17/outbox.cif.g08.bks.cpg/sg54_14_cif.got.tgz:27526.got - 2010.06.03 13:09:01.
