data_PCOD9423500
_publ_section_title
;
Structure prediction by ZEFSAII (Michael W. Deem and Ramdas Pophale) SiO2 
 PCOD9423500
Probable space group: P C C A
;
_chemical_formula_sum "Si O2"
_cell_formula_units_Z 32
_cell_length_a 9.377395
_cell_length_b 9.748508
_cell_length_c 13.768744
_cell_angle_alpha 90.000000
_cell_angle_beta 90.000000
_cell_angle_gamma 90.000000
_cell_volume 1258.678134
_symmetry_space_group_name_H-M "P C C A"
_symmetry_group_IT_number 54
_symmetry_cell_setting 'orthorhombic'
loop_
_space_group_symop_operation_xyz
x,y,z
1/2-x,-y,z
1/2+x,-y,1/2-z
-x,y,1/2-z
-x,-y,-z
1/2+x,y,-z
1/2-x,y,1/2+z
x,-y,1/2+z
loop_
_atom_site_type_symbol
_atom_site_label
_atom_site_fract_x
_atom_site_fract_y
_atom_site_fract_z
Si Si1 0.750000 0.000000 0.792964
Si Si2 0.903141 0.253561 0.333315
Si Si3 0.250000 0.500000 0.145444
Si Si4 0.599782 0.717267 0.992619
Si Si5 0.344449 0.129323 0.401516
O O1 0.815632 0.881210 0.859960
O O2 0.661798 0.905897 0.714051
O O3 0.823815 0.384088 0.290239
O O4 0.000000 0.192523 0.250000
O O5 0.987122 0.314749 0.423023
O O6 0.352189 0.403649 0.079153
O O7 0.505370 0.834264 0.935007
O O8 0.740647 0.753537 0.055977
O O9 0.250000 0.000000 0.438455
#
# Coordination Sequence:
#
# PCOD9423500 Si02
#       5
#     4   8   4   8   8
#     4  10  26  44  72 116 140 194 244 328 388 432
#     4  12  26  47  74 107 154 188 253 316 380 447
#     4  12  30  46  74 110 146 216 252 300 382 472
#     4  12  24  48  76 107 146 201 252 308 367 472
#     4  10  23  43  76 109 144 191 251 309 382 446
#
# _framework density 25.423497000000001
#
# number of rings (size 3 to 8) (size 9 to 14) (size 15 to 20)
#    0.750    0.000    5.000    1.500    1.750    7.000 
#    0.000    0.000    0.000    0.000    0.000    0.000 
#    0.000    0.000    0.000    0.000    0.000    0.000 
#
# Total GULP energy -178194.117226 kJ/mol
# GULP energy per Si atom -5568.566163 kJ/mol
# Density = 2.536563 g / cm^3
# Si number density = 25.423497 Si / 1000 Ang^3
#
#
#
# Elastic Constant Matrix: (Units=GPa)
#
#
# Indices 1 2 3 4 5 6 
#
# 1 120.8061 46.7354 16.3730 0.0000 0.0000 0.0000
# 2 46.7354 109.8994 4.0635 0.0000 0.0000 0.0000
# 3 16.3730 4.0635 64.1179 0.0000 0.0000 0.0000
# 4 0.0000 0.0000 0.0000 26.1727 0.0000 0.0000
# 5 0.0000 0.0000 0.0000 0.0000 -9.8314 0.0000
# 6 0.0000 0.0000 0.0000 0.0000 0.0000 35.5748
#
#
#
# Elastic Compliance Matrix: (Units=1/GPa)
#
#
# Indices 1 2 3 4 5 6 
#
# 1 0.010248 -0.004271 -0.002346 0.000000 0.000000 0.000000
# 2 -0.004271 0.010901 0.000400 0.000000 0.000000 0.000000
# 3 -0.002346 0.000400 0.016170 0.000000 0.000000 0.000000
# 4 0.000000 0.000000 0.000000 0.038208 0.000000 0.000000
# 5 0.000000 0.000000 0.000000 0.000000 -0.101715 0.000000
# 6 0.000000 0.000000 0.000000 0.000000 0.000000 0.028110
#
#
# Mechanical properties :
#
#
# Convention : Reuss Voigt Hill
#
# Bulk Modulus (GPa) = 40.18705 47.68524 43.93615
# Shear Modulus (GPa) = 220.73651 25.56001 123.14826
#
# Velocity S-wave (km/s) = 9.32804 3.17420 6.96735
# Velocity P-wave (km/s) = 11.48293 5.67725 9.05784
#
# Compressibility (1/GPa) = 0.02488364
#
# Stress axis : x y z
#
# Youngs Moduli (GPa) = 97.57872 91.73591 61.84272
#
# Poissons Ratio (x) = 0.39183 0.14510
# Poissons Ratio (y) = 0.41679 -0.02473
# Poissons Ratio (z) = 0.22894 -0.03668
#
# Static dielectric constant tensor:
#      x y z
#    x 2.298120 0.000000 0.000000 
#    y 0.000000 2.050540 0.000000 
#    z 0.000000 0.000000 1.981140 
# 
# From -- ./inp_files/12336.got.cif
#   From: 2010.05.17/outbox.cif.g08.bks.cpg/sg54_7_cif.got.tgz:12336.got - 2010.06.03 13:09:01.
