data_PCOD9423578
_publ_section_title
;
Structure prediction by ZEFSAII (Michael W. Deem and Ramdas Pophale) SiO2 
 PCOD9423578
Probable space group: P C C A
;
_chemical_formula_sum "Si O2"
_cell_formula_units_Z 56
_cell_length_a 14.064057
_cell_length_b 6.563111
_cell_length_c 26.623902
_cell_angle_alpha 90.000000
_cell_angle_beta 90.000000
_cell_angle_gamma 90.000000
_cell_volume 2457.491777
_symmetry_space_group_name_H-M "P C C A"
_symmetry_group_IT_number 54
_symmetry_cell_setting 'orthorhombic'
loop_
_space_group_symop_operation_xyz
x,y,z
1/2-x,-y,z
1/2+x,-y,1/2-z
-x,y,1/2-z
-x,-y,-z
1/2+x,y,-z
1/2-x,y,1/2+z
x,-y,1/2+z
loop_
_atom_site_type_symbol
_atom_site_label
_atom_site_fract_x
_atom_site_fract_y
_atom_site_fract_z
Si Si1 0.573067 0.027828 0.061609
Si Si2 0.500000 0.169324 0.250000
Si Si3 0.663233 0.859717 0.230434
Si Si4 0.407757 0.303918 0.859864
Si Si5 0.893619 0.286443 0.969500
Si Si6 0.353270 0.579284 0.952065
Si Si7 0.905113 0.468003 0.310825
Si Si8 0.250000 0.500000 0.600907
O O1 0.657542 0.185575 0.059049
O O2 0.562439 0.896255 0.110342
O O3 0.598180 0.871944 0.016359
O O4 0.483748 0.188438 0.059591
O O5 0.564896 0.315316 0.285826
O O6 0.574611 0.015215 0.224241
O O7 0.678762 0.750834 0.176782
O O8 0.642085 0.682571 0.270308
O O9 0.750000 0.000000 0.246385
O O10 0.390350 0.469515 0.902501
O O11 0.493381 0.377514 0.825660
O O12 0.904371 0.508551 0.996240
O O13 0.799292 0.323453 0.934798
O O14 0.250000 0.500000 0.961776
O O15 0.837743 0.461482 0.360289
#
# Coordination Sequence:
#
# PCOD9423578 Si02
#       8
#     8   4   8   8   8   8   8   4
#     4  10  24  44  72  97 142 200 233 289 371 427
#     4  12  24  50  74  92 160 192 232 316 376 438
#     4  12  27  46  73 107 144 191 250 309 370 442
#     4  11  25  43  70 105 139 186 245 289 360 441
#     4  10  23  47  66 105 142 187 238 297 360 438
#     4  11  24  43  67 102 143 183 237 292 348 424
#     4  12  26  50  71 110 144 188 245 303 381 440
#     4  12  26  44  80 110 144 186 246 312 366 444
#
# _framework density 22.787462000000001
#
# number of rings (size 3 to 8) (size 9 to 14) (size 15 to 20)
#    0.000    0.857    3.571    2.143    6.000    5.143 
#    3.857    1.429    0.000    0.000    0.000    0.000 
#    0.000    0.000    0.000    0.000    0.000    0.000 
#
# Total GULP energy -312117.044618 kJ/mol
# GULP energy per Si atom -5573.518654 kJ/mol
# Density = 2.273560 g / cm^3
# Si number density = 22.787462 Si / 1000 Ang^3
#
#
#
# Elastic Constant Matrix: (Units=GPa)
#
#
# Indices 1 2 3 4 5 6 
#
# 1 64.1921 1.1865 5.0931 0.0000 0.0000 0.0000
# 2 1.1865 90.3586 35.6723 0.0000 0.0000 0.0000
# 3 5.0931 35.6723 104.6316 0.0000 0.0000 0.0000
# 4 0.0000 0.0000 0.0000 7.4899 0.0000 0.0000
# 5 0.0000 0.0000 0.0000 0.0000 37.3433 0.0000
# 6 0.0000 0.0000 0.0000 0.0000 0.0000 24.9747
#
#
#
# Elastic Compliance Matrix: (Units=1/GPa)
#
#
# Indices 1 2 3 4 5 6 
#
# 1 0.015640 0.000110 -0.000799 0.000000 0.000000 0.000000
# 2 0.000110 0.012789 -0.004366 0.000000 0.000000 0.000000
# 3 -0.000799 -0.004366 0.011085 0.000000 0.000000 0.000000
# 4 0.000000 0.000000 0.000000 0.133513 0.000000 0.000000
# 5 0.000000 0.000000 0.000000 0.000000 0.026779 0.000000
# 6 0.000000 0.000000 0.000000 0.000000 0.000000 0.040040
#
#
# Mechanical properties :
#
#
# Convention : Reuss Voigt Hill
#
# Bulk Modulus (GPa) = 34.00841 38.12069 36.06455
# Shear Modulus (GPa) = 19.24887 28.44362 23.84624
#
# Velocity S-wave (km/s) = 2.90955 3.53684 3.23842
# Velocity P-wave (km/s) = 5.12288 5.78309 5.46296
#
# Compressibility (1/GPa) = 0.02940449
#
# Stress axis : x y z
#
# Youngs Moduli (GPa) = 63.94035 78.19205 90.21542
#
# Poissons Ratio (x) = -0.00860 0.07206
# Poissons Ratio (y) = -0.00703 0.39384
# Poissons Ratio (z) = 0.05107 0.34135
#
# Static dielectric constant tensor:
#      x y z
#    x 1.947540 0.000000 0.000000 
#    y 0.000000 1.610040 0.000000 
#    z 0.000000 0.000000 1.893350 
# 
# From -- ./inp_files/28274.got.cif
#   From: 2010.05.17/outbox.cif.g08.bks.cpg/sg54_15_cif.got.tgz:28274.got - 2010.06.03 13:09:01.
