data_PCOD9423818
_publ_section_title
;
Structure prediction by ZEFSAII (Michael W. Deem and Ramdas Pophale) SiO2 
 PCOD9423818
Probable space group: P C C A
;
_chemical_formula_sum "Si O2"
_cell_formula_units_Z 40
_cell_length_a 10.066202
_cell_length_b 7.453550
_cell_length_c 23.340713
_cell_angle_alpha 90.000000
_cell_angle_beta 90.000000
_cell_angle_gamma 90.000000
_cell_volume 1751.228953
_symmetry_space_group_name_H-M "P C C A"
_symmetry_group_IT_number 54
_symmetry_cell_setting 'orthorhombic'
loop_
_space_group_symop_operation_xyz
x,y,z
1/2-x,-y,z
1/2+x,-y,1/2-z
-x,y,1/2-z
-x,-y,-z
1/2+x,y,-z
1/2-x,y,1/2+z
x,-y,1/2+z
loop_
_atom_site_type_symbol
_atom_site_label
_atom_site_fract_x
_atom_site_fract_y
_atom_site_fract_z
Si Si1 0.039495 0.149407 0.608002
Si Si2 0.533020 0.705182 0.016130
Si Si3 0.018407 0.793319 0.816677
Si Si4 0.248269 0.783652 0.391831
Si Si5 0.313471 0.317316 0.604172
O O1 0.048408 0.166899 0.538625
O O2 0.186700 0.208340 0.625147
O O3 0.905026 0.267893 0.615777
O O4 0.011826 0.973627 0.646234
O O5 0.665219 0.708763 0.055379
O O6 0.405814 0.763134 0.054323
O O7 0.500000 0.500000 0.000000
O O8 0.913661 0.653190 0.843171
O O9 0.000000 0.820619 0.750000
O O10 0.166739 0.742624 0.835311
O O11 0.250000 0.000000 0.401279
O O12 0.250000 0.500000 0.581644
#
# Coordination Sequence:
#
# PCOD9423818 Si02
#       5
#     8   8   8   8   8
#     4  11  22  37  67  97 126 176 220 267 336 396
#     4  11  22  40  62  94 145 175 206 272 336 412
#     4  10  24  47  66  89 131 175 229 287 325 397
#     4   9  22  39  61  93 128 166 223 263 335 393
#     4  11  23  41  64 102 135 172 222 268 344 398
#
# _framework density 22.841100999999998
#
# number of rings (size 3 to 8) (size 9 to 14) (size 15 to 20)
#    0.000    1.600    2.000    1.800    0.000   13.600 
#    0.000    3.000    0.000    0.000    0.000    0.000 
#    0.000    0.000    0.000    0.000    0.000    0.000 
#
# Total GULP energy -223194.781175 kJ/mol
# GULP energy per Si atom -5579.869529 kJ/mol
# Density = 2.278911 g / cm^3
# Si number density = 22.841101 Si / 1000 Ang^3
#
#
#
# Elastic Constant Matrix: (Units=GPa)
#
#
# Indices 1 2 3 4 5 6 
#
# 1 168.6541 13.5312 33.4096 0.0000 0.0000 0.0000
# 2 13.5312 50.5959 24.6179 0.0000 0.0000 0.0000
# 3 33.4096 24.6179 145.3992 0.0000 0.0000 0.0000
# 4 0.0000 0.0000 0.0000 8.0580 0.0000 0.0000
# 5 0.0000 0.0000 0.0000 0.0000 7.7766 0.0000
# 6 0.0000 0.0000 0.0000 0.0000 0.0000 33.3134
#
#
#
# Elastic Compliance Matrix: (Units=1/GPa)
#
#
# Indices 1 2 3 4 5 6 
#
# 1 0.006264 -0.001062 -0.001259 0.000000 0.000000 0.000000
# 2 -0.001062 0.021719 -0.003433 0.000000 0.000000 0.000000
# 3 -0.001259 -0.003433 0.007748 0.000000 0.000000 0.000000
# 4 0.000000 0.000000 0.000000 0.124101 0.000000 0.000000
# 5 0.000000 0.000000 0.000000 0.000000 0.128591 0.000000
# 6 0.000000 0.000000 0.000000 0.000000 0.000000 0.030018
#
#
# Mechanical properties :
#
#
# Convention : Reuss Voigt Hill
#
# Bulk Modulus (GPa) = 41.28615 56.41853 48.85234
# Shear Modulus (GPa) = 14.79180 29.36895 22.08038
#
# Velocity S-wave (km/s) = 2.54755 3.58969 3.11255
# Velocity P-wave (km/s) = 5.17378 6.47574 5.86102
#
# Compressibility (1/GPa) = 0.02422120
#
# Stress axis : x y z
#
# Youngs Moduli (GPa) = 159.64169 46.04260 129.06067
#
# Poissons Ratio (x) = 0.04892 0.16255
# Poissons Ratio (y) = 0.16961 0.44309
# Poissons Ratio (z) = 0.20106 0.15807
#
# Static dielectric constant tensor:
#      x y z
#    x 1.928610 0.000000 0.000000 
#    y 0.000000 1.974160 0.000000 
#    z 0.000000 0.000000 1.881640 
# 
# From -- ./inp_files/23269.got.cif
#   From: 2010.05.17/outbox.cif.g08.bks.cpg/sg54_12_cif.got.tgz:23269.got - 2010.06.03 13:09:01.
