data_PCOD9423863
_publ_section_title
;
Structure prediction by ZEFSAII (Michael W. Deem and Ramdas Pophale) SiO2 
 PCOD9423863
Probable space group: P C C A
;
_chemical_formula_sum "Si O2"
_cell_formula_units_Z 40
_cell_length_a 16.746158
_cell_length_b 11.061422
_cell_length_c 9.028263
_cell_angle_alpha 90.000000
_cell_angle_beta 90.000000
_cell_angle_gamma 90.000000
_cell_volume 1672.362219
_symmetry_space_group_name_H-M "P C C A"
_symmetry_group_IT_number 54
_symmetry_cell_setting 'orthorhombic'
loop_
_space_group_symop_operation_xyz
x,y,z
1/2-x,-y,z
1/2+x,-y,1/2-z
-x,y,1/2-z
-x,-y,-z
1/2+x,y,-z
1/2-x,y,1/2+z
x,-y,1/2+z
loop_
_atom_site_type_symbol
_atom_site_label
_atom_site_fract_x
_atom_site_fract_y
_atom_site_fract_z
Si Si1 0.915006 0.068215 0.697606
Si Si2 0.500000 0.637008 0.250000
Si Si3 0.392999 0.836651 0.123825
Si Si4 0.845552 0.371683 0.075544
Si Si5 0.750000 0.500000 0.322356
Si Si6 0.783417 0.864076 0.431675
O O1 0.912780 0.089695 0.524393
O O2 0.839651 0.120207 0.787999
O O3 0.000000 0.119020 0.750000
O O4 0.910687 0.928267 0.742774
O O5 0.446498 0.720722 0.143421
O O6 0.567950 0.586254 0.138477
O O7 0.300643 0.804333 0.107809
O O8 0.785719 0.404089 0.207761
O O9 0.817591 0.444264 0.929661
O O10 0.831639 0.229635 0.035570
O O11 0.750000 0.000000 0.480044
#
# Coordination Sequence:
#
# PCOD9423863 Si02
#       6
#     8   4   8   8   4   8
#     4  11  23  41  62  97 149 203 244 289 359 448
#     4  12  26  42  76 106 152 186 260 316 380 436
#     4  11  25  39  64 103 151 203 238 300 362 447
#     4  11  25  51  76 115 140 202 246 324 372 453
#     4  10  26  52  86  98 150 188 266 314 380 438
#     4  10  25  42  76 108 154 193 247 299 375 455
#
# _framework density 23.918264000000001
#
# number of rings (size 3 to 8) (size 9 to 14) (size 15 to 20)
#    0.000    1.200    1.000    3.000   11.200    4.800 
#    0.000    0.000    2.200    0.000    0.000    0.000 
#    0.000    0.000    0.000    0.000    0.000    0.000 
#
# Total GULP energy -223462.230690 kJ/mol
# GULP energy per Si atom -5586.555767 kJ/mol
# Density = 2.386382 g / cm^3
# Si number density = 23.918264 Si / 1000 Ang^3
#
#
#
# Elastic Constant Matrix: (Units=GPa)
#
#
# Indices 1 2 3 4 5 6 
#
# 1 106.7613 -19.1864 3.7831 0.0000 0.0000 0.0000
# 2 -19.1864 50.8959 47.4576 0.0000 0.0000 0.0000
# 3 3.7831 47.4576 111.3903 0.0000 0.0000 0.0000
# 4 0.0000 0.0000 0.0000 40.1527 0.0000 0.0000
# 5 0.0000 0.0000 0.0000 0.0000 44.8582 0.0000
# 6 0.0000 0.0000 0.0000 0.0000 0.0000 25.5226
#
#
#
# Elastic Compliance Matrix: (Units=1/GPa)
#
#
# Indices 1 2 3 4 5 6 
#
# 1 0.010807 0.007327 -0.003489 0.000000 0.000000 0.000000
# 2 0.007327 0.037566 -0.016254 0.000000 0.000000 0.000000
# 3 -0.003489 -0.016254 0.016021 0.000000 0.000000 0.000000
# 4 0.000000 0.000000 0.000000 0.024905 0.000000 0.000000
# 5 0.000000 0.000000 0.000000 0.000000 0.022292 0.000000
# 6 0.000000 0.000000 0.000000 0.000000 0.000000 0.039181
#
#
# Mechanical properties :
#
#
# Convention : Reuss Voigt Hill
#
# Bulk Modulus (GPa) = 25.27626 37.01733 31.14680
# Shear Modulus (GPa) = 26.48446 37.90625 32.19536
#
# Velocity S-wave (km/s) = 3.33121 3.98530 3.67285
# Velocity P-wave (km/s) = 5.03851 6.05698 5.57107
#
# Compressibility (1/GPa) = 0.03956282
#
# Stress axis : x y z
#
# Youngs Moduli (GPa) = 92.53205 26.62010 62.41912
#
# Poissons Ratio (x) = -0.19504 0.21776
# Poissons Ratio (y) = -0.67798 1.01453
# Poissons Ratio (z) = 0.32281 0.43267
#
# Static dielectric constant tensor:
#      x y z
#    x 1.953800 0.000000 0.000000 
#    y 0.000000 1.964860 0.000000 
#    z 0.000000 0.000000 1.901450 
# 
# From -- ./inp_files/4004.got.cif
#   From: 2010.05.17/outbox.cif.g08.bks.cpg/sg54_3_cif.got.tgz:4004.got - 2010.06.03 13:09:01.
