data_PCOD9423019
_publ_section_title
;
Structure prediction by ZEFSAII (Michael W. Deem and Ramdas Pophale) SiO2 
 PCOD9423019
Probable space group: P C C A
;
_chemical_formula_sum "Si O2"
_cell_formula_units_Z 32
_cell_length_a 11.674080
_cell_length_b 11.366823
_cell_length_c 10.334604
_cell_angle_alpha 90.000000
_cell_angle_beta 90.000000
_cell_angle_gamma 90.000000
_cell_volume 1371.373025
_symmetry_space_group_name_H-M "P C C A"
_symmetry_group_IT_number 54
_symmetry_cell_setting 'orthorhombic'
loop_
_space_group_symop_operation_xyz
x,y,z
1/2-x,-y,z
1/2+x,-y,1/2-z
-x,y,1/2-z
-x,-y,-z
1/2+x,y,-z
1/2-x,y,1/2+z
x,-y,1/2+z
loop_
_atom_site_type_symbol
_atom_site_label
_atom_site_fract_x
_atom_site_fract_y
_atom_site_fract_z
Si Si1 0.000000 0.326339 0.750000
Si Si2 0.901636 0.209037 0.159573
Si Si3 0.250000 0.000000 0.358535
Si Si4 0.605754 0.192989 0.009771
Si Si5 0.205312 0.369645 0.550041
O O1 0.074127 0.256789 0.855763
O O2 0.101826 0.378017 0.655678
O O3 0.000000 0.259361 0.250000
O O4 0.826717 0.099725 0.212775
O O5 0.837599 0.312828 0.085180
O O6 0.984663 0.156198 0.049133
O O7 0.325296 0.079462 0.451567
O O8 0.687254 0.280677 0.924341
O O9 0.250000 0.500000 0.530204
#
# Coordination Sequence:
#
# PCOD9423019 Si02
#       5
#     4   8   4   8   8
#     4  10  24  44  66 102 138 180 240 290 348 424
#     4  10  23  42  67 104 138 182 234 285 351 421
#     4  10  22  40  68  98 138 184 226 290 344 414
#     4  10  23  43  66 102 139 180 233 287 353 416
#     4  10  24  47  70 100 138 183 235 293 354 416
#
# _framework density 23.33428
#
# number of rings (size 3 to 8) (size 9 to 14) (size 15 to 20)
#    0.000    2.000    0.000    0.750    8.750    6.000 
#    4.500    0.000    0.000    1.500    0.000    0.000 
#    0.000    0.000    0.000    0.000    0.000    0.000 
#
# Total GULP energy -178198.652322 kJ/mol
# GULP energy per Si atom -5568.707885 kJ/mol
# Density = 2.328117 g / cm^3
# Si number density = 23.334280 Si / 1000 Ang^3
#
#
#
# Elastic Constant Matrix: (Units=GPa)
#
#
# Indices 1 2 3 4 5 6 
#
# 1 141.7130 90.0691 41.4559 0.0000 0.0000 0.0000
# 2 90.0691 139.1194 23.8427 0.0000 0.0000 0.0000
# 3 41.4559 23.8427 59.7732 0.0000 0.0000 0.0000
# 4 0.0000 0.0000 0.0000 6.8181 0.0000 0.0000
# 5 0.0000 0.0000 0.0000 0.0000 86.6333 0.0000
# 6 0.0000 0.0000 0.0000 0.0000 0.0000 26.4617
#
#
#
# Elastic Compliance Matrix: (Units=1/GPa)
#
#
# Indices 1 2 3 4 5 6 
#
# 1 0.014037 -0.007964 -0.006559 0.000000 0.000000 0.000000
# 2 -0.007964 0.012234 0.000643 0.000000 0.000000 0.000000
# 3 -0.006559 0.000643 0.021022 0.000000 0.000000 0.000000
# 4 0.000000 0.000000 0.000000 0.146669 0.000000 0.000000
# 5 0.000000 0.000000 0.000000 0.000000 0.011543 0.000000
# 6 0.000000 0.000000 0.000000 0.000000 0.000000 0.037790
#
#
# Mechanical properties :
#
#
# Convention : Reuss Voigt Hill
#
# Bulk Modulus (GPa) = 51.19120 72.37123 61.78122
# Shear Modulus (GPa) = 18.01390 36.33183 27.17286
#
# Velocity S-wave (km/s) = 2.78149 3.95018 3.41618
# Velocity P-wave (km/s) = 5.68343 7.20330 6.48803
#
# Compressibility (1/GPa) = 0.01953461
#
# Stress axis : x y z
#
# Youngs Moduli (GPa) = 71.24256 81.74206 47.56929
#
# Poissons Ratio (x) = 0.65096 0.31199
# Poissons Ratio (y) = 0.56734 -0.03060
# Poissons Ratio (z) = 0.46725 -0.05259
#
# Static dielectric constant tensor:
#      x y z
#    x 1.961810 0.000000 0.000000 
#    y 0.000000 1.823100 0.000000 
#    z 0.000000 0.000000 2.022740 
# 
# From -- ./inp_files/7294.got.cif
#   From: 2010.05.17/outbox.cif.g08.bks.cpg/sg54_4_cif.got.tgz:7294.got - 2010.06.03 13:09:01.
