data_PCOD9423739
_publ_section_title
;
Structure prediction by ZEFSAII (Michael W. Deem and Ramdas Pophale) SiO2 
 PCOD9423739
Probable space group: P C C A
;
_chemical_formula_sum "Si O2"
_cell_formula_units_Z 32
_cell_length_a 12.171442
_cell_length_b 7.231070
_cell_length_c 13.225900
_cell_angle_alpha 90.000000
_cell_angle_beta 90.000000
_cell_angle_gamma 90.000000
_cell_volume 1164.045173
_symmetry_space_group_name_H-M "P C C A"
_symmetry_group_IT_number 54
_symmetry_cell_setting 'orthorhombic'
loop_
_space_group_symop_operation_xyz
x,y,z
1/2-x,-y,z
1/2+x,-y,1/2-z
-x,y,1/2-z
-x,-y,-z
1/2+x,y,-z
1/2-x,y,1/2+z
x,-y,1/2+z
loop_
_atom_site_type_symbol
_atom_site_label
_atom_site_fract_x
_atom_site_fract_y
_atom_site_fract_z
Si Si1 0.339572 0.247970 0.377931
Si Si2 0.250000 0.000000 0.704646
Si Si3 0.250000 0.500000 0.051618
Si Si4 0.516173 0.534392 0.381964
Si Si5 0.483179 0.965961 0.134966
O O1 0.271119 0.331686 0.471886
O O2 0.421048 0.407929 0.336250
O O3 0.266440 0.165996 0.286892
O O4 0.426279 0.091627 0.420312
O O5 0.146475 0.992828 0.630753
O O6 0.144330 0.514821 0.123355
O O7 0.500000 0.500000 0.500000
O O8 0.494056 0.748969 0.364937
O O9 0.500000 0.032207 0.250000
#
# Coordination Sequence:
#
# PCOD9423739 Si02
#       5
#     8   4   4   8   8
#     4  10  24  46  68 101 138 187 233 295 346 420
#     4  10  24  46  70 102 140 192 230 288 366 402
#     4  10  24  44  70 102 142 182 236 284 368 412
#     4  10  24  45  67 104 136 184 236 288 349 428
#     4  10  24  45  68 102 142 181 242 289 349 424
#
# _framework density 27.490341000000001
#
# number of rings (size 3 to 8) (size 9 to 14) (size 15 to 20)
#    0.000    2.000    0.000    0.000   17.500    7.000 
#    0.000    0.000    0.000    0.000    0.000    0.000 
#    0.000    0.000    0.000    0.000    0.000    0.000 
#
# Total GULP energy -179070.048100 kJ/mol
# GULP energy per Si atom -5595.939003 kJ/mol
# Density = 2.742777 g / cm^3
# Si number density = 27.490341 Si / 1000 Ang^3
#
#
#
# Elastic Constant Matrix: (Units=GPa)
#
#
# Indices 1 2 3 4 5 6 
#
# 1 151.1895 62.9567 43.5142 0.0000 0.0000 0.0000
# 2 62.9567 193.6570 40.2736 0.0000 0.0000 0.0000
# 3 43.5142 40.2736 128.9012 0.0000 0.0000 0.0000
# 4 0.0000 0.0000 0.0000 41.7049 0.0000 0.0000
# 5 0.0000 0.0000 0.0000 0.0000 33.2949 0.0000
# 6 0.0000 0.0000 0.0000 0.0000 0.0000 55.7762
#
#
#
# Elastic Compliance Matrix: (Units=1/GPa)
#
#
# Indices 1 2 3 4 5 6 
#
# 1 0.008127 -0.002215 -0.002051 0.000000 0.000000 0.000000
# 2 -0.002215 0.006127 -0.001166 0.000000 0.000000 0.000000
# 3 -0.002051 -0.001166 0.008815 0.000000 0.000000 0.000000
# 4 0.000000 0.000000 0.000000 0.023978 0.000000 0.000000
# 5 0.000000 0.000000 0.000000 0.000000 0.030035 0.000000
# 6 0.000000 0.000000 0.000000 0.000000 0.000000 0.017929
#
#
# Mechanical properties :
#
#
# Convention : Reuss Voigt Hill
#
# Bulk Modulus (GPa) = 81.95200 85.24854 83.60027
# Shear Modulus (GPa) = 45.47789 47.95540 46.71665
#
# Velocity S-wave (km/s) = 4.07175 4.18119 4.12683
# Velocity P-wave (km/s) = 7.20981 7.37478 7.29277
#
# Compressibility (1/GPa) = 0.01220226
#
# Stress axis : x y z
#
# Youngs Moduli (GPa) = 123.04406 163.22395 113.44617
#
# Poissons Ratio (x) = 0.36162 0.23272
# Poissons Ratio (y) = 0.27260 0.13231
# Poissons Ratio (z) = 0.25241 0.19036
#
# Static dielectric constant tensor:
#      x y z
#    x 2.355010 0.000000 0.000000 
#    y 0.000000 2.152260 0.000000 
#    z 0.000000 0.000000 2.165470 
# 
# From -- ./inp_files/17630.got.cif
#   From: 2010.05.17/outbox.cif.g08.bks.cpg/sg54_9_cif.got.tgz:17630.got - 2010.06.03 13:09:01.
