data_PCOD9423159
_publ_section_title
;
Structure prediction by ZEFSAII (Michael W. Deem and Ramdas Pophale) SiO2 
 PCOD9423159
Probable space group: P C C A
;
_chemical_formula_sum "Si O2"
_cell_formula_units_Z 24
_cell_length_a 12.758356
_cell_length_b 6.413188
_cell_length_c 12.388326
_cell_angle_alpha 90.000000
_cell_angle_beta 90.000000
_cell_angle_gamma 90.000000
_cell_volume 1013.634334
_symmetry_space_group_name_H-M "P C C A"
_symmetry_group_IT_number 54
_symmetry_cell_setting 'orthorhombic'
loop_
_space_group_symop_operation_xyz
x,y,z
1/2-x,-y,z
1/2+x,-y,1/2-z
-x,y,1/2-z
-x,-y,-z
1/2+x,y,-z
1/2-x,y,1/2+z
x,-y,1/2+z
loop_
_atom_site_type_symbol
_atom_site_label
_atom_site_fract_x
_atom_site_fract_y
_atom_site_fract_z
Si Si1 0.000000 0.202539 0.250000
Si Si2 0.750000 0.500000 0.406348
Si Si3 0.156734 0.869019 0.239502
Si Si4 0.871627 0.471431 0.611175
O O1 0.940169 0.346370 0.163054
O O2 0.917211 0.048651 0.306950
O O3 0.708863 0.296844 0.342295
O O4 0.850688 0.454544 0.484030
O O5 0.095398 0.739938 0.330643
O O6 0.250000 0.000000 0.294269
O O7 0.750000 0.500000 0.647880
#
# Coordination Sequence:
#
# PCOD9423159 Si02
#       4
#     4   4   8   8
#     4  12  24  42  74  98 132 192 228 270 346 412
#     4  10  22  42  70 100 144 172 222 294 336 396
#     4  12  22  43  71  99 136 181 230 280 339 405
#     4  10  23  46  65  98 144 174 223 287 337 398
#
# _framework density 23.677174999999998
#
# number of rings (size 3 to 8) (size 9 to 14) (size 15 to 20)
#    1.000    0.000    5.000    1.000    0.000    5.333 
#    0.000   11.667    0.000    0.000    0.000    0.000 
#    0.000    0.000    0.000    0.000    0.000    0.000 
#
# Total GULP energy -133745.652777 kJ/mol
# GULP energy per Si atom -5572.735532 kJ/mol
# Density = 2.362328 g / cm^3
# Si number density = 23.677175 Si / 1000 Ang^3
#
#
#
# Elastic Constant Matrix: (Units=GPa)
#
#
# Indices 1 2 3 4 5 6 
#
# 1 82.7517 63.2699 16.4744 0.0000 0.0000 0.0000
# 2 63.2699 179.8428 63.3648 0.0000 0.0000 0.0000
# 3 16.4744 63.3648 85.3592 0.0000 0.0000 0.0000
# 4 0.0000 0.0000 0.0000 8.9477 0.0000 0.0000
# 5 0.0000 0.0000 0.0000 0.0000 34.1714 0.0000
# 6 0.0000 0.0000 0.0000 0.0000 0.0000 77.7604
#
#
#
# Elastic Compliance Matrix: (Units=1/GPa)
#
#
# Indices 1 2 3 4 5 6 
#
# 1 0.016679 -0.006410 0.001539 0.000000 0.000000 0.000000
# 2 -0.006410 0.009993 -0.006181 0.000000 0.000000 0.000000
# 3 0.001539 -0.006181 0.016007 0.000000 0.000000 0.000000
# 4 0.000000 0.000000 0.000000 0.111761 0.000000 0.000000
# 5 0.000000 0.000000 0.000000 0.000000 0.029264 0.000000
# 6 0.000000 0.000000 0.000000 0.000000 0.000000 0.012860
#
#
# Mechanical properties :
#
#
# Convention : Reuss Voigt Hill
#
# Bulk Modulus (GPa) = 48.60276 70.46353 59.53314
# Shear Modulus (GPa) = 22.17036 37.83221 30.00129
#
# Velocity S-wave (km/s) = 3.06332 4.00163 3.56349
# Velocity P-wave (km/s) = 5.75185 7.15370 6.49073
#
# Compressibility (1/GPa) = 0.02057497
#
# Stress axis : x y z
#
# Youngs Moduli (GPa) = 59.95594 100.06596 62.47412
#
# Poissons Ratio (x) = 0.64144 -0.09617
# Poissons Ratio (y) = 0.38433 0.38617
# Poissons Ratio (z) = -0.09230 0.61853
#
# Static dielectric constant tensor:
#      x y z
#    x 2.034890 0.000000 0.000000 
#    y 0.000000 1.899830 0.000000 
#    z 0.000000 0.000000 1.941560 
# 
# From -- ./inp_files/12883.got.cif
#   From: 2010.05.17/outbox.cif.g08.bks.cpg/sg54_7_cif.got.tgz:12883.got - 2010.06.03 13:09:01.
