data_PCOD9423974
_publ_section_title
;
Structure prediction by ZEFSAII (Michael W. Deem and Ramdas Pophale) SiO2 
 PCOD9423974
Probable space group: P C C A
;
_chemical_formula_sum "Si O2"
_cell_formula_units_Z 60
_cell_length_a 23.691860
_cell_length_b 8.226790
_cell_length_c 15.401960
_cell_angle_alpha 90.000000
_cell_angle_beta 90.000000
_cell_angle_gamma 90.000000
_cell_volume 3001.964556
_symmetry_space_group_name_H-M "P C C A"
_symmetry_group_IT_number 54
_symmetry_cell_setting 'orthorhombic'
loop_
_space_group_symop_operation_xyz
x,y,z
1/2-x,-y,z
1/2+x,-y,1/2-z
-x,y,1/2-z
-x,-y,-z
1/2+x,y,-z
1/2-x,y,1/2+z
x,-y,1/2+z
loop_
_atom_site_type_symbol
_atom_site_label
_atom_site_fract_x
_atom_site_fract_y
_atom_site_fract_z
Si Si1 0.731061 0.708751 0.346378
Si Si2 0.643516 0.580135 0.616048
Si Si3 0.161230 0.877751 0.085380
Si Si4 0.315539 0.054453 0.409133
Si Si5 0.130103 0.905999 0.740594
Si Si6 0.066018 0.581193 0.740574
Si Si7 0.866171 0.507056 0.428737
Si Si8 0.750000 0.500000 0.693165
O O1 0.773664 0.827199 0.394625
O O2 0.682334 0.807336 0.299533
O O3 0.694810 0.577108 0.402909
O O4 0.765920 0.635794 0.264571
O O5 0.673608 0.755316 0.608725
O O6 0.600248 0.532909 0.691617
O O7 0.616691 0.555419 0.522629
O O8 0.696594 0.460016 0.634809
O O9 0.137370 0.700405 0.064146
O O10 0.127466 0.951749 0.167886
O O11 0.162303 0.999585 0.003930
O O12 0.250000 0.000000 0.401579
O O13 0.351524 0.969667 0.333807
O O14 0.081146 0.772704 0.751902
O O15 0.090756 0.538918 0.646359
O O16 0.000000 0.554226 0.750000
#
# Coordination Sequence:
#
# PCOD9423974 Si02
#       8
#     8   8   8   8   8   8   8   4
#     4  11  20  36  58  90 136 181 212 254 319 405
#     4  12  25  41  66  99 134 180 227 274 333 414
#     4  12  22  37  59  96 141 172 209 261 337 410
#     4  12  24  36  61  98 142 180 207 262 341 417
#     4  11  22  39  58  89 127 164 220 279 336 385
#     4  11  25  49  72  91 124 177 242 298 336 391
#     4  11  23  40  65  96 131 174 226 275 327 403
#     4  12  20  36  64  94 134 172 218 260 320 406
#
# _framework density 19.986910999999999
#
# number of rings (size 3 to 8) (size 9 to 14) (size 15 to 20)
#    0.000    0.533    4.000    7.600    3.733    0.533 
#    0.000    2.667    0.000    3.200    0.000    0.000 
#    0.000    0.000    0.000    0.000    0.000    0.000 
#
# Total GULP energy -334864.095035 kJ/mol
# GULP energy per Si atom -5581.068251 kJ/mol
# Density = 1.994142 g / cm^3
# Si number density = 19.986911 Si / 1000 Ang^3
#
#
#
# Elastic Constant Matrix: (Units=GPa)
#
#
# Indices 1 2 3 4 5 6 
#
# 1 94.9980 17.9266 37.3626 0.0000 0.0000 0.0000
# 2 17.9266 91.7381 33.4031 0.0000 0.0000 0.0000
# 3 37.3626 33.4031 140.6535 0.0000 0.0000 0.0000
# 4 0.0000 0.0000 0.0000 30.0121 0.0000 0.0000
# 5 0.0000 0.0000 0.0000 0.0000 2.7825 0.0000
# 6 0.0000 0.0000 0.0000 0.0000 0.0000 18.7340
#
#
#
# Elastic Compliance Matrix: (Units=1/GPa)
#
#
# Indices 1 2 3 4 5 6 
#
# 1 0.011891 -0.001285 -0.002854 0.000000 0.000000 0.000000
# 2 -0.001285 0.012071 -0.002525 0.000000 0.000000 0.000000
# 3 -0.002854 -0.002525 0.008467 0.000000 0.000000 0.000000
# 4 0.000000 0.000000 0.000000 0.033320 0.000000 0.000000
# 5 0.000000 0.000000 0.000000 0.000000 0.359395 0.000000
# 6 0.000000 0.000000 0.000000 0.000000 0.000000 0.053379
#
#
# Mechanical properties :
#
#
# Convention : Reuss Voigt Hill
#
# Bulk Modulus (GPa) = 52.34945 56.08602 54.21774
# Shear Modulus (GPa) = 10.03575 26.21886 18.12730
#
# Velocity S-wave (km/s) = 2.24323 3.62581 3.01484
# Velocity P-wave (km/s) = 5.74092 6.75655 6.26933
#
# Compressibility (1/GPa) = 0.01910240
#
# Stress axis : x y z
#
# Youngs Moduli (GPa) = 84.09505 82.84191 118.09898
#
# Poissons Ratio (x) = 0.10642 0.33702
# Poissons Ratio (y) = 0.10803 0.29826
# Poissons Ratio (z) = 0.23998 0.20922
#
# Static dielectric constant tensor:
#      x y z
#    x 1.682600 0.000000 0.000000 
#    y 0.000000 1.825250 0.000000 
#    z 0.000000 0.000000 1.728440 
# 
# From -- ./inp_files/14952.got.cif
#   From: 2010.05.17/outbox.cif.g08.bks.cpg/sg54_8_cif.got.tgz:14952.got - 2010.06.03 13:09:01.
