data_PCOD9423552
_publ_section_title
;
Structure prediction by ZEFSAII (Michael W. Deem and Ramdas Pophale) SiO2 
 PCOD9423552
Probable space group: P C C A
;
_chemical_formula_sum "Si O2"
_cell_formula_units_Z 56
_cell_length_a 29.596019
_cell_length_b 5.337568
_cell_length_c 14.460392
_cell_angle_alpha 90.000000
_cell_angle_beta 90.000000
_cell_angle_gamma 90.000000
_cell_volume 2284.319171
_symmetry_space_group_name_H-M "P C C A"
_symmetry_group_IT_number 54
_symmetry_cell_setting 'orthorhombic'
loop_
_space_group_symop_operation_xyz
x,y,z
1/2-x,-y,z
1/2+x,-y,1/2-z
-x,y,1/2-z
-x,-y,-z
1/2+x,y,-z
1/2-x,y,1/2+z
x,-y,1/2+z
loop_
_atom_site_type_symbol
_atom_site_label
_atom_site_fract_x
_atom_site_fract_y
_atom_site_fract_z
Si Si1 0.558440 0.857890 0.915908
Si Si2 0.722513 0.752292 0.786680
Si Si3 0.573312 0.353553 0.127939
Si Si4 0.874638 0.578052 0.301492
Si Si5 0.628504 0.775290 0.460953
Si Si6 0.223057 0.248711 0.936981
Si Si7 0.979142 0.831039 0.611073
O O1 0.577337 0.674954 0.840003
O O2 0.604840 0.956495 0.960777
O O3 0.529951 0.082644 0.869144
O O4 0.526081 0.783010 0.999984
O O5 0.750000 0.500000 0.811584
O O6 0.671090 0.733054 0.821986
O O7 0.718853 0.755413 0.674622
O O8 0.750000 0.000000 0.814702
O O9 0.616169 0.410982 0.193001
O O10 0.537544 0.570022 0.151254
O O11 0.552205 0.073618 0.136134
O O12 0.592426 0.379574 0.023325
O O13 0.867472 0.320872 0.356351
O O14 0.675433 0.759827 0.512364
O O15 0.250000 0.500000 0.961690
O O16 0.250000 0.000000 0.963399
#
# Coordination Sequence:
#
# PCOD9423552 Si02
#       7
#     8   8   8   8   8   8   8
#     4  10  25  44  72 103 140 188 239 297 349 430
#     4  10  24  46  71 101 142 183 231 295 353 418
#     4  11  25  46  74 101 143 192 228 298 352 422
#     4  12  26  45  72 109 142 187 248 290 358 427
#     4  11  25  46  70 105 142 183 241 289 360 424
#     4  10  23  45  73 100 134 186 231 283 361 427
#     4  10  24  48  72  99 146 187 237 290 365 411
#
# _framework density 24.514965
#
# number of rings (size 3 to 8) (size 9 to 14) (size 15 to 20)
#    0.000    1.429    2.857    0.000    8.000    2.857 
#    0.000    0.000    0.000    0.000    0.000    0.000 
#    0.000    0.000    0.000    0.000    0.000    0.000 
#
# Total GULP energy -313098.033644 kJ/mol
# GULP energy per Si atom -5591.036315 kJ/mol
# Density = 2.445917 g / cm^3
# Si number density = 24.514965 Si / 1000 Ang^3
#
#
#
# Elastic Constant Matrix: (Units=GPa)
#
#
# Indices 1 2 3 4 5 6 
#
# 1 114.4438 35.8308 1.6353 0.0000 0.0000 0.0000
# 2 35.8308 129.5937 9.9274 0.0000 0.0000 0.0000
# 3 1.6353 9.9274 71.5758 0.0000 0.0000 0.0000
# 4 0.0000 0.0000 0.0000 29.1137 0.0000 0.0000
# 5 0.0000 0.0000 0.0000 0.0000 29.6691 0.0000
# 6 0.0000 0.0000 0.0000 0.0000 0.0000 37.5446
#
#
#
# Elastic Compliance Matrix: (Units=1/GPa)
#
#
# Indices 1 2 3 4 5 6 
#
# 1 0.009568 -0.002657 0.000150 0.000000 0.000000 0.000000
# 2 -0.002657 0.008537 -0.001123 0.000000 0.000000 0.000000
# 3 0.000150 -0.001123 0.014124 0.000000 0.000000 0.000000
# 4 0.000000 0.000000 0.000000 0.034348 0.000000 0.000000
# 5 0.000000 0.000000 0.000000 0.000000 0.033705 0.000000
# 6 0.000000 0.000000 0.000000 0.000000 0.000000 0.026635
#
#
# Mechanical properties :
#
#
# Convention : Reuss Voigt Hill
#
# Bulk Modulus (GPa) = 40.05174 45.60003 42.82588
# Shear Modulus (GPa) = 35.08786 37.14680 36.11733
#
# Velocity S-wave (km/s) = 3.78733 3.89687 3.84249
# Velocity P-wave (km/s) = 5.95805 6.23608 6.09865
#
# Compressibility (1/GPa) = 0.02496771
#
# Stress axis : x y z
#
# Youngs Moduli (GPa) = 104.51976 117.13667 70.80351
#
# Poissons Ratio (x) = 0.31121 -0.01061
# Poissons Ratio (y) = 0.27769 0.07954
# Poissons Ratio (z) = -0.01567 0.13159
#
# Static dielectric constant tensor:
#      x y z
#    x 1.929370 0.000000 0.000000 
#    y 0.000000 1.982130 0.000000 
#    z 0.000000 0.000000 2.008780 
# 
# From -- ./inp_files/15343.got.cif
#   From: 2010.05.17/outbox.cif.g08.bks.cpg/sg54_8_cif.got.tgz:15343.got - 2010.06.03 13:09:01.
