data_PCOD9423817
_publ_section_title
;
Structure prediction by ZEFSAII (Michael W. Deem and Ramdas Pophale) SiO2 
 PCOD9423817
Probable space group: P C C A
;
_chemical_formula_sum "Si O2"
_cell_formula_units_Z 32
_cell_length_a 9.971773
_cell_length_b 15.747993
_cell_length_c 8.342961
_cell_angle_alpha 90.000000
_cell_angle_beta 90.000000
_cell_angle_gamma 90.000000
_cell_volume 1310.140313
_symmetry_space_group_name_H-M "P C C A"
_symmetry_group_IT_number 54
_symmetry_cell_setting 'orthorhombic'
loop_
_space_group_symop_operation_xyz
x,y,z
1/2-x,-y,z
1/2+x,-y,1/2-z
-x,y,1/2-z
-x,-y,-z
1/2+x,y,-z
1/2-x,y,1/2+z
x,-y,1/2+z
loop_
_atom_site_type_symbol
_atom_site_label
_atom_site_fract_x
_atom_site_fract_y
_atom_site_fract_z
Si Si1 0.914990 0.731782 0.583443
Si Si2 0.750000 0.500000 0.805781
Si Si3 0.750000 0.000000 0.644987
Si Si4 0.856190 0.375062 0.567141
Si Si5 0.387225 0.904440 0.613845
O O1 0.768981 0.688237 0.604862
O O2 0.895216 0.818138 0.483875
O O3 0.000000 0.742062 0.750000
O O4 0.007635 0.673839 0.468033
O O5 0.854145 0.448513 0.698365
O O6 0.678671 0.428511 0.909166
O O7 0.737903 0.920220 0.765297
O O8 0.867709 0.975883 0.522595
O O9 0.500000 0.910592 0.750000
#
# Coordination Sequence:
#
# PCOD9423817 Si02
#       5
#     8   4   4   8   8
#     4  12  29  48  77 112 159 201 259 316 391 459
#     4  10  24  46  80 106 148 204 256 318 378 456
#     4  10  26  52  78 114 150 196 262 306 386 454
#     4  11  26  48  73 112 150 201 258 314 385 454
#     4  11  27  47  80 109 153 199 249 317 376 456
#
# _framework density 24.424866000000002
#
# number of rings (size 3 to 8) (size 9 to 14) (size 15 to 20)
#    0.000    1.000    2.500    0.750   10.500    9.000 
#    0.000    0.000    0.000    0.000    0.000    0.000 
#    0.000    0.000    0.000    0.000    0.000    0.000 
#
# Total GULP energy -178782.818966 kJ/mol
# GULP energy per Si atom -5586.963093 kJ/mol
# Density = 2.436927 g / cm^3
# Si number density = 24.424866 Si / 1000 Ang^3
#
#
#
# Elastic Constant Matrix: (Units=GPa)
#
#
# Indices 1 2 3 4 5 6 
#
# 1 72.9033 17.7175 17.8818 0.0000 0.0000 0.0000
# 2 17.7175 100.8370 63.3114 0.0000 0.0000 0.0000
# 3 17.8818 63.3114 147.2875 0.0000 0.0000 0.0000
# 4 0.0000 0.0000 0.0000 209.2848 0.0000 0.0000
# 5 0.0000 0.0000 0.0000 0.0000 -18.5882 0.0000
# 6 0.0000 0.0000 0.0000 0.0000 0.0000 26.5579
#
#
#
# Elastic Compliance Matrix: (Units=1/GPa)
#
#
# Indices 1 2 3 4 5 6 
#
# 1 0.014416 -0.001964 -0.000906 0.000000 0.000000 0.000000
# 2 -0.001964 0.013850 -0.005715 0.000000 0.000000 0.000000
# 3 -0.000906 -0.005715 0.009356 0.000000 0.000000 0.000000
# 4 0.000000 0.000000 0.000000 0.004778 0.000000 0.000000
# 5 0.000000 0.000000 0.000000 0.000000 -0.053798 0.000000
# 6 0.000000 0.000000 0.000000 0.000000 0.000000 0.037654
#
#
# Mechanical properties :
#
#
# Convention : Reuss Voigt Hill
#
# Bulk Modulus (GPa) = 48.89429 57.64993 53.27211
# Shear Modulus (GPa) = 99.51257 58.25872 78.88564
#
# Velocity S-wave (km/s) = 6.38990 4.88917 5.68923
# Velocity P-wave (km/s) = 8.63150 7.45159 8.06315
#
# Compressibility (1/GPa) = 0.02045229
#
# Stress axis : x y z
#
# Youngs Moduli (GPa) = 69.36563 72.20009 106.88253
#
# Poissons Ratio (x) = 0.14182 0.09683
# Poissons Ratio (y) = 0.13625 0.61085
# Poissons Ratio (z) = 0.06284 0.41263
#
# Static dielectric constant tensor:
#      x y z
#    x 1.843100 0.000000 0.000000 
#    y 0.000000 1.891190 0.000000 
#    z 0.000000 0.000000 1.952730 
# 
# From -- ./inp_files/2883.got.cif
#   From: 2010.05.17/outbox.cif.g08.bks.cpg/sg54_2_cif.got.tgz:2883.got - 2010.06.03 13:09:01.
