data_PCOD9423735
_publ_section_title
;
Structure prediction by ZEFSAII (Michael W. Deem and Ramdas Pophale) SiO2 
 PCOD9423735
Probable space group: P C C A
;
_chemical_formula_sum "Si O2"
_cell_formula_units_Z 20
_cell_length_a 19.266357
_cell_length_b 4.333230
_cell_length_c 8.399824
_cell_angle_alpha 90.000000
_cell_angle_beta 90.000000
_cell_angle_gamma 90.000000
_cell_volume 701.263978
_symmetry_space_group_name_H-M "P C C A"
_symmetry_group_IT_number 54
_symmetry_cell_setting 'orthorhombic'
loop_
_space_group_symop_operation_xyz
x,y,z
1/2-x,-y,z
1/2+x,-y,1/2-z
-x,y,1/2-z
-x,-y,-z
1/2+x,y,-z
1/2-x,y,1/2+z
x,-y,1/2+z
loop_
_atom_site_type_symbol
_atom_site_label
_atom_site_fract_x
_atom_site_fract_y
_atom_site_fract_z
Si Si1 0.697788 0.761109 0.969294
Si Si2 0.398089 0.170962 0.759818
Si Si3 0.000000 0.674402 0.250000
O O1 0.750000 0.500000 0.903672
O O2 0.646278 0.654016 0.107082
O O3 0.750000 0.000000 0.051654
O O4 0.847710 0.032675 0.849474
O O5 0.445097 0.433051 0.674854
O O6 0.450545 0.921029 0.838540
#
# Coordination Sequence:
#
# PCOD9423735 Si02
#       3
#     8   8   4
#     4  12  26  45  70 103 144 184 233 290 351 420
#     4  11  25  44  70 102 139 187 234 290 350 413
#     4  10  24  44  70 100 140 184 240 286 344 420
#
# _framework density 28.519928
#
# number of rings (size 3 to 8) (size 9 to 14) (size 15 to 20)
#    0.000    0.800    0.000    6.000    0.000   12.800 
#    0.000    0.000    0.000    0.000    0.000    0.000 
#    0.000    0.000    0.000    0.000    0.000    0.000 
#
# Total GULP energy -111717.492522 kJ/mol
# GULP energy per Si atom -5585.874626 kJ/mol
# Density = 2.845502 g / cm^3
# Si number density = 28.519928 Si / 1000 Ang^3
#
#
#
# Elastic Constant Matrix: (Units=GPa)
#
#
# Indices 1 2 3 4 5 6 
#
# 1 183.9027 100.2616 68.1010 0.0000 0.0000 0.0000
# 2 100.2616 173.1086 15.0131 0.0000 0.0000 0.0000
# 3 68.1010 15.0131 50.3550 0.0000 0.0000 0.0000
# 4 0.0000 0.0000 0.0000 24.8040 0.0000 0.0000
# 5 0.0000 0.0000 0.0000 0.0000 33.3595 0.0000
# 6 0.0000 0.0000 0.0000 0.0000 0.0000 105.2915
#
#
#
# Elastic Compliance Matrix: (Units=1/GPa)
#
#
# Indices 1 2 3 4 5 6 
#
# 1 0.018556 -0.008799 -0.022473 0.000000 0.000000 0.000000
# 2 -0.008799 0.010102 0.008888 0.000000 0.000000 0.000000
# 3 -0.022473 0.008888 0.047602 0.000000 0.000000 0.000000
# 4 0.000000 0.000000 0.000000 0.040316 0.000000 0.000000
# 5 0.000000 0.000000 0.000000 0.000000 0.029976 0.000000
# 6 0.000000 0.000000 0.000000 0.000000 0.000000 0.009497
#
#
# Mechanical properties :
#
#
# Convention : Reuss Voigt Hill
#
# Bulk Modulus (GPa) = 31.75360 86.01310 58.88335
# Shear Modulus (GPa) = 23.66130 47.62372 35.64251
#
# Velocity S-wave (km/s) = 2.88347 4.09080 3.53900
# Velocity P-wave (km/s) = 4.71634 7.24826 6.11478
#
# Compressibility (1/GPa) = 0.03149249
#
# Stress axis : x y z
#
# Youngs Moduli (GPa) = 53.88952 98.99080 21.00758
#
# Poissons Ratio (x) = 0.87098 0.47210
# Poissons Ratio (y) = 0.47415 -0.18671
# Poissons Ratio (z) = 1.21105 -0.87979
#
# Static dielectric constant tensor:
#      x y z
#    x 2.255670 0.000000 0.000000 
#    y 0.000000 2.177620 0.000000 
#    z 0.000000 0.000000 2.135560 
# 
# From -- ./inp_files/7687.got.cif
#   From: 2010.05.17/outbox.cif.g08.bks.cpg/sg54_4_cif.got.tgz:7687.got - 2010.06.03 13:09:01.
