data_PCOD9423520
_publ_section_title
;
Structure prediction by ZEFSAII (Michael W. Deem and Ramdas Pophale) SiO2 
 PCOD9423520
Probable space group: P C C A
;
_chemical_formula_sum "Si O2"
_cell_formula_units_Z 48
_cell_length_a 15.835926
_cell_length_b 8.298789
_cell_length_c 16.772817
_cell_angle_alpha 90.000000
_cell_angle_beta 90.000000
_cell_angle_gamma 90.000000
_cell_volume 2204.266980
_symmetry_space_group_name_H-M "P C C A"
_symmetry_group_IT_number 54
_symmetry_cell_setting 'orthorhombic'
loop_
_space_group_symop_operation_xyz
x,y,z
1/2-x,-y,z
1/2+x,-y,1/2-z
-x,y,1/2-z
-x,-y,-z
1/2+x,y,-z
1/2-x,y,1/2+z
x,-y,1/2+z
loop_
_atom_site_type_symbol
_atom_site_label
_atom_site_fract_x
_atom_site_fract_y
_atom_site_fract_z
Si Si1 0.335468 0.581040 0.957726
Si Si2 0.000000 0.446096 0.750000
Si Si3 0.888067 0.882350 0.938193
Si Si4 0.850888 0.235811 0.704566
Si Si5 0.048405 0.329169 0.395801
Si Si6 0.250000 0.000000 0.687139
Si Si7 0.150224 0.042569 0.406230
O O1 0.250000 0.500000 0.983996
O O2 0.325383 0.642151 0.866304
O O3 0.413613 0.456036 0.959727
O O4 0.347775 0.734556 0.012928
O O5 0.081034 0.330469 0.743228
O O6 0.013198 0.560407 0.825514
O O7 0.828523 0.941323 0.866809
O O8 0.977338 0.804662 0.914341
O O9 0.887092 0.022280 0.004970
O O10 0.781034 0.148880 0.758308
O O11 0.890372 0.087372 0.653666
O O12 0.130015 0.219921 0.375204
O O13 0.250000 0.000000 0.409547
#
# Coordination Sequence:
#
# PCOD9423520 Si02
#       7
#     8   4   8   8   8   4   8
#     4  10  23  44  70  93 134 179 224 272 334 412
#     4  10  26  44  64 104 138 172 228 278 342 400
#     4  11  25  42  63 103 133 173 224 280 332 395
#     4  10  24  43  65  96 133 177 222 275 333 402
#     4  11  24  42  70  96 136 176 222 274 341 398
#     4  12  26  40  70 100 138 170 228 282 334 390
#     4  11  22  44  70  96 131 178 231 269 330 408
#
# _framework density 21.775945
#
# number of rings (size 3 to 8) (size 9 to 14) (size 15 to 20)
#    0.000    1.333    1.667    3.000    4.667    2.667 
#    3.000    0.000    0.000    0.000    0.000    0.000 
#    0.000    0.000    0.000    0.000    0.000    0.000 
#
# Total GULP energy -267977.937885 kJ/mol
# GULP energy per Si atom -5582.873706 kJ/mol
# Density = 2.172638 g / cm^3
# Si number density = 21.775945 Si / 1000 Ang^3
#
#
#
# Elastic Constant Matrix: (Units=GPa)
#
#
# Indices 1 2 3 4 5 6 
#
# 1 117.8313 44.0697 39.7597 0.0000 0.0000 0.0000
# 2 44.0697 91.1060 17.6690 0.0000 0.0000 0.0000
# 3 39.7597 17.6690 68.8797 0.0000 0.0000 0.0000
# 4 0.0000 0.0000 0.0000 777.7340 0.0000 0.0000
# 5 0.0000 0.0000 0.0000 0.0000 20.8566 0.0000
# 6 0.0000 0.0000 0.0000 0.0000 0.0000 49.3256
#
#
#
# Elastic Compliance Matrix: (Units=1/GPa)
#
#
# Indices 1 2 3 4 5 6 
#
# 1 0.012251 -0.004793 -0.005842 0.000000 0.000000 0.000000
# 2 -0.004793 0.013426 -0.000677 0.000000 0.000000 0.000000
# 3 -0.005842 -0.000677 0.018064 0.000000 0.000000 0.000000
# 4 0.000000 0.000000 0.000000 0.001286 0.000000 0.000000
# 5 0.000000 0.000000 0.000000 0.000000 0.047946 0.000000
# 6 0.000000 0.000000 0.000000 0.000000 0.000000 0.020273
#
#
# Mechanical properties :
#
#
# Convention : Reuss Voigt Hill
#
# Bulk Modulus (GPa) = 47.35731 53.42375 50.39053
# Shear Modulus (GPa) = 34.98720 181.33779 108.16249
#
# Velocity S-wave (km/s) = 4.01270 9.13538 7.05539
# Velocity P-wave (km/s) = 6.57752 11.65591 9.46372
#
# Compressibility (1/GPa) = 0.02111607
#
# Stress axis : x y z
#
# Youngs Moduli (GPa) = 81.62927 74.48237 55.35863
#
# Poissons Ratio (x) = 0.35698 0.32340
# Poissons Ratio (y) = 0.39123 0.03750
# Poissons Ratio (z) = 0.47687 0.05046
#
# Static dielectric constant tensor:
#      x y z
#    x 1.850100 0.000000 0.000000 
#    y 0.000000 1.808490 0.000000 
#    z 0.000000 0.000000 1.805150 
# 
# From -- ./inp_files/18096.got.cif
#   From: 2010.05.17/outbox.cif.g08.bks.cpg/sg54_10_cif.got.tgz:18096.got - 2010.06.03 13:09:01.
