data_PCOD9423388
_publ_section_title
;
Structure prediction by ZEFSAII (Michael W. Deem and Ramdas Pophale) SiO2 
 PCOD9423388
Probable space group: P C C A
;
_chemical_formula_sum "Si O2"
_cell_formula_units_Z 28
_cell_length_a 18.299642
_cell_length_b 7.357545
_cell_length_c 9.086142
_cell_angle_alpha 90.000000
_cell_angle_beta 90.000000
_cell_angle_gamma 90.000000
_cell_volume 1223.362152
_symmetry_space_group_name_H-M "P C C A"
_symmetry_group_IT_number 54
_symmetry_cell_setting 'orthorhombic'
loop_
_space_group_symop_operation_xyz
x,y,z
1/2-x,-y,z
1/2+x,-y,1/2-z
-x,y,1/2-z
-x,-y,-z
1/2+x,y,-z
1/2-x,y,1/2+z
x,-y,1/2+z
loop_
_atom_site_type_symbol
_atom_site_label
_atom_site_fract_x
_atom_site_fract_y
_atom_site_fract_z
Si Si1 0.087918 0.253016 0.757976
Si Si2 0.414887 0.457567 0.969572
Si Si3 0.750000 0.000000 0.433440
Si Si4 0.651748 0.138119 0.695916
O O1 0.115473 0.353991 0.905137
O O2 0.114705 0.370512 0.619134
O O3 0.000000 0.260735 0.750000
O O4 0.108669 0.043514 0.758586
O O5 0.400054 0.307497 0.841920
O O6 0.500000 0.500000 0.000000
O O7 0.692943 0.090493 0.544524
O O8 0.787613 0.147366 0.324417
#
# Coordination Sequence:
#
# PCOD9423388 Si02
#       4
#     8   8   4   8
#     4  10  23  40  66 101 134 178 223 290 349 401
#     4  10  23  41  65 101 137 176 233 287 349 412
#     4  10  24  42  72  96 136 194 228 280 334 434
#     4  11  22  46  68  97 137 181 237 275 349 406
#
# _framework density 22.887746
#
# number of rings (size 3 to 8) (size 9 to 14) (size 15 to 20)
#    0.000    1.714    2.857    0.000    4.000    8.000 
#    0.000    8.571    0.000    0.000    0.000    0.000 
#    0.000    0.000    0.000    0.000    0.000    0.000 
#
# Total GULP energy -156241.478419 kJ/mol
# GULP energy per Si atom -5580.052801 kJ/mol
# Density = 2.283565 g / cm^3
# Si number density = 22.887746 Si / 1000 Ang^3
#
#
#
# Elastic Constant Matrix: (Units=GPa)
#
#
# Indices 1 2 3 4 5 6 
#
# 1 43.1578 22.3770 36.9605 0.0000 0.0000 0.0000
# 2 22.3770 90.9014 15.3088 0.0000 0.0000 0.0000
# 3 36.9605 15.3088 113.2080 0.0000 0.0000 0.0000
# 4 0.0000 0.0000 0.0000 37.9671 0.0000 0.0000
# 5 0.0000 0.0000 0.0000 0.0000 35.8552 0.0000
# 6 0.0000 0.0000 0.0000 0.0000 0.0000 31.1525
#
#
#
# Elastic Compliance Matrix: (Units=1/GPa)
#
#
# Indices 1 2 3 4 5 6 
#
# 1 0.036113 -0.007065 -0.010835 0.000000 0.000000 0.000000
# 2 -0.007065 0.012640 0.000597 0.000000 0.000000 0.000000
# 3 -0.010835 0.000597 0.012290 0.000000 0.000000 0.000000
# 4 0.000000 0.000000 0.000000 0.026339 0.000000 0.000000
# 5 0.000000 0.000000 0.000000 0.000000 0.027890 0.000000
# 6 0.000000 0.000000 0.000000 0.000000 0.000000 0.032100
#
#
# Mechanical properties :
#
#
# Convention : Reuss Voigt Hill
#
# Bulk Modulus (GPa) = 37.82534 44.06219 40.94377
# Shear Modulus (GPa) = 26.20697 32.50300 29.35499
#
# Velocity S-wave (km/s) = 3.38749 3.77252 3.58517
# Velocity P-wave (km/s) = 5.64468 6.18620 5.92163
#
# Compressibility (1/GPa) = 0.02643730
#
# Stress axis : x y z
#
# Youngs Moduli (GPa) = 27.69080 79.11687 81.36749
#
# Poissons Ratio (x) = 0.55897 0.88161
# Poissons Ratio (y) = 0.19564 -0.04861
# Poissons Ratio (z) = 0.30003 -0.04727
#
# Static dielectric constant tensor:
#      x y z
#    x 1.901740 0.000000 0.000000 
#    y 0.000000 1.853730 0.000000 
#    z 0.000000 0.000000 1.894190 
# 
# From -- ./inp_files/5360.got.cif
#   From: 2010.05.17/outbox.cif.g08.bks.cpg/sg54_3_cif.got.tgz:5360.got - 2010.06.03 13:09:01.
