data_PCOD9423130
_publ_section_title
;
Structure prediction by ZEFSAII (Michael W. Deem and Ramdas Pophale) SiO2 
 PCOD9423130
Probable space group: P C C A
;
_chemical_formula_sum "Si O2"
_cell_formula_units_Z 32
_cell_length_a 8.453855
_cell_length_b 15.182007
_cell_length_c 11.218721
_cell_angle_alpha 90.000000
_cell_angle_beta 90.000000
_cell_angle_gamma 90.000000
_cell_volume 1439.883415
_symmetry_space_group_name_H-M "P C C A"
_symmetry_group_IT_number 54
_symmetry_cell_setting 'orthorhombic'
loop_
_space_group_symop_operation_xyz
x,y,z
1/2-x,-y,z
1/2+x,-y,1/2-z
-x,y,1/2-z
-x,-y,-z
1/2+x,y,-z
1/2-x,y,1/2+z
x,-y,1/2+z
loop_
_atom_site_type_symbol
_atom_site_label
_atom_site_fract_x
_atom_site_fract_y
_atom_site_fract_z
Si Si1 0.750000 0.000000 0.363859
Si Si2 0.000000 0.874219 0.250000
Si Si3 0.438762 0.159266 0.619344
Si Si4 0.385340 0.748706 0.570624
Si Si5 0.578144 0.542641 0.881495
O O1 0.854560 0.935856 0.282871
O O2 0.632042 0.933206 0.432803
O O3 0.015489 0.806554 0.358516
O O4 0.500000 0.136114 0.750000
O O5 0.288506 0.224855 0.615562
O O6 0.582791 0.211476 0.558960
O O7 0.413428 0.646656 0.590250
O O8 0.750000 0.500000 0.872363
O O9 0.500000 0.530289 0.750000
O O10 0.500000 0.500000 0.000000
#
# Coordination Sequence:
#
# PCOD9423130 Si02
#       5
#     4   4   8   8   8
#     4  10  22  42  68 104 146 180 242 286 350 416
#     4  10  22  42  66  98 138 184 228 286 342 424
#     4  11  26  44  69 106 144 193 243 294 350 431
#     4  11  26  44  73  99 145 189 237 297 362 429
#     4  12  27  49  76 111 147 193 248 315 384 455
#
# _framework density 22.224019999999999
#
# number of rings (size 3 to 8) (size 9 to 14) (size 15 to 20)
#    0.000    1.000    2.500    2.250    7.000   11.000 
#    0.000    0.000    0.000    0.000    0.000    0.000 
#    0.000    0.000    0.000    0.000    0.000    0.000 
#
# Total GULP energy -178603.197889 kJ/mol
# GULP energy per Si atom -5581.349934 kJ/mol
# Density = 2.217344 g / cm^3
# Si number density = 22.224020 Si / 1000 Ang^3
#
#
#
# Elastic Constant Matrix: (Units=GPa)
#
#
# Indices 1 2 3 4 5 6 
#
# 1 119.3835 72.5010 37.3570 0.0000 0.0000 0.0000
# 2 72.5010 206.8209 56.2742 0.0000 0.0000 0.0000
# 3 37.3570 56.2742 81.0479 0.0000 0.0000 0.0000
# 4 0.0000 0.0000 0.0000 21.0282 0.0000 0.0000
# 5 0.0000 0.0000 0.0000 0.0000 27.7776 0.0000
# 6 0.0000 0.0000 0.0000 0.0000 0.0000 31.3459
#
#
#
# Elastic Compliance Matrix: (Units=1/GPa)
#
#
# Indices 1 2 3 4 5 6 
#
# 1 0.011206 -0.003110 -0.003005 0.000000 0.000000 0.000000
# 2 -0.003110 0.006825 -0.003305 0.000000 0.000000 0.000000
# 3 -0.003005 -0.003305 0.016018 0.000000 0.000000 0.000000
# 4 0.000000 0.000000 0.000000 0.047555 0.000000 0.000000
# 5 0.000000 0.000000 0.000000 0.000000 0.036000 0.000000
# 6 0.000000 0.000000 0.000000 0.000000 0.000000 0.031902
#
#
# Mechanical properties :
#
#
# Convention : Reuss Voigt Hill
#
# Bulk Modulus (GPa) = 65.75757 82.16852 73.96305
# Shear Modulus (GPa) = 28.83224 32.10500 30.46862
#
# Velocity S-wave (km/s) = 3.60578 3.80492 3.70669
# Velocity P-wave (km/s) = 6.85480 7.50709 7.18834
#
# Compressibility (1/GPa) = 0.01520737
#
# Stress axis : x y z
#
# Youngs Moduli (GPa) = 89.24001 146.52645 62.42844
#
# Poissons Ratio (x) = 0.45576 0.18762
# Poissons Ratio (y) = 0.27758 0.20632
# Poissons Ratio (z) = 0.26820 0.48426
#
# Static dielectric constant tensor:
#      x y z
#    x 1.893390 0.000000 0.000000 
#    y 0.000000 1.791670 0.000000 
#    z 0.000000 0.000000 2.109930 
# 
# From -- ./inp_files/6747.got.cif
#   From: 2010.05.17/outbox.cif.g08.bks.cpg/sg54_4_cif.got.tgz:6747.got - 2010.06.03 13:09:01.
