data_PCOD9423841
_publ_section_title
;
Structure prediction by ZEFSAII (Michael W. Deem and Ramdas Pophale) SiO2 
 PCOD9423841
Probable space group: P C C A
;
_chemical_formula_sum "Si O2"
_cell_formula_units_Z 32
_cell_length_a 5.391718
_cell_length_b 7.696200
_cell_length_c 32.581377
_cell_angle_alpha 90.000000
_cell_angle_beta 90.000000
_cell_angle_gamma 90.000000
_cell_volume 1351.988351
_symmetry_space_group_name_H-M "P C C A"
_symmetry_group_IT_number 54
_symmetry_cell_setting 'orthorhombic'
loop_
_space_group_symop_operation_xyz
x,y,z
1/2-x,-y,z
1/2+x,-y,1/2-z
-x,y,1/2-z
-x,-y,-z
1/2+x,y,-z
1/2-x,y,1/2+z
x,-y,1/2+z
loop_
_atom_site_type_symbol
_atom_site_label
_atom_site_fract_x
_atom_site_fract_y
_atom_site_fract_z
Si Si1 0.510464 0.237778 0.973718
Si Si2 0.750000 0.000000 0.907185
Si Si3 0.748060 0.709786 0.727605
Si Si4 0.867869 0.188516 0.634937
Si Si5 0.250000 0.500000 0.426005
O O1 0.476096 0.428764 0.953526
O O2 0.561040 0.094670 0.938527
O O3 0.246228 0.217543 0.996464
O O4 0.652627 0.851543 0.876384
O O5 0.750000 0.500000 0.730267
O O6 0.500000 0.774401 0.750000
O O7 0.714605 0.757583 0.680152
O O8 0.000000 0.771347 0.750000
O O9 0.804529 0.337929 0.602955
O O10 0.750000 0.000000 0.628001
#
# Coordination Sequence:
#
# PCOD9423841 Si02
#       5
#     8   4   8   8   4
#     4  12  27  50  78 112 156 210 266 332 400 469
#     4  12  28  48  78 120 158 204 270 332 394 470
#     4  10  24  48  79 116 154 202 258 317 386 465
#     4  12  27  50  77 116 158 207 259 325 390 468
#     4  12  26  52  78 116 154 210 266 328 392 476
#
# _framework density 23.668841
#
# number of rings (size 3 to 8) (size 9 to 14) (size 15 to 20)
#    0.000    0.500    3.750    3.000    3.500    4.000 
#    4.500    0.000    0.000    0.000    0.000    0.000 
#    0.000    0.000    0.000    0.000    0.000    0.000 
#
# Total GULP energy -178895.244699 kJ/mol
# GULP energy per Si atom -5590.476397 kJ/mol
# Density = 2.361497 g / cm^3
# Si number density = 23.668841 Si / 1000 Ang^3
#
#
#
# Elastic Constant Matrix: (Units=GPa)
#
#
# Indices 1 2 3 4 5 6 
#
# 1 175.2193 43.9274 98.3735 0.0000 0.0000 0.0000
# 2 43.9274 94.9151 30.2564 0.0000 0.0000 0.0000
# 3 98.3735 30.2564 156.5993 0.0000 0.0000 0.0000
# 4 0.0000 0.0000 0.0000 -510.1149 0.0000 0.0000
# 5 0.0000 0.0000 0.0000 0.0000 35.6177 0.0000
# 6 0.0000 0.0000 0.0000 0.0000 0.0000 30.4877
#
#
#
# Elastic Compliance Matrix: (Units=1/GPa)
#
#
# Indices 1 2 3 4 5 6 
#
# 1 0.009394 -0.002628 -0.005393 0.000000 0.000000 0.000000
# 2 -0.002628 0.011963 -0.000660 0.000000 0.000000 0.000000
# 3 -0.005393 -0.000660 0.009901 0.000000 0.000000 0.000000
# 4 0.000000 0.000000 0.000000 -0.001960 0.000000 0.000000
# 5 0.000000 0.000000 0.000000 0.000000 0.028076 0.000000
# 6 0.000000 0.000000 0.000000 0.000000 0.000000 0.032800
#
#
# Mechanical properties :
#
#
# Convention : Reuss Voigt Hill
#
# Bulk Modulus (GPa) = 71.97292 85.76093 78.86693
# Shear Modulus (GPa) = 44.57558 -71.85680 -13.64061
#
# Velocity S-wave (km/s) = 4.34441 -5.51590 -2.40325
# Velocity P-wave (km/s) = 7.45919 2.06265 5.06878
#
# Compressibility (1/GPa) = 0.01389411
#
# Stress axis : x y z
#
# Youngs Moduli (GPa) = 106.44987 83.59379 100.99639
#
# Poissons Ratio (x) = 0.21972 0.54472
# Poissons Ratio (y) = 0.27979 0.06668
# Poissons Ratio (z) = 0.57413 0.05519
#
# Static dielectric constant tensor:
#      x y z
#    x 2.079950 0.000000 0.000000 
#    y 0.000000 1.917560 0.000000 
#    z 0.000000 0.000000 1.882090 
# 
# From -- ./inp_files/26966.got.cif
#   From: 2010.05.17/outbox.cif.g08.bks.cpg/sg54_14_cif.got.tgz:26966.got - 2010.06.03 13:09:01.
