data_PCOD9423416
_publ_section_title
;
Structure prediction by ZEFSAII (Michael W. Deem and Ramdas Pophale) SiO2 
 PCOD9423416
Probable space group: P C C A
;
_chemical_formula_sum "Si O2"
_cell_formula_units_Z 48
_cell_length_a 19.085181
_cell_length_b 9.905174
_cell_length_c 13.354355
_cell_angle_alpha 90.000000
_cell_angle_beta 90.000000
_cell_angle_gamma 90.000000
_cell_volume 2524.534494
_symmetry_space_group_name_H-M "P C C A"
_symmetry_group_IT_number 54
_symmetry_cell_setting 'orthorhombic'
loop_
_space_group_symop_operation_xyz
x,y,z
1/2-x,-y,z
1/2+x,-y,1/2-z
-x,y,1/2-z
-x,-y,-z
1/2+x,y,-z
1/2-x,y,1/2+z
x,-y,1/2+z
loop_
_atom_site_type_symbol
_atom_site_label
_atom_site_fract_x
_atom_site_fract_y
_atom_site_fract_z
Si Si1 0.581086 0.957375 0.001137
Si Si2 0.516724 0.595046 0.364202
Si Si3 0.416696 0.655888 0.545626
Si Si4 0.733839 0.353444 0.522412
Si Si5 0.810913 0.885064 0.669788
Si Si6 0.147500 0.790725 0.608037
O O1 0.619442 0.933665 0.108542
O O2 0.626930 0.071701 0.948148
O O3 0.500000 0.000000 0.000000
O O4 0.581417 0.816014 0.941498
O O5 0.500000 0.620754 0.250000
O O6 0.451818 0.624420 0.437495
O O7 0.541457 0.440881 0.380129
O O8 0.579603 0.694658 0.393386
O O9 0.335522 0.620052 0.542902
O O10 0.750000 0.500000 0.567570
O O11 0.716819 0.241709 0.605467
O O12 0.792712 0.289473 0.451582
O O13 0.829943 0.833051 0.780257
O O14 0.750000 0.000000 0.672328
#
# Coordination Sequence:
#
# PCOD9423416 Si02
#       6
#     8   8   8   8   8   8
#     4  11  23  45  67  94 133 172 217 271 330 395
#     4  11  22  44  65  97 130 168 218 272 325 389
#     4  10  23  41  66  93 128 169 212 266 331 385
#     4  11  23  46  67  94 133 175 219 270 329 395
#     4  11  26  43  66 102 131 174 218 274 331 391
#     4  12  25  43  68  95 136 176 220 272 334 396
#
# _framework density 19.013407000000001
#
# number of rings (size 3 to 8) (size 9 to 14) (size 15 to 20)
#    0.000    1.000    5.000    2.000    4.667    0.667 
#    6.000    0.000    0.000    0.000    0.000    0.000 
#    0.000    0.000    0.000    0.000    0.000    0.000 
#
# Total GULP energy -268018.255478 kJ/mol
# GULP energy per Si atom -5583.713656 kJ/mol
# Density = 1.897013 g / cm^3
# Si number density = 19.013407 Si / 1000 Ang^3
#
#
#
# Elastic Constant Matrix: (Units=GPa)
#
#
# Indices 1 2 3 4 5 6 
#
# 1 71.0905 29.5663 10.2242 0.0000 0.0000 0.0000
# 2 29.5663 117.6602 16.5885 0.0000 0.0000 0.0000
# 3 10.2242 16.5885 79.0855 0.0000 0.0000 0.0000
# 4 0.0000 0.0000 0.0000 3.5273 0.0000 0.0000
# 5 0.0000 0.0000 0.0000 0.0000 23.6392 0.0000
# 6 0.0000 0.0000 0.0000 0.0000 0.0000 27.0819
#
#
#
# Elastic Compliance Matrix: (Units=1/GPa)
#
#
# Indices 1 2 3 4 5 6 
#
# 1 0.015827 -0.003801 -0.001249 0.000000 0.000000 0.000000
# 2 -0.003801 0.009671 -0.001537 0.000000 0.000000 0.000000
# 3 -0.001249 -0.001537 0.013128 0.000000 0.000000 0.000000
# 4 0.000000 0.000000 0.000000 0.283504 0.000000 0.000000
# 5 0.000000 0.000000 0.000000 0.000000 0.042303 0.000000
# 6 0.000000 0.000000 0.000000 0.000000 0.000000 0.036925
#
#
# Mechanical properties :
#
#
# Convention : Reuss Voigt Hill
#
# Bulk Modulus (GPa) = 39.28908 42.28824 40.78866
# Shear Modulus (GPa) = 11.81987 24.94682 18.38335
#
# Velocity S-wave (km/s) = 2.49602 3.62617 3.11281
# Velocity P-wave (km/s) = 5.38661 6.31045 5.86674
#
# Compressibility (1/GPa) = 0.02545236
#
# Stress axis : x y z
#
# Youngs Moduli (GPa) = 63.18311 103.40292 76.17065
#
# Poissons Ratio (x) = 0.39304 0.09513
# Poissons Ratio (y) = 0.24016 0.11708
# Poissons Ratio (z) = 0.07891 0.15894
#
# Static dielectric constant tensor:
#      x y z
#    x 1.669600 0.000000 0.000000 
#    y 0.000000 1.668460 0.000000 
#    z 0.000000 0.000000 1.621650 
# 
# From -- ./inp_files/14114.got.cif
#   From: 2010.05.17/outbox.cif.g08.bks.cpg/sg54_8_cif.got.tgz:14114.got - 2010.06.03 13:09:01.
