data_PCOD9423489
_publ_section_title
;
Structure prediction by ZEFSAII (Michael W. Deem and Ramdas Pophale) SiO2 
 PCOD9423489
Probable space group: P C C A
;
_chemical_formula_sum "Si O2"
_cell_formula_units_Z 40
_cell_length_a 9.925675
_cell_length_b 12.277156
_cell_length_c 15.487749
_cell_angle_alpha 90.000000
_cell_angle_beta 90.000000
_cell_angle_gamma 90.000000
_cell_volume 1887.322541
_symmetry_space_group_name_H-M "P C C A"
_symmetry_group_IT_number 54
_symmetry_cell_setting 'orthorhombic'
loop_
_space_group_symop_operation_xyz
x,y,z
1/2-x,-y,z
1/2+x,-y,1/2-z
-x,y,1/2-z
-x,-y,-z
1/2+x,y,-z
1/2-x,y,1/2+z
x,-y,1/2+z
loop_
_atom_site_type_symbol
_atom_site_label
_atom_site_fract_x
_atom_site_fract_y
_atom_site_fract_z
Si Si1 0.881463 0.240284 0.887591
Si Si2 0.500000 0.622343 0.750000
Si Si3 0.084536 0.234359 0.162479
Si Si4 0.067312 0.391865 0.457316
Si Si5 0.750000 0.500000 0.683720
Si Si6 0.407411 0.010653 0.167024
O O1 0.745666 0.242801 0.829781
O O2 0.915676 0.112887 0.897572
O O3 0.995376 0.301389 0.833227
O O4 0.865929 0.312749 0.972215
O O5 0.632972 0.549810 0.742666
O O6 0.000000 0.253313 0.250000
O O7 0.044538 0.320832 0.090805
O O8 0.053786 0.109613 0.134250
O O9 0.173825 0.420885 0.382974
O O10 0.000000 0.500000 0.500000
O O11 0.500000 0.034694 0.250000
O O12 0.250000 0.000000 0.193215
#
# Coordination Sequence:
#
# PCOD9423489 Si02
#       6
#     8   4   8   8   4   8
#     4  11  23  41  69  97 136 172 220 274 336 396
#     4  12  26  42  70  96 134 182 234 276 330 414
#     4  10  23  43  69  96 134 177 221 271 331 401
#     4  12  25  43  65  98 137 177 220 280 334 398
#     4  12  28  44  64 100 132 182 234 274 344 394
#     4   9  19  40  66  99 130 171 220 271 328 397
#
# _framework density 21.194044999999999
#
# number of rings (size 3 to 8) (size 9 to 14) (size 15 to 20)
#    0.000    1.200    3.000    2.400    4.200    1.600 
#    0.000    0.000    0.000    0.000    0.000    0.000 
#    0.000    0.000    0.000    0.000    0.000    0.000 
#
# Total GULP energy -223310.650323 kJ/mol
# GULP energy per Si atom -5582.766258 kJ/mol
# Density = 2.114581 g / cm^3
# Si number density = 21.194045 Si / 1000 Ang^3
#
#
#
# Elastic Constant Matrix: (Units=GPa)
#
#
# Indices 1 2 3 4 5 6 
#
# 1 65.3603 44.9090 2.2795 0.0000 0.0000 0.0000
# 2 44.9090 161.9769 55.3296 0.0000 0.0000 0.0000
# 3 2.2795 55.3296 44.4753 0.0000 0.0000 0.0000
# 4 0.0000 0.0000 0.0000 153.5959 0.0000 0.0000
# 5 0.0000 0.0000 0.0000 0.0000 30.8910 0.0000
# 6 0.0000 0.0000 0.0000 0.0000 0.0000 25.4708
#
#
#
# Elastic Compliance Matrix: (Units=1/GPa)
#
#
# Indices 1 2 3 4 5 6 
#
# 1 0.021627 -0.009769 0.011045 0.000000 0.000000 0.000000
# 2 -0.009769 0.015149 -0.018345 0.000000 0.000000 0.000000
# 3 0.011045 -0.018345 0.044741 0.000000 0.000000 0.000000
# 4 0.000000 0.000000 0.000000 0.006511 0.000000 0.000000
# 5 0.000000 0.000000 0.000000 0.000000 0.032372 0.000000
# 6 0.000000 0.000000 0.000000 0.000000 0.000000 0.039261
#
#
# Mechanical properties :
#
#
# Convention : Reuss Voigt Hill
#
# Bulk Modulus (GPa) = 21.10718 52.98320 37.04519
# Shear Modulus (GPa) = 23.85605 53.27782 38.56693
#
# Velocity S-wave (km/s) = 3.35864 5.01923 4.27043
# Velocity P-wave (km/s) = 5.00212 7.65791 6.46780
#
# Compressibility (1/GPa) = 0.04737724
#
# Stress axis : x y z
#
# Youngs Moduli (GPa) = 46.23895 66.01236 22.35106
#
# Poissons Ratio (x) = 0.64486 -0.24686
# Poissons Ratio (y) = 0.45170 0.41003
# Poissons Ratio (z) = -0.51069 1.21100
#
# Static dielectric constant tensor:
#      x y z
#    x 1.873220 0.000000 0.000000 
#    y 0.000000 1.817440 0.000000 
#    z 0.000000 0.000000 1.749940 
# 
# From -- ./inp_files/16381.got.cif
#   From: 2010.05.17/outbox.cif.g08.bks.cpg/sg54_9_cif.got.tgz:16381.got - 2010.06.03 13:09:01.
