data_PCOD9423011
_publ_section_title
;
Structure prediction by ZEFSAII (Michael W. Deem and Ramdas Pophale) SiO2 
 PCOD9423011
Probable space group: P C C A
;
_chemical_formula_sum "Si O2"
_cell_formula_units_Z 52
_cell_length_a 13.466275
_cell_length_b 9.092423
_cell_length_c 19.464067
_cell_angle_alpha 90.000000
_cell_angle_beta 90.000000
_cell_angle_gamma 90.000000
_cell_volume 2383.201162
_symmetry_space_group_name_H-M "P C C A"
_symmetry_group_IT_number 54
_symmetry_cell_setting 'orthorhombic'
loop_
_space_group_symop_operation_xyz
x,y,z
1/2-x,-y,z
1/2+x,-y,1/2-z
-x,y,1/2-z
-x,-y,-z
1/2+x,y,-z
1/2-x,y,1/2+z
x,-y,1/2+z
loop_
_atom_site_type_symbol
_atom_site_label
_atom_site_fract_x
_atom_site_fract_y
_atom_site_fract_z
Si Si1 0.147360 0.911618 0.799194
Si Si2 0.633171 0.737727 0.834406
Si Si3 0.750000 0.500000 0.921082
Si Si4 0.941084 0.673620 0.954759
Si Si5 0.067404 0.946507 0.646423
Si Si6 0.952204 0.397864 0.602062
Si Si7 0.225485 0.341279 0.804008
O O1 0.116985 0.899388 0.719003
O O2 0.176140 0.747577 0.822263
O O3 0.050110 0.970590 0.838053
O O4 0.250000 0.000000 0.811016
O O5 0.707318 0.632912 0.875484
O O6 0.528076 0.656067 0.839767
O O7 0.668655 0.747750 0.755960
O O8 0.620046 0.898109 0.867491
O O9 0.841447 0.573656 0.960653
O O10 0.923603 0.819689 0.910440
O O11 0.019122 0.564520 0.917717
O O12 0.972745 0.696778 0.033270
O O13 0.843785 0.370210 0.631155
O O14 0.250000 0.500000 0.773511
#
# Coordination Sequence:
#
# PCOD9423011 Si02
#       7
#     8   8   4   8   8   8   8
#     4  11  23  40  65 100 134 171 217 280 343 407
#     4  11  22  41  66  98 130 176 219 285 342 410
#     4  10  22  40  68  92 134 172 230 276 338 406
#     4  10  23  45  64  98 131 184 227 273 334 416
#     4  11  24  41  70  94 137 179 219 277 350 406
#     4  10  24  42  68  93 137 175 224 279 339 403
#     4  12  23  38  67 102 131 167 223 281 339 403
#
# _framework density 21.819391
#
# number of rings (size 3 to 8) (size 9 to 14) (size 15 to 20)
#    0.000    1.231    2.308    3.231    5.385    0.615 
#    2.769    0.000    3.385    0.000    0.000    0.000 
#    0.000    0.000    0.000    0.000    0.000    0.000 
#
# Total GULP energy -290543.148408 kJ/mol
# GULP energy per Si atom -5587.368239 kJ/mol
# Density = 2.176973 g / cm^3
# Si number density = 21.819391 Si / 1000 Ang^3
#
#
#
# Elastic Constant Matrix: (Units=GPa)
#
#
# Indices 1 2 3 4 5 6 
#
# 1 95.3672 31.2434 13.4306 0.0000 0.0000 0.0000
# 2 31.2434 132.7507 33.3613 0.0000 0.0000 0.0000
# 3 13.4306 33.3613 56.8754 0.0000 0.0000 0.0000
# 4 0.0000 0.0000 0.0000 35.8046 0.0000 0.0000
# 5 0.0000 0.0000 0.0000 0.0000 18.0496 0.0000
# 6 0.0000 0.0000 0.0000 0.0000 0.0000 44.4775
#
#
#
# Elastic Compliance Matrix: (Units=1/GPa)
#
#
# Indices 1 2 3 4 5 6 
#
# 1 0.011445 -0.002363 -0.001317 0.000000 0.000000 0.000000
# 2 -0.002363 0.009323 -0.004911 0.000000 0.000000 0.000000
# 3 -0.001317 -0.004911 0.020774 0.000000 0.000000 0.000000
# 4 0.000000 0.000000 0.000000 0.027929 0.000000 0.000000
# 5 0.000000 0.000000 0.000000 0.000000 0.055403 0.000000
# 6 0.000000 0.000000 0.000000 0.000000 0.000000 0.022483
#
#
# Mechanical properties :
#
#
# Convention : Reuss Voigt Hill
#
# Bulk Modulus (GPa) = 41.04816 49.00709 45.02763
# Shear Modulus (GPa) = 28.95886 33.46353 31.21119
#
# Velocity S-wave (km/s) = 3.64704 3.92045 3.78621
# Velocity P-wave (km/s) = 6.04881 6.55761 6.30834
#
# Compressibility (1/GPa) = 0.02436163
#
# Stress axis : x y z
#
# Youngs Moduli (GPa) = 87.37211 107.26042 48.13778
#
# Poissons Ratio (x) = 0.25343 0.06339
# Poissons Ratio (y) = 0.20644 0.23639
# Poissons Ratio (z) = 0.11505 0.52672
#
# Static dielectric constant tensor:
#      x y z
#    x 1.845580 0.000000 0.000000 
#    y 0.000000 1.843300 0.000000 
#    z 0.000000 0.000000 1.753140 
# 
# From -- ./inp_files/21555.got.cif
#   From: 2010.05.17/outbox.cif.g08.bks.cpg/sg54_11_cif.got.tgz:21555.got - 2010.06.03 13:09:01.
