data_PCOD9423565
_publ_section_title
;
Structure prediction by ZEFSAII (Michael W. Deem and Ramdas Pophale) SiO2 
 PCOD9423565
Probable space group: P C C A
;
_chemical_formula_sum "Si O2"
_cell_formula_units_Z 48
_cell_length_a 14.042654
_cell_length_b 17.035502
_cell_length_c 9.278752
_cell_angle_alpha 90.000000
_cell_angle_beta 90.000000
_cell_angle_gamma 90.000000
_cell_volume 2219.697016
_symmetry_space_group_name_H-M "P C C A"
_symmetry_group_IT_number 54
_symmetry_cell_setting 'orthorhombic'
loop_
_space_group_symop_operation_xyz
x,y,z
1/2-x,-y,z
1/2+x,-y,1/2-z
-x,y,1/2-z
-x,-y,-z
1/2+x,y,-z
1/2-x,y,1/2+z
x,-y,1/2+z
loop_
_atom_site_type_symbol
_atom_site_label
_atom_site_fract_x
_atom_site_fract_y
_atom_site_fract_z
Si Si1 0.322026 0.716060 0.151634
Si Si2 0.389937 0.920455 0.757150
Si Si3 0.146756 0.452218 0.011631
Si Si4 0.500000 0.818748 0.250000
Si Si5 0.281439 0.205449 0.372729
Si Si6 0.500000 0.473617 0.250000
Si Si7 0.364917 0.076591 0.923062
O O1 0.330723 0.632955 0.077462
O O2 0.419697 0.758479 0.195224
O O3 0.253414 0.718575 0.288361
O O4 0.276241 0.775131 0.038032
O O5 0.500000 0.938167 0.750000
O O6 0.378196 0.832846 0.820277
O O7 0.352276 0.925064 0.594186
O O8 0.355777 0.989770 0.861476
O O9 0.250000 0.500000 0.993910
O O10 0.074316 0.488067 0.133229
O O11 0.081517 0.442195 0.865996
O O12 0.538262 0.877543 0.125035
O O13 0.211326 0.132694 0.345779
#
# Coordination Sequence:
#
# PCOD9423565 Si02
#       7
#     8   8   8   4   8   4   8
#     4  11  25  46  70  99 139 181 226 290 354 425
#     4  12  24  40  64  92 129 175 233 283 346 410
#     4  11  25  48  79 109 151 192 241 298 370 440
#     4  10  23  46  68  97 140 176 232 288 359 398
#     4  11  25  43  64  98 134 176 234 280 353 415
#     4  10  25  48  74 117 144 184 252 288 359 448
#     4  11  24  41  64  93 130 182 225 292 341 415
#
# _framework density 21.624572000000001
#
# number of rings (size 3 to 8) (size 9 to 14) (size 15 to 20)
#    0.000    1.000    2.500    3.000    9.333    1.333 
#    7.500    0.000    0.000    0.000    0.000    0.000 
#    0.000    0.000    0.000    0.000    0.000    0.000 
#
# Total GULP energy -267249.488499 kJ/mol
# GULP energy per Si atom -5567.697677 kJ/mol
# Density = 2.157535 g / cm^3
# Si number density = 21.624572 Si / 1000 Ang^3
#
#
#
# Elastic Constant Matrix: (Units=GPa)
#
#
# Indices 1 2 3 4 5 6 
#
# 1 72.5880 39.6508 6.2353 0.0000 0.0000 0.0000
# 2 39.6508 75.5990 17.0931 0.0000 0.0000 0.0000
# 3 6.2353 17.0931 110.9497 0.0000 0.0000 0.0000
# 4 0.0000 0.0000 0.0000 17.6413 0.0000 0.0000
# 5 0.0000 0.0000 0.0000 0.0000 31.7789 0.0000
# 6 0.0000 0.0000 0.0000 0.0000 0.0000 27.0162
#
#
#
# Elastic Compliance Matrix: (Units=1/GPa)
#
#
# Indices 1 2 3 4 5 6 
#
# 1 0.019334 -0.010252 0.000493 0.000000 0.000000 0.000000
# 2 -0.010252 0.019141 -0.002373 0.000000 0.000000 0.000000
# 3 0.000493 -0.002373 0.009351 0.000000 0.000000 0.000000
# 4 0.000000 0.000000 0.000000 0.056685 0.000000 0.000000
# 5 0.000000 0.000000 0.000000 0.000000 0.031467 0.000000
# 6 0.000000 0.000000 0.000000 0.000000 0.000000 0.037015
#
#
# Mechanical properties :
#
#
# Convention : Reuss Voigt Hill
#
# Bulk Modulus (GPa) = 42.44024 42.78836 42.61430
# Shear Modulus (GPa) = 24.37695 28.36443 26.37069
#
# Velocity S-wave (km/s) = 3.36114 3.62564 3.49589
# Velocity P-wave (km/s) = 5.89335 6.11202 6.00368
#
# Compressibility (1/GPa) = 0.02356254
#
# Stress axis : x y z
#
# Youngs Moduli (GPa) = 51.72193 52.24319 106.94103
#
# Poissons Ratio (x) = 0.53560 -0.05271
# Poissons Ratio (y) = 0.53025 0.25375
# Poissons Ratio (z) = -0.02549 0.12396
#
# Static dielectric constant tensor:
#      x y z
#    x 1.934890 0.000000 0.000000 
#    y 0.000000 1.769440 0.000000 
#    z 0.000000 0.000000 2.477580 
# 
# From -- ./inp_files/3613.got.cif
#   From: 2010.05.17/outbox.cif.g08.bks.cpg/sg54_2_cif.got.tgz:3613.got - 2010.06.03 13:09:01.
