data_PCOD9423918
_publ_section_title
;
Structure prediction by ZEFSAII (Michael W. Deem and Ramdas Pophale) SiO2 
 PCOD9423918
Probable space group: P C C A
;
_chemical_formula_sum "Si O2"
_cell_formula_units_Z 28
_cell_length_a 4.878569
_cell_length_b 12.485639
_cell_length_c 18.799259
_cell_angle_alpha 90.000000
_cell_angle_beta 90.000000
_cell_angle_gamma 90.000000
_cell_volume 1145.101430
_symmetry_space_group_name_H-M "P C C A"
_symmetry_group_IT_number 54
_symmetry_cell_setting 'orthorhombic'
loop_
_space_group_symop_operation_xyz
x,y,z
1/2-x,-y,z
1/2+x,-y,1/2-z
-x,y,1/2-z
-x,-y,-z
1/2+x,y,-z
1/2-x,y,1/2+z
x,-y,1/2+z
loop_
_atom_site_type_symbol
_atom_site_label
_atom_site_fract_x
_atom_site_fract_y
_atom_site_fract_z
Si Si1 0.759033 0.753760 0.455545
Si Si2 0.150333 0.269554 0.326029
Si Si3 0.513633 0.070616 0.374639
Si Si4 0.750000 0.500000 0.198976
O O1 0.057866 0.718314 0.481067
O O2 0.091692 0.727946 0.615484
O O3 0.323976 0.879352 0.558392
O O4 0.370705 0.173993 0.336829
O O5 0.297050 0.384990 0.336067
O O6 0.000000 0.255387 0.250000
O O7 0.750000 0.000000 0.335530
O O8 0.250000 0.000000 0.391715
O O9 0.500000 0.521373 0.250000
#
# Coordination Sequence:
#
# PCOD9423918 Si02
#       4
#     8   8   8   4
#     4  12  25  47  73 108 152 199 246 302 367 439
#     4  11  27  51  79 110 148 190 255 310 365 444
#     4  12  25  47  72 108 150 201 239 307 369 442
#     4  10  26  46  82 108 138 194 250 310 368 434
#
# _framework density 24.451985000000001
#
# number of rings (size 3 to 8) (size 9 to 14) (size 15 to 20)
#    0.000    0.571    5.714    0.000    8.000    3.429 
#    5.143    1.429    0.000    0.000    0.000    0.000 
#    0.000    0.000    0.000    0.000    0.000    0.000 
#
# Total GULP energy -156083.027557 kJ/mol
# GULP energy per Si atom -5574.393841 kJ/mol
# Density = 2.439633 g / cm^3
# Si number density = 24.451985 Si / 1000 Ang^3
#
#
#
# Elastic Constant Matrix: (Units=GPa)
#
#
# Indices 1 2 3 4 5 6 
#
# 1 156.4428 56.0188 38.2426 0.0000 0.0000 0.0000
# 2 56.0188 131.3646 37.3855 0.0000 0.0000 0.0000
# 3 38.2426 37.3855 122.2987 0.0000 0.0000 0.0000
# 4 0.0000 0.0000 0.0000 20.4042 0.0000 0.0000
# 5 0.0000 0.0000 0.0000 0.0000 36.1304 0.0000
# 6 0.0000 0.0000 0.0000 0.0000 0.0000 46.8908
#
#
#
# Elastic Compliance Matrix: (Units=1/GPa)
#
#
# Indices 1 2 3 4 5 6 
#
# 1 0.007806 -0.002885 -0.001559 0.000000 0.000000 0.000000
# 2 -0.002885 0.009404 -0.001973 0.000000 0.000000 0.000000
# 3 -0.001559 -0.001973 0.009267 0.000000 0.000000 0.000000
# 4 0.000000 0.000000 0.000000 0.049010 0.000000 0.000000
# 5 0.000000 0.000000 0.000000 0.000000 0.027677 0.000000
# 6 0.000000 0.000000 0.000000 0.000000 0.000000 0.021326
#
#
# Mechanical properties :
#
#
# Convention : Reuss Voigt Hill
#
# Bulk Modulus (GPa) = 73.29200 74.82221 74.05711
# Shear Modulus (GPa) = 35.24289 39.24904 37.24597
#
# Velocity S-wave (km/s) = 3.80058 4.01078 3.90709
# Velocity P-wave (km/s) = 7.02126 7.21904 7.12084
#
# Compressibility (1/GPa) = 0.01364405
#
# Stress axis : x y z
#
# Youngs Moduli (GPa) = 128.10063 106.33613 107.90750
#
# Poissons Ratio (x) = 0.30680 0.16823
# Poissons Ratio (y) = 0.36960 0.21285
# Poissons Ratio (z) = 0.19972 0.20975
#
# Static dielectric constant tensor:
#      x y z
#    x 1.946040 0.000000 0.000000 
#    y 0.000000 2.078880 0.000000 
#    z 0.000000 0.000000 2.049230 
# 
# From -- ./inp_files/19457.got.cif
#   From: 2010.05.17/outbox.cif.g08.bks.cpg/sg54_10_cif.got.tgz:19457.got - 2010.06.03 13:09:01.
