data_PCOD9423519
_publ_section_title
;
Structure prediction by ZEFSAII (Michael W. Deem and Ramdas Pophale) SiO2 
 PCOD9423519
Probable space group: P C C A
;
_chemical_formula_sum "Si O2"
_cell_formula_units_Z 32
_cell_length_a 15.175061
_cell_length_b 7.860154
_cell_length_c 12.062759
_cell_angle_alpha 90.000000
_cell_angle_beta 90.000000
_cell_angle_gamma 90.000000
_cell_volume 1438.825585
_symmetry_space_group_name_H-M "P C C A"
_symmetry_group_IT_number 54
_symmetry_cell_setting 'orthorhombic'
loop_
_space_group_symop_operation_xyz
x,y,z
1/2-x,-y,z
1/2+x,-y,1/2-z
-x,y,1/2-z
-x,-y,-z
1/2+x,y,-z
1/2-x,y,1/2+z
x,-y,1/2+z
loop_
_atom_site_type_symbol
_atom_site_label
_atom_site_fract_x
_atom_site_fract_y
_atom_site_fract_z
Si Si1 0.462595 0.637103 0.914510
Si Si2 0.343465 0.395003 0.808696
Si Si3 0.670724 0.210480 0.915856
Si Si4 0.637405 0.811420 0.960532
O O1 0.418419 0.539302 0.813810
O O2 0.544190 0.765252 0.905042
O O3 0.500000 0.500000 0.000000
O O4 0.379170 0.710805 0.980360
O O5 0.250000 0.500000 0.811805
O O6 0.361904 0.281910 0.700595
O O7 0.356980 0.266134 0.914224
O O8 0.773146 0.264469 0.910497
O O9 0.653920 0.011150 0.938844
#
# Coordination Sequence:
#
# PCOD9423519 Si02
#       4
#     8   8   8   8
#     4  10  23  44  70 103 138 180 234 293 341 418
#     4  11  24  44  74 100 138 190 237 293 353 418
#     4  11  24  45  71 103 144 184 237 289 361 418
#     4  10  24  46  73 101 145 184 232 297 352 422
#
# _framework density 22.240359000000002
#
# number of rings (size 3 to 8) (size 9 to 14) (size 15 to 20)
#    0.000    1.500    2.500    0.750    7.000    8.000 
#    0.000    0.000    0.000    0.000    0.000    0.000 
#    0.000    0.000    0.000    0.000    0.000    0.000 
#
# Total GULP energy -178386.367932 kJ/mol
# GULP energy per Si atom -5574.573998 kJ/mol
# Density = 2.218974 g / cm^3
# Si number density = 22.240359 Si / 1000 Ang^3
#
#
#
# Elastic Constant Matrix: (Units=GPa)
#
#
# Indices 1 2 3 4 5 6 
#
# 1 130.9689 32.1831 37.2510 0.0000 0.0000 0.0000
# 2 32.1831 80.9842 65.5683 0.0000 0.0000 0.0000
# 3 37.2510 65.5683 110.4271 0.0000 0.0000 0.0000
# 4 0.0000 0.0000 0.0000 58.2648 0.0000 0.0000
# 5 0.0000 0.0000 0.0000 0.0000 28.5015 0.0000
# 6 0.0000 0.0000 0.0000 0.0000 0.0000 7.0124
#
#
#
# Elastic Compliance Matrix: (Units=1/GPa)
#
#
# Indices 1 2 3 4 5 6 
#
# 1 0.008621 -0.002063 -0.001683 0.000000 0.000000 0.000000
# 2 -0.002063 0.024274 -0.013717 0.000000 0.000000 0.000000
# 3 -0.001683 -0.013717 0.017768 0.000000 0.000000 0.000000
# 4 0.000000 0.000000 0.000000 0.017163 0.000000 0.000000
# 5 0.000000 0.000000 0.000000 0.000000 0.035086 0.000000
# 6 0.000000 0.000000 0.000000 0.000000 0.000000 0.142605
#
#
# Mechanical properties :
#
#
# Convention : Reuss Voigt Hill
#
# Bulk Modulus (GPa) = 63.54699 65.82055 64.68377
# Shear Modulus (GPa) = 17.50148 31.24758 24.37453
#
# Velocity S-wave (km/s) = 2.80826 3.75239 3.31412
# Velocity P-wave (km/s) = 6.25699 6.95940 6.61752
#
# Compressibility (1/GPa) = 0.01573639
#
# Stress axis : x y z
#
# Youngs Moduli (GPa) = 115.99398 41.19615 56.27979
#
# Poissons Ratio (x) = 0.08500 0.09472
# Poissons Ratio (y) = 0.23934 0.77200
# Poissons Ratio (z) = 0.19522 0.56510
#
# Static dielectric constant tensor:
#      x y z
#    x 1.929830 0.000000 0.000000 
#    y 0.000000 1.835490 0.000000 
#    z 0.000000 0.000000 1.925490 
# 
# From -- ./inp_files/7925.got.cif
#   From: 2010.05.17/outbox.cif.g08.bks.cpg/sg54_4_cif.got.tgz:7925.got - 2010.06.03 13:09:01.
