data_PCOD9423601
_publ_section_title
;
Structure prediction by ZEFSAII (Michael W. Deem and Ramdas Pophale) SiO2 
 PCOD9423601
Probable space group: P C C A
;
_chemical_formula_sum "Si O2"
_cell_formula_units_Z 32
_cell_length_a 4.792215
_cell_length_b 12.231778
_cell_length_c 23.870420
_cell_angle_alpha 90.000000
_cell_angle_beta 90.000000
_cell_angle_gamma 90.000000
_cell_volume 1399.219809
_symmetry_space_group_name_H-M "P C C A"
_symmetry_group_IT_number 54
_symmetry_cell_setting 'orthorhombic'
loop_
_space_group_symop_operation_xyz
x,y,z
1/2-x,-y,z
1/2+x,-y,1/2-z
-x,y,1/2-z
-x,-y,-z
1/2+x,y,-z
1/2-x,y,1/2+z
x,-y,1/2+z
loop_
_atom_site_type_symbol
_atom_site_label
_atom_site_fract_x
_atom_site_fract_y
_atom_site_fract_z
Si Si1 0.046103 0.700344 0.850184
Si Si2 0.250000 0.000000 0.396696
Si Si3 0.750000 0.500000 0.789903
Si Si4 0.044152 0.834588 0.185873
Si Si5 0.538079 0.192256 0.962695
O O1 0.908227 0.590920 0.826774
O O2 0.859423 0.799100 0.824994
O O3 0.354379 0.728694 0.829236
O O4 0.029732 0.715143 0.916925
O O5 0.056923 0.926396 0.356899
O O6 0.438678 0.920841 0.434769
O O7 0.500000 0.543332 0.750000
O O8 0.000000 0.866384 0.250000
O O9 0.858104 0.199880 0.980570
#
# Coordination Sequence:
#
# PCOD9423601 Si02
#       5
#     8   4   4   8   8
#     4  11  24  42  63  93 123 159 208 252 304 371
#     4  10  24  38  62  92 122 166 216 250 298 370
#     4  12  24  42  70  96 122 158 198 250 312 374
#     4  11  23  40  60  90 131 165 197 250 310 369
#     4  11  23  41  62  87 122 165 209 259 302 348
#
# _framework density 22.869886000000001
#
# number of rings (size 3 to 8) (size 9 to 14) (size 15 to 20)
#    0.000    1.000    0.000    8.250    0.000   12.000 
#    0.000    1.250    0.000    0.000    0.000    0.000 
#    0.000    0.000    0.000    0.000    0.000    0.000 
#
# Total GULP energy -179300.259157 kJ/mol
# GULP energy per Si atom -5603.133099 kJ/mol
# Density = 2.281783 g / cm^3
# Si number density = 22.869886 Si / 1000 Ang^3
#
#
#
# Elastic Constant Matrix: (Units=GPa)
#
#
# Indices 1 2 3 4 5 6 
#
# 1 59.6013 -2.9722 6.3955 0.0000 0.0000 0.0000
# 2 -2.9722 94.0718 37.3480 0.0000 0.0000 0.0000
# 3 6.3955 37.3480 124.0941 0.0000 0.0000 0.0000
# 4 0.0000 0.0000 0.0000 38.0351 0.0000 0.0000
# 5 0.0000 0.0000 0.0000 0.0000 38.6354 0.0000
# 6 0.0000 0.0000 0.0000 0.0000 0.0000 30.1176
#
#
#
# Elastic Compliance Matrix: (Units=1/GPa)
#
#
# Indices 1 2 3 4 5 6 
#
# 1 0.016954 0.001002 -0.001175 0.000000 0.000000 0.000000
# 2 0.001002 0.012132 -0.003703 0.000000 0.000000 0.000000
# 3 -0.001175 -0.003703 0.009233 0.000000 0.000000 0.000000
# 4 0.000000 0.000000 0.000000 0.026292 0.000000 0.000000
# 5 0.000000 0.000000 0.000000 0.000000 0.025883 0.000000
# 6 0.000000 0.000000 0.000000 0.000000 0.000000 0.033203
#
#
# Mechanical properties :
#
#
# Convention : Reuss Voigt Hill
#
# Bulk Modulus (GPa) = 32.71444 39.92330 36.31887
# Shear Modulus (GPa) = 35.30110 37.15735 36.22922
#
# Velocity S-wave (km/s) = 3.93308 4.03516 3.98445
# Velocity P-wave (km/s) = 5.91280 6.26136 6.08957
#
# Compressibility (1/GPa) = 0.03056755
#
# Stress axis : x y z
#
# Youngs Moduli (GPa) = 58.98222 82.42677 108.30198
#
# Poissons Ratio (x) = -0.08262 0.12730
# Poissons Ratio (y) = -0.05912 0.40104
# Poissons Ratio (z) = 0.06933 0.30522
#
# Static dielectric constant tensor:
#      x y z
#    x 1.811880 0.000000 0.000000 
#    y 0.000000 1.864100 0.000000 
#    z 0.000000 0.000000 1.851410 
# 
# From -- ./inp_files/19522.got.cif
#   From: 2010.05.17/outbox.cif.g08.bks.cpg/sg54_10_cif.got.tgz:19522.got - 2010.06.03 13:09:01.
