data_PCOD9423859
_publ_section_title
;
Structure prediction by ZEFSAII (Michael W. Deem and Ramdas Pophale) SiO2 
 PCOD9423859
Probable space group: P C C A
;
_chemical_formula_sum "Si O2"
_cell_formula_units_Z 56
_cell_length_a 15.490371
_cell_length_b 6.110803
_cell_length_c 27.508812
_cell_angle_alpha 90.000000
_cell_angle_beta 90.000000
_cell_angle_gamma 90.000000
_cell_volume 2603.945785
_symmetry_space_group_name_H-M "P C C A"
_symmetry_group_IT_number 54
_symmetry_cell_setting 'orthorhombic'
loop_
_space_group_symop_operation_xyz
x,y,z
1/2-x,-y,z
1/2+x,-y,1/2-z
-x,y,1/2-z
-x,-y,-z
1/2+x,y,-z
1/2-x,y,1/2+z
x,-y,1/2+z
loop_
_atom_site_type_symbol
_atom_site_label
_atom_site_fract_x
_atom_site_fract_y
_atom_site_fract_z
Si Si1 0.015547 0.680934 0.807242
Si Si2 0.592620 0.631473 0.865450
Si Si3 0.515268 0.209654 0.532690
Si Si4 0.059686 0.042683 0.874290
Si Si5 0.672566 0.648227 0.671381
Si Si6 0.351003 0.517438 0.532221
Si Si7 0.211225 0.245618 0.718350
O O1 0.092155 0.513054 0.819398
O O2 0.000000 0.668635 0.750000
O O3 0.937301 0.596979 0.841129
O O4 0.040341 0.922694 0.823568
O O5 0.510982 0.770520 0.883983
O O6 0.652017 0.611349 0.912644
O O7 0.633447 0.754226 0.819777
O O8 0.419689 0.316224 0.538314
O O9 0.590372 0.345572 0.505645
O O10 0.500000 0.000000 0.500000
O O11 0.551996 0.137139 0.584525
O O12 0.148714 0.167179 0.867111
O O13 0.750000 0.500000 0.654047
O O14 0.693215 0.746622 0.724236
O O15 0.250000 0.500000 0.516785
O O16 0.250000 0.500000 0.709696
O O17 0.250000 0.000000 0.710222
#
# Coordination Sequence:
#
# PCOD9423859 Si02
#       7
#     8   8   8   8   8   8   8
#     4  11  23  41  67 101 142 186 241 293 366 447
#     4  11  23  42  67 108 138 187 240 303 374 455
#     4  11  24  50  74 101 146 186 241 318 380 456
#     4  11  25  40  73  97 135 197 238 301 376 451
#     4  10  25  42  63  98 144 193 246 302 364 447
#     4  11  25  46  79 107 143 184 246 315 392 465
#     4  11  26  42  67 104 152 198 243 313 376 440
#
# _framework density 21.505822999999999
#
# number of rings (size 3 to 8) (size 9 to 14) (size 15 to 20)
#    0.000    1.143    4.286    0.429    8.000    1.714 
#    0.000    4.286    0.000    0.000    0.000    0.000 
#    0.000    0.000    0.000    0.000    0.000    0.000 
#
# Total GULP energy -312127.296659 kJ/mol
# GULP energy per Si atom -5573.701726 kJ/mol
# Density = 2.145688 g / cm^3
# Si number density = 21.505823 Si / 1000 Ang^3
#
#
#
# Elastic Constant Matrix: (Units=GPa)
#
#
# Indices 1 2 3 4 5 6 
#
# 1 99.6758 45.3086 31.5712 0.0000 0.0000 0.0000
# 2 45.3086 80.7326 36.0938 0.0000 0.0000 0.0000
# 3 31.5712 36.0938 66.7739 0.0000 0.0000 0.0000
# 4 0.0000 0.0000 0.0000 68.7328 0.0000 0.0000
# 5 0.0000 0.0000 0.0000 0.0000 26.3650 0.0000
# 6 0.0000 0.0000 0.0000 0.0000 0.0000 28.9771
#
#
#
# Elastic Compliance Matrix: (Units=1/GPa)
#
#
# Indices 1 2 3 4 5 6 
#
# 1 0.013943 -0.006432 -0.003116 0.000000 0.000000 0.000000
# 2 -0.006432 0.019301 -0.007392 0.000000 0.000000 0.000000
# 3 -0.003116 -0.007392 0.020444 0.000000 0.000000 0.000000
# 4 0.000000 0.000000 0.000000 0.014549 0.000000 0.000000
# 5 0.000000 0.000000 0.000000 0.000000 0.037929 0.000000
# 6 0.000000 0.000000 0.000000 0.000000 0.000000 0.034510
#
#
# Mechanical properties :
#
#
# Convention : Reuss Voigt Hill
#
# Bulk Modulus (GPa) = 50.48046 52.56994 51.52520
# Shear Modulus (GPa) = 27.59999 33.76224 30.68112
#
# Velocity S-wave (km/s) = 3.58631 3.96651 3.78119
# Velocity P-wave (km/s) = 6.37751 6.74353 6.56307
#
# Compressibility (1/GPa) = 0.01980965
#
# Stress axis : x y z
#
# Youngs Moduli (GPa) = 71.71959 51.81028 48.91295
#
# Poissons Ratio (x) = 0.33326 0.15239
# Poissons Ratio (y) = 0.46132 0.36155
# Poissons Ratio (z) = 0.22345 0.38297
#
# Static dielectric constant tensor:
#      x y z
#    x 1.815250 0.000000 0.000000 
#    y 0.000000 1.825210 0.000000 
#    z 0.000000 0.000000 0.574510 
# 
# From -- ./inp_files/28216.got.cif
#   From: 2010.05.17/outbox.cif.g08.bks.cpg/sg54_15_cif.got.tgz:28216.got - 2010.06.03 13:09:01.
