data_PCOD9423143
_publ_section_title
;
Structure prediction by ZEFSAII (Michael W. Deem and Ramdas Pophale) SiO2 
 PCOD9423143
Probable space group: P C C A
;
_chemical_formula_sum "Si O2"
_cell_formula_units_Z 64
_cell_length_a 27.040949
_cell_length_b 12.215381
_cell_length_c 9.945091
_cell_angle_alpha 90.000000
_cell_angle_beta 90.000000
_cell_angle_gamma 90.000000
_cell_volume 3285.017653
_symmetry_space_group_name_H-M "P C C A"
_symmetry_group_IT_number 54
_symmetry_cell_setting 'orthorhombic'
loop_
_space_group_symop_operation_xyz
x,y,z
1/2-x,-y,z
1/2+x,-y,1/2-z
-x,y,1/2-z
-x,-y,-z
1/2+x,y,-z
1/2-x,y,1/2+z
x,-y,1/2+z
loop_
_atom_site_type_symbol
_atom_site_label
_atom_site_fract_x
_atom_site_fract_y
_atom_site_fract_z
Si Si1 0.353926 0.526830 0.725149
Si Si2 0.216990 0.281300 0.626233
Si Si3 0.859967 0.915302 0.666948
Si Si4 0.525740 0.918263 0.104548
Si Si5 0.306807 0.037620 0.101364
Si Si6 0.080406 0.533224 0.471436
Si Si7 0.490326 0.334434 0.909740
Si Si8 0.306097 0.305904 0.823136
O O1 0.315823 0.620707 0.684298
O O2 0.380893 0.481837 0.592192
O O3 0.326847 0.425963 0.797563
O O4 0.393692 0.568320 0.833442
O O5 0.191009 0.164281 0.645753
O O6 0.268716 0.278414 0.703205
O O7 0.221679 0.298783 0.466139
O O8 0.916029 0.938644 0.626183
O O9 0.823915 0.964450 0.552961
O O10 0.849174 0.785102 0.672039
O O11 0.843030 0.966326 0.807463
O O12 0.500000 0.928666 0.250000
O O13 0.519521 0.792005 0.058408
O O14 0.500000 0.000000 0.000000
O O15 0.250000 0.000000 0.114638
O O16 0.054373 0.415561 0.447165
O O17 0.038289 0.618071 0.515332
O O18 0.500000 0.343318 0.750000
#
# Coordination Sequence:
#
# PCOD9423143 Si02
#       8
#     8   8   8   8   8   8   8   8
#     4  12  24  42  65  96 133 169 219 267 339 394
#     4  11  26  41  65  96 133 171 215 273 322 395
#     4  11  24  43  71  95 132 176 221 281 335 396
#     4  11  25  46  68  98 135 176 225 283 346 405
#     4  11  23  44  68 100 131 172 227 274 328 401
#     4  11  23  42  67  97 126 175 220 274 332 410
#     4  10  22  42  68  92 133 171 223 275 342 396
#     4  11  25  43  64  94 135 175 214 270 332 393
#
# _framework density 19.482392000000001
#
# number of rings (size 3 to 8) (size 9 to 14) (size 15 to 20)
#    0.000    1.000    3.750    2.250    7.000    2.000 
#    2.250    0.000    0.000    0.000    0.000    0.000 
#    0.000    0.000    0.000    0.000    0.000    0.000 
#
# Total GULP energy -357886.368299 kJ/mol
# GULP energy per Si atom -5591.974505 kJ/mol
# Density = 1.943805 g / cm^3
# Si number density = 19.482392 Si / 1000 Ang^3
#
#
#
# Elastic Constant Matrix: (Units=GPa)
#
#
# Indices 1 2 3 4 5 6 
#
# 1 78.6295 18.3253 14.6280 0.0000 0.0000 0.0000
# 2 18.3253 90.3240 31.8271 0.0000 0.0000 0.0000
# 3 14.6280 31.8271 67.2720 0.0000 0.0000 0.0000
# 4 0.0000 0.0000 0.0000 31.9516 0.0000 0.0000
# 5 0.0000 0.0000 0.0000 0.0000 36.7063 0.0000
# 6 0.0000 0.0000 0.0000 0.0000 0.0000 21.3719
#
#
#
# Elastic Compliance Matrix: (Units=1/GPa)
#
#
# Indices 1 2 3 4 5 6 
#
# 1 0.013565 -0.002055 -0.001977 0.000000 0.000000 0.000000
# 2 -0.002055 0.013598 -0.005986 0.000000 0.000000 0.000000
# 3 -0.001977 -0.005986 0.018127 0.000000 0.000000 0.000000
# 4 0.000000 0.000000 0.000000 0.031297 0.000000 0.000000
# 5 0.000000 0.000000 0.000000 0.000000 0.027243 0.000000
# 6 0.000000 0.000000 0.000000 0.000000 0.000000 0.046790
#
#
# Mechanical properties :
#
#
# Convention : Reuss Voigt Hill
#
# Bulk Modulus (GPa) = 39.60105 40.64293 40.12199
# Shear Modulus (GPa) = 27.92120 29.43563 28.67841
#
# Velocity S-wave (km/s) = 3.78980 3.89123 3.84085
# Velocity P-wave (km/s) = 6.28656 6.41058 6.34887
#
# Compressibility (1/GPa) = 0.02525186
#
# Stress axis : x y z
#
# Youngs Moduli (GPa) = 73.72058 73.54227 55.16593
#
# Poissons Ratio (x) = 0.15116 0.10907
# Poissons Ratio (y) = 0.15152 0.33024
# Poissons Ratio (z) = 0.14576 0.44024
#
# Static dielectric constant tensor:
#      x y z
#    x 1.673380 0.000000 0.000000 
#    y 0.000000 1.672570 0.000000 
#    z 0.000000 0.000000 1.664120 
# 
# From -- ./inp_files/5963.got.cif
#   From: 2010.05.17/outbox.cif.g08.bks.cpg/sg54_3_cif.got.tgz:5963.got - 2010.06.03 13:09:01.
