data_PCOD9423536
_publ_section_title
;
Structure prediction by ZEFSAII (Michael W. Deem and Ramdas Pophale) SiO2 
 PCOD9423536
Probable space group: P C C A
;
_chemical_formula_sum "Si O2"
_cell_formula_units_Z 64
_cell_length_a 14.328997
_cell_length_b 9.676819
_cell_length_c 22.369019
_cell_angle_alpha 90.000000
_cell_angle_beta 90.000000
_cell_angle_gamma 90.000000
_cell_volume 3101.668276
_symmetry_space_group_name_H-M "P C C A"
_symmetry_group_IT_number 54
_symmetry_cell_setting 'orthorhombic'
loop_
_space_group_symop_operation_xyz
x,y,z
1/2-x,-y,z
1/2+x,-y,1/2-z
-x,y,1/2-z
-x,-y,-z
1/2+x,y,-z
1/2-x,y,1/2+z
x,-y,1/2+z
loop_
_atom_site_type_symbol
_atom_site_label
_atom_site_fract_x
_atom_site_fract_y
_atom_site_fract_z
Si Si1 0.242460 0.652335 0.041730
Si Si2 0.088922 0.410471 0.636972
Si Si3 0.908835 0.268570 0.380626
Si Si4 0.675604 0.375259 0.234612
Si Si5 0.584512 0.756097 0.624206
Si Si6 0.809274 0.863980 0.767924
Si Si7 0.235240 0.848536 0.944410
Si Si8 0.580876 0.922632 0.151883
O O1 0.250000 0.500000 0.013633
O O2 0.183999 0.623205 0.101632
O O3 0.340604 0.721278 0.061890
O O4 0.192770 0.750625 0.994492
O O5 0.063557 0.571748 0.630134
O O6 0.110637 0.384282 0.706786
O O7 0.012729 0.312160 0.606239
O O8 0.846900 0.213174 0.325790
O O9 0.996686 0.165719 0.376620
O O10 0.750000 0.500000 0.233751
O O11 0.616879 0.352716 0.174980
O O12 0.736271 0.237311 0.237330
O O13 0.668639 0.777961 0.577703
O O14 0.565718 0.912530 0.647102
O O15 0.892056 0.891566 0.720548
O O16 0.750000 0.000000 0.782945
O O17 0.170818 0.878881 0.887275
O O18 0.250000 0.000000 0.971702
#
# Coordination Sequence:
#
# PCOD9423536 Si02
#       8
#     8   8   8   8   8   8   8   8
#     4  10  23  45  65  88 123 165 213 266 318 376
#     4  11  24  42  62  94 131 164 209 263 312 377
#     4  11  25  41  64  95 130 166 209 259 316 375
#     4  12  22  40  66  92 129 168 204 252 312 371
#     4  11  25  41  64  95 130 166 209 259 316 375
#     4  12  22  40  66  92 129 168 204 252 312 371
#     4  10  23  45  65  88 123 165 213 266 318 376
#     4  11  24  42  62  94 131 164 209 263 312 377
#
# _framework density 20.634059000000001
#
# number of rings (size 3 to 8) (size 9 to 14) (size 15 to 20)
#    0.000    1.000    5.000    1.500    3.500    6.000 
#    0.000    5.000    0.000    0.000    0.000    0.000 
#    0.000    0.000    0.000    0.000    0.000    0.000 
#
# Total GULP energy -357213.453848 kJ/mol
# GULP energy per Si atom -5581.460216 kJ/mol
# Density = 2.058709 g / cm^3
# Si number density = 20.634059 Si / 1000 Ang^3
#
#
#
# Elastic Constant Matrix: (Units=GPa)
#
#
# Indices 1 2 3 4 5 6 
#
# 1 78.8324 23.4325 -6.1120 0.0000 0.0000 0.0000
# 2 23.4325 84.0777 27.7720 0.0000 0.0000 0.0000
# 3 -6.1120 27.7720 50.6354 0.0000 0.0000 0.0000
# 4 0.0000 0.0000 0.0000 25.4305 0.0000 0.0000
# 5 0.0000 0.0000 0.0000 0.0000 7.6568 0.0000
# 6 0.0000 0.0000 0.0000 0.0000 0.0000 45.6126
#
#
#
# Elastic Compliance Matrix: (Units=1/GPa)
#
#
# Indices 1 2 3 4 5 6 
#
# 1 0.014777 -0.005749 0.004937 0.000000 0.000000 0.000000
# 2 -0.005749 0.016762 -0.009887 0.000000 0.000000 0.000000
# 3 0.004937 -0.009887 0.025768 0.000000 0.000000 0.000000
# 4 0.000000 0.000000 0.000000 0.039323 0.000000 0.000000
# 5 0.000000 0.000000 0.000000 0.000000 0.130602 0.000000
# 6 0.000000 0.000000 0.000000 0.000000 0.000000 0.021924
#
#
# Mechanical properties :
#
#
# Convention : Reuss Voigt Hill
#
# Bulk Modulus (GPa) = 27.84940 33.74784 30.79862
# Shear Modulus (GPa) = 17.69764 26.97018 22.33391
#
# Velocity S-wave (km/s) = 2.93181 3.61927 3.29353
# Velocity P-wave (km/s) = 4.99868 5.81862 5.42417
#
# Compressibility (1/GPa) = 0.03590742
#
# Stress axis : x y z
#
# Youngs Moduli (GPa) = 67.67398 59.65903 38.80804
#
# Poissons Ratio (x) = 0.34298 -0.19159
# Poissons Ratio (y) = 0.38905 0.38371
# Poissons Ratio (z) = -0.33409 0.58987
#
# Static dielectric constant tensor:
#      x y z
#    x 1.857640 0.000000 0.000000 
#    y 0.000000 1.769670 0.000000 
#    z 0.000000 0.000000 1.729650 
# 
# From -- ./inp_files/24504.got.cif
#   From: 2010.05.17/outbox.cif.g08.bks.cpg/sg54_13_cif.got.tgz:24504.got - 2010.06.03 13:09:01.
