data_PCOD9423201
_publ_section_title
;
Structure prediction by ZEFSAII (Michael W. Deem and Ramdas Pophale) SiO2 
 PCOD9423201
Probable space group: P C C A
;
_chemical_formula_sum "Si O2"
_cell_formula_units_Z 36
_cell_length_a 9.212452
_cell_length_b 7.820586
_cell_length_c 24.415114
_cell_angle_alpha 90.000000
_cell_angle_beta 90.000000
_cell_angle_gamma 90.000000
_cell_volume 1759.030179
_symmetry_space_group_name_H-M "P C C A"
_symmetry_group_IT_number 54
_symmetry_cell_setting 'orthorhombic'
loop_
_space_group_symop_operation_xyz
x,y,z
1/2-x,-y,z
1/2+x,-y,1/2-z
-x,y,1/2-z
-x,-y,-z
1/2+x,y,-z
1/2-x,y,1/2+z
x,-y,1/2+z
loop_
_atom_site_type_symbol
_atom_site_label
_atom_site_fract_x
_atom_site_fract_y
_atom_site_fract_z
Si Si1 0.686142 0.690496 0.699616
Si Si2 0.159170 0.321017 0.676844
Si Si3 0.413554 0.851352 0.970780
Si Si4 0.693222 0.692121 0.944150
Si Si5 0.750000 0.000000 0.628836
O O1 0.750000 0.500000 0.695045
O O2 0.517571 0.671639 0.680005
O O3 0.694215 0.751397 0.762973
O O4 0.774091 0.832264 0.665442
O O5 0.250000 0.500000 0.676573
O O6 0.202783 0.238242 0.618506
O O7 0.524651 0.698006 0.960293
O O8 0.370103 0.932771 0.913091
O O9 0.283445 0.793297 0.009959
O O10 0.500000 0.000000 0.000000
O O11 0.750000 0.500000 0.943818
#
# Coordination Sequence:
#
# PCOD9423201 Si02
#       5
#     8   8   8   8   4
#     4  10  22  43  68  94 133 170 216 270 327 392
#     4   9  20  42  66  96 129 167 219 272 320 387
#     4  12  24  44  61  93 136 167 214 276 322 386
#     4  11  23  42  69  95 126 174 222 268 330 390
#     4  12  24  40  64  96 132 170 214 262 338 380
#
# _framework density 20.465823
#
# number of rings (size 3 to 8) (size 9 to 14) (size 15 to 20)
#    0.000    1.333    4.444    0.667    0.000    4.444 
#    4.000    8.889    0.000    0.000    0.000    0.000 
#    0.000    0.000    0.000    0.000    0.000    0.000 
#
# Total GULP energy -200481.690659 kJ/mol
# GULP energy per Si atom -5568.935852 kJ/mol
# Density = 2.041924 g / cm^3
# Si number density = 20.465823 Si / 1000 Ang^3
#
#
#
# Elastic Constant Matrix: (Units=GPa)
#
#
# Indices 1 2 3 4 5 6 
#
# 1 87.2688 33.0772 50.9783 0.0000 0.0000 0.0000
# 2 33.0772 86.0710 52.2617 0.0000 0.0000 0.0000
# 3 50.9783 52.2617 164.7551 0.0000 0.0000 0.0000
# 4 0.0000 0.0000 0.0000 -125.3808 0.0000 0.0000
# 5 0.0000 0.0000 0.0000 0.0000 7.7516 0.0000
# 6 0.0000 0.0000 0.0000 0.0000 0.0000 26.9937
#
#
#
# Elastic Compliance Matrix: (Units=1/GPa)
#
#
# Indices 1 2 3 4 5 6 
#
# 1 0.014841 -0.003610 -0.003447 0.000000 0.000000 0.000000
# 2 -0.003610 0.015268 -0.003726 0.000000 0.000000 0.000000
# 3 -0.003447 -0.003726 0.008318 0.000000 0.000000 0.000000
# 4 0.000000 0.000000 0.000000 -0.007976 0.000000 0.000000
# 5 0.000000 0.000000 0.000000 0.000000 0.129006 0.000000
# 6 0.000000 0.000000 0.000000 0.000000 0.000000 0.037046
#
#
# Mechanical properties :
#
#
# Convention : Reuss Voigt Hill
#
# Bulk Modulus (GPa) = 59.31029 67.85880 63.58455
# Shear Modulus (GPa) = 22.35236 -4.67525 8.83855
#
# Velocity S-wave (km/s) = 3.30840 -1.51307 2.08040
# Velocity P-wave (km/s) = 6.60584 5.49332 6.07510
#
# Compressibility (1/GPa) = 0.01686048
#
# Stress axis : x y z
#
# Youngs Moduli (GPa) = 67.38207 65.49526 120.22065
#
# Poissons Ratio (x) = 0.23647 0.41437
# Poissons Ratio (y) = 0.24328 0.44795
# Poissons Ratio (z) = 0.23225 0.24404
#
# Static dielectric constant tensor:
#      x y z
#    x 1.745920 0.000000 0.000000 
#    y 0.000000 1.715900 0.000000 
#    z 0.000000 0.000000 1.811180 
# 
# From -- ./inp_files/20138.got.cif
#   From: 2010.05.17/outbox.cif.g08.bks.cpg/sg54_11_cif.got.tgz:20138.got - 2010.06.03 13:09:01.
