data_PCOD9423832
_publ_section_title
;
Structure prediction by ZEFSAII (Michael W. Deem and Ramdas Pophale) SiO2 
 PCOD9423832
Probable space group: P C C A
;
_chemical_formula_sum "Si O2"
_cell_formula_units_Z 32
_cell_length_a 25.125463
_cell_length_b 6.099184
_cell_length_c 9.241477
_cell_angle_alpha 90.000000
_cell_angle_beta 90.000000
_cell_angle_gamma 90.000000
_cell_volume 1416.208497
_symmetry_space_group_name_H-M "P C C A"
_symmetry_group_IT_number 54
_symmetry_cell_setting 'orthorhombic'
loop_
_space_group_symop_operation_xyz
x,y,z
1/2-x,-y,z
1/2+x,-y,1/2-z
-x,y,1/2-z
-x,-y,-z
1/2+x,y,-z
1/2-x,y,1/2+z
x,-y,1/2+z
loop_
_atom_site_type_symbol
_atom_site_label
_atom_site_fract_x
_atom_site_fract_y
_atom_site_fract_z
Si Si1 0.909095 0.285570 0.187638
Si Si2 0.792481 0.306313 0.220162
Si Si3 0.000000 0.414591 0.750000
Si Si4 0.250000 0.000000 0.033645
Si Si5 0.056422 0.051743 0.572687
O O1 0.852456 0.397386 0.210264
O O2 0.960612 0.435017 0.155517
O O3 0.924180 0.147256 0.329642
O O4 0.904221 0.117897 0.054597
O O5 0.750000 0.500000 0.236117
O O6 0.786729 0.141722 0.356879
O O7 0.778996 0.169201 0.074912
O O8 0.957783 0.259913 0.829306
O O9 0.000000 0.000000 0.500000
#
# Coordination Sequence:
#
# PCOD9423832 Si02
#       5
#     8   8   4   4   8
#     4  12  26  42  72 100 139 181 226 287 345 417
#     4  11  25  47  71 103 136 186 237 292 353 415
#     4  12  24  40  70 100 140 178 230 272 348 418
#     4  10  24  48  72  96 140 178 240 296 346 414
#     4  12  23  46  64 101 140 180 225 277 346 418
#
# _framework density 22.595545999999999
#
# number of rings (size 3 to 8) (size 9 to 14) (size 15 to 20)
#    0.000    0.500    5.000    3.000    0.000    8.000 
#    0.000    0.000    0.000    0.000    0.000    0.000 
#    0.000    0.000    0.000    0.000    0.000    0.000 
#
# Total GULP energy -178949.619673 kJ/mol
# GULP energy per Si atom -5592.175615 kJ/mol
# Density = 2.254412 g / cm^3
# Si number density = 22.595546 Si / 1000 Ang^3
#
#
#
# Elastic Constant Matrix: (Units=GPa)
#
#
# Indices 1 2 3 4 5 6 
#
# 1 132.8559 26.2264 6.4155 0.0000 0.0000 0.0000
# 2 26.2264 45.3721 -6.3629 0.0000 0.0000 0.0000
# 3 6.4155 -6.3629 76.1790 0.0000 0.0000 0.0000
# 4 0.0000 0.0000 0.0000 20.1865 0.0000 0.0000
# 5 0.0000 0.0000 0.0000 0.0000 9.1800 0.0000
# 6 0.0000 0.0000 0.0000 0.0000 0.0000 32.7044
#
#
#
# Elastic Compliance Matrix: (Units=1/GPa)
#
#
# Indices 1 2 3 4 5 6 
#
# 1 0.008595 -0.005130 -0.001152 0.000000 0.000000 0.000000
# 2 -0.005130 0.025363 0.002550 0.000000 0.000000 0.000000
# 3 -0.001152 0.002550 0.013437 0.000000 0.000000 0.000000
# 4 0.000000 0.000000 0.000000 0.049538 0.000000 0.000000
# 5 0.000000 0.000000 0.000000 0.000000 0.108932 0.000000
# 6 0.000000 0.000000 0.000000 0.000000 0.000000 0.030577
#
#
# Mechanical properties :
#
#
# Convention : Reuss Voigt Hill
#
# Bulk Modulus (GPa) = 25.04280 34.10723 29.57501
# Shear Modulus (GPa) = 19.43889 27.62272 23.53080
#
# Velocity S-wave (km/s) = 2.93626 3.50020 3.23056
# Velocity P-wave (km/s) = 4.75423 5.60916 5.19929
#
# Compressibility (1/GPa) = 0.03993163
#
# Stress axis : x y z
#
# Youngs Moduli (GPa) = 116.34309 39.42769 74.42109
#
# Poissons Ratio (x) = 0.20226 0.08576
# Poissons Ratio (y) = 0.59683 -0.18981
# Poissons Ratio (z) = 0.13407 -0.10056
#
# Static dielectric constant tensor:
#      x y z
#    x 1.905740 0.000000 0.000000 
#    y 0.000000 1.880070 0.000000 
#    z 0.000000 0.000000 2.085780 
# 
# From -- ./inp_files/5671.got.cif
#   From: 2010.05.17/outbox.cif.g08.bks.cpg/sg54_3_cif.got.tgz:5671.got - 2010.06.03 13:09:01.
