data_PCOD9423109
_publ_section_title
;
Structure prediction by ZEFSAII (Michael W. Deem and Ramdas Pophale) SiO2 
 PCOD9423109
Probable space group: P C C A
;
_chemical_formula_sum "Si O2"
_cell_formula_units_Z 64
_cell_length_a 9.295067
_cell_length_b 14.321447
_cell_length_c 22.929868
_cell_angle_alpha 90.000000
_cell_angle_beta 90.000000
_cell_angle_gamma 90.000000
_cell_volume 3052.396728
_symmetry_space_group_name_H-M "P C C A"
_symmetry_group_IT_number 54
_symmetry_cell_setting 'orthorhombic'
loop_
_space_group_symop_operation_xyz
x,y,z
1/2-x,-y,z
1/2+x,-y,1/2-z
-x,y,1/2-z
-x,-y,-z
1/2+x,y,-z
1/2-x,y,1/2+z
x,-y,1/2+z
loop_
_atom_site_type_symbol
_atom_site_label
_atom_site_fract_x
_atom_site_fract_y
_atom_site_fract_z
Si Si1 0.031751 0.728537 0.013199
Si Si2 0.722222 0.601635 0.534044
Si Si3 0.843665 0.681762 0.377893
Si Si4 0.833942 0.755149 0.248677
Si Si5 0.155788 0.357665 0.343206
Si Si6 0.560673 0.783370 0.396497
Si Si7 0.639098 0.916351 0.289262
Si Si8 0.422062 0.484148 0.191771
O O1 0.059654 0.749484 0.081463
O O2 0.933195 0.637300 0.017868
O O3 0.178026 0.684714 0.989571
O O4 0.975362 0.801258 0.965004
O O5 0.750000 0.500000 0.508295
O O6 0.759569 0.599034 0.602484
O O7 0.824878 0.710304 0.311772
O O8 0.682470 0.701899 0.399657
O O9 0.911697 0.579527 0.367014
O O10 0.772058 0.680707 0.202712
O O11 0.724651 0.840991 0.250146
O O12 0.000000 0.786174 0.250000
O O13 0.074325 0.266625 0.367049
O O14 0.029303 0.427432 0.320344
O O15 0.603830 0.865920 0.351816
O O16 0.500000 0.942666 0.250000
O O17 0.750000 0.000000 0.299820
O O18 0.250000 0.500000 0.204597
O O19 0.500000 0.442754 0.250000
#
# Coordination Sequence:
#
# PCOD9423109 Si02
#       8
#     8   8   8   8   8   8   8   8
#     4  11  22  40  60  86 125 178 241 282 343 389
#     4  11  23  37  56  86 126 179 244 300 330 384
#     4  11  22  38  61  90 127 180 237 287 326 394
#     4  11  23  41  68 101 139 170 219 274 354 429
#     4  11  23  41  64  91 135 188 223 285 357 406
#     4  10  22  42  64  95 131 181 219 280 350 410
#     4  11  23  43  76 108 139 167 209 273 354 432
#     4  12  25  38  60  89 134 179 240 292 361 413
#
# _framework density 20.967130000000001
#
# number of rings (size 3 to 8) (size 9 to 14) (size 15 to 20)
#    0.000    1.000    3.750    3.375    1.750    4.000 
#    0.000    0.000    0.000    3.000    0.000    0.875 
#    0.000    0.000    0.000    0.000    0.000    0.000 
#
# Total GULP energy -356338.631981 kJ/mol
# GULP energy per Si atom -5567.791125 kJ/mol
# Density = 2.091941 g / cm^3
# Si number density = 20.967130 Si / 1000 Ang^3
#
#
#
# Elastic Constant Matrix: (Units=GPa)
#
#
# Indices 1 2 3 4 5 6 
#
# 1 63.6653 14.8947 54.2276 0.0000 0.0000 0.0000
# 2 14.8947 65.5001 31.0407 0.0000 0.0000 0.0000
# 3 54.2276 31.0407 120.6565 0.0000 0.0000 0.0000
# 4 0.0000 0.0000 0.0000 2.8921 0.0000 0.0000
# 5 0.0000 0.0000 0.0000 0.0000 34.0587 0.0000
# 6 0.0000 0.0000 0.0000 0.0000 0.0000 35.8493
#
#
#
# Elastic Compliance Matrix: (Units=1/GPa)
#
#
# Indices 1 2 3 4 5 6 
#
# 1 0.025460 -0.000418 -0.011335 0.000000 0.000000 0.000000
# 2 -0.000418 0.017394 -0.004287 0.000000 0.000000 0.000000
# 3 -0.011335 -0.004287 0.014485 0.000000 0.000000 0.000000
# 4 0.000000 0.000000 0.000000 0.345769 0.000000 0.000000
# 5 0.000000 0.000000 0.000000 0.000000 0.029361 0.000000
# 6 0.000000 0.000000 0.000000 0.000000 0.000000 0.027895
#
#
# Mechanical properties :
#
#
# Convention : Reuss Voigt Hill
#
# Bulk Modulus (GPa) = 39.58991 50.01643 44.80317
# Shear Modulus (GPa) = 9.98277 24.53728 17.26002
#
# Velocity S-wave (km/s) = 2.18437 3.42464 2.87225
# Velocity P-wave (km/s) = 5.02841 6.28840 5.69337
#
# Compressibility (1/GPa) = 0.02525896
#
# Stress axis : x y z
#
# Youngs Moduli (GPa) = 39.27787 57.49177 69.03556
#
# Poissons Ratio (x) = 0.02402 0.78252
# Poissons Ratio (y) = 0.01641 0.29596
# Poissons Ratio (z) = 0.44522 0.24647
#
# Static dielectric constant tensor:
#      x y z
#    x 1.751440 0.000000 0.000000 
#    y 0.000000 1.829620 0.000000 
#    z 0.000000 0.000000 1.898260 
# 
# From -- ./inp_files/23699.got.cif
#   From: 2010.05.17/outbox.cif.g08.bks.cpg/sg54_12_cif.got.tgz:23699.got - 2010.06.03 13:09:01.
