data_PCOD9423791
_publ_section_title
;
Structure prediction by ZEFSAII (Michael W. Deem and Ramdas Pophale) SiO2 
 PCOD9423791
Probable space group: P C C A
;
_chemical_formula_sum "Si O2"
_cell_formula_units_Z 40
_cell_length_a 21.571138
_cell_length_b 8.445593
_cell_length_c 8.657620
_cell_angle_alpha 90.000000
_cell_angle_beta 90.000000
_cell_angle_gamma 90.000000
_cell_volume 1577.254320
_symmetry_space_group_name_H-M "P C C A"
_symmetry_group_IT_number 54
_symmetry_cell_setting 'orthorhombic'
loop_
_space_group_symop_operation_xyz
x,y,z
1/2-x,-y,z
1/2+x,-y,1/2-z
-x,y,1/2-z
-x,-y,-z
1/2+x,y,-z
1/2-x,y,1/2+z
x,-y,1/2+z
loop_
_atom_site_type_symbol
_atom_site_label
_atom_site_fract_x
_atom_site_fract_y
_atom_site_fract_z
Si Si1 0.177263 0.987100 0.624119
Si Si2 0.500000 0.727185 0.250000
Si Si3 0.171242 0.645380 0.479042
Si Si4 0.962277 0.316712 0.592493
Si Si5 0.593853 0.030235 0.612325
Si Si6 0.750000 0.500000 0.265116
O O1 0.163116 0.813080 0.560251
O O2 0.158603 0.004038 0.800688
O O3 0.250000 0.000000 0.601245
O O4 0.122783 0.094176 0.546946
O O5 0.511752 0.648849 0.418877
O O6 0.442299 0.840722 0.289949
O O7 0.105622 0.602786 0.404053
O O8 0.225175 0.636263 0.349585
O O9 0.194009 0.537596 0.620029
O O10 0.000000 0.348857 0.750000
O O11 0.949020 0.124629 0.594387
#
# Coordination Sequence:
#
# PCOD9423791 Si02
#       6
#     8   4   8   8   8   4
#     4  11  24  35  62 103 136 169 214 278 346 405
#     4  12  20  40  62  98 146 186 218 256 342 434
#     4  10  24  46  69  97 127 178 235 277 345 400
#     4  11  23  40  66 102 138 179 222 278 339 412
#     4  11  20  37  57  94 142 175 211 254 338 424
#     4  10  24  50  72  86 130 184 232 286 328 406
#
# _framework density 25.360524999999999
#
# number of rings (size 3 to 8) (size 9 to 14) (size 15 to 20)
#    0.000    1.200    5.000    2.400    8.400    0.000 
#    7.200    1.000    0.000    0.000    0.000    0.000 
#    0.000    0.000    0.000    0.000    0.000    0.000 
#
# Total GULP energy -223326.228779 kJ/mol
# GULP energy per Si atom -5583.155719 kJ/mol
# Density = 2.530280 g / cm^3
# Si number density = 25.360525 Si / 1000 Ang^3
#
#
#
# Elastic Constant Matrix: (Units=GPa)
#
#
# Indices 1 2 3 4 5 6 
#
# 1 120.6813 16.1049 54.0814 0.0000 0.0000 0.0000
# 2 16.1049 40.9049 41.9103 0.0000 0.0000 0.0000
# 3 54.0814 41.9103 142.6957 0.0000 0.0000 0.0000
# 4 0.0000 0.0000 0.0000 31.6935 0.0000 0.0000
# 5 0.0000 0.0000 0.0000 0.0000 57.5101 0.0000
# 6 0.0000 0.0000 0.0000 0.0000 0.0000 24.9324
#
#
#
# Elastic Compliance Matrix: (Units=1/GPa)
#
#
# Indices 1 2 3 4 5 6 
#
# 1 0.009982 -0.000077 -0.003760 0.000000 0.000000 0.000000
# 2 -0.000077 0.034971 -0.010242 0.000000 0.000000 0.000000
# 3 -0.003760 -0.010242 0.011441 0.000000 0.000000 0.000000
# 4 0.000000 0.000000 0.000000 0.031552 0.000000 0.000000
# 5 0.000000 0.000000 0.000000 0.000000 0.017388 0.000000
# 6 0.000000 0.000000 0.000000 0.000000 0.000000 0.040108
#
#
# Mechanical properties :
#
#
# Convention : Reuss Voigt Hill
#
# Bulk Modulus (GPa) = 35.41696 58.71947 47.06821
# Shear Modulus (GPa) = 27.32042 35.63957 31.48000
#
# Velocity S-wave (km/s) = 3.28576 3.75282 3.52703
# Velocity P-wave (km/s) = 5.32829 6.47938 5.93182
#
# Compressibility (1/GPa) = 0.02823506
#
# Stress axis : x y z
#
# Youngs Moduli (GPa) = 100.18282 28.59512 87.40347
#
# Poissons Ratio (x) = 0.00221 0.32867
# Poissons Ratio (y) = 0.00773 0.89518
# Poissons Ratio (z) = 0.37673 0.29287
#
# Static dielectric constant tensor:
#      x y z
#    x 2.053470 0.000000 0.000000 
#    y 0.000000 2.041970 0.000000 
#    z 0.000000 0.000000 2.020280 
# 
# From -- ./inp_files/4682.got.cif
#   From: 2010.05.17/outbox.cif.g08.bks.cpg/sg54_3_cif.got.tgz:4682.got - 2010.06.03 13:09:01.
