data_PCOD9423562
_publ_section_title
;
Structure prediction by ZEFSAII (Michael W. Deem and Ramdas Pophale) SiO2 
 PCOD9423562
Probable space group: P C C A
;
_chemical_formula_sum "Si O2"
_cell_formula_units_Z 40
_cell_length_a 17.530378
_cell_length_b 5.837048
_cell_length_c 16.637410
_cell_angle_alpha 90.000000
_cell_angle_beta 90.000000
_cell_angle_gamma 90.000000
_cell_volume 1702.433923
_symmetry_space_group_name_H-M "P C C A"
_symmetry_group_IT_number 54
_symmetry_cell_setting 'orthorhombic'
loop_
_space_group_symop_operation_xyz
x,y,z
1/2-x,-y,z
1/2+x,-y,1/2-z
-x,y,1/2-z
-x,-y,-z
1/2+x,y,-z
1/2-x,y,1/2+z
x,-y,1/2+z
loop_
_atom_site_type_symbol
_atom_site_label
_atom_site_fract_x
_atom_site_fract_y
_atom_site_fract_z
Si Si1 0.306330 0.810460 0.854073
Si Si2 0.939745 0.213074 0.928170
Si Si3 0.538012 0.919234 0.166798
Si Si4 0.910437 0.468551 0.083554
Si Si5 0.285560 0.253762 0.167225
O O1 0.387942 0.928524 0.842239
O O2 0.331097 0.599153 0.908955
O O3 0.279226 0.747014 0.764506
O O4 0.250000 0.000000 0.889251
O O5 0.975310 0.967723 0.903035
O O6 0.872733 0.258504 0.864331
O O7 0.015263 0.372446 0.926892
O O8 0.905280 0.274786 0.014725
O O9 0.500000 0.977538 0.250000
O O10 0.569685 0.663442 0.165266
O O11 0.250000 0.500000 0.139884
O O12 0.250000 0.000000 0.142624
#
# Coordination Sequence:
#
# PCOD9423562 Si02
#       5
#     8   8   8   8   8
#     4  10  24  42  64 102 139 180 240 294 357 425
#     4  10  23  46  63 101 139 176 243 290 362 428
#     4  11  22  39  70 101 129 185 236 296 352 437
#     4  10  24  40  72  97 135 187 225 305 357 431
#     4  11  26  45  71 100 142 191 236 295 355 429
#
# _framework density 23.495771000000001
#
# number of rings (size 3 to 8) (size 9 to 14) (size 15 to 20)
#    0.000    1.600    2.000    0.600   11.200    0.000 
#    3.600    0.000    0.000    0.000    0.000    0.000 
#    0.000    0.000    0.000    0.000    0.000    0.000 
#
# Total GULP energy -223062.506675 kJ/mol
# GULP energy per Si atom -5576.562667 kJ/mol
# Density = 2.344229 g / cm^3
# Si number density = 23.495771 Si / 1000 Ang^3
#
#
#
# Elastic Constant Matrix: (Units=GPa)
#
#
# Indices 1 2 3 4 5 6 
#
# 1 114.9503 64.0317 36.6521 0.0000 0.0000 0.0000
# 2 64.0317 117.0075 33.0082 0.0000 0.0000 0.0000
# 3 36.6521 33.0082 44.3681 0.0000 0.0000 0.0000
# 4 0.0000 0.0000 0.0000 -0.6209 0.0000 0.0000
# 5 0.0000 0.0000 0.0000 0.0000 14.6820 0.0000
# 6 0.0000 0.0000 0.0000 0.0000 0.0000 45.0843
#
#
#
# Elastic Compliance Matrix: (Units=1/GPa)
#
#
# Indices 1 2 3 4 5 6 
#
# 1 0.014275 -0.005677 -0.007569 0.000000 0.000000 0.000000
# 2 -0.005677 0.013074 -0.005037 0.000000 0.000000 0.000000
# 3 -0.007569 -0.005037 0.032539 0.000000 0.000000 0.000000
# 4 0.000000 0.000000 0.000000 -1.610570 0.000000 0.000000
# 5 0.000000 0.000000 0.000000 0.000000 0.068110 0.000000
# 6 0.000000 0.000000 0.000000 0.000000 0.000000 0.022181
#
#
# Mechanical properties :
#
#
# Convention : Reuss Voigt Hill
#
# Bulk Modulus (GPa) = 42.87796 60.41219 51.64507
# Shear Modulus (GPa) = -3.53095 21.33801 8.90353
#
# Velocity S-wave (km/s) = -1.22722 3.01685 1.94875
# Velocity P-wave (km/s) = 4.03494 6.15653 5.20498
#
# Compressibility (1/GPa) = 0.02332201
#
# Stress axis : x y z
#
# Youngs Moduli (GPa) = 70.05285 76.48815 30.73228
#
# Poissons Ratio (x) = 0.43419 0.23262
# Poissons Ratio (y) = 0.39766 0.15480
# Poissons Ratio (z) = 0.53025 0.38528
#
# Static dielectric constant tensor:
#      x y z
#    x 1.857760 0.000000 0.000000 
#    y 0.000000 2.042640 0.000000 
#    z 0.000000 0.000000 1.935760 
# 
# From -- ./inp_files/21793.got.cif
#   From: 2010.05.17/outbox.cif.g08.bks.cpg/sg54_11_cif.got.tgz:21793.got - 2010.06.03 13:09:01.
