data_PCOD9423811
_publ_section_title
;
Structure prediction by ZEFSAII (Michael W. Deem and Ramdas Pophale) SiO2 
 PCOD9423811
Probable space group: P C C A
;
_chemical_formula_sum "Si O2"
_cell_formula_units_Z 48
_cell_length_a 9.112830
_cell_length_b 16.669731
_cell_length_c 14.051658
_cell_angle_alpha 90.000000
_cell_angle_beta 90.000000
_cell_angle_gamma 90.000000
_cell_volume 2134.565232
_symmetry_space_group_name_H-M "P C C A"
_symmetry_group_IT_number 54
_symmetry_cell_setting 'orthorhombic'
loop_
_space_group_symop_operation_xyz
x,y,z
1/2-x,-y,z
1/2+x,-y,1/2-z
-x,y,1/2-z
-x,-y,-z
1/2+x,y,-z
1/2-x,y,1/2+z
x,-y,1/2+z
loop_
_atom_site_type_symbol
_atom_site_label
_atom_site_fract_x
_atom_site_fract_y
_atom_site_fract_z
Si Si1 0.780010 0.722398 0.624106
Si Si2 0.203728 0.145637 0.612283
Si Si3 0.711915 0.093612 0.681544
Si Si4 0.978683 0.909810 0.972316
Si Si5 0.375687 0.697851 0.069937
Si Si6 0.670903 0.416323 0.772948
O O1 0.743565 0.813940 0.652954
O O2 0.671874 0.699352 0.538825
O O3 0.769324 0.655872 0.706664
O O4 0.952217 0.716344 0.589677
O O5 0.227197 0.098073 0.709700
O O6 0.307473 0.104716 0.533695
O O7 0.050098 0.141766 0.557678
O O8 0.277636 0.232504 0.619442
O O9 0.548453 0.100001 0.633410
O O10 0.750000 0.000000 0.654519
O O11 0.000000 0.000000 0.000000
O O12 0.327841 0.615769 0.119387
O O13 0.750000 0.500000 0.758576
O O14 0.500000 0.426035 0.750000
#
# Coordination Sequence:
#
# PCOD9423811 Si02
#       6
#     8   8   8   8   8   8
#     4  11  24  44  73  98 142 180 234 277 350 409
#     4  12  23  43  66  93 132 183 231 281 347 398
#     4  12  24  40  68  98 135 188 237 285 337 402
#     4  12  25  41  64  94 135 178 235 291 333 400
#     4  11  22  44  72 102 133 185 221 286 345 417
#     4  10  24  46  76 106 138 178 223 285 355 425
#
# _framework density 22.487015
#
# number of rings (size 3 to 8) (size 9 to 14) (size 15 to 20)
#    0.000    0.667    5.000    3.000    0.000    2.000 
#    0.000    5.833    0.000    0.000    0.000    0.000 
#    0.000    0.000    0.000    0.000    0.000    0.000 
#
# Total GULP energy -267567.993812 kJ/mol
# GULP energy per Si atom -5574.333204 kJ/mol
# Density = 2.243583 g / cm^3
# Si number density = 22.487015 Si / 1000 Ang^3
#
#
#
# Elastic Constant Matrix: (Units=GPa)
#
#
# Indices 1 2 3 4 5 6 
#
# 1 63.4802 32.7828 34.5703 0.0000 0.0000 0.0000
# 2 32.7828 156.1869 50.0749 0.0000 0.0000 0.0000
# 3 34.5703 50.0749 123.2494 0.0000 0.0000 0.0000
# 4 0.0000 0.0000 0.0000 26.0049 0.0000 0.0000
# 5 0.0000 0.0000 0.0000 0.0000 12.8457 0.0000
# 6 0.0000 0.0000 0.0000 0.0000 0.0000 35.5000
#
#
#
# Elastic Compliance Matrix: (Units=1/GPa)
#
#
# Indices 1 2 3 4 5 6 
#
# 1 0.019532 -0.002694 -0.004384 0.000000 0.000000 0.000000
# 2 -0.002694 0.007733 -0.002386 0.000000 0.000000 0.000000
# 3 -0.004384 -0.002386 0.010313 0.000000 0.000000 0.000000
# 4 0.000000 0.000000 0.000000 0.038454 0.000000 0.000000
# 5 0.000000 0.000000 0.000000 0.000000 0.077847 0.000000
# 6 0.000000 0.000000 0.000000 0.000000 0.000000 0.028169
#
#
# Mechanical properties :
#
#
# Convention : Reuss Voigt Hill
#
# Bulk Modulus (GPa) = 53.62167 64.19693 58.90930
# Shear Modulus (GPa) = 24.13213 29.90269 27.01741
#
# Velocity S-wave (km/s) = 3.27946 3.65057 3.46998
# Velocity P-wave (km/s) = 6.18363 6.81023 6.50448
#
# Compressibility (1/GPa) = 0.01864918
#
# Stress axis : x y z
#
# Youngs Moduli (GPa) = 51.19901 129.31426 96.96740
#
# Poissons Ratio (x) = 0.34838 0.42509
# Poissons Ratio (y) = 0.13793 0.23138
# Poissons Ratio (z) = 0.22445 0.30857
#
# Static dielectric constant tensor:
#      x y z
#    x 1.847510 0.000000 0.000000 
#    y 0.000000 1.842130 0.000000 
#    z 0.000000 0.000000 1.967540 
# 
# From -- ./inp_files/11717.got.cif
#   From: 2010.05.17/outbox.cif.g08.bks.cpg/sg54_6_cif.got.tgz:11717.got - 2010.06.03 13:09:01.
