data_PCOD9423603
_publ_section_title
;
Structure prediction by ZEFSAII (Michael W. Deem and Ramdas Pophale) SiO2 
 PCOD9423603
Probable space group: P C C A
;
_chemical_formula_sum "Si O2"
_cell_formula_units_Z 36
_cell_length_a 8.664958
_cell_length_b 9.840642
_cell_length_c 19.298419
_cell_angle_alpha 90.000000
_cell_angle_beta 90.000000
_cell_angle_gamma 90.000000
_cell_volume 1645.552058
_symmetry_space_group_name_H-M "P C C A"
_symmetry_group_IT_number 54
_symmetry_cell_setting 'orthorhombic'
loop_
_space_group_symop_operation_xyz
x,y,z
1/2-x,-y,z
1/2+x,-y,1/2-z
-x,y,1/2-z
-x,-y,-z
1/2+x,y,-z
1/2-x,y,1/2+z
x,-y,1/2+z
loop_
_atom_site_type_symbol
_atom_site_label
_atom_site_fract_x
_atom_site_fract_y
_atom_site_fract_z
Si Si1 0.373542 0.763877 0.427967
Si Si2 0.504486 0.981803 0.646489
Si Si3 0.750000 0.000000 0.754005
Si Si4 0.993629 0.283155 0.576355
Si Si5 0.567783 0.530141 0.173549
O O1 0.437744 0.706467 0.500006
O O2 0.188983 0.749288 0.429878
O O3 0.441186 0.672284 0.366284
O O4 0.425290 0.916962 0.410074
O O5 0.377824 0.058456 0.693721
O O6 0.432136 0.849551 0.611837
O O7 0.637888 0.925405 0.699052
O O8 0.008142 0.414133 0.625113
O O9 0.750000 0.500000 0.178291
O O10 0.500000 0.531916 0.250000
#
# Coordination Sequence:
#
# PCOD9423603 Si02
#       5
#     8   8   4   8   8
#     4  11  24  42  63  92 127 163 206 253 305 369
#     4  11  23  40  65  92 127 159 210 249 313 360
#     4  10  24  38  62  94 132 158 196 264 312 356
#     4  11  24  42  63  92 127 163 206 253 305 369
#     4  10  25  42  64  92 124 160 207 254 306 365
#
# _framework density 21.877154999999998
#
# number of rings (size 3 to 8) (size 9 to 14) (size 15 to 20)
#    0.000    1.333    2.222    1.333    9.333    1.778 
#    0.000    0.000    0.000    0.000    0.000    0.000 
#    0.000    0.000    0.000    0.000    0.000    0.000 
#
# Total GULP energy -200909.783947 kJ/mol
# GULP energy per Si atom -5580.827332 kJ/mol
# Density = 2.182736 g / cm^3
# Si number density = 21.877155 Si / 1000 Ang^3
#
#
#
# Elastic Constant Matrix: (Units=GPa)
#
#
# Indices 1 2 3 4 5 6 
#
# 1 43.3402 8.5089 42.4765 0.0000 0.0000 0.0000
# 2 8.5089 78.7997 24.3136 0.0000 0.0000 0.0000
# 3 42.4765 24.3136 143.3392 0.0000 0.0000 0.0000
# 4 0.0000 0.0000 0.0000 16.1346 0.0000 0.0000
# 5 0.0000 0.0000 0.0000 0.0000 5.8673 0.0000
# 6 0.0000 0.0000 0.0000 0.0000 0.0000 5.6320
#
#
#
# Elastic Compliance Matrix: (Units=1/GPa)
#
#
# Indices 1 2 3 4 5 6 
#
# 1 0.032541 -0.000568 -0.009547 0.000000 0.000000 0.000000
# 2 -0.000568 0.013401 -0.002105 0.000000 0.000000 0.000000
# 3 -0.009547 -0.002105 0.010163 0.000000 0.000000 0.000000
# 4 0.000000 0.000000 0.000000 0.061979 0.000000 0.000000
# 5 0.000000 0.000000 0.000000 0.000000 0.170438 0.000000
# 6 0.000000 0.000000 0.000000 0.000000 0.000000 0.177558
#
#
# Mechanical properties :
#
#
# Convention : Reuss Voigt Hill
#
# Bulk Modulus (GPa) = 31.58007 46.23079 38.90543
# Shear Modulus (GPa) = 9.97857 18.20543 14.09200
#
# Velocity S-wave (km/s) = 2.13801 2.88786 2.54075
# Velocity P-wave (km/s) = 4.53446 5.68309 5.14095
#
# Compressibility (1/GPa) = 0.03166554
#
# Stress axis : x y z
#
# Youngs Moduli (GPa) = 30.73015 74.62030 98.40068
#
# Poissons Ratio (x) = 0.04240 0.93941
# Poissons Ratio (y) = 0.01746 0.20711
# Poissons Ratio (z) = 0.29337 0.15706
#
# Static dielectric constant tensor:
#      x y z
#    x 1.811270 0.000000 0.000000 
#    y 0.000000 1.790960 0.000000 
#    z 0.000000 0.000000 1.778400 
# 
# From -- ./inp_files/20112.got.cif
#   From: 2010.05.17/outbox.cif.g08.bks.cpg/sg54_11_cif.got.tgz:20112.got - 2010.06.03 13:09:01.
