data_PCOD9423046
_publ_section_title
;
Structure prediction by ZEFSAII (Michael W. Deem and Ramdas Pophale) SiO2 
 PCOD9423046
Probable space group: P C C A
;
_chemical_formula_sum "Si O2"
_cell_formula_units_Z 40
_cell_length_a 4.963303
_cell_length_b 29.011506
_cell_length_c 12.823259
_cell_angle_alpha 90.000000
_cell_angle_beta 90.000000
_cell_angle_gamma 90.000000
_cell_volume 1846.458184
_symmetry_space_group_name_H-M "P C C A"
_symmetry_group_IT_number 54
_symmetry_cell_setting 'orthorhombic'
loop_
_space_group_symop_operation_xyz
x,y,z
1/2-x,-y,z
1/2+x,-y,1/2-z
-x,y,1/2-z
-x,-y,-z
1/2+x,y,-z
1/2-x,y,1/2+z
x,-y,1/2+z
loop_
_atom_site_type_symbol
_atom_site_label
_atom_site_fract_x
_atom_site_fract_y
_atom_site_fract_z
Si Si1 0.822148 0.898904 0.571378
Si Si2 0.500000 0.337948 0.250000
Si Si3 0.792760 0.403682 0.567257
Si Si4 0.000000 0.724309 0.750000
Si Si5 0.750000 0.500000 0.676178
Si Si6 0.500000 0.031520 0.750000
Si Si7 0.930209 0.204325 0.071956
O O1 0.020208 0.903213 0.471610
O O2 0.895387 0.936568 0.656353
O O3 0.875489 0.847266 0.613841
O O4 0.384396 0.369714 0.341882
O O5 0.750042 0.306721 0.286772
O O6 0.487085 0.396609 0.531555
O O7 0.825877 0.455943 0.607372
O O8 0.891725 0.757059 0.658216
O O9 0.500000 0.487168 0.750000
O O10 0.250000 0.000000 0.715171
O O11 0.228418 0.208634 0.025441
#
# Coordination Sequence:
#
# PCOD9423046 Si02
#       7
#     8   4   8   4   4   4   8
#     4  10  22  41  63  89 123 162 210 267 317 369
#     4  12  28  44  64  98 136 174 208 264 316 390
#     4  12  26  46  70  98 132 176 217 261 322 378
#     4  12  25  42  67  94 130 169 210 259 328 378
#     4  12  24  44  76 100 134 168 218 282 314 374
#     4  12  25  38  59  90 126 169 210 253 314 386
#     4  10  22  41  67  94 121 161 214 267 317 376
#
# _framework density 21.663094999999998
#
# number of rings (size 3 to 8) (size 9 to 14) (size 15 to 20)
#    0.000    0.800    1.000    6.000    1.400    7.200 
#    0.000    8.000    0.000    0.000    0.000    0.000 
#    0.000    0.000    0.000    0.000    0.000    0.000 
#
# Total GULP energy -224025.827228 kJ/mol
# GULP energy per Si atom -5600.645681 kJ/mol
# Density = 2.161379 g / cm^3
# Si number density = 21.663095 Si / 1000 Ang^3
#
#
#
# Elastic Constant Matrix: (Units=GPa)
#
#
# Indices 1 2 3 4 5 6 
#
# 1 74.1734 8.9195 -13.3561 0.0000 0.0000 0.0000
# 2 8.9195 117.6962 34.4387 0.0000 0.0000 0.0000
# 3 -13.3561 34.4387 41.1771 0.0000 0.0000 0.0000
# 4 0.0000 0.0000 0.0000 -8.2663 0.0000 0.0000
# 5 0.0000 0.0000 0.0000 0.0000 31.0190 0.0000
# 6 0.0000 0.0000 0.0000 0.0000 0.0000 8.4757
#
#
#
# Elastic Compliance Matrix: (Units=1/GPa)
#
#
# Indices 1 2 3 4 5 6 
#
# 1 0.015314 -0.003461 0.007862 0.000000 0.000000 0.000000
# 2 -0.003461 0.012032 -0.011185 0.000000 0.000000 0.000000
# 3 0.007862 -0.011185 0.036190 0.000000 0.000000 0.000000
# 4 0.000000 0.000000 0.000000 -0.120973 0.000000 0.000000
# 5 0.000000 0.000000 0.000000 0.000000 0.032238 0.000000
# 6 0.000000 0.000000 0.000000 0.000000 0.000000 0.117984
#
#
# Mechanical properties :
#
#
# Convention : Reuss Voigt Hill
#
# Bulk Modulus (GPa) = 20.01339 32.56122 26.28731
# Shear Modulus (GPa) = 40.64734 19.78199 30.21467
#
# Velocity S-wave (km/s) = 4.33637 3.02514 3.73869
# Velocity P-wave (km/s) = 5.85924 5.22162 5.54960
#
# Compressibility (1/GPa) = 0.04996654
#
# Stress axis : x y z
#
# Youngs Moduli (GPa) = 65.30088 83.11415 27.63173
#
# Poissons Ratio (x) = 0.28765 -0.21723
# Poissons Ratio (y) = 0.22600 0.30907
# Poissons Ratio (z) = -0.51338 0.92966
#
# Static dielectric constant tensor:
#      x y z
#    x 1.760210 0.000000 0.000000 
#    y 0.000000 1.778950 0.000000 
#    z 0.000000 0.000000 1.635060 
# 
# From -- ./inp_files/6481.got.cif
#   From: 2010.05.17/outbox.cif.g08.bks.cpg/sg54_4_cif.got.tgz:6481.got - 2010.06.03 13:09:01.
