data_PCOD9423023
_publ_section_title
;
Structure prediction by ZEFSAII (Michael W. Deem and Ramdas Pophale) SiO2 
 PCOD9423023
Probable space group: P C C A
;
_chemical_formula_sum "Si O2"
_cell_formula_units_Z 36
_cell_length_a 6.504487
_cell_length_b 9.766006
_cell_length_c 24.012583
_cell_angle_alpha 90.000000
_cell_angle_beta 90.000000
_cell_angle_gamma 90.000000
_cell_volume 1525.347926
_symmetry_space_group_name_H-M "P C C A"
_symmetry_group_IT_number 54
_symmetry_cell_setting 'orthorhombic'
loop_
_space_group_symop_operation_xyz
x,y,z
1/2-x,-y,z
1/2+x,-y,1/2-z
-x,y,1/2-z
-x,-y,-z
1/2+x,y,-z
1/2-x,y,1/2+z
x,-y,1/2+z
loop_
_atom_site_type_symbol
_atom_site_label
_atom_site_fract_x
_atom_site_fract_y
_atom_site_fract_z
Si Si1 0.250000 0.000000 0.825241
Si Si2 0.364539 0.110001 0.001446
Si Si3 0.986818 0.736904 0.808725
Si Si4 0.283694 0.648796 0.415881
Si Si5 0.407016 0.185106 0.124028
O O1 0.357303 0.133110 0.798314
O O2 0.059186 0.061828 0.859136
O O3 0.306761 0.148384 0.065513
O O4 0.615567 0.067710 0.014010
O O5 0.370564 0.240401 0.959698
O O6 0.761283 0.786096 0.828717
O O7 0.000000 0.659764 0.750000
O O8 0.070953 0.653676 0.861668
O O9 0.250000 0.500000 0.441340
O O10 0.062939 0.693585 0.391042
#
# Coordination Sequence:
#
# PCOD9423023 Si02
#       5
#     4   8   8   8   8
#     4  10  22  40  70 106 146 178 244 302 366 434
#     4  12  21  41  71 106 147 193 235 294 370 443
#     4  11  26  45  69 103 140 192 244 310 371 442
#     4  11  27  47  68 107 147 194 258 304 367 446
#     4  11  23  44  69 105 149 192 238 295 371 437
#
# _framework density 23.601171999999998
#
# number of rings (size 3 to 8) (size 9 to 14) (size 15 to 20)
#    0.000    0.889    2.222    6.000    4.667    4.444 
#    4.000    0.000    0.000    0.000    0.000    0.000 
#    0.000    0.000    0.000    0.000    0.000    0.000 
#
# Total GULP energy -200874.984777 kJ/mol
# GULP energy per Si atom -5579.860688 kJ/mol
# Density = 2.354745 g / cm^3
# Si number density = 23.601172 Si / 1000 Ang^3
#
#
#
# Elastic Constant Matrix: (Units=GPa)
#
#
# Indices 1 2 3 4 5 6 
#
# 1 147.2698 42.9531 36.8679 0.0000 0.0000 0.0000
# 2 42.9531 116.1324 33.8203 0.0000 0.0000 0.0000
# 3 36.8679 33.8203 156.0676 0.0000 0.0000 0.0000
# 4 0.0000 0.0000 0.0000 1.1712 0.0000 0.0000
# 5 0.0000 0.0000 0.0000 0.0000 33.3560 0.0000
# 6 0.0000 0.0000 0.0000 0.0000 0.0000 11.2659
#
#
#
# Elastic Compliance Matrix: (Units=1/GPa)
#
#
# Indices 1 2 3 4 5 6 
#
# 1 0.007854 -0.002524 -0.001308 0.000000 0.000000 0.000000
# 2 -0.002524 0.010002 -0.001571 0.000000 0.000000 0.000000
# 3 -0.001308 -0.001571 0.007057 0.000000 0.000000 0.000000
# 4 0.000000 0.000000 0.000000 0.853854 0.000000 0.000000
# 5 0.000000 0.000000 0.000000 0.000000 0.029980 0.000000
# 6 0.000000 0.000000 0.000000 0.000000 0.000000 0.088763
#
#
# Mechanical properties :
#
#
# Convention : Reuss Voigt Hill
#
# Bulk Modulus (GPa) = 70.89222 71.86138 71.37680
# Shear Modulus (GPa) = 4.93574 29.54717 17.24145
#
# Velocity S-wave (km/s) = 1.44771 3.54211 2.70577
# Velocity P-wave (km/s) = 5.73561 6.87336 6.33010
#
# Compressibility (1/GPa) = 0.01410592
#
# Stress axis : x y z
#
# Youngs Moduli (GPa) = 127.32500 99.98081 141.70211
#
# Poissons Ratio (x) = 0.25234 0.18540
# Poissons Ratio (y) = 0.32135 0.22265
# Poissons Ratio (z) = 0.16659 0.15709
#
# Static dielectric constant tensor:
#      x y z
#    x 1.953700 0.000000 0.000000 
#    y 0.000000 1.996440 0.000000 
#    z 0.000000 0.000000 1.837340 
# 
# From -- ./inp_files/22698.got.cif
#   From: 2010.05.17/outbox.cif.g08.bks.cpg/sg54_12_cif.got.tgz:22698.got - 2010.06.03 13:09:01.
