data_PCOD9423245
_publ_section_title
;
Structure prediction by ZEFSAII (Michael W. Deem and Ramdas Pophale) SiO2 
 PCOD9423245
Probable space group: P C C A
;
_chemical_formula_sum "Si O2"
_cell_formula_units_Z 32
_cell_length_a 11.742526
_cell_length_b 11.452518
_cell_length_c 10.003063
_cell_angle_alpha 90.000000
_cell_angle_beta 90.000000
_cell_angle_gamma 90.000000
_cell_volume 1345.226821
_symmetry_space_group_name_H-M "P C C A"
_symmetry_group_IT_number 54
_symmetry_cell_setting 'orthorhombic'
loop_
_space_group_symop_operation_xyz
x,y,z
1/2-x,-y,z
1/2+x,-y,1/2-z
-x,y,1/2-z
-x,-y,-z
1/2+x,y,-z
1/2-x,y,1/2+z
x,-y,1/2+z
loop_
_atom_site_type_symbol
_atom_site_label
_atom_site_fract_x
_atom_site_fract_y
_atom_site_fract_z
Si Si1 0.227521 0.134863 0.899350
Si Si2 0.334050 0.731436 0.165650
Si Si3 0.542109 0.376493 0.038815
Si Si4 0.000000 0.214526 0.750000
Si Si5 0.750000 0.500000 0.195018
O O1 0.315660 0.186512 0.791928
O O2 0.103975 0.149946 0.823294
O O3 0.250000 0.000000 0.926454
O O4 0.228287 0.205631 0.038704
O O5 0.303719 0.599962 0.211636
O O6 0.451785 0.705960 0.090560
O O7 0.460340 0.307256 0.138626
O O8 0.662077 0.418208 0.108940
O O9 0.500000 0.500000 0.000000
#
# Coordination Sequence:
#
# PCOD9423245 Si02
#       5
#     8   8   8   4   4
#     4  11  25  47  73 100 140 190 245 295 354 418
#     4  11  23  43  70 101 139 184 227 297 353 421
#     4  11  24  40  69 109 148 186 229 287 370 440
#     4  10  22  44  68 100 142 182 238 296 344 422
#     4  12  22  42  70 110 148 186 228 294 364 434
#
# _framework density 23.78781
#
# number of rings (size 3 to 8) (size 9 to 14) (size 15 to 20)
#    0.000    1.000    5.000    3.000    3.500    0.000 
#    0.000   16.250    0.000    0.000    0.000    0.000 
#    0.000    0.000    0.000    0.000    0.000    0.000 
#
# Total GULP energy -178303.132729 kJ/mol
# GULP energy per Si atom -5571.972898 kJ/mol
# Density = 2.373367 g / cm^3
# Si number density = 23.787810 Si / 1000 Ang^3
#
#
#
# Elastic Constant Matrix: (Units=GPa)
#
#
# Indices 1 2 3 4 5 6 
#
# 1 62.5686 10.0790 16.0937 0.0000 0.0000 0.0000
# 2 10.0790 148.1667 34.1999 0.0000 0.0000 0.0000
# 3 16.0937 34.1999 88.8569 0.0000 0.0000 0.0000
# 4 0.0000 0.0000 0.0000 36.0518 0.0000 0.0000
# 5 0.0000 0.0000 0.0000 0.0000 40.5190 0.0000
# 6 0.0000 0.0000 0.0000 0.0000 0.0000 30.6959
#
#
#
# Elastic Compliance Matrix: (Units=1/GPa)
#
#
# Indices 1 2 3 4 5 6 
#
# 1 0.016795 -0.000483 -0.002856 0.000000 0.000000 0.000000
# 2 -0.000483 0.007421 -0.002769 0.000000 0.000000 0.000000
# 3 -0.002856 -0.002769 0.012837 0.000000 0.000000 0.000000
# 4 0.000000 0.000000 0.000000 0.027738 0.000000 0.000000
# 5 0.000000 0.000000 0.000000 0.000000 0.024680 0.000000
# 6 0.000000 0.000000 0.000000 0.000000 0.000000 0.032578
#
#
# Mechanical properties :
#
#
# Convention : Reuss Voigt Hill
#
# Bulk Modulus (GPa) = 40.26228 46.70416 43.48322
# Shear Modulus (GPa) = 35.07712 37.40133 36.23923
#
# Velocity S-wave (km/s) = 3.84420 3.96951 3.90736
# Velocity P-wave (km/s) = 6.05526 6.37853 6.21899
#
# Compressibility (1/GPa) = 0.02483714
#
# Stress axis : x y z
#
# Youngs Moduli (GPa) = 59.54195 134.75057 77.90002
#
# Poissons Ratio (x) = 0.06512 0.22247
# Poissons Ratio (y) = 0.02878 0.21569
# Poissons Ratio (z) = 0.17004 0.37309
#
# Static dielectric constant tensor:
#      x y z
#    x 2.396320 0.000000 0.000000 
#    y 0.000000 1.827700 0.000000 
#    z 0.000000 0.000000 2.048190 
# 
# From -- ./inp_files/3280.got.cif
#   From: 2010.05.17/outbox.cif.g08.bks.cpg/sg54_2_cif.got.tgz:3280.got - 2010.06.03 13:09:01.
