data_PCOD9423406
_publ_section_title
;
Structure prediction by ZEFSAII (Michael W. Deem and Ramdas Pophale) SiO2 
 PCOD9423406
Probable space group: P C C A
;
_chemical_formula_sum "Si O2"
_cell_formula_units_Z 64
_cell_length_a 14.925826
_cell_length_b 23.053163
_cell_length_c 9.137865
_cell_angle_alpha 90.000000
_cell_angle_beta 90.000000
_cell_angle_gamma 90.000000
_cell_volume 3144.225120
_symmetry_space_group_name_H-M "P C C A"
_symmetry_group_IT_number 54
_symmetry_cell_setting 'orthorhombic'
loop_
_space_group_symop_operation_xyz
x,y,z
1/2-x,-y,z
1/2+x,-y,1/2-z
-x,y,1/2-z
-x,-y,-z
1/2+x,y,-z
1/2-x,y,1/2+z
x,-y,1/2+z
loop_
_atom_site_type_symbol
_atom_site_label
_atom_site_fract_x
_atom_site_fract_y
_atom_site_fract_z
Si Si1 0.902036 0.946606 0.172227
Si Si2 0.402861 0.433889 0.562886
Si Si3 0.242603 0.648914 0.450423
Si Si4 0.902370 0.182732 0.677583
Si Si5 0.241294 0.270903 0.698432
Si Si6 0.598732 0.941424 0.322574
Si Si7 0.096319 0.811590 0.672209
Si Si8 0.611413 0.554377 0.090140
O O1 0.863896 0.882511 0.200509
O O2 0.000000 0.944378 0.250000
O O3 0.857222 0.003320 0.243362
O O4 0.908787 0.952833 0.996572
O O5 0.349887 0.378006 0.507162
O O6 0.372372 0.490123 0.471385
O O7 0.384092 0.445002 0.733893
O O8 0.509961 0.428629 0.546381
O O9 0.264845 0.709044 0.531313
O O10 0.237379 0.668173 0.283064
O O11 0.318206 0.600530 0.469866
O O12 0.837924 0.229746 0.748994
O O13 0.913120 0.191913 0.503631
O O14 0.000000 0.185836 0.750000
O O15 0.334167 0.237152 0.721065
O O16 0.500000 0.937717 0.250000
O O17 0.635018 0.876526 0.298478
O O18 0.000000 0.805569 0.750000
#
# Coordination Sequence:
#
# PCOD9423406 Si02
#       8
#     8   8   8   8   8   8   8   8
#     4   9  16  30  53  83 115 148 196 252 309 372
#     4  10  23  43  67  97 128 159 203 247 304 362
#     4  12  25  42  66  90 125 170 206 256 298 359
#     4  10  23  41  62  89 122 162 208 260 313 370
#     4  12  26  44  60  90 127 165 217 253 302 364
#     4   9  16  30  53  84 113 149 197 249 312 373
#     4  10  23  41  63  87 122 165 206 258 317 370
#     4  10  23  43  68  96 127 162 198 251 305 357
#
# _framework density 20.354775
#
# number of rings (size 3 to 8) (size 9 to 14) (size 15 to 20)
#    0.000    1.750    2.500    1.875    3.500    4.000 
#    0.000    0.625    0.000    3.000    0.000    0.000 
#    0.000    0.000    0.000    0.000    0.000    0.000 
#
# Total GULP energy -357275.525946 kJ/mol
# GULP energy per Si atom -5582.430093 kJ/mol
# Density = 2.030845 g / cm^3
# Si number density = 20.354775 Si / 1000 Ang^3
#
#
#
# Elastic Constant Matrix: (Units=GPa)
#
#
# Indices 1 2 3 4 5 6 
#
# 1 65.4173 32.1203 22.9692 0.0000 0.0000 0.0000
# 2 32.1203 79.9728 23.2053 0.0000 0.0000 0.0000
# 3 22.9692 23.2053 59.2631 0.0000 0.0000 0.0000
# 4 0.0000 0.0000 0.0000 48.5569 0.0000 0.0000
# 5 0.0000 0.0000 0.0000 0.0000 17.3296 0.0000
# 6 0.0000 0.0000 0.0000 0.0000 0.0000 41.9289
#
#
#
# Elastic Compliance Matrix: (Units=1/GPa)
#
#
# Indices 1 2 3 4 5 6 
#
# 1 0.020421 -0.006662 -0.005306 0.000000 0.000000 0.000000
# 2 -0.006662 0.016281 -0.003793 0.000000 0.000000 0.000000
# 3 -0.005306 -0.003793 0.020416 0.000000 0.000000 0.000000
# 4 0.000000 0.000000 0.000000 0.020594 0.000000 0.000000
# 5 0.000000 0.000000 0.000000 0.000000 0.057705 0.000000
# 6 0.000000 0.000000 0.000000 0.000000 0.000000 0.023850
#
#
# Mechanical properties :
#
#
# Convention : Reuss Voigt Hill
#
# Bulk Modulus (GPa) = 39.07022 40.13808 39.60415
# Shear Modulus (GPa) = 25.08539 29.98698 27.53618
#
# Velocity S-wave (km/s) = 3.51438 3.84241 3.68205
# Velocity P-wave (km/s) = 5.97529 6.28073 6.12991
#
# Compressibility (1/GPa) = 0.02559494
#
# Stress axis : x y z
#
# Youngs Moduli (GPa) = 48.97004 61.42291 48.98234
#
# Poissons Ratio (x) = 0.40921 0.25990
# Poissons Ratio (y) = 0.32625 0.18578
# Poissons Ratio (z) = 0.25983 0.23296
#
# Static dielectric constant tensor:
#      x y z
#    x 1.699970 0.000000 0.000000 
#    y 0.000000 1.739090 0.000000 
#    z 0.000000 0.000000 1.675070 
# 
# From -- ./inp_files/3743.got.cif
#   From: 2010.05.17/outbox.cif.g08.bks.cpg/sg54_2_cif.got.tgz:3743.got - 2010.06.03 13:09:01.
