data_PCOD9423908
_publ_section_title
;
Structure prediction by ZEFSAII (Michael W. Deem and Ramdas Pophale) SiO2 
 PCOD9423908
Probable space group: P C C A
;
_chemical_formula_sum "Si O2"
_cell_formula_units_Z 40
_cell_length_a 11.493571
_cell_length_b 5.251051
_cell_length_c 28.536231
_cell_angle_alpha 90.000000
_cell_angle_beta 90.000000
_cell_angle_gamma 90.000000
_cell_volume 1722.256495
_symmetry_space_group_name_H-M "P C C A"
_symmetry_group_IT_number 54
_symmetry_cell_setting 'orthorhombic'
loop_
_space_group_symop_operation_xyz
x,y,z
1/2-x,-y,z
1/2+x,-y,1/2-z
-x,y,1/2-z
-x,-y,-z
1/2+x,y,-z
1/2-x,y,1/2+z
x,-y,1/2+z
loop_
_atom_site_type_symbol
_atom_site_label
_atom_site_fract_x
_atom_site_fract_y
_atom_site_fract_z
Si Si1 0.927985 0.104312 0.543428
Si Si2 0.750000 0.500000 0.998661
Si Si3 0.363269 0.184786 0.755196
Si Si4 0.250000 0.000000 0.392166
Si Si5 0.347289 0.787404 0.590842
Si Si6 0.750000 0.500000 0.668773
Si Si7 0.750000 0.500000 0.826408
O O1 0.848012 0.338412 0.526033
O O2 0.020130 0.152285 0.583850
O O3 0.846223 0.906851 0.570396
O O4 0.000000 0.000000 0.500000
O O5 0.813910 0.321422 0.960388
O O6 0.500000 0.096833 0.750000
O O7 0.351807 0.396506 0.796483
O O8 0.321629 0.311995 0.706796
O O9 0.250000 0.000000 0.765225
O O10 0.281323 0.250143 0.362103
O O11 0.339210 0.618491 0.636775
O O12 0.250000 0.000000 0.598972
#
# Coordination Sequence:
#
# PCOD9423908 Si02
#       7
#     8   4   8   4   8   4   4
#     4  12  25  46  75 105 155 207 269 333 395 474
#     4  11  23  45  69 106 146 208 267 327 409 457
#     4  11  26  52  85 116 166 207 268 336 417 503
#     4  12  28  48  78 116 158 206 276 328 398 478
#     4  11  23  44  70 106 150 198 265 320 391 479
#     4  11  27  53  75 122 156 212 261 335 409 493
#     4  10  26  44  74 114 148 204 254 324 396 486
#
# _framework density 23.225345999999998
#
# number of rings (size 3 to 8) (size 9 to 14) (size 15 to 20)
#    0.000    0.800    3.000    3.000    2.800    8.000 
#    0.000    0.000    0.000    0.000    0.000    0.000 
#    0.000    0.000    0.000    0.000    0.000    0.000 
#
# Total GULP energy -222889.827642 kJ/mol
# GULP energy per Si atom -5572.245691 kJ/mol
# Density = 2.317248 g / cm^3
# Si number density = 23.225346 Si / 1000 Ang^3
#
#
#
# Elastic Constant Matrix: (Units=GPa)
#
#
# Indices 1 2 3 4 5 6 
#
# 1 154.8733 43.7587 53.8259 0.0000 0.0000 0.0000
# 2 43.7587 96.3116 49.2374 0.0000 0.0000 0.0000
# 3 53.8259 49.2374 150.1241 0.0000 0.0000 0.0000
# 4 0.0000 0.0000 0.0000 60.7760 0.0000 0.0000
# 5 0.0000 0.0000 0.0000 0.0000 51.0754 0.0000
# 6 0.0000 0.0000 0.0000 0.0000 0.0000 32.3617
#
#
#
# Elastic Compliance Matrix: (Units=1/GPa)
#
#
# Indices 1 2 3 4 5 6 
#
# 1 0.007869 -0.002563 -0.001981 0.000000 0.000000 0.000000
# 2 -0.002563 0.013309 -0.003446 0.000000 0.000000 0.000000
# 3 -0.001981 -0.003446 0.008502 0.000000 0.000000 0.000000
# 4 0.000000 0.000000 0.000000 0.016454 0.000000 0.000000
# 5 0.000000 0.000000 0.000000 0.000000 0.019579 0.000000
# 6 0.000000 0.000000 0.000000 0.000000 0.000000 0.030901
#
#
# Mechanical properties :
#
#
# Convention : Reuss Voigt Hill
#
# Bulk Modulus (GPa) = 72.99075 77.21700 75.10388
# Shear Modulus (GPa) = 42.67647 45.80844 44.24246
#
# Velocity S-wave (km/s) = 4.29125 4.44593 4.36928
# Velocity P-wave (km/s) = 7.48656 7.72490 7.60666
#
# Compressibility (1/GPa) = 0.01370037
#
# Stress axis : x y z
#
# Youngs Moduli (GPa) = 127.07334 75.13627 117.62296
#
# Poissons Ratio (x) = 0.19255 0.23302
# Poissons Ratio (y) = 0.32565 0.40536
# Poissons Ratio (z) = 0.25174 0.25894
#
# Static dielectric constant tensor:
#      x y z
#    x 1.841250 0.000000 0.000000 
#    y 0.000000 1.960210 0.000000 
#    z 0.000000 0.000000 1.860210 
# 
# From -- ./inp_files/28039.got.cif
#   From: 2010.05.17/outbox.cif.g08.bks.cpg/sg54_15_cif.got.tgz:28039.got - 2010.06.03 13:09:01.
