data_PCOD9423308
_publ_section_title
;
Structure prediction by ZEFSAII (Michael W. Deem and Ramdas Pophale) SiO2 
 PCOD9423308
Probable space group: P C C A
;
_chemical_formula_sum "Si O2"
_cell_formula_units_Z 44
_cell_length_a 23.060695
_cell_length_b 8.773208
_cell_length_c 10.460621
_cell_angle_alpha 90.000000
_cell_angle_beta 90.000000
_cell_angle_gamma 90.000000
_cell_volume 2116.353863
_symmetry_space_group_name_H-M "P C C A"
_symmetry_group_IT_number 54
_symmetry_cell_setting 'orthorhombic'
loop_
_space_group_symop_operation_xyz
x,y,z
1/2-x,-y,z
1/2+x,-y,1/2-z
-x,y,1/2-z
-x,-y,-z
1/2+x,y,-z
1/2-x,y,1/2+z
x,-y,1/2+z
loop_
_atom_site_type_symbol
_atom_site_label
_atom_site_fract_x
_atom_site_fract_y
_atom_site_fract_z
Si Si1 0.750000 0.500000 0.778985
Si Si2 0.333263 0.741507 0.829906
Si Si3 0.357961 0.337468 0.612091
Si Si4 0.125621 0.049864 0.276551
Si Si5 0.442554 0.088555 0.038647
Si Si6 0.558852 0.400925 0.328990
O O1 0.777753 0.363507 0.696455
O O2 0.802488 0.556718 0.865883
O O3 0.388837 0.664891 0.759486
O O4 0.327238 0.914386 0.781160
O O5 0.349947 0.743820 0.977711
O O6 0.357026 0.213748 0.724203
O O7 0.415242 0.442331 0.615692
O O8 0.100053 0.068789 0.418294
O O9 0.080219 0.986607 0.170524
O O10 0.451706 0.267587 0.067577
O O11 0.500000 0.000000 0.000000
O O12 0.500000 0.423973 0.250000
#
# Coordination Sequence:
#
# PCOD9423308 Si02
#       6
#     4   8   8   8   8   8
#     4  10  24  44  72  96 128 176 224 290 344 400
#     4  10  22  46  65  98 134 173 231 281 338 409
#     4  11  24  44  68  99 135 177 229 280 347 408
#     4  11  23  42  65  98 135 179 225 282 341 406
#     4  11  22  41  66  96 139 184 230 276 336 408
#     4  10  24  40  67 100 139 179 226 283 339 410
#
# _framework density 20.790474
#
# number of rings (size 3 to 8) (size 9 to 14) (size 15 to 20)
#    0.000    1.455    1.818    3.273    5.091    2.909 
#    3.273    1.818    0.000    0.000    0.000    0.000 
#    0.000    0.000    0.000    0.000    0.000    0.000 
#
# Total GULP energy -245784.681505 kJ/mol
# GULP energy per Si atom -5586.015489 kJ/mol
# Density = 2.074315 g / cm^3
# Si number density = 20.790474 Si / 1000 Ang^3
#
#
#
# Elastic Constant Matrix: (Units=GPa)
#
#
# Indices 1 2 3 4 5 6 
#
# 1 81.9630 45.6756 13.3268 0.0000 0.0000 0.0000
# 2 45.6756 129.2316 28.9720 0.0000 0.0000 0.0000
# 3 13.3268 28.9720 79.2836 0.0000 0.0000 0.0000
# 4 0.0000 0.0000 0.0000 34.8658 0.0000 0.0000
# 5 0.0000 0.0000 0.0000 0.0000 17.6821 0.0000
# 6 0.0000 0.0000 0.0000 0.0000 0.0000 14.2461
#
#
#
# Elastic Compliance Matrix: (Units=1/GPa)
#
#
# Indices 1 2 3 4 5 6 
#
# 1 0.015223 -0.005236 -0.000646 0.000000 0.000000 0.000000
# 2 -0.005236 0.010229 -0.002858 0.000000 0.000000 0.000000
# 3 -0.000646 -0.002858 0.013766 0.000000 0.000000 0.000000
# 4 0.000000 0.000000 0.000000 0.028681 0.000000 0.000000
# 5 0.000000 0.000000 0.000000 0.000000 0.056554 0.000000
# 6 0.000000 0.000000 0.000000 0.000000 0.000000 0.070194
#
#
# Mechanical properties :
#
#
# Convention : Reuss Voigt Hill
#
# Bulk Modulus (GPa) = 45.99862 51.82523 48.91193
# Shear Modulus (GPa) = 22.79215 26.85908 24.82561
#
# Velocity S-wave (km/s) = 3.31460 3.59819 3.45930
# Velocity P-wave (km/s) = 6.06809 6.49955 6.28752
#
# Compressibility (1/GPa) = 0.02173978
#
# Stress axis : x y z
#
# Youngs Moduli (GPa) = 65.68852 97.75845 72.64370
#
# Poissons Ratio (x) = 0.51184 0.04690
# Poissons Ratio (y) = 0.34393 0.20761
# Poissons Ratio (z) = 0.04241 0.27939
#
# Static dielectric constant tensor:
#      x y z
#    x 1.728670 0.000000 0.000000 
#    y 0.000000 1.809740 0.000000 
#    z 0.000000 0.000000 1.729620 
# 
# From -- ./inp_files/9837.got.cif
#   From: 2010.05.17/outbox.cif.g08.bks.cpg/sg54_5_cif.got.tgz:9837.got - 2010.06.03 13:09:01.
