data_PCOD9423608
_publ_section_title
;
Structure prediction by ZEFSAII (Michael W. Deem and Ramdas Pophale) SiO2 
 PCOD9423608
Probable space group: P C C A
;
_chemical_formula_sum "Si O2"
_cell_formula_units_Z 32
_cell_length_a 8.422151
_cell_length_b 11.979449
_cell_length_c 12.427961
_cell_angle_alpha 90.000000
_cell_angle_beta 90.000000
_cell_angle_gamma 90.000000
_cell_volume 1253.890893
_symmetry_space_group_name_H-M "P C C A"
_symmetry_group_IT_number 54
_symmetry_cell_setting 'orthorhombic'
loop_
_space_group_symop_operation_xyz
x,y,z
1/2-x,-y,z
1/2+x,-y,1/2-z
-x,y,1/2-z
-x,-y,-z
1/2+x,y,-z
1/2-x,y,1/2+z
x,-y,1/2+z
loop_
_atom_site_type_symbol
_atom_site_label
_atom_site_fract_x
_atom_site_fract_y
_atom_site_fract_z
Si Si1 0.485255 0.179232 0.577355
Si Si2 0.248704 0.200872 0.755822
Si Si3 0.750000 0.000000 0.879687
Si Si4 0.250000 0.500000 0.055432
Si Si5 0.463684 0.352138 0.398570
O O1 0.369292 0.244213 0.662548
O O2 0.641718 0.157485 0.646567
O O3 0.380823 0.069351 0.556323
O O4 0.524916 0.250444 0.473526
O O5 0.172984 0.093452 0.698124
O O6 0.136188 0.293931 0.804391
O O7 0.390934 0.437569 0.119442
O O8 0.161460 0.415666 0.974555
#
# Coordination Sequence:
#
# PCOD9423608 Si02
#       5
#     8   8   4   4   8
#     4   9  19  39  63  94 137 186 225 296 349 453
#     4   9  19  39  63  93 137 188 227 293 353 448
#     4   8  18  38  60  96 138 174 246 280 348 444
#     4  10  24  38  66  98 130 174 244 306 346 422
#     4  11  20  43  66  98 136 184 235 304 360 407
#
# _framework density 25.520562999999999
#
# number of rings (size 3 to 8) (size 9 to 14) (size 15 to 20)
#    1.500    1.000    2.500    0.000    0.000    1.000 
#    9.000    5.000    0.000    0.000    0.000    0.000 
#    0.000    0.000    0.000    0.000    0.000    0.000 
#
# Total GULP energy -178822.590235 kJ/mol
# GULP energy per Si atom -5588.205945 kJ/mol
# Density = 2.546248 g / cm^3
# Si number density = 25.520563 Si / 1000 Ang^3
#
#
#
# Elastic Constant Matrix: (Units=GPa)
#
#
# Indices 1 2 3 4 5 6 
#
# 1 125.4693 59.4651 24.3805 0.0000 0.0000 0.0000
# 2 59.4651 126.1774 47.2065 0.0000 0.0000 0.0000
# 3 24.3805 47.2065 66.0232 0.0000 0.0000 0.0000
# 4 0.0000 0.0000 0.0000 33.2006 0.0000 0.0000
# 5 0.0000 0.0000 0.0000 0.0000 53.2809 0.0000
# 6 0.0000 0.0000 0.0000 0.0000 0.0000 67.5160
#
#
#
# Elastic Compliance Matrix: (Units=1/GPa)
#
#
# Indices 1 2 3 4 5 6 
#
# 1 0.010272 -0.004672 -0.000453 0.000000 0.000000 0.000000
# 2 -0.004672 0.012944 -0.007530 0.000000 0.000000 0.000000
# 3 -0.000453 -0.007530 0.020697 0.000000 0.000000 0.000000
# 4 0.000000 0.000000 0.000000 0.030120 0.000000 0.000000
# 5 0.000000 0.000000 0.000000 0.000000 0.018768 0.000000
# 6 0.000000 0.000000 0.000000 0.000000 0.000000 0.014811
#
#
# Mechanical properties :
#
#
# Convention : Reuss Voigt Hill
#
# Bulk Modulus (GPa) = 53.75036 64.41933 59.08484
# Shear Modulus (GPa) = 35.93913 43.24067 39.58990
#
# Velocity S-wave (km/s) = 3.75673 4.12071 3.94292
# Velocity P-wave (km/s) = 6.31859 6.92367 6.62804
#
# Compressibility (1/GPa) = 0.01860453
#
# Stress axis : x y z
#
# Youngs Moduli (GPa) = 97.35039 77.25498 48.31526
#
# Poissons Ratio (x) = 0.36090 0.02189
# Poissons Ratio (y) = 0.45478 0.36381
# Poissons Ratio (z) = 0.04410 0.58173
#
# Static dielectric constant tensor:
#      x y z
#    x 2.016040 0.000000 0.000000 
#    y 0.000000 2.028370 0.000000 
#    z 0.000000 0.000000 2.036270 
# 
# From -- ./inp_files/6800.got.cif
#   From: 2010.05.17/outbox.cif.g08.bks.cpg/sg54_4_cif.got.tgz:6800.got - 2010.06.03 13:09:01.
