data_PCOD9423938
_publ_section_title
;
Structure prediction by ZEFSAII (Michael W. Deem and Ramdas Pophale) SiO2 
 PCOD9423938
Probable space group: P C C A
;
_chemical_formula_sum "Si O2"
_cell_formula_units_Z 36
_cell_length_a 9.361332
_cell_length_b 16.387998
_cell_length_c 8.827019
_cell_angle_alpha 90.000000
_cell_angle_beta 90.000000
_cell_angle_gamma 90.000000
_cell_volume 1354.183792
_symmetry_space_group_name_H-M "P C C A"
_symmetry_group_IT_number 54
_symmetry_cell_setting 'orthorhombic'
loop_
_space_group_symop_operation_xyz
x,y,z
1/2-x,-y,z
1/2+x,-y,1/2-z
-x,y,1/2-z
-x,-y,-z
1/2+x,y,-z
1/2-x,y,1/2+z
x,-y,1/2+z
loop_
_atom_site_type_symbol
_atom_site_label
_atom_site_fract_x
_atom_site_fract_y
_atom_site_fract_z
Si Si1 0.043900 0.415168 0.076516
Si Si2 0.611794 0.099752 0.500530
Si Si3 0.250000 0.000000 0.767063
Si Si4 0.814695 0.325896 0.880649
Si Si5 0.848159 0.215237 0.590134
O O1 0.000000 0.412280 0.250000
O O2 0.951389 0.346854 0.984056
O O3 0.214431 0.404372 0.093372
O O4 0.000000 0.500000 0.000000
O O5 0.617329 0.023004 0.618478
O O6 0.692921 0.067698 0.351484
O O7 0.709671 0.158016 0.604779
O O8 0.481450 0.155810 0.442912
O O9 0.701124 0.260444 0.939575
O O10 0.852875 0.284647 0.720507
#
# Coordination Sequence:
#
# PCOD9423938 Si02
#       5
#     8   8   4   8   8
#     4  12  29  53  84 125 169 224 283 351 423 508
#     4  11  27  49  81 118 167 224 288 361 436 519
#     4  10  26  50  80 124 168 226 302 368 438 526
#     4  12  28  52  83 120 169 217 288 352 429 514
#     4  12  28  50  80 117 164 222 279 352 435 510
#
# _framework density 26.584278999999999
#
# number of rings (size 3 to 8) (size 9 to 14) (size 15 to 20)
#    0.000    0.444    2.222    3.333    3.111   16.889 
#    0.000    2.222    0.000    0.000    0.000    0.000 
#    0.000    0.000    0.000    0.000    0.000    0.000 
#
# Total GULP energy -200936.791233 kJ/mol
# GULP energy per Si atom -5581.577534 kJ/mol
# Density = 2.652377 g / cm^3
# Si number density = 26.584279 Si / 1000 Ang^3
#
#
#
# Elastic Constant Matrix: (Units=GPa)
#
#
# Indices 1 2 3 4 5 6 
#
# 1 175.5567 64.5419 96.3855 0.0000 0.0000 0.0000
# 2 64.5419 134.1325 73.4914 0.0000 0.0000 0.0000
# 3 96.3855 73.4914 221.3782 0.0000 0.0000 0.0000
# 4 0.0000 0.0000 0.0000 52.3496 0.0000 0.0000
# 5 0.0000 0.0000 0.0000 0.0000 34.9907 0.0000
# 6 0.0000 0.0000 0.0000 0.0000 0.0000 61.6672
#
#
#
# Elastic Compliance Matrix: (Units=1/GPa)
#
#
# Indices 1 2 3 4 5 6 
#
# 1 0.008068 -0.002393 -0.002719 0.000000 0.000000 0.000000
# 2 -0.002393 0.009823 -0.002219 0.000000 0.000000 0.000000
# 3 -0.002719 -0.002219 0.006437 0.000000 0.000000 0.000000
# 4 0.000000 0.000000 0.000000 0.019102 0.000000 0.000000
# 5 0.000000 0.000000 0.000000 0.000000 0.028579 0.000000
# 6 0.000000 0.000000 0.000000 0.000000 0.000000 0.016216
#
#
# Mechanical properties :
#
#
# Convention : Reuss Voigt Hill
#
# Bulk Modulus (GPa) = 103.43847 111.10057 107.26952
# Shear Modulus (GPa) = 47.12132 49.57807 48.34969
#
# Velocity S-wave (km/s) = 4.21470 4.32318 4.26929
# Velocity P-wave (km/s) = 7.91701 8.17327 8.04616
#
# Compressibility (1/GPa) = 0.00966758
#
# Stress axis : x y z
#
# Youngs Moduli (GPa) = 123.93973 101.80706 155.34199
#
# Poissons Ratio (x) = 0.24361 0.42230
# Poissons Ratio (y) = 0.29657 0.34470
# Poissons Ratio (z) = 0.33693 0.22591
#
# Static dielectric constant tensor:
#      x y z
#    x 2.505640 0.000000 0.000000 
#    y 0.000000 2.395510 0.000000 
#    z 0.000000 0.000000 2.002520 
# 
# From -- ./inp_files/3503.got.cif
#   From: 2010.05.17/outbox.cif.g08.bks.cpg/sg54_2_cif.got.tgz:3503.got - 2010.06.03 13:09:01.
