data_PCOD9423914
_publ_section_title
;
Structure prediction by ZEFSAII (Michael W. Deem and Ramdas Pophale) SiO2 
 PCOD9423914
Probable space group: P C C A
;
_chemical_formula_sum "Si O2"
_cell_formula_units_Z 56
_cell_length_a 15.026903
_cell_length_b 15.055061
_cell_length_c 10.660386
_cell_angle_alpha 90.000000
_cell_angle_beta 90.000000
_cell_angle_gamma 90.000000
_cell_volume 2411.709159
_symmetry_space_group_name_H-M "P C C A"
_symmetry_group_IT_number 54
_symmetry_cell_setting 'orthorhombic'
loop_
_space_group_symop_operation_xyz
x,y,z
1/2-x,-y,z
1/2+x,-y,1/2-z
-x,y,1/2-z
-x,-y,-z
1/2+x,y,-z
1/2-x,y,1/2+z
x,-y,1/2+z
loop_
_atom_site_type_symbol
_atom_site_label
_atom_site_fract_x
_atom_site_fract_y
_atom_site_fract_z
Si Si1 0.599116 0.376602 0.121991
Si Si2 0.000000 0.313775 0.250000
Si Si3 0.083510 0.386017 0.495966
Si Si4 0.651042 0.246521 0.330330
Si Si5 0.156591 0.251237 0.096831
Si Si6 0.250000 0.500000 0.920318
Si Si7 0.901235 0.945783 0.272212
Si Si8 0.160290 0.946674 0.506324
O O1 0.598833 0.296990 0.220861
O O2 0.679177 0.442431 0.160047
O O3 0.500853 0.413755 0.085430
O O4 0.636195 0.332184 0.995535
O O5 0.046495 0.374586 0.355752
O O6 0.073050 0.250917 0.187573
O O7 0.110113 0.287461 0.543408
O O8 0.174793 0.443281 0.497579
O O9 0.754577 0.270192 0.326728
O O10 0.648532 0.141438 0.320186
O O11 0.167349 0.159622 0.019888
O O12 0.000000 0.913043 0.250000
O O13 0.901945 0.019611 0.380315
O O14 0.865548 0.972475 0.135487
O O15 0.250000 0.000000 0.533866
#
# Coordination Sequence:
#
# PCOD9423914 Si02
#       8
#     8   4   8   8   8   4   8   8
#     4  11  24  46  69 104 146 192 250 305 374 442
#     4  10  26  46  74 106 146 192 244 302 380 442
#     4  11  25  47  72 109 145 192 242 311 372 455
#     4  12  24  46  75 102 145 200 245 302 374 454
#     4  11  24  45  72 101 145 193 244 303 371 450
#     4  12  24  46  74 106 146 192 248 314 370 450
#     4  12  27  45  72 107 149 193 254 311 381 444
#     4  12  26  46  69 107 146 196 248 316 374 450
#
# _framework density 23.220047999999998
#
# number of rings (size 3 to 8) (size 9 to 14) (size 15 to 20)
#    0.000    0.571    4.286    3.429    3.000    1.714 
#    7.714    0.000    0.000    0.000    0.000    0.000 
#    0.000    0.000    0.000    0.000    0.000    0.000 
#
# Total GULP energy -312820.292536 kJ/mol
# GULP energy per Si atom -5586.076652 kJ/mol
# Density = 2.316720 g / cm^3
# Si number density = 23.220048 Si / 1000 Ang^3
#
#
#
# Elastic Constant Matrix: (Units=GPa)
#
#
# Indices 1 2 3 4 5 6 
#
# 1 148.3422 22.9988 20.4095 0.0000 0.0000 0.0000
# 2 22.9988 62.8474 23.2814 0.0000 0.0000 0.0000
# 3 20.4095 23.2814 76.1736 0.0000 0.0000 0.0000
# 4 0.0000 0.0000 0.0000 16.1489 0.0000 0.0000
# 5 0.0000 0.0000 0.0000 0.0000 29.6917 0.0000
# 6 0.0000 0.0000 0.0000 0.0000 0.0000 -27.4782
#
#
#
# Elastic Compliance Matrix: (Units=1/GPa)
#
#
# Indices 1 2 3 4 5 6 
#
# 1 0.007255 -0.002182 -0.001277 0.000000 0.000000 0.000000
# 2 -0.002182 0.018599 -0.005100 0.000000 0.000000 0.000000
# 3 -0.001277 -0.005100 0.015029 0.000000 0.000000 0.000000
# 4 0.000000 0.000000 0.000000 0.061924 0.000000 0.000000
# 5 0.000000 0.000000 0.000000 0.000000 0.033679 0.000000
# 6 0.000000 0.000000 0.000000 0.000000 0.000000 -0.036393
#
#
# Mechanical properties :
#
#
# Convention : Reuss Voigt Hill
#
# Bulk Modulus (GPa) = 42.07809 46.74917 44.41363
# Shear Modulus (GPa) = 39.95729 18.38404 29.17067
#
# Velocity S-wave (km/s) = 4.15276 2.81682 3.54824
# Velocity P-wave (km/s) = 6.41520 5.54582 5.99629
#
# Compressibility (1/GPa) = 0.02376534
#
# Stress axis : x y z
#
# Youngs Moduli (GPa) = 137.83304 53.76551 66.53883
#
# Poissons Ratio (x) = 0.11731 0.08497
# Poissons Ratio (y) = 0.30074 0.33935
# Poissons Ratio (z) = 0.17602 0.27420
#
# Static dielectric constant tensor:
#      x y z
#    x 1.907800 0.000000 0.000000 
#    y 0.000000 1.879460 0.000000 
#    z 0.000000 0.000000 1.940170 
# 
# From -- ./inp_files/8498.got.cif
#   From: 2010.05.17/outbox.cif.g08.bks.cpg/sg54_5_cif.got.tgz:8498.got - 2010.06.03 13:09:01.
