data_PCOD9423583
_publ_section_title
;
Structure prediction by ZEFSAII (Michael W. Deem and Ramdas Pophale) SiO2 
 PCOD9423583
Probable space group: P C C A
;
_chemical_formula_sum "Si O2"
_cell_formula_units_Z 32
_cell_length_a 7.706279
_cell_length_b 15.313417
_cell_length_c 10.385897
_cell_angle_alpha 90.000000
_cell_angle_beta 90.000000
_cell_angle_gamma 90.000000
_cell_volume 1225.634137
_symmetry_space_group_name_H-M "P C C A"
_symmetry_group_IT_number 54
_symmetry_cell_setting 'orthorhombic'
loop_
_space_group_symop_operation_xyz
x,y,z
1/2-x,-y,z
1/2+x,-y,1/2-z
-x,y,1/2-z
-x,-y,-z
1/2+x,y,-z
1/2-x,y,1/2+z
x,-y,1/2+z
loop_
_atom_site_type_symbol
_atom_site_label
_atom_site_fract_x
_atom_site_fract_y
_atom_site_fract_z
Si Si1 0.552102 0.195768 0.936433
Si Si2 0.747560 0.682323 0.117578
Si Si3 0.250000 0.500000 0.941464
Si Si4 0.000000 0.427762 0.750000
Si Si5 0.640026 0.911434 0.864671
O O1 0.429015 0.266749 0.873623
O O2 0.711888 0.162936 0.851386
O O3 0.623037 0.246466 0.061045
O O4 0.449468 0.113389 0.998410
O O5 0.736159 0.600436 0.015877
O O6 0.834230 0.636453 0.241072
O O7 0.066450 0.492120 0.861504
O O8 0.500000 0.913585 0.750000
O O9 0.750000 0.000000 0.868640
#
# Coordination Sequence:
#
# PCOD9423583 Si02
#       5
#     8   8   4   4   8
#     4  10  23  47  73 103 147 180 243 308 345 440
#     4   9  20  41  63  99 136 188 232 299 352 405
#     4   8  18  38  60  96 138 188 236 294 350 414
#     4   8  18  40  58  98 136 190 250 284 354 416
#     4  11  26  48  74 111 144 186 233 293 381 437
#
# _framework density 26.108933
#
# number of rings (size 3 to 8) (size 9 to 14) (size 15 to 20)
#    1.500    1.000    0.000    0.750    1.750    6.000 
#   13.500    0.000    0.000    0.000    0.000    0.000 
#    0.000    0.000    0.000    0.000    0.000    0.000 
#
# Total GULP energy -178292.636383 kJ/mol
# GULP energy per Si atom -5571.644887 kJ/mol
# Density = 2.604951 g / cm^3
# Si number density = 26.108933 Si / 1000 Ang^3
#
#
#
# Elastic Constant Matrix: (Units=GPa)
#
#
# Indices 1 2 3 4 5 6 
#
# 1 157.4603 63.3447 56.2728 0.0000 0.0000 0.0000
# 2 63.3447 138.6115 43.8961 0.0000 0.0000 0.0000
# 3 56.2728 43.8961 100.1851 0.0000 0.0000 0.0000
# 4 0.0000 0.0000 0.0000 -29.3698 0.0000 0.0000
# 5 0.0000 0.0000 0.0000 0.0000 15.0907 0.0000
# 6 0.0000 0.0000 0.0000 0.0000 0.0000 66.0861
#
#
#
# Elastic Compliance Matrix: (Units=1/GPa)
#
#
# Indices 1 2 3 4 5 6 
#
# 1 0.008825 -0.002860 -0.003704 0.000000 0.000000 0.000000
# 2 -0.002860 0.009304 -0.002470 0.000000 0.000000 0.000000
# 3 -0.003704 -0.002470 0.013144 0.000000 0.000000 0.000000
# 4 0.000000 0.000000 0.000000 -0.034049 0.000000 0.000000
# 5 0.000000 0.000000 0.000000 0.000000 0.066266 0.000000
# 6 0.000000 0.000000 0.000000 0.000000 0.000000 0.015132
#
#
# Mechanical properties :
#
#
# Convention : Reuss Voigt Hill
#
# Bulk Modulus (GPa) = 75.72763 80.36492 78.04627
# Shear Modulus (GPa) = 49.46024 25.87761 37.66893
#
# Velocity S-wave (km/s) = 4.35717 3.15165 3.80249
# Velocity P-wave (km/s) = 7.37433 6.64013 7.01684
#
# Compressibility (1/GPa) = 0.01320522
#
# Stress axis : x y z
#
# Youngs Moduli (GPa) = 113.31408 107.48490 76.07977
#
# Poissons Ratio (x) = 0.30741 0.28178
# Poissons Ratio (y) = 0.32409 0.18791
# Poissons Ratio (z) = 0.41969 0.26548
#
# Static dielectric constant tensor:
#      x y z
#    x 2.086770 0.000000 0.000000 
#    y 0.000000 1.998010 0.000000 
#    z 0.000000 0.000000 2.263060 
# 
# From -- ./inp_files/6819.got.cif
#   From: 2010.05.17/outbox.cif.g08.bks.cpg/sg54_4_cif.got.tgz:6819.got - 2010.06.03 13:09:01.
