data_PCOD9423762
_publ_section_title
;
Structure prediction by ZEFSAII (Michael W. Deem and Ramdas Pophale) SiO2 
 PCOD9423762
Probable space group: P C C A
;
_chemical_formula_sum "Si O2"
_cell_formula_units_Z 40
_cell_length_a 7.309847
_cell_length_b 7.983687
_cell_length_c 26.534092
_cell_angle_alpha 90.000000
_cell_angle_beta 90.000000
_cell_angle_gamma 90.000000
_cell_volume 1548.517150
_symmetry_space_group_name_H-M "P C C A"
_symmetry_group_IT_number 54
_symmetry_cell_setting 'orthorhombic'
loop_
_space_group_symop_operation_xyz
x,y,z
1/2-x,-y,z
1/2+x,-y,1/2-z
-x,y,1/2-z
-x,-y,-z
1/2+x,y,-z
1/2-x,y,1/2+z
x,-y,1/2+z
loop_
_atom_site_type_symbol
_atom_site_label
_atom_site_fract_x
_atom_site_fract_y
_atom_site_fract_z
Si Si1 0.000000 0.785325 0.750000
Si Si2 0.250000 0.500000 0.716822
Si Si3 0.250000 0.000000 0.871217
Si Si4 0.632991 0.665087 0.957182
Si Si5 0.998629 0.714929 0.146406
Si Si6 0.515014 0.139277 0.956777
Si Si7 0.250000 0.000000 0.179100
O O1 0.170369 0.652611 0.749750
O O2 0.918568 0.915748 0.790589
O O3 0.420431 0.566827 0.681809
O O4 0.404957 0.074718 0.908733
O O5 0.173986 0.163743 0.841985
O O6 0.750000 0.500000 0.951863
O O7 0.484321 0.664525 0.912383
O O8 0.778112 0.812582 0.947144
O O9 0.565913 0.698794 0.013713
O O10 0.163965 0.845831 0.150593
O O11 0.500000 0.000000 0.000000
#
# Coordination Sequence:
#
# PCOD9423762 Si02
#       7
#     4   4   4   8   8   8   4
#     4  10  24  46  76 106 138 178 222 270 344 438
#     4  10  24  48  74 104 142 174 214 288 358 414
#     4  12  24  38  68 100 134 182 240 278 332 396
#     4  12  23  40  64  91 141 178 230 286 341 392
#     4  11  23  42  67 103 137 175 221 286 342 397
#     4  12  22  39  64  94 129 191 238 281 327 394
#     4  10  24  44  76 100 136 178 220 270 336 424
#
# _framework density 25.831164999999999
#
# number of rings (size 3 to 8) (size 9 to 14) (size 15 to 20)
#    0.000    0.800    5.000    1.800    0.000    5.600 
#    0.000    0.000    4.400    0.000    0.000    0.000 
#    0.000    0.000    0.000    0.000    0.000    0.000 
#
# Total GULP energy -223339.407638 kJ/mol
# GULP energy per Si atom -5583.485191 kJ/mol
# Density = 2.577237 g / cm^3
# Si number density = 25.831165 Si / 1000 Ang^3
#
#
#
# Elastic Constant Matrix: (Units=GPa)
#
#
# Indices 1 2 3 4 5 6 
#
# 1 87.8310 14.5514 42.6017 0.0000 0.0000 0.0000
# 2 14.5514 118.4133 45.5062 0.0000 0.0000 0.0000
# 3 42.6017 45.5062 105.6982 0.0000 0.0000 0.0000
# 4 0.0000 0.0000 0.0000 28.4011 0.0000 0.0000
# 5 0.0000 0.0000 0.0000 0.0000 43.5178 0.0000
# 6 0.0000 0.0000 0.0000 0.0000 0.0000 73.8808
#
#
#
# Elastic Compliance Matrix: (Units=1/GPa)
#
#
# Indices 1 2 3 4 5 6 
#
# 1 0.014181 0.000544 -0.005950 0.000000 0.000000 0.000000
# 2 0.000544 0.010140 -0.004585 0.000000 0.000000 0.000000
# 3 -0.005950 -0.004585 0.013833 0.000000 0.000000 0.000000
# 4 0.000000 0.000000 0.000000 0.035210 0.000000 0.000000
# 5 0.000000 0.000000 0.000000 0.000000 0.022979 0.000000
# 6 0.000000 0.000000 0.000000 0.000000 0.000000 0.013535
#
#
# Mechanical properties :
#
#
# Convention : Reuss Voigt Hill
#
# Bulk Modulus (GPa) = 55.02794 57.47346 56.25070
# Shear Modulus (GPa) = 36.78688 43.11218 39.94953
#
# Velocity S-wave (km/s) = 3.77786 4.08977 3.93690
# Velocity P-wave (km/s) = 6.35443 6.67829 6.51837
#
# Compressibility (1/GPa) = 0.01817259
#
# Stress axis : x y z
#
# Youngs Moduli (GPa) = 70.51499 98.61834 72.29129
#
# Poissons Ratio (x) = -0.05363 0.43013
# Poissons Ratio (y) = -0.03835 0.33144
# Poissons Ratio (z) = 0.41956 0.45215
#
# Static dielectric constant tensor:
#      x y z
#    x 2.101690 0.000000 0.000000 
#    y 0.000000 2.144060 0.000000 
#    z 0.000000 0.000000 2.065550 
# 
# From -- ./inp_files/23350.got.cif
#   From: 2010.05.17/outbox.cif.g08.bks.cpg/sg54_12_cif.got.tgz:23350.got - 2010.06.03 13:09:01.
