data_PCOD9423152
_publ_section_title
;
Structure prediction by ZEFSAII (Michael W. Deem and Ramdas Pophale) SiO2 
 PCOD9423152
Probable space group: P C C A
;
_chemical_formula_sum "Si O2"
_cell_formula_units_Z 60
_cell_length_a 9.052420
_cell_length_b 16.178921
_cell_length_c 15.676426
_cell_angle_alpha 90.000000
_cell_angle_beta 90.000000
_cell_angle_gamma 90.000000
_cell_volume 2295.944082
_symmetry_space_group_name_H-M "P C C A"
_symmetry_group_IT_number 54
_symmetry_cell_setting 'orthorhombic'
loop_
_space_group_symop_operation_xyz
x,y,z
1/2-x,-y,z
1/2+x,-y,1/2-z
-x,y,1/2-z
-x,-y,-z
1/2+x,y,-z
1/2-x,y,1/2+z
x,-y,1/2+z
loop_
_atom_site_type_symbol
_atom_site_label
_atom_site_fract_x
_atom_site_fract_y
_atom_site_fract_z
Si Si1 0.530420 0.140000 0.138182
Si Si2 0.838761 0.622126 0.892980
Si Si3 0.791957 0.199676 0.317115
Si Si4 0.750000 0.000000 0.134498
Si Si5 0.077211 0.499758 0.820241
Si Si6 0.274048 0.738341 0.369284
Si Si7 0.383721 0.410696 0.970844
Si Si8 0.967546 0.130484 0.056284
O O1 0.367543 0.156346 0.173886
O O2 0.609119 0.229404 0.138978
O O3 0.638661 0.068214 0.176632
O O4 0.524031 0.117784 0.038312
O O5 0.790774 0.709838 0.858743
O O6 0.937700 0.569328 0.825345
O O7 0.959530 0.635166 0.967710
O O8 0.697601 0.584702 0.940108
O O9 0.837214 0.225192 0.220246
O O10 0.905783 0.145509 0.373093
O O11 0.637202 0.943750 0.082951
O O12 0.250000 0.500000 0.795209
O O13 0.091700 0.501444 0.923625
O O14 0.000000 0.440663 0.750000
O O15 0.297485 0.644532 0.397551
O O16 0.359791 0.790047 0.441247
#
# Coordination Sequence:
#
# PCOD9423152 Si02
#       8
#     8   8   8   4   8   8   8   8
#     4  11  24  41  61  92 123 167 222 278 336 415
#     4  10  23  41  71 104 136 178 225 286 338 399
#     4  12  23  39  66  97 131 170 214 279 346 410
#     4  10  24  42  62  88 120 166 226 278 334 414
#     4  10  23  47  70 103 144 190 233 272 337 412
#     4  11  23  40  62  97 132 166 214 274 348 410
#     4  10  22  42  69 101 140 174 229 280 340 399
#     4  11  21  40  65  86 122 166 220 275 333 407
#
# _framework density 26.133039
#
# number of rings (size 3 to 8) (size 9 to 14) (size 15 to 20)
#    0.800    0.533    1.333    5.200    1.867    1.067 
#    2.400   12.000    0.000    1.600    0.000    0.000 
#    0.000    0.000    0.000    0.000    0.000    0.000 
#
# Total GULP energy -334344.312584 kJ/mol
# GULP energy per Si atom -5572.405210 kJ/mol
# Density = 2.607356 g / cm^3
# Si number density = 26.133039 Si / 1000 Ang^3
#
#
#
# Elastic Constant Matrix: (Units=GPa)
#
#
# Indices 1 2 3 4 5 6 
#
# 1 147.4947 39.1299 57.9531 0.0000 0.0000 0.0000
# 2 39.1299 127.6368 45.8738 0.0000 0.0000 0.0000
# 3 57.9531 45.8738 103.9419 0.0000 0.0000 0.0000
# 4 0.0000 0.0000 0.0000 27.5994 0.0000 0.0000
# 5 0.0000 0.0000 0.0000 0.0000 41.4009 0.0000
# 6 0.0000 0.0000 0.0000 0.0000 0.0000 47.9939
#
#
#
# Elastic Compliance Matrix: (Units=1/GPa)
#
#
# Indices 1 2 3 4 5 6 
#
# 1 0.008813 -0.001112 -0.004423 0.000000 0.000000 0.000000
# 2 -0.001112 0.009452 -0.003552 0.000000 0.000000 0.000000
# 3 -0.004423 -0.003552 0.013654 0.000000 0.000000 0.000000
# 4 0.000000 0.000000 0.000000 0.036233 0.000000 0.000000
# 5 0.000000 0.000000 0.000000 0.000000 0.024154 0.000000
# 6 0.000000 0.000000 0.000000 0.000000 0.000000 0.020836
#
#
# Mechanical properties :
#
#
# Convention : Reuss Voigt Hill
#
# Bulk Modulus (GPa) = 72.74770 73.88745 73.31757
# Shear Modulus (GPa) = 36.79270 39.13994 37.96632
#
# Velocity S-wave (km/s) = 3.75627 3.87424 3.81571
# Velocity P-wave (km/s) = 6.83452 6.95326 6.89415
#
# Compressibility (1/GPa) = 0.01374614
#
# Stress axis : x y z
#
# Youngs Moduli (GPa) = 113.47239 105.79613 73.23813
#
# Poissons Ratio (x) = 0.11766 0.32391
# Poissons Ratio (y) = 0.12620 0.26011
# Poissons Ratio (z) = 0.50186 0.37574
#
# Static dielectric constant tensor:
#      x y z
#    x 2.128090 0.000000 0.000000 
#    y 0.000000 2.098840 0.000000 
#    z 0.000000 0.000000 2.262770 
# 
# From -- ./inp_files/16838.got.cif
#   From: 2010.05.17/outbox.cif.g08.bks.cpg/sg54_9_cif.got.tgz:16838.got - 2010.06.03 13:09:01.
