data_PCOD9423396
_publ_section_title
;
Structure prediction by ZEFSAII (Michael W. Deem and Ramdas Pophale) SiO2 
 PCOD9423396
Probable space group: P C C A
;
_chemical_formula_sum "Si O2"
_cell_formula_units_Z 60
_cell_length_a 9.059922
_cell_length_b 26.868190
_cell_length_c 10.739720
_cell_angle_alpha 90.000000
_cell_angle_beta 90.000000
_cell_angle_gamma 90.000000
_cell_volume 2614.302440
_symmetry_space_group_name_H-M "P C C A"
_symmetry_group_IT_number 54
_symmetry_cell_setting 'orthorhombic'
loop_
_space_group_symop_operation_xyz
x,y,z
1/2-x,-y,z
1/2+x,-y,1/2-z
-x,y,1/2-z
-x,-y,-z
1/2+x,y,-z
1/2-x,y,1/2+z
x,-y,1/2+z
loop_
_atom_site_type_symbol
_atom_site_label
_atom_site_fract_x
_atom_site_fract_y
_atom_site_fract_z
Si Si1 0.737570 0.900229 0.239905
Si Si2 0.065509 0.226305 0.525471
Si Si3 0.913051 0.524128 0.616398
Si Si4 0.500000 0.186203 0.750000
Si Si5 0.823461 0.705118 0.033033
Si Si6 0.011725 0.113858 0.573689
Si Si7 0.937651 0.360396 0.113595
Si Si8 0.896847 0.031141 0.090405
O O1 0.640890 0.851027 0.267686
O O2 0.868586 0.910765 0.336462
O O3 0.647355 0.951763 0.230713
O O4 0.842820 0.891260 0.117155
O O5 0.030822 0.219113 0.375205
O O6 0.213594 0.258158 0.543379
O O7 0.059932 0.170779 0.573151
O O8 0.934882 0.255972 0.593474
O O9 0.750000 0.500000 0.628325
O O10 0.902891 0.582608 0.580988
O O11 0.000000 0.519114 0.750000
O O12 0.000000 0.500000 0.500000
O O13 0.935573 0.667098 0.965907
O O14 0.710211 0.672097 0.109641
O O15 0.047459 0.087042 0.446041
O O16 0.000000 0.361513 0.250000
O O17 0.750000 0.000000 0.060417
O O18 0.000000 0.000000 0.000000
#
# Coordination Sequence:
#
# PCOD9423396 Si02
#       8
#     8   8   8   4   8   8   8   8
#     4  11  26  44  68  97 126 172 209 272 351 408
#     4  11  23  42  69 100 133 176 233 291 339 425
#     4  11  23  42  74 112 155 210 277 333 399 466
#     4  12  24  40  76  96 134 176 232 280 360 406
#     4  10  23  40  68  99 136 186 237 288 359 426
#     4  11  25  49  64  98 135 162 225 281 337 411
#     4  10  23  46  67 100 154 195 241 308 370 432
#     4  12  26  47  70  94 133 167 212 273 343 423
#
# _framework density 22.950672000000001
#
# number of rings (size 3 to 8) (size 9 to 14) (size 15 to 20)
#    0.000    1.067    2.667    2.800    7.467    1.600 
#    4.800    2.000    0.000    0.000    0.000    0.000 
#    0.000    0.000    0.000    0.000    0.000    0.000 
#
# Total GULP energy -334266.974721 kJ/mol
# GULP energy per Si atom -5571.116245 kJ/mol
# Density = 2.289844 g / cm^3
# Si number density = 22.950672 Si / 1000 Ang^3
#
#
#
# Elastic Constant Matrix: (Units=GPa)
#
#
# Indices 1 2 3 4 5 6 
#
# 1 152.9764 53.9579 17.0176 0.0000 0.0000 0.0000
# 2 53.9579 156.6453 17.2088 0.0000 0.0000 0.0000
# 3 17.0176 17.2088 49.7174 0.0000 0.0000 0.0000
# 4 0.0000 0.0000 0.0000 26.3525 0.0000 0.0000
# 5 0.0000 0.0000 0.0000 0.0000 24.2575 0.0000
# 6 0.0000 0.0000 0.0000 0.0000 0.0000 41.2798
#
#
#
# Elastic Compliance Matrix: (Units=1/GPa)
#
#
# Indices 1 2 3 4 5 6 
#
# 1 0.007586 -0.002420 -0.001759 0.000000 0.000000 0.000000
# 2 -0.002420 0.007408 -0.001736 0.000000 0.000000 0.000000
# 3 -0.001759 -0.001736 0.021317 0.000000 0.000000 0.000000
# 4 0.000000 0.000000 0.000000 0.037947 0.000000 0.000000
# 5 0.000000 0.000000 0.000000 0.000000 0.041224 0.000000
# 6 0.000000 0.000000 0.000000 0.000000 0.000000 0.024225
#
#
# Mechanical properties :
#
#
# Convention : Reuss Voigt Hill
#
# Bulk Modulus (GPa) = 40.84754 59.52307 50.18530
# Shear Modulus (GPa) = 31.30921 36.45495 33.88208
#
# Velocity S-wave (km/s) = 3.69751 3.98980 3.84643
# Velocity P-wave (km/s) = 6.00545 6.87141 6.45297
#
# Compressibility (1/GPa) = 0.02448128
#
# Stress axis : x y z
#
# Youngs Moduli (GPa) = 131.81870 134.98739 46.91170
#
# Poissons Ratio (x) = 0.32665 0.08252
# Poissons Ratio (y) = 0.31899 0.08143
# Poissons Ratio (z) = 0.23188 0.23432
#
# Static dielectric constant tensor:
#      x y z
#    x 1.926330 0.000000 0.000000 
#    y 0.000000 1.864340 0.000000 
#    z 0.000000 0.000000 1.889600 
# 
# From -- ./inp_files/7004.got.cif
#   From: 2010.05.17/outbox.cif.g08.bks.cpg/sg54_4_cif.got.tgz:7004.got - 2010.06.03 13:09:01.
