data_PCOD9423342
_publ_section_title
;
Structure prediction by ZEFSAII (Michael W. Deem and Ramdas Pophale) SiO2 
 PCOD9423342
Probable space group: P C C A
;
_chemical_formula_sum "Si O2"
_cell_formula_units_Z 44
_cell_length_a 7.834432
_cell_length_b 15.566748
_cell_length_c 16.704950
_cell_angle_alpha 90.000000
_cell_angle_beta 90.000000
_cell_angle_gamma 90.000000
_cell_volume 2037.279384
_symmetry_space_group_name_H-M "P C C A"
_symmetry_group_IT_number 54
_symmetry_cell_setting 'orthorhombic'
loop_
_space_group_symop_operation_xyz
x,y,z
1/2-x,-y,z
1/2+x,-y,1/2-z
-x,y,1/2-z
-x,-y,-z
1/2+x,y,-z
1/2-x,y,1/2+z
x,-y,1/2+z
loop_
_atom_site_type_symbol
_atom_site_label
_atom_site_fract_x
_atom_site_fract_y
_atom_site_fract_z
Si Si1 0.364651 0.165752 0.310348
Si Si2 0.750000 0.500000 0.873973
Si Si3 0.794999 0.327873 0.122501
Si Si4 0.000000 0.568296 0.750000
Si Si5 0.971007 0.599992 0.473313
Si Si6 0.449606 0.977460 0.910729
Si Si7 0.750000 0.000000 0.293484
O O1 0.500000 0.209262 0.250000
O O2 0.231988 0.231364 0.347205
O O3 0.460716 0.122298 0.385568
O O4 0.292095 0.084769 0.258979
O O5 0.909915 0.513340 0.817454
O O6 0.705518 0.584892 0.924560
O O7 0.618844 0.364702 0.084284
O O8 0.859829 0.378042 0.200845
O O9 0.929123 0.342554 0.050427
O O10 0.000000 0.500000 0.500000
O O11 0.584767 0.019180 0.848895
O O12 0.250000 0.000000 0.903372
O O13 0.500000 0.000000 0.000000
#
# Coordination Sequence:
#
# PCOD9423342 Si02
#       7
#     8   4   8   4   8   8   4
#     4  10  25  46  71 105 145 187 237 304 361 430
#     4  12  24  42  72  98 134 186 236 280 354 434
#     4  12  26  45  69 108 141 184 240 298 366 417
#     4  12  26  40  70 110 134 184 236 304 352 426
#     4  12  23  47  72  96 140 191 232 284 360 438
#     4  11  22  41  74 106 133 190 248 291 354 443
#     4  10  22  48  72 100 144 196 242 294 374 438
#
# _framework density 21.597431
#
# number of rings (size 3 to 8) (size 9 to 14) (size 15 to 20)
#    0.000    0.727    5.455    1.091    2.545    2.909 
#    0.000    0.000    0.000    0.000    0.000    0.000 
#    0.000    0.000    0.000    0.000    0.000    0.000 
#
# Total GULP energy -245542.074764 kJ/mol
# GULP energy per Si atom -5580.501699 kJ/mol
# Density = 2.154827 g / cm^3
# Si number density = 21.597431 Si / 1000 Ang^3
#
#
#
# Elastic Constant Matrix: (Units=GPa)
#
#
# Indices 1 2 3 4 5 6 
#
# 1 117.6384 28.7217 51.6191 0.0000 0.0000 0.0000
# 2 28.7217 77.1867 57.7688 0.0000 0.0000 0.0000
# 3 51.6191 57.7688 158.0339 0.0000 0.0000 0.0000
# 4 0.0000 0.0000 0.0000 22.6226 0.0000 0.0000
# 5 0.0000 0.0000 0.0000 0.0000 47.9534 0.0000
# 6 0.0000 0.0000 0.0000 0.0000 0.0000 33.1341
#
#
#
# Elastic Compliance Matrix: (Units=1/GPa)
#
#
# Indices 1 2 3 4 5 6 
#
# 1 0.010096 -0.001774 -0.002649 0.000000 0.000000 0.000000
# 2 -0.001774 0.018147 -0.006054 0.000000 0.000000 0.000000
# 3 -0.002649 -0.006054 0.009406 0.000000 0.000000 0.000000
# 4 0.000000 0.000000 0.000000 0.044204 0.000000 0.000000
# 5 0.000000 0.000000 0.000000 0.000000 0.020854 0.000000
# 6 0.000000 0.000000 0.000000 0.000000 0.000000 0.030180
#
#
# Mechanical properties :
#
#
# Convention : Reuss Voigt Hill
#
# Bulk Modulus (GPa) = 59.90037 69.89759 64.89898
# Shear Modulus (GPa) = 31.36641 35.05865 33.21253
#
# Velocity S-wave (km/s) = 3.81507 4.03336 3.92573
# Velocity P-wave (km/s) = 6.87033 7.35696 7.11780
#
# Compressibility (1/GPa) = 0.01669439
#
# Stress axis : x y z
#
# Youngs Moduli (GPa) = 99.04657 55.10625 106.31384
#
# Poissons Ratio (x) = 0.09776 0.28165
# Poissons Ratio (y) = 0.17572 0.64363
# Poissons Ratio (z) = 0.26240 0.33361
#
# Static dielectric constant tensor:
#      x y z
#    x 1.950710 0.000000 0.000000 
#    y 0.000000 1.778630 0.000000 
#    z 0.000000 0.000000 1.834840 
# 
# From -- ./inp_files/16573.got.cif
#   From: 2010.05.17/outbox.cif.g08.bks.cpg/sg54_9_cif.got.tgz:16573.got - 2010.06.03 13:09:01.
