data_PCOD9423412
_publ_section_title
;
Structure prediction by ZEFSAII (Michael W. Deem and Ramdas Pophale) SiO2 
 PCOD9423412
Probable space group: P C C A
;
_chemical_formula_sum "Si O2"
_cell_formula_units_Z 48
_cell_length_a 26.412425
_cell_length_b 5.748972
_cell_length_c 13.612616
_cell_angle_alpha 90.000000
_cell_angle_beta 90.000000
_cell_angle_gamma 90.000000
_cell_volume 2066.998036
_symmetry_space_group_name_H-M "P C C A"
_symmetry_group_IT_number 54
_symmetry_cell_setting 'orthorhombic'
loop_
_space_group_symop_operation_xyz
x,y,z
1/2-x,-y,z
1/2+x,-y,1/2-z
-x,y,1/2-z
-x,-y,-z
1/2+x,y,-z
1/2-x,y,1/2+z
x,-y,1/2+z
loop_
_atom_site_type_symbol
_atom_site_label
_atom_site_fract_x
_atom_site_fract_y
_atom_site_fract_z
Si Si1 0.359615 0.731875 0.651125
Si Si2 0.458493 0.189735 0.471581
Si Si3 0.751011 0.249490 0.744543
Si Si4 0.357630 0.231783 0.718686
Si Si5 0.989586 0.418132 0.140051
Si Si6 0.114404 0.818908 0.933452
O O1 0.302860 0.746916 0.693741
O O2 0.380508 0.487237 0.695282
O O3 0.363674 0.719208 0.533699
O O4 0.382240 0.988130 0.681713
O O5 0.477893 0.310264 0.372609
O O6 0.465547 0.361931 0.563534
O O7 0.500000 0.000000 0.500000
O O8 0.403660 0.082350 0.455849
O O9 0.750000 0.500000 0.690713
O O10 0.701173 0.244586 0.814269
O O11 0.750000 0.000000 0.690225
O O12 0.352923 0.206032 0.836424
O O13 0.000000 0.343817 0.250000
O O14 0.937977 0.303711 0.099774
#
# Coordination Sequence:
#
# PCOD9423412 Si02
#       6
#     8   8   8   8   8   8
#     4  10  23  41  65  96 138 174 222 283 326 391
#     4   9  22  43  60  92 127 169 222 275 334 411
#     4   8  16  38  60  87 130 173 214 264 327 380
#     4  10  23  41  66  98 134 178 222 275 333 395
#     4  10  23  42  65  90 130 174 219 277 346 406
#     4  11  25  39  66  98 131 173 229 272 339 398
#
# _framework density 23.222082
#
# number of rings (size 3 to 8) (size 9 to 14) (size 15 to 20)
#    0.000    2.333    0.000    0.000    7.000    5.333 
#    0.000   15.000    0.000    0.000    0.000    0.000 
#    0.000    0.000    0.000    0.000    0.000    0.000 
#
# Total GULP energy -267330.122545 kJ/mol
# GULP energy per Si atom -5569.377553 kJ/mol
# Density = 2.316923 g / cm^3
# Si number density = 23.222082 Si / 1000 Ang^3
#
#
#
# Elastic Constant Matrix: (Units=GPa)
#
#
# Indices 1 2 3 4 5 6 
#
# 1 54.4923 14.4795 13.7886 0.0000 0.0000 0.0000
# 2 14.4795 179.6126 33.6760 0.0000 0.0000 0.0000
# 3 13.7886 33.6760 131.8955 0.0000 0.0000 0.0000
# 4 0.0000 0.0000 0.0000 17.7005 0.0000 0.0000
# 5 0.0000 0.0000 0.0000 0.0000 12.5842 0.0000
# 6 0.0000 0.0000 0.0000 0.0000 0.0000 27.7260
#
#
#
# Elastic Compliance Matrix: (Units=1/GPa)
#
#
# Indices 1 2 3 4 5 6 
#
# 1 0.019103 -0.001224 -0.001684 0.000000 0.000000 0.000000
# 2 -0.001224 0.005926 -0.001385 0.000000 0.000000 0.000000
# 3 -0.001684 -0.001385 0.008111 0.000000 0.000000 0.000000
# 4 0.000000 0.000000 0.000000 0.056496 0.000000 0.000000
# 5 0.000000 0.000000 0.000000 0.000000 0.079465 0.000000
# 6 0.000000 0.000000 0.000000 0.000000 0.000000 0.036067
#
#
# Mechanical properties :
#
#
# Convention : Reuss Voigt Hill
#
# Bulk Modulus (GPa) = 40.72857 54.43205 47.58031
# Shear Modulus (GPa) = 22.52866 31.87255 27.20061
#
# Velocity S-wave (km/s) = 3.11809 3.70876 3.42618
# Velocity P-wave (km/s) = 5.52631 6.46765 6.01542
#
# Compressibility (1/GPa) = 0.02455279
#
# Stress axis : x y z
#
# Youngs Moduli (GPa) = 52.34856 168.75049 123.28191
#
# Poissons Ratio (x) = 0.20657 0.20767
# Poissons Ratio (y) = 0.06408 0.17075
# Poissons Ratio (z) = 0.08818 0.23373
#
# Static dielectric constant tensor:
#      x y z
#    x 1.941270 0.000000 0.000000 
#    y 0.000000 2.096050 0.000000 
#    z 0.000000 0.000000 1.840010 
# 
# From -- ./inp_files/15298.got.cif
#   From: 2010.05.17/outbox.cif.g08.bks.cpg/sg54_8_cif.got.tgz:15298.got - 2010.06.03 13:09:01.
