data_PCOD9423485
_publ_section_title
;
Structure prediction by ZEFSAII (Michael W. Deem and Ramdas Pophale) SiO2 
 PCOD9423485
Probable space group: P C C A
;
_chemical_formula_sum "Si O2"
_cell_formula_units_Z 48
_cell_length_a 8.794773
_cell_length_b 8.344147
_cell_length_c 31.413279
_cell_angle_alpha 90.000000
_cell_angle_beta 90.000000
_cell_angle_gamma 90.000000
_cell_volume 2305.259670
_symmetry_space_group_name_H-M "P C C A"
_symmetry_group_IT_number 54
_symmetry_cell_setting 'orthorhombic'
loop_
_space_group_symop_operation_xyz
x,y,z
1/2-x,-y,z
1/2+x,-y,1/2-z
-x,y,1/2-z
-x,-y,-z
1/2+x,y,-z
1/2-x,y,1/2+z
x,-y,1/2+z
loop_
_atom_site_type_symbol
_atom_site_label
_atom_site_fract_x
_atom_site_fract_y
_atom_site_fract_z
Si Si1 0.013594 0.371722 0.636696
Si Si2 0.000000 0.678023 0.750000
Si Si3 0.521667 0.272924 0.899381
Si Si4 0.704594 0.174592 0.824600
Si Si5 0.795337 0.689337 0.067580
Si Si6 0.250000 0.500000 0.805812
Si Si7 0.628499 0.121615 0.983088
O O1 0.953288 0.291820 0.593057
O O2 0.860167 0.391397 0.664842
O O3 0.054223 0.552432 0.621234
O O4 0.149442 0.284337 0.661864
O O5 0.902864 0.760097 0.787400
O O6 0.871249 0.584880 0.724095
O O7 0.604837 0.155673 0.867281
O O8 0.342325 0.245041 0.903761
O O9 0.578931 0.247183 0.947228
O O10 0.750000 0.000000 0.809952
O O11 0.750000 0.500000 0.061930
O O12 0.805784 0.781297 0.023251
O O13 0.750000 0.000000 0.963662
O O14 0.500000 0.000000 0.000000
#
# Coordination Sequence:
#
# PCOD9423485 Si02
#       7
#     8   4   8   8   8   4   8
#     4  11  23  45  74 106 136 186 240 290 357 422
#     4  12  26  46  74 106 144 182 238 296 358 434
#     4  11  23  46  66 101 140 186 237 289 348 421
#     4  12  28  45  72 107 145 185 234 296 369 431
#     4  10  23  43  68  98 141 185 239 288 349 417
#     4  12  22  46  78 106 136 184 234 298 346 428
#     4  12  26  43  66 101 143 188 237 292 360 419
#
# _framework density 20.821950000000001
#
# number of rings (size 3 to 8) (size 9 to 14) (size 15 to 20)
#    0.000    0.667    5.833    2.000    4.667    5.333 
#    0.000    1.667    0.000    0.000    0.000    0.000 
#    0.000    0.000    0.000    0.000    0.000    0.000 
#
# Total GULP energy -267887.110684 kJ/mol
# GULP energy per Si atom -5580.981473 kJ/mol
# Density = 2.077456 g / cm^3
# Si number density = 20.821950 Si / 1000 Ang^3
#
#
#
# Elastic Constant Matrix: (Units=GPa)
#
#
# Indices 1 2 3 4 5 6 
#
# 1 130.3834 58.0378 62.6496 0.0000 0.0000 0.0000
# 2 58.0378 63.9249 46.3268 0.0000 0.0000 0.0000
# 3 62.6496 46.3268 127.9474 0.0000 0.0000 0.0000
# 4 0.0000 0.0000 0.0000 17.8496 0.0000 0.0000
# 5 0.0000 0.0000 0.0000 0.0000 59.5784 0.0000
# 6 0.0000 0.0000 0.0000 0.0000 0.0000 25.9710
#
#
#
# Elastic Compliance Matrix: (Units=1/GPa)
#
#
# Indices 1 2 3 4 5 6 
#
# 1 0.013661 -0.010243 -0.002980 0.000000 0.000000 0.000000
# 2 -0.010243 0.028889 -0.005444 0.000000 0.000000 0.000000
# 3 -0.002980 -0.005444 0.011246 0.000000 0.000000 0.000000
# 4 0.000000 0.000000 0.000000 0.056024 0.000000 0.000000
# 5 0.000000 0.000000 0.000000 0.000000 0.016785 0.000000
# 6 0.000000 0.000000 0.000000 0.000000 0.000000 0.038505
#
#
# Mechanical properties :
#
#
# Convention : Reuss Voigt Hill
#
# Bulk Modulus (GPa) = 60.75181 72.92047 66.83614
# Shear Modulus (GPa) = 24.04624 31.02923 27.53773
#
# Velocity S-wave (km/s) = 3.40200 3.86452 3.64061
# Velocity P-wave (km/s) = 6.68368 7.41685 7.05979
#
# Compressibility (1/GPa) = 0.01646042
#
# Stress axis : x y z
#
# Youngs Moduli (GPa) = 73.19860 34.61532 88.91759
#
# Poissons Ratio (x) = 0.35458 0.26502
# Poissons Ratio (y) = 0.74980 0.48410
# Poissons Ratio (z) = 0.21817 0.18846
#
# Static dielectric constant tensor:
#      x y z
#    x 1.785850 0.000000 0.000000 
#    y 0.000000 1.785850 0.000000 
#    z 0.000000 0.000000 1.815750 
# 
# From -- ./inp_files/27815.got.cif
#   From: 2010.05.17/outbox.cif.g08.bks.cpg/sg54_14_cif.got.tgz:27815.got - 2010.06.03 13:09:01.
