data_PCOD9423574
_publ_section_title
;
Structure prediction by ZEFSAII (Michael W. Deem and Ramdas Pophale) SiO2 
 PCOD9423574
Probable space group: P C C A
;
_chemical_formula_sum "Si O2"
_cell_formula_units_Z 36
_cell_length_a 10.883915
_cell_length_b 4.948285
_cell_length_c 24.765890
_cell_angle_alpha 90.000000
_cell_angle_beta 90.000000
_cell_angle_gamma 90.000000
_cell_volume 1333.809438
_symmetry_space_group_name_H-M "P C C A"
_symmetry_group_IT_number 54
_symmetry_cell_setting 'orthorhombic'
loop_
_space_group_symop_operation_xyz
x,y,z
1/2-x,-y,z
1/2+x,-y,1/2-z
-x,y,1/2-z
-x,-y,-z
1/2+x,y,-z
1/2-x,y,1/2+z
x,-y,1/2+z
loop_
_atom_site_type_symbol
_atom_site_label
_atom_site_fract_x
_atom_site_fract_y
_atom_site_fract_z
Si Si1 0.368183 0.312488 0.738247
Si Si2 0.071769 0.878410 0.622287
Si Si3 0.250000 0.000000 0.827545
Si Si4 0.628799 0.837235 0.494851
Si Si5 0.585286 0.389063 0.103512
O O1 0.250000 0.500000 0.743952
O O2 0.500000 0.450953 0.750000
O O3 0.366433 0.183730 0.678914
O O4 0.354512 0.090355 0.784862
O O5 0.142951 0.779383 0.568614
O O6 0.951748 0.686816 0.620328
O O7 0.030839 0.188023 0.614522
O O8 0.191832 0.236833 0.863824
O O9 0.613640 0.607506 0.539717
O O10 0.750000 0.000000 0.511346
O O11 0.500000 0.000000 0.500000
#
# Coordination Sequence:
#
# PCOD9423574 Si02
#       5
#     8   8   4   8   8
#     4  12  28  48  76 111 156 208 260 324 386 466
#     4  11  26  47  76 112 154 195 258 321 393 450
#     4  12  26  44  80 106 156 208 266 312 388 470
#     4  10  23  46  76 111 151 197 251 317 387 460
#     4  11  24  49  76 112 151 205 255 317 384 472
#
# _framework density 26.990359000000002
#
# number of rings (size 3 to 8) (size 9 to 14) (size 15 to 20)
#    0.000    0.889    3.333    2.000    4.667    2.667 
#    0.000    6.667    0.000    0.000    0.000    0.000 
#    0.000    0.000    0.000    0.000    0.000    0.000 
#
# Total GULP energy -201909.509218 kJ/mol
# GULP energy per Si atom -5608.597478 kJ/mol
# Density = 2.692893 g / cm^3
# Si number density = 26.990359 Si / 1000 Ang^3
#
#
#
# Elastic Constant Matrix: (Units=GPa)
#
#
# Indices 1 2 3 4 5 6 
#
# 1 142.8928 33.4684 15.9221 0.0000 0.0000 0.0000
# 2 33.4684 84.3877 18.5037 0.0000 0.0000 0.0000
# 3 15.9221 18.5037 225.3927 0.0000 0.0000 0.0000
# 4 0.0000 0.0000 0.0000 18.8066 0.0000 0.0000
# 5 0.0000 0.0000 0.0000 0.0000 26.7127 0.0000
# 6 0.0000 0.0000 0.0000 0.0000 0.0000 44.2303
#
#
#
# Elastic Compliance Matrix: (Units=1/GPa)
#
#
# Indices 1 2 3 4 5 6 
#
# 1 0.007735 -0.003002 -0.000300 0.000000 0.000000 0.000000
# 2 -0.003002 0.013232 -0.000874 0.000000 0.000000 0.000000
# 3 -0.000300 -0.000874 0.004530 0.000000 0.000000 0.000000
# 4 0.000000 0.000000 0.000000 0.053173 0.000000 0.000000
# 5 0.000000 0.000000 0.000000 0.000000 0.037435 0.000000
# 6 0.000000 0.000000 0.000000 0.000000 0.000000 0.022609
#
#
# Mechanical properties :
#
#
# Convention : Reuss Voigt Hill
#
# Bulk Modulus (GPa) = 58.32741 65.38462 61.85601
# Shear Modulus (GPa) = 32.72661 43.60185 38.16423
#
# Velocity S-wave (km/s) = 3.48592 4.02364 3.76439
# Velocity P-wave (km/s) = 6.15301 6.77230 6.47007
#
# Compressibility (1/GPa) = 0.01714460
#
# Stress axis : x y z
#
# Youngs Moduli (GPa) = 129.28630 75.57258 220.76696
#
# Poissons Ratio (x) = 0.22686 0.06622
# Poissons Ratio (y) = 0.38810 0.19301
# Poissons Ratio (z) = 0.03878 0.06607
#
# Static dielectric constant tensor:
#      x y z
#    x 2.230520 0.000000 0.000000 
#    y 0.000000 2.029970 0.000000 
#    z 0.000000 0.000000 2.067940 
# 
# From -- ./inp_files/23866.got.cif
#   From: 2010.05.17/outbox.cif.g08.bks.cpg/sg54_12_cif.got.tgz:23866.got - 2010.06.03 13:09:01.
