data_PCOD9423495
_publ_section_title
;
Structure prediction by ZEFSAII (Michael W. Deem and Ramdas Pophale) SiO2 
 PCOD9423495
Probable space group: P C C A
;
_chemical_formula_sum "Si O2"
_cell_formula_units_Z 32
_cell_length_a 10.330232
_cell_length_b 8.267113
_cell_length_c 14.868267
_cell_angle_alpha 90.000000
_cell_angle_beta 90.000000
_cell_angle_gamma 90.000000
_cell_volume 1269.767773
_symmetry_space_group_name_H-M "P C C A"
_symmetry_group_IT_number 54
_symmetry_cell_setting 'orthorhombic'
loop_
_space_group_symop_operation_xyz
x,y,z
1/2-x,-y,z
1/2+x,-y,1/2-z
-x,y,1/2-z
-x,-y,-z
1/2+x,y,-z
1/2-x,y,1/2+z
x,-y,1/2+z
loop_
_atom_site_type_symbol
_atom_site_label
_atom_site_fract_x
_atom_site_fract_y
_atom_site_fract_z
Si Si1 0.308353 0.676422 0.442991
Si Si2 0.783936 0.687961 0.356539
Si Si3 0.360380 0.869610 0.814779
Si Si4 0.467169 0.101434 0.592238
O O1 0.250000 0.500000 0.426409
O O2 0.353774 0.684612 0.546743
O O3 0.192495 0.791050 0.408467
O O4 0.433154 0.748822 0.394114
O O5 0.750000 0.500000 0.343185
O O6 0.850764 0.739248 0.264071
O O7 0.669273 0.816181 0.383084
O O8 0.250000 0.000000 0.792348
O O9 0.490884 0.964020 0.837840
O O10 0.500000 0.000000 0.500000
#
# Coordination Sequence:
#
# PCOD9423495 Si02
#       4
#     8   8   8   8
#     4  10  23  44  71 106 153 191 247 315 378 461
#     4  11  25  46  74 107 156 197 255 319 381 461
#     4  10  23  43  72 107 147 192 250 318 358 462
#     4  11  24  47  77 106 144 207 251 310 398 445
#
# _framework density 25.201457999999999
#
# number of rings (size 3 to 8) (size 9 to 14) (size 15 to 20)
#    0.000    1.500    2.500    0.750    3.500    8.000 
#    0.000    2.500    0.000    0.000    0.000    0.000 
#    0.000    0.000    0.000    0.000    0.000    0.000 
#
# Total GULP energy -178523.699120 kJ/mol
# GULP energy per Si atom -5578.865597 kJ/mol
# Density = 2.514410 g / cm^3
# Si number density = 25.201458 Si / 1000 Ang^3
#
#
#
# Elastic Constant Matrix: (Units=GPa)
#
#
# Indices 1 2 3 4 5 6 
#
# 1 41.4857 21.4513 -15.4065 0.0000 0.0000 0.0000
# 2 21.4513 131.2728 49.0377 0.0000 0.0000 0.0000
# 3 -15.4065 49.0377 153.6908 0.0000 0.0000 0.0000
# 4 0.0000 0.0000 0.0000 42.3702 0.0000 0.0000
# 5 0.0000 0.0000 0.0000 0.0000 20.6321 0.0000
# 6 0.0000 0.0000 0.0000 0.0000 0.0000 33.2492
#
#
#
# Elastic Compliance Matrix: (Units=1/GPa)
#
#
# Indices 1 2 3 4 5 6 
#
# 1 0.029474 -0.006721 0.005099 0.000000 0.000000 0.000000
# 2 -0.006721 0.010181 -0.003922 0.000000 0.000000 0.000000
# 3 0.005099 -0.003922 0.008269 0.000000 0.000000 0.000000
# 4 0.000000 0.000000 0.000000 0.023601 0.000000 0.000000
# 5 0.000000 0.000000 0.000000 0.000000 0.048468 0.000000
# 6 0.000000 0.000000 0.000000 0.000000 0.000000 0.030076
#
#
# Mechanical properties :
#
#
# Convention : Reuss Voigt Hill
#
# Bulk Modulus (GPa) = 27.14778 48.51270 37.83024
# Shear Modulus (GPa) = 28.82898 37.34142 33.08520
#
# Velocity S-wave (km/s) = 3.38589 3.85348 3.62723
# Velocity P-wave (km/s) = 5.10699 6.25227 5.70842
#
# Compressibility (1/GPa) = 0.03683542
#
# Stress axis : x y z
#
# Youngs Moduli (GPa) = 33.92864 98.22048 120.93122
#
# Poissons Ratio (x) = 0.66015 -0.61663
# Poissons Ratio (y) = 0.22804 0.47432
# Poissons Ratio (z) = -0.17300 0.38524
#
# Static dielectric constant tensor:
#      x y z
#    x 2.073950 0.000000 0.000000 
#    y 0.000000 1.969440 0.000000 
#    z 0.000000 0.000000 2.065850 
# 
# From -- ./inp_files/16989.got.cif
#   From: 2010.05.17/outbox.cif.g08.bks.cpg/sg54_9_cif.got.tgz:16989.got - 2010.06.03 13:09:01.
