data_PCOD9423617
_publ_section_title
;
Structure prediction by ZEFSAII (Michael W. Deem and Ramdas Pophale) SiO2 
 PCOD9423617
Probable space group: P C C A
;
_chemical_formula_sum "Si O2"
_cell_formula_units_Z 56
_cell_length_a 14.293430
_cell_length_b 14.409692
_cell_length_c 12.283425
_cell_angle_alpha 90.000000
_cell_angle_beta 90.000000
_cell_angle_gamma 90.000000
_cell_volume 2529.942412
_symmetry_space_group_name_H-M "P C C A"
_symmetry_group_IT_number 54
_symmetry_cell_setting 'orthorhombic'
loop_
_space_group_symop_operation_xyz
x,y,z
1/2-x,-y,z
1/2+x,-y,1/2-z
-x,y,1/2-z
-x,-y,-z
1/2+x,y,-z
1/2-x,y,1/2+z
x,-y,1/2+z
loop_
_atom_site_type_symbol
_atom_site_label
_atom_site_fract_x
_atom_site_fract_y
_atom_site_fract_z
Si Si1 0.237856 0.106249 0.643246
Si Si2 0.130109 0.243061 0.503979
Si Si3 0.722489 0.761834 0.669400
Si Si4 0.836579 0.432705 0.727960
Si Si5 0.474454 0.575024 0.588502
Si Si6 0.957990 0.093591 0.130566
Si Si7 0.119664 0.909378 0.450040
O O1 0.147020 0.164127 0.597975
O O2 0.271710 0.168085 0.744447
O O3 0.292682 0.099971 0.529494
O O4 0.250000 0.000000 0.681100
O O5 0.226863 0.271733 0.442856
O O6 0.067057 0.327809 0.544236
O O7 0.084665 0.191472 0.401349
O O8 0.704199 0.670245 0.738749
O O9 0.632162 0.822642 0.631032
O O10 0.750000 0.500000 0.697497
O O11 0.890069 0.464404 0.836728
O O12 0.926250 0.415970 0.649957
O O13 0.500000 0.500000 0.500000
O O14 0.000000 0.088437 0.250000
O O15 0.889451 0.006109 0.113054
O O16 0.036848 0.088182 0.037033
#
# Coordination Sequence:
#
# PCOD9423617 Si02
#       7
#     8   8   8   8   8   8   8
#     4  11  22  40  68  97 142 193 246 300 368 448
#     4  11  23  43  68 104 145 188 248 306 375 454
#     4  11  24  40  71 101 140 190 243 304 368 451
#     4  11  25  49  77 109 142 191 249 307 392 460
#     4  11  25  49  76 108 147 189 244 321 385 464
#     4  11  23  41  60  95 140 188 243 302 365 436
#     4  10  24  39  60  93 132 186 241 292 365 436
#
# _framework density 22.134889999999999
#
# number of rings (size 3 to 8) (size 9 to 14) (size 15 to 20)
#    0.000    1.143    2.857    2.571    4.000    1.714 
#   10.286    0.000    0.000    0.000    0.000    0.000 
#    0.000    0.000    0.000    0.000    0.000    0.000 
#
# Total GULP energy -311871.594097 kJ/mol
# GULP energy per Si atom -5569.135609 kJ/mol
# Density = 2.208451 g / cm^3
# Si number density = 22.134890 Si / 1000 Ang^3
#
#
#
# Elastic Constant Matrix: (Units=GPa)
#
#
# Indices 1 2 3 4 5 6 
#
# 1 88.1120 63.9642 40.1812 0.0000 0.0000 0.0000
# 2 63.9642 148.5398 45.2131 0.0000 0.0000 0.0000
# 3 40.1812 45.2131 107.7208 0.0000 0.0000 0.0000
# 4 0.0000 0.0000 0.0000 38.6644 0.0000 0.0000
# 5 0.0000 0.0000 0.0000 0.0000 29.9920 0.0000
# 6 0.0000 0.0000 0.0000 0.0000 0.0000 42.9870
#
#
#
# Elastic Compliance Matrix: (Units=1/GPa)
#
#
# Indices 1 2 3 4 5 6 
#
# 1 0.017856 -0.006491 -0.003936 0.000000 0.000000 0.000000
# 2 -0.006491 0.010078 -0.001809 0.000000 0.000000 0.000000
# 3 -0.003936 -0.001809 0.011511 0.000000 0.000000 0.000000
# 4 0.000000 0.000000 0.000000 0.025864 0.000000 0.000000
# 5 0.000000 0.000000 0.000000 0.000000 0.033342 0.000000
# 6 0.000000 0.000000 0.000000 0.000000 0.000000 0.023263
#
#
# Mechanical properties :
#
#
# Convention : Reuss Voigt Hill
#
# Bulk Modulus (GPa) = 66.78708 71.45440 69.12074
# Shear Modulus (GPa) = 33.03016 35.32961 34.17988
#
# Velocity S-wave (km/s) = 3.86712 3.99946 3.93385
# Velocity P-wave (km/s) = 7.08363 7.32660 7.20614
#
# Compressibility (1/GPa) = 0.01497296
#
# Stress axis : x y z
#
# Youngs Moduli (GPa) = 56.00229 99.22610 86.87620
#
# Poissons Ratio (x) = 0.64410 0.34196
# Poissons Ratio (y) = 0.36352 0.15713
# Poissons Ratio (z) = 0.22043 0.17947
#
# Static dielectric constant tensor:
#      x y z
#    x 2.409470 0.000000 0.000000 
#    y 0.000000 1.853800 0.000000 
#    z 0.000000 0.000000 1.884830 
# 
# From -- ./inp_files/8435.got.cif
#   From: 2010.05.17/outbox.cif.g08.bks.cpg/sg54_5_cif.got.tgz:8435.got - 2010.06.03 13:09:01.
