data_PCOD9423144
_publ_section_title
;
Structure prediction by ZEFSAII (Michael W. Deem and Ramdas Pophale) SiO2 
 PCOD9423144
Probable space group: P C C A
;
_chemical_formula_sum "Si O2"
_cell_formula_units_Z 40
_cell_length_a 10.152633
_cell_length_b 19.252714
_cell_length_c 8.849501
_cell_angle_alpha 90.000000
_cell_angle_beta 90.000000
_cell_angle_gamma 90.000000
_cell_volume 1729.774257
_symmetry_space_group_name_H-M "P C C A"
_symmetry_group_IT_number 54
_symmetry_cell_setting 'orthorhombic'
loop_
_space_group_symop_operation_xyz
x,y,z
1/2-x,-y,z
1/2+x,-y,1/2-z
-x,y,1/2-z
-x,-y,-z
1/2+x,y,-z
1/2-x,y,1/2+z
x,-y,1/2+z
loop_
_atom_site_type_symbol
_atom_site_label
_atom_site_fract_x
_atom_site_fract_y
_atom_site_fract_z
Si Si1 0.250000 0.500000 0.259386
Si Si2 0.500000 0.636373 0.250000
Si Si3 0.603522 0.963660 0.612332
Si Si4 0.369444 0.806952 0.847297
Si Si5 0.781687 0.276456 0.373279
Si Si6 0.124105 0.591791 0.015115
O O1 0.293883 0.560023 0.373887
O O2 0.142219 0.536325 0.149769
O O3 0.624509 0.685717 0.254811
O O4 0.491001 0.600245 0.084018
O O5 0.500000 0.960162 0.750000
O O6 0.636713 0.883037 0.580340
O O7 0.750000 0.000000 0.629368
O O8 0.500000 0.000000 0.500000
O O9 0.500000 0.798529 0.750000
O O10 0.263598 0.791419 0.717393
O O11 0.354161 0.749376 0.976470
O O12 0.673102 0.334446 0.419830
#
# Coordination Sequence:
#
# PCOD9423144 Si02
#       6
#     4   4   8   8   8   8
#     4  10  22  42  68  92 142 184 236 296 374 446
#     4  12  24  40  72  98 136 188 228 314 368 432
#     4  11  27  48  76 113 157 199 253 312 379 460
#     4  11  27  45  74 106 142 198 239 305 376 442
#     4  12  24  46  70 103 145 180 253 298 372 441
#     4  11  22  43  63 101 136 181 238 301 359 447
#
# _framework density 23.124403999999998
#
# number of rings (size 3 to 8) (size 9 to 14) (size 15 to 20)
#    0.000    0.800    4.000    1.800    8.400    0.800 
#    0.000    0.000    0.000    0.000    0.000    0.000 
#    0.000    0.000    0.000    0.000    0.000    0.000 
#
# Total GULP energy -222720.435849 kJ/mol
# GULP energy per Si atom -5568.010896 kJ/mol
# Density = 2.307177 g / cm^3
# Si number density = 23.124404 Si / 1000 Ang^3
#
#
#
# Elastic Constant Matrix: (Units=GPa)
#
#
# Indices 1 2 3 4 5 6 
#
# 1 72.0847 34.4141 1.9657 0.0000 0.0000 0.0000
# 2 34.4141 138.2554 30.1200 0.0000 0.0000 0.0000
# 3 1.9657 30.1200 86.7172 0.0000 0.0000 0.0000
# 4 0.0000 0.0000 0.0000 27.1660 0.0000 0.0000
# 5 0.0000 0.0000 0.0000 0.0000 42.6024 0.0000
# 6 0.0000 0.0000 0.0000 0.0000 0.0000 17.6418
#
#
#
# Elastic Compliance Matrix: (Units=1/GPa)
#
#
# Indices 1 2 3 4 5 6 
#
# 1 0.015839 -0.004181 0.001093 0.000000 0.000000 0.000000
# 2 -0.004181 0.008929 -0.003006 0.000000 0.000000 0.000000
# 3 0.001093 -0.003006 0.012551 0.000000 0.000000 0.000000
# 4 0.000000 0.000000 0.000000 0.036811 0.000000 0.000000
# 5 0.000000 0.000000 0.000000 0.000000 0.023473 0.000000
# 6 0.000000 0.000000 0.000000 0.000000 0.000000 0.056684
#
#
# Mechanical properties :
#
#
# Convention : Reuss Voigt Hill
#
# Bulk Modulus (GPa) = 39.79247 47.78411 43.78829
# Shear Modulus (GPa) = 28.59584 32.85252 30.72418
#
# Velocity S-wave (km/s) = 3.52036 3.77329 3.64902
# Velocity P-wave (km/s) = 5.81113 6.30019 6.06060
#
# Compressibility (1/GPa) = 0.02513038
#
# Stress axis : x y z
#
# Youngs Moduli (GPa) = 63.13668 111.99953 79.67352
#
# Poissons Ratio (x) = 0.46823 -0.08709
# Poissons Ratio (y) = 0.26395 0.23954
# Poissons Ratio (z) = -0.06901 0.33672
#
# Static dielectric constant tensor:
#      x y z
#    x 2.835970 0.000000 0.000000 
#    y 0.000000 2.196830 0.000000 
#    z 0.000000 0.000000 1.704890 
# 
# From -- ./inp_files/2940.got.cif
#   From: 2010.05.17/outbox.cif.g08.bks.cpg/sg54_2_cif.got.tgz:2940.got - 2010.06.03 13:09:01.
