data_PCOD9423479
_publ_section_title
;
Structure prediction by ZEFSAII (Michael W. Deem and Ramdas Pophale) SiO2 
 PCOD9423479
Probable space group: P C C A
;
_chemical_formula_sum "Si O2"
_cell_formula_units_Z 40
_cell_length_a 20.869414
_cell_length_b 5.941272
_cell_length_c 14.440759
_cell_angle_alpha 90.000000
_cell_angle_beta 90.000000
_cell_angle_gamma 90.000000
_cell_volume 1790.522200
_symmetry_space_group_name_H-M "P C C A"
_symmetry_group_IT_number 54
_symmetry_cell_setting 'orthorhombic'
loop_
_space_group_symop_operation_xyz
x,y,z
1/2-x,-y,z
1/2+x,-y,1/2-z
-x,y,1/2-z
-x,-y,-z
1/2+x,y,-z
1/2-x,y,1/2+z
x,-y,1/2+z
loop_
_atom_site_type_symbol
_atom_site_label
_atom_site_fract_x
_atom_site_fract_y
_atom_site_fract_z
Si Si1 0.127115 0.072946 0.929375
Si Si2 0.116274 0.055145 0.638205
Si Si3 0.416564 0.704723 0.294859
Si Si4 0.002157 0.621210 0.402720
Si Si5 0.689603 0.662333 0.726418
O O1 0.060645 0.202248 0.906590
O O2 0.181473 0.204569 0.870979
O O3 0.116938 0.830269 0.882472
O O4 0.134050 0.055713 0.039757
O O5 0.177595 0.160663 0.690848
O O6 0.062391 0.243908 0.617778
O O7 0.084113 0.886862 0.712839
O O8 0.478860 0.580653 0.334553
O O9 0.370220 0.504830 0.265377
O O10 0.000000 0.500000 0.500000
O O11 0.750000 0.500000 0.731772
#
# Coordination Sequence:
#
# PCOD9423479 Si02
#       5
#     8   8   8   8   8
#     4  10  23  43  66  99 137 184 224 282 352 415
#     4  11  24  41  70 104 137 183 238 275 356 422
#     4  10  24  43  65  98 139 175 232 281 351 405
#     4  11  23  41  68  98 145 181 218 288 348 426
#     4  10  25  47  70  95 137 181 238 296 338 402
#
# _framework density 22.339850999999999
#
# number of rings (size 3 to 8) (size 9 to 14) (size 15 to 20)
#    0.000    1.600    2.000    0.600    2.800   12.000 
#    0.000    6.000    0.000    0.000    0.000    0.000 
#    0.000    0.000    0.000    0.000    0.000    0.000 
#
# Total GULP energy -223638.316178 kJ/mol
# GULP energy per Si atom -5590.957904 kJ/mol
# Density = 2.228900 g / cm^3
# Si number density = 22.339851 Si / 1000 Ang^3
#
#
#
# Elastic Constant Matrix: (Units=GPa)
#
#
# Indices 1 2 3 4 5 6 
#
# 1 72.8360 23.3260 51.6364 0.0000 0.0000 0.0000
# 2 23.3260 90.5325 65.9558 0.0000 0.0000 0.0000
# 3 51.6364 65.9558 215.7187 0.0000 0.0000 0.0000
# 4 0.0000 0.0000 0.0000 51.6353 0.0000 0.0000
# 5 0.0000 0.0000 0.0000 0.0000 15.5610 0.0000
# 6 0.0000 0.0000 0.0000 0.0000 0.0000 48.5084
#
#
#
# Elastic Compliance Matrix: (Units=1/GPa)
#
#
# Indices 1 2 3 4 5 6 
#
# 1 0.016759 -0.001795 -0.003463 0.000000 0.000000 0.000000
# 2 -0.001795 0.014404 -0.003974 0.000000 0.000000 0.000000
# 3 -0.003463 -0.003974 0.006680 0.000000 0.000000 0.000000
# 4 0.000000 0.000000 0.000000 0.019367 0.000000 0.000000
# 5 0.000000 0.000000 0.000000 0.000000 0.064263 0.000000
# 6 0.000000 0.000000 0.000000 0.000000 0.000000 0.020615
#
#
# Mechanical properties :
#
#
# Convention : Reuss Voigt Hill
#
# Bulk Modulus (GPa) = 51.60471 73.43595 62.52033
# Shear Modulus (GPa) = 29.93809 39.01887 34.47848
#
# Velocity S-wave (km/s) = 3.66474 4.18377 3.93283
# Velocity P-wave (km/s) = 6.40758 7.50214 6.97636
#
# Compressibility (1/GPa) = 0.01937808
#
# Stress axis : x y z
#
# Youngs Moduli (GPa) = 59.66833 69.42692 149.70906
#
# Poissons Ratio (x) = 0.12465 0.51840
# Poissons Ratio (y) = 0.10713 0.59496
# Poissons Ratio (z) = 0.20661 0.27591
#
# Static dielectric constant tensor:
#      x y z
#    x 1.883490 0.000000 0.000000 
#    y 0.000000 1.931100 0.000000 
#    z 0.000000 0.000000 1.845660 
# 
# From -- ./inp_files/14847.got.cif
#   From: 2010.05.17/outbox.cif.g08.bks.cpg/sg54_8_cif.got.tgz:14847.got - 2010.06.03 13:09:01.
