data_PCOD9423282
_publ_section_title
;
Structure prediction by ZEFSAII (Michael W. Deem and Ramdas Pophale) SiO2 
 PCOD9423282
Probable space group: P C C A
;
_chemical_formula_sum "Si O2"
_cell_formula_units_Z 40
_cell_length_a 27.176122
_cell_length_b 5.006201
_cell_length_c 10.848039
_cell_angle_alpha 90.000000
_cell_angle_beta 90.000000
_cell_angle_gamma 90.000000
_cell_volume 1475.866259
_symmetry_space_group_name_H-M "P C C A"
_symmetry_group_IT_number 54
_symmetry_cell_setting 'orthorhombic'
loop_
_space_group_symop_operation_xyz
x,y,z
1/2-x,-y,z
1/2+x,-y,1/2-z
-x,y,1/2-z
-x,-y,-z
1/2+x,y,-z
1/2-x,y,1/2+z
x,-y,1/2+z
loop_
_atom_site_type_symbol
_atom_site_label
_atom_site_fract_x
_atom_site_fract_y
_atom_site_fract_z
Si Si1 0.500000 0.000000 0.500000
Si Si2 0.144836 0.100950 0.502486
Si Si3 0.000000 0.074614 0.250000
Si Si4 0.418262 0.229068 0.327614
Si Si5 0.750000 0.500000 0.253094
Si Si6 0.859281 0.596451 0.844700
Si Si7 0.750000 0.000000 0.584572
O O1 0.509962 0.204967 0.620048
O O2 0.541586 0.798199 0.562320
O O3 0.123155 0.974939 0.378240
O O4 0.131318 0.892365 0.609257
O O5 0.129009 0.394199 0.542507
O O6 0.203585 0.094465 0.492604
O O7 0.046379 0.885223 0.218066
O O8 0.390733 0.482629 0.269473
O O9 0.699427 0.574221 0.321251
O O10 0.764297 0.751283 0.169058
#
# Coordination Sequence:
#
# PCOD9423282 Si02
#       7
#     4   8   4   8   4   8   4
#     4   8  18  40  74 108 150 200 252 330 388 478
#     4  12  26  45  75 109 153 206 260 327 406 481
#     4   8  18  40  74 114 152 202 262 330 404 476
#     4  10  22  44  77 109 157 198 266 327 406 472
#     4  12  24  46  70 110 152 210 262 324 402 480
#     4  12  26  45  75 111 152 207 263 331 399 487
#     4  12  24  46  74 106 158 210 260 332 400 488
#
# _framework density 27.102723999999998
#
# number of rings (size 3 to 8) (size 9 to 14) (size 15 to 20)
#    1.200    0.000    2.000    4.800    0.000    0.000 
#    0.000    1.000    4.400    0.000    0.000    0.000 
#    0.000    0.000    0.000    0.000    0.000    0.000 
#
# Total GULP energy -222692.939844 kJ/mol
# GULP energy per Si atom -5567.323496 kJ/mol
# Density = 2.704104 g / cm^3
# Si number density = 27.102724 Si / 1000 Ang^3
#
#
#
# Elastic Constant Matrix: (Units=GPa)
#
#
# Indices 1 2 3 4 5 6 
#
# 1 152.3664 6.4858 7.9027 0.0000 0.0000 0.0000
# 2 6.4858 64.5338 12.6182 0.0000 0.0000 0.0000
# 3 7.9027 12.6182 64.1403 0.0000 0.0000 0.0000
# 4 0.0000 0.0000 0.0000 34.6129 0.0000 0.0000
# 5 0.0000 0.0000 0.0000 0.0000 75.9557 0.0000
# 6 0.0000 0.0000 0.0000 0.0000 0.0000 27.2967
#
#
#
# Elastic Compliance Matrix: (Units=1/GPa)
#
#
# Indices 1 2 3 4 5 6 
#
# 1 0.006622 -0.000526 -0.000712 0.000000 0.000000 0.000000
# 2 -0.000526 0.016157 -0.003114 0.000000 0.000000 0.000000
# 3 -0.000712 -0.003114 0.016291 0.000000 0.000000 0.000000
# 4 0.000000 0.000000 0.000000 0.028891 0.000000 0.000000
# 5 0.000000 0.000000 0.000000 0.000000 0.013166 0.000000
# 6 0.000000 0.000000 0.000000 0.000000 0.000000 0.036634
#
#
# Mechanical properties :
#
#
# Convention : Reuss Voigt Hill
#
# Bulk Modulus (GPa) = 32.93139 37.22821 35.07980
# Shear Modulus (GPa) = 36.60611 44.50862 40.55736
#
# Velocity S-wave (km/s) = 3.67910 4.05683 3.87257
# Velocity P-wave (km/s) = 5.49769 5.97575 5.74170
#
# Compressibility (1/GPa) = 0.03036617
#
# Stress axis : x y z
#
# Youngs Moduli (GPa) = 151.00083 61.89082 61.38292
#
# Poissons Ratio (x) = 0.03257 0.04373
# Poissons Ratio (y) = 0.07947 0.19113
# Poissons Ratio (z) = 0.10758 0.19271
#
# Static dielectric constant tensor:
#      x y z
#    x 2.300380 0.000000 0.000000 
#    y 0.000000 2.263920 0.000000 
#    z 0.000000 0.000000 2.717530 
# 
# From -- ./inp_files/10234.got.cif
#   From: 2010.05.17/outbox.cif.g08.bks.cpg/sg54_6_cif.got.tgz:10234.got - 2010.06.03 13:09:01.
