data_PCOD9423555
_publ_section_title
;
Structure prediction by ZEFSAII (Michael W. Deem and Ramdas Pophale) SiO2 
 PCOD9423555
Probable space group: P C C A
;
_chemical_formula_sum "Si O2"
_cell_formula_units_Z 56
_cell_length_a 27.089993
_cell_length_b 6.491149
_cell_length_c 13.167598
_cell_angle_alpha 90.000000
_cell_angle_beta 90.000000
_cell_angle_gamma 90.000000
_cell_volume 2315.458653
_symmetry_space_group_name_H-M "P C C A"
_symmetry_group_IT_number 54
_symmetry_cell_setting 'orthorhombic'
loop_
_space_group_symop_operation_xyz
x,y,z
1/2-x,-y,z
1/2+x,-y,1/2-z
-x,y,1/2-z
-x,-y,-z
1/2+x,y,-z
1/2-x,y,1/2+z
x,-y,1/2+z
loop_
_atom_site_type_symbol
_atom_site_label
_atom_site_fract_x
_atom_site_fract_y
_atom_site_fract_z
Si Si1 0.487459 0.683166 0.421870
Si Si2 0.415879 0.382741 0.324181
Si Si3 0.872031 0.812732 0.339787
Si Si4 0.927915 0.930485 0.986978
Si Si5 0.195842 0.095195 0.278721
Si Si6 0.807462 0.522751 0.620470
Si Si7 0.305728 0.572017 0.101051
O O1 0.500000 0.500000 0.500000
O O2 0.454341 0.568704 0.338475
O O3 0.538890 0.802647 0.405687
O O4 0.454903 0.863156 0.473429
O O5 0.421221 0.271849 0.215328
O O6 0.420948 0.221683 0.417550
O O7 0.359693 0.468925 0.327439
O O8 0.842392 0.619296 0.383115
O O9 0.881912 0.979987 0.425979
O O10 0.842272 0.918219 0.247672
O O11 0.188951 0.227699 0.380784
O O12 0.188578 0.253902 0.185089
O O13 0.250000 0.000000 0.276309
O O14 0.750000 0.500000 0.659825
O O15 0.809044 0.386774 0.518801
O O16 0.250000 0.500000 0.114229
#
# Coordination Sequence:
#
# PCOD9423555 Si02
#       7
#     8   8   8   8   8   8   8
#     4   9  21  47  73  95 135 176 223 297 355 414
#     4  11  23  43  70 101 141 184 228 289 359 417
#     4  12  25  39  69 103 138 181 233 284 351 422
#     4  10  23  45  73 103 134 179 235 290 351 428
#     4  12  24  44  68  99 144 188 237 289 339 419
#     4  11  24  44  69  97 139 189 232 280 351 414
#     4  11  23  44  63  97 142 187 233 289 347 414
#
# _framework density 24.185272999999999
#
# number of rings (size 3 to 8) (size 9 to 14) (size 15 to 20)
#    0.000    1.143    2.857    3.000    4.000    1.143 
#    5.143    7.857    0.000    0.000    0.000    0.000 
#    0.000    0.000    0.000    0.000    0.000    0.000 
#
# Total GULP energy -312517.664696 kJ/mol
# GULP energy per Si atom -5580.672584 kJ/mol
# Density = 2.413023 g / cm^3
# Si number density = 24.185273 Si / 1000 Ang^3
#
#
#
# Elastic Constant Matrix: (Units=GPa)
#
#
# Indices 1 2 3 4 5 6 
#
# 1 56.9876 32.3234 4.0542 0.0000 0.0000 0.0000
# 2 32.3234 119.7317 4.0832 0.0000 0.0000 0.0000
# 3 4.0542 4.0832 55.7483 0.0000 0.0000 0.0000
# 4 0.0000 0.0000 0.0000 25.4356 0.0000 0.0000
# 5 0.0000 0.0000 0.0000 0.0000 17.0282 0.0000
# 6 0.0000 0.0000 0.0000 0.0000 0.0000 51.7111
#
#
#
# Elastic Compliance Matrix: (Units=1/GPa)
#
#
# Indices 1 2 3 4 5 6 
#
# 1 0.020788 -0.005574 -0.001103 0.000000 0.000000 0.000000
# 2 -0.005574 0.009868 -0.000317 0.000000 0.000000 0.000000
# 3 -0.001103 -0.000317 0.018041 0.000000 0.000000 0.000000
# 4 0.000000 0.000000 0.000000 0.039315 0.000000 0.000000
# 5 0.000000 0.000000 0.000000 0.000000 0.058726 0.000000
# 6 0.000000 0.000000 0.000000 0.000000 0.000000 0.019338
#
#
# Mechanical properties :
#
#
# Convention : Reuss Voigt Hill
#
# Bulk Modulus (GPa) = 28.81308 34.82103 31.81706
# Shear Modulus (GPa) = 26.09117 31.63542 28.86330
#
# Velocity S-wave (km/s) = 3.28808 3.62061 3.45835
# Velocity P-wave (km/s) = 5.13368 5.64866 5.39731
#
# Compressibility (1/GPa) = 0.03470646
#
# Stress axis : x y z
#
# Youngs Moduli (GPa) = 48.10470 101.34051 55.42852
#
# Poissons Ratio (x) = 0.56491 0.06117
# Poissons Ratio (y) = 0.26815 0.01759
# Poissons Ratio (z) = 0.05308 0.03216
#
# Static dielectric constant tensor:
#      x y z
#    x 1.925380 0.000000 0.000000 
#    y 0.000000 1.939250 0.000000 
#    z 0.000000 0.000000 1.964930 
# 
# From -- ./inp_files/15366.got.cif
#   From: 2010.05.17/outbox.cif.g08.bks.cpg/sg54_8_cif.got.tgz:15366.got - 2010.06.03 13:09:01.
