data_PCOD9423107
_publ_section_title
;
Structure prediction by ZEFSAII (Michael W. Deem and Ramdas Pophale) SiO2 
 PCOD9423107
Probable space group: P C C A
;
_chemical_formula_sum "Si O2"
_cell_formula_units_Z 52
_cell_length_a 20.994410
_cell_length_b 9.024485
_cell_length_c 14.187723
_cell_angle_alpha 90.000000
_cell_angle_beta 90.000000
_cell_angle_gamma 90.000000
_cell_volume 2688.059035
_symmetry_space_group_name_H-M "P C C A"
_symmetry_group_IT_number 54
_symmetry_cell_setting 'orthorhombic'
loop_
_space_group_symop_operation_xyz
x,y,z
1/2-x,-y,z
1/2+x,-y,1/2-z
-x,y,1/2-z
-x,-y,-z
1/2+x,y,-z
1/2-x,y,1/2+z
x,-y,1/2+z
loop_
_atom_site_type_symbol
_atom_site_label
_atom_site_fract_x
_atom_site_fract_y
_atom_site_fract_z
Si Si1 0.000000 0.753702 0.250000
Si Si2 0.530515 0.515424 0.898079
Si Si3 0.678686 0.708257 0.159429
Si Si4 0.750000 0.000000 0.712208
Si Si5 0.838185 0.667959 0.444965
Si Si6 0.123080 0.929895 0.169602
Si Si7 0.563215 0.783192 0.288323
Si Si8 0.250000 0.500000 0.195191
O O1 0.007121 0.639268 0.337628
O O2 0.934999 0.845529 0.274461
O O3 0.601802 0.571261 0.914421
O O4 0.538933 0.361609 0.842564
O O5 0.500000 0.500000 0.000000
O O6 0.609137 0.747917 0.200370
O O7 0.704219 0.590408 0.235247
O O8 0.722524 0.855811 0.159035
O O9 0.676799 0.646978 0.054082
O O10 0.811471 0.055663 0.771457
O O11 0.859584 0.835364 0.422192
O O12 0.783044 0.617842 0.374037
O O13 0.100221 0.096708 0.149268
O O14 0.500000 0.859427 0.250000
#
# Coordination Sequence:
#
# PCOD9423107 Si02
#       8
#     4   8   8   4   8   8   8   4
#     4  10  22  42  64  92 134 164 212 282 322 392
#     4  11  23  41  65  95 128 170 219 270 330 399
#     4  11  24  43  66  95 130 173 221 274 338 398
#     4  10  22  44  68  88 134 178 214 276 334 402
#     4  11  24  41  64  98 127 171 224 271 332 406
#     4  10  22  42  65  96 132 172 218 270 336 392
#     4  11  21  42  67  93 131 174 215 272 333 396
#     4  12  22  46  66  92 136 170 220 284 332 396
#
# _framework density 19.344812999999998
#
# number of rings (size 3 to 8) (size 9 to 14) (size 15 to 20)
#    0.000    1.231    4.615    1.385    0.000    0.615 
#    8.308    2.308    0.000    0.000    0.000    0.000 
#    0.000    0.000    0.000    0.000    0.000    0.000 
#
# Total GULP energy -290010.828963 kJ/mol
# GULP energy per Si atom -5577.131326 kJ/mol
# Density = 1.930078 g / cm^3
# Si number density = 19.344813 Si / 1000 Ang^3
#
#
#
# Elastic Constant Matrix: (Units=GPa)
#
#
# Indices 1 2 3 4 5 6 
#
# 1 89.8983 19.8971 27.6294 0.0000 0.0000 0.0000
# 2 19.8971 81.8387 30.4773 0.0000 0.0000 0.0000
# 3 27.6294 30.4773 113.8775 0.0000 0.0000 0.0000
# 4 0.0000 0.0000 0.0000 13.3311 0.0000 0.0000
# 5 0.0000 0.0000 0.0000 0.0000 27.0876 0.0000
# 6 0.0000 0.0000 0.0000 0.0000 0.0000 26.3983
#
#
#
# Elastic Compliance Matrix: (Units=1/GPa)
#
#
# Indices 1 2 3 4 5 6 
#
# 1 0.012335 -0.002093 -0.002433 0.000000 0.000000 0.000000
# 2 -0.002093 0.013927 -0.003220 0.000000 0.000000 0.000000
# 3 -0.002433 -0.003220 0.010233 0.000000 0.000000 0.000000
# 4 0.000000 0.000000 0.000000 0.075012 0.000000 0.000000
# 5 0.000000 0.000000 0.000000 0.000000 0.036917 0.000000
# 6 0.000000 0.000000 0.000000 0.000000 0.000000 0.037881
#
#
# Mechanical properties :
#
#
# Convention : Reuss Voigt Hill
#
# Bulk Modulus (GPa) = 47.60828 49.06912 48.33870
# Shear Modulus (GPa) = 23.94670 27.20412 25.57541
#
# Velocity S-wave (km/s) = 3.52218 3.75410 3.63999
# Velocity P-wave (km/s) = 6.41909 6.64918 6.53515
#
# Compressibility (1/GPa) = 0.02100475
#
# Stress axis : x y z
#
# Youngs Moduli (GPa) = 81.07331 71.80307 97.72126
#
# Poissons Ratio (x) = 0.15028 0.23771
# Poissons Ratio (y) = 0.16968 0.31461
# Poissons Ratio (z) = 0.19721 0.23117
#
# Static dielectric constant tensor:
#      x y z
#    x 1.699600 0.000000 0.000000 
#    y 0.000000 1.717840 0.000000 
#    z 0.000000 0.000000 1.725370 
# 
# From -- ./inp_files/14644.got.cif
#   From: 2010.05.17/outbox.cif.g08.bks.cpg/sg54_8_cif.got.tgz:14644.got - 2010.06.03 13:09:01.
