data_PCOD9423910
_publ_section_title
;
Structure prediction by ZEFSAII (Michael W. Deem and Ramdas Pophale) SiO2 
 PCOD9423910
Probable space group: P C C A
;
_chemical_formula_sum "Si O2"
_cell_formula_units_Z 44
_cell_length_a 18.957095
_cell_length_b 5.070321
_cell_length_c 19.243072
_cell_angle_alpha 90.000000
_cell_angle_beta 90.000000
_cell_angle_gamma 90.000000
_cell_volume 1849.616311
_symmetry_space_group_name_H-M "P C C A"
_symmetry_group_IT_number 54
_symmetry_cell_setting 'orthorhombic'
loop_
_space_group_symop_operation_xyz
x,y,z
1/2-x,-y,z
1/2+x,-y,1/2-z
-x,y,1/2-z
-x,-y,-z
1/2+x,y,-z
1/2-x,y,1/2+z
x,-y,1/2+z
loop_
_atom_site_type_symbol
_atom_site_label
_atom_site_fract_x
_atom_site_fract_y
_atom_site_fract_z
Si Si1 0.913735 0.272033 0.359762
Si Si2 0.059461 0.245420 0.440896
Si Si3 0.128698 0.783926 0.078688
Si Si4 0.109228 0.737402 0.362077
Si Si5 0.250000 0.500000 0.876497
Si Si6 0.500000 0.427426 0.250000
Si Si7 0.250000 0.000000 0.980331
O O1 0.862052 0.487940 0.394380
O O2 0.943989 0.388429 0.289281
O O3 0.981846 0.253338 0.409705
O O4 0.884585 0.978242 0.357068
O O5 0.064055 0.215818 0.523430
O O6 0.092525 0.527988 0.422792
O O7 0.104220 0.023189 0.398546
O O8 0.187630 0.923538 0.032772
O O9 0.181753 0.603639 0.332780
O O10 0.045675 0.729888 0.306506
O O11 0.250164 0.251719 0.929450
#
# Coordination Sequence:
#
# PCOD9423910 Si02
#       7
#     8   8   8   8   4   4   4
#     4  11  24  39  65  88 133 170 216 261 334 378
#     4  11  21  39  63  98 127 161 208 279 331 404
#     4  12  22  40  62  99 126 168 206 274 332 404
#     4  11  22  39  67  92 130 171 224 268 334 382
#     4  12  20  42  64  96 124 176 212 274 330 418
#     4  10  26  46  62  94 130 180 222 276 300 396
#     4  12  24  40  66  94 142 156 216 266 350 406
#
# _framework density 23.788719
#
# number of rings (size 3 to 8) (size 9 to 14) (size 15 to 20)
#    0.000    0.727    3.636    5.455    0.000    6.545 
#    0.000    1.818    0.000    0.000    0.000    0.000 
#    0.000    0.000    0.000    0.000    0.000    0.000 
#
# Total GULP energy -245683.198122 kJ/mol
# GULP energy per Si atom -5583.709048 kJ/mol
# Density = 2.373457 g / cm^3
# Si number density = 23.788719 Si / 1000 Ang^3
#
#
#
# Elastic Constant Matrix: (Units=GPa)
#
#
# Indices 1 2 3 4 5 6 
#
# 1 69.9601 30.9092 -0.9144 0.0000 0.0000 0.0000
# 2 30.9092 144.3233 22.0516 0.0000 0.0000 0.0000
# 3 -0.9144 22.0516 70.9212 0.0000 0.0000 0.0000
# 4 0.0000 0.0000 0.0000 16.6681 0.0000 0.0000
# 5 0.0000 0.0000 0.0000 0.0000 31.4872 0.0000
# 6 0.0000 0.0000 0.0000 0.0000 0.0000 30.2036
#
#
#
# Elastic Compliance Matrix: (Units=1/GPa)
#
#
# Indices 1 2 3 4 5 6 
#
# 1 0.015906 -0.003609 0.001327 0.000000 0.000000 0.000000
# 2 -0.003609 0.008093 -0.002563 0.000000 0.000000 0.000000
# 3 0.001327 -0.002563 0.014914 0.000000 0.000000 0.000000
# 4 0.000000 0.000000 0.000000 0.059995 0.000000 0.000000
# 5 0.000000 0.000000 0.000000 0.000000 0.031759 0.000000
# 6 0.000000 0.000000 0.000000 0.000000 0.000000 0.033109
#
#
# Mechanical properties :
#
#
# Convention : Reuss Voigt Hill
#
# Bulk Modulus (GPa) = 34.21908 43.25528 38.73718
# Shear Modulus (GPa) = 27.29148 31.21564 29.25356
#
# Velocity S-wave (km/s) = 3.39077 3.62636 3.51055
# Velocity P-wave (km/s) = 5.45395 5.97968 5.72286
#
# Compressibility (1/GPa) = 0.02922346
#
# Stress axis : x y z
#
# Youngs Moduli (GPa) = 62.86994 123.55602 67.05021
#
# Poissons Ratio (x) = 0.44595 -0.08900
# Poissons Ratio (y) = 0.22692 0.17185
# Poissons Ratio (z) = -0.08345 0.31668
#
# Static dielectric constant tensor:
#      x y z
#    x 2.126190 0.000000 0.000000 
#    y 0.000000 1.894530 0.000000 
#    z 0.000000 0.000000 1.906000 
# 
# From -- ./inp_files/22058.got.cif
#   From: 2010.05.17/outbox.cif.g08.bks.cpg/sg54_12_cif.got.tgz:22058.got - 2010.06.03 13:09:01.
