data_PCOD9423543
_publ_section_title
;
Structure prediction by ZEFSAII (Michael W. Deem and Ramdas Pophale) SiO2 
 PCOD9423543
Probable space group: P C C A
;
_chemical_formula_sum "Si O2"
_cell_formula_units_Z 28
_cell_length_a 15.374012
_cell_length_b 7.288516
_cell_length_c 9.092309
_cell_angle_alpha 90.000000
_cell_angle_beta 90.000000
_cell_angle_gamma 90.000000
_cell_volume 1018.827160
_symmetry_space_group_name_H-M "P C C A"
_symmetry_group_IT_number 54
_symmetry_cell_setting 'orthorhombic'
loop_
_space_group_symop_operation_xyz
x,y,z
1/2-x,-y,z
1/2+x,-y,1/2-z
-x,y,1/2-z
-x,-y,-z
1/2+x,y,-z
1/2-x,y,1/2+z
x,-y,1/2+z
loop_
_atom_site_type_symbol
_atom_site_label
_atom_site_fract_x
_atom_site_fract_y
_atom_site_fract_z
Si Si1 0.648425 0.926746 0.423484
Si Si2 0.611432 0.246406 0.609055
Si Si3 0.580580 0.363424 0.162702
Si Si4 0.750000 0.500000 0.192857
O O1 0.618355 0.860974 0.263477
O O2 0.620220 0.764133 0.535798
O O3 0.750000 0.000000 0.420038
O O4 0.596318 0.100869 0.484566
O O5 0.554290 0.429188 0.612451
O O6 0.706302 0.340908 0.598366
O O7 0.500000 0.285944 0.250000
O O8 0.665134 0.412237 0.266874
#
# Coordination Sequence:
#
# PCOD9423543 Si02
#       4
#     8   8   8   4
#     4  12  22  42  72 101 136 183 231 286 348 416
#     4  10  24  41  71 102 137 182 233 285 348 418
#     4  10  23  45  68 102 143 183 234 287 348 413
#     4   8  20  46  64 100 140 190 218 294 342 420
#
# _framework density 27.482583000000002
#
# number of rings (size 3 to 8) (size 9 to 14) (size 15 to 20)
#    1.714    0.000    2.857    0.857    0.000    8.000 
#    0.000    2.857    0.000    0.000    0.000    0.000 
#    0.000    0.000    0.000    0.000    0.000    0.000 
#
# Total GULP energy -156368.324391 kJ/mol
# GULP energy per Si atom -5584.583014 kJ/mol
# Density = 2.742003 g / cm^3
# Si number density = 27.482583 Si / 1000 Ang^3
#
#
#
# Elastic Constant Matrix: (Units=GPa)
#
#
# Indices 1 2 3 4 5 6 
#
# 1 163.6419 32.1435 84.8479 0.0000 0.0000 0.0000
# 2 32.1435 193.9250 125.4538 0.0000 0.0000 0.0000
# 3 84.8479 125.4538 169.7328 0.0000 0.0000 0.0000
# 4 0.0000 0.0000 0.0000 75.6229 0.0000 0.0000
# 5 0.0000 0.0000 0.0000 0.0000 7.8642 0.0000
# 6 0.0000 0.0000 0.0000 0.0000 0.0000 25.1308
#
#
#
# Elastic Compliance Matrix: (Units=1/GPa)
#
#
# Indices 1 2 3 4 5 6 
#
# 1 0.008929 0.002697 -0.006457 0.000000 0.000000 0.000000
# 2 0.002697 0.010696 -0.009254 0.000000 0.000000 0.000000
# 3 -0.006457 -0.009254 0.015960 0.000000 0.000000 0.000000
# 4 0.000000 0.000000 0.000000 0.013223 0.000000 0.000000
# 5 0.000000 0.000000 0.000000 0.000000 0.127159 0.000000
# 6 0.000000 0.000000 0.000000 0.000000 0.000000 0.039792
#
#
# Mechanical properties :
#
#
# Convention : Reuss Voigt Hill
#
# Bulk Modulus (GPa) = 104.63950 112.46558 108.55254
# Shear Modulus (GPa) = 20.41042 40.71389 30.56215
#
# Velocity S-wave (km/s) = 2.72815 3.85313 3.33837
# Velocity P-wave (km/s) = 6.93406 7.79787 7.37862
#
# Compressibility (1/GPa) = 0.00955662
#
# Stress axis : x y z
#
# Youngs Moduli (GPa) = 111.99279 93.49007 62.65821
#
# Poissons Ratio (x) = -0.25217 0.40460
# Poissons Ratio (y) = -0.30208 0.57986
# Poissons Ratio (z) = 0.72316 0.86518
#
# Static dielectric constant tensor:
#      x y z
#    x 2.033610 0.000000 0.000000 
#    y 0.000000 2.184890 0.000000 
#    z 0.000000 0.000000 2.141430 
# 
# From -- ./inp_files/7862.got.cif
#   From: 2010.05.17/outbox.cif.g08.bks.cpg/sg54_4_cif.got.tgz:7862.got - 2010.06.03 13:09:01.
