data_PCOD9423117
_publ_section_title
;
Structure prediction by ZEFSAII (Michael W. Deem and Ramdas Pophale) SiO2 
 PCOD9423117
Probable space group: P C C A
;
_chemical_formula_sum "Si O2"
_cell_formula_units_Z 60
_cell_length_a 9.599788
_cell_length_b 13.809704
_cell_length_c 22.647919
_cell_angle_alpha 90.000000
_cell_angle_beta 90.000000
_cell_angle_gamma 90.000000
_cell_volume 3002.439848
_symmetry_space_group_name_H-M "P C C A"
_symmetry_group_IT_number 54
_symmetry_cell_setting 'orthorhombic'
loop_
_space_group_symop_operation_xyz
x,y,z
1/2-x,-y,z
1/2+x,-y,1/2-z
-x,y,1/2-z
-x,-y,-z
1/2+x,y,-z
1/2-x,y,1/2+z
x,-y,1/2+z
loop_
_atom_site_type_symbol
_atom_site_label
_atom_site_fract_x
_atom_site_fract_y
_atom_site_fract_z
Si Si1 0.694573 0.211679 0.371328
Si Si2 0.500000 0.992499 0.250000
Si Si3 0.164915 0.598001 0.819774
Si Si4 0.831453 0.600084 0.820084
Si Si5 0.546775 0.115026 0.069182
Si Si6 0.254345 0.121550 0.248394
Si Si7 0.689650 0.204917 0.628925
Si Si8 0.560050 0.900718 0.427955
O O1 0.768867 0.314917 0.361229
O O2 0.552743 0.201000 0.407435
O O3 0.670929 0.176614 0.304130
O O4 0.791806 0.133738 0.404334
O O5 0.380398 0.059655 0.278462
O O6 0.382896 0.927782 0.217404
O O7 0.250000 0.500000 0.829890
O O8 0.188786 0.623935 0.750078
O O9 0.215403 0.681128 0.864587
O O10 0.997868 0.588297 0.827707
O O11 0.750000 0.500000 0.830984
O O12 0.696028 0.141917 0.095286
O O13 0.488007 0.009632 0.088845
O O14 0.556122 0.108180 0.998671
O O15 0.184836 0.174052 0.302744
O O16 0.546342 0.176573 0.599003
#
# Coordination Sequence:
#
# PCOD9423117 Si02
#       8
#     8   4   8   8   8   8   8   8
#     4  12  23  40  67  93 131 165 213 268 317 383
#     4  10  24  34  48  82 136 168 196 238 314 396
#     4  10  22  42  65  96 132 168 207 258 327 400
#     4  10  22  42  65  96 132 168 207 258 327 400
#     4  11  27  42  64  94 126 179 228 259 305 371
#     4  11  24  36  57  94 127 166 202 255 327 385
#     4  12  23  40  67  93 131 165 213 268 317 383
#     4  11  25  46  64  88 128 181 226 263 305 367
#
# _framework density 19.983747000000001
#
# number of rings (size 3 to 8) (size 9 to 14) (size 15 to 20)
#    0.000    1.067    2.667    3.200   13.067    2.133 
#    0.000    0.000    0.000    4.800    0.000    0.000 
#    0.000    0.000    0.000    0.000    0.000    0.000 
#
# Total GULP energy -334478.088357 kJ/mol
# GULP energy per Si atom -5574.634806 kJ/mol
# Density = 1.993826 g / cm^3
# Si number density = 19.983747 Si / 1000 Ang^3
#
#
#
# Elastic Constant Matrix: (Units=GPa)
#
#
# Indices 1 2 3 4 5 6 
#
# 1 66.8888 9.0135 2.2607 0.0000 0.0000 0.0000
# 2 9.0135 89.5340 24.5585 0.0000 0.0000 0.0000
# 3 2.2607 24.5585 71.2451 0.0000 0.0000 0.0000
# 4 0.0000 0.0000 0.0000 28.1891 0.0000 0.0000
# 5 0.0000 0.0000 0.0000 0.0000 20.1076 0.0000
# 6 0.0000 0.0000 0.0000 0.0000 0.0000 29.0022
#
#
#
# Elastic Compliance Matrix: (Units=1/GPa)
#
#
# Indices 1 2 3 4 5 6 
#
# 1 0.015156 -0.001539 0.000050 0.000000 0.000000 0.000000
# 2 -0.001539 0.012492 -0.004257 0.000000 0.000000 0.000000
# 3 0.000050 -0.004257 0.015502 0.000000 0.000000 0.000000
# 4 0.000000 0.000000 0.000000 0.035475 0.000000 0.000000
# 5 0.000000 0.000000 0.000000 0.000000 0.049732 0.000000
# 6 0.000000 0.000000 0.000000 0.000000 0.000000 0.034480
#
#
# Mechanical properties :
#
#
# Convention : Reuss Voigt Hill
#
# Bulk Modulus (GPa) = 31.58966 33.25928 32.42447
# Shear Modulus (GPa) = 27.04428 28.24882 27.64655
#
# Velocity S-wave (km/s) = 3.68273 3.76385 3.72351
# Velocity P-wave (km/s) = 5.82455 5.96390 5.89463
#
# Compressibility (1/GPa) = 0.03165593
#
# Stress axis : x y z
#
# Youngs Moduli (GPa) = 65.98074 80.05379 64.50821
#
# Poissons Ratio (x) = 0.12323 -0.00321
# Poissons Ratio (y) = 0.10157 0.27462
# Poissons Ratio (z) = -0.00328 0.34079
#
# Static dielectric constant tensor:
#      x y z
#    x 1.719850 0.000000 0.000000 
#    y 0.000000 1.789620 0.000000 
#    z 0.000000 0.000000 1.710650 
# 
# From -- ./inp_files/23637.got.cif
#   From: 2010.05.17/outbox.cif.g08.bks.cpg/sg54_12_cif.got.tgz:23637.got - 2010.06.03 13:09:01.
