data_PCOD9423457
_publ_section_title
;
Structure prediction by ZEFSAII (Michael W. Deem and Ramdas Pophale) SiO2 
 PCOD9423457
Probable space group: P C C A
;
_chemical_formula_sum "Si O2"
_cell_formula_units_Z 40
_cell_length_a 24.129356
_cell_length_b 6.918189
_cell_length_c 10.932707
_cell_angle_alpha 90.000000
_cell_angle_beta 90.000000
_cell_angle_gamma 90.000000
_cell_volume 1825.012580
_symmetry_space_group_name_H-M "P C C A"
_symmetry_group_IT_number 54
_symmetry_cell_setting 'orthorhombic'
loop_
_space_group_symop_operation_xyz
x,y,z
1/2-x,-y,z
1/2+x,-y,1/2-z
-x,y,1/2-z
-x,-y,-z
1/2+x,y,-z
1/2-x,y,1/2+z
x,-y,1/2+z
loop_
_atom_site_type_symbol
_atom_site_label
_atom_site_fract_x
_atom_site_fract_y
_atom_site_fract_z
Si Si1 0.880198 0.338178 0.355186
Si Si2 0.127615 0.737177 0.225273
Si Si3 0.687473 0.927842 0.187483
Si Si4 0.807466 0.608786 0.482866
Si Si5 0.965051 0.992723 0.875467
O O1 0.889922 0.514718 0.258817
O O2 0.833296 0.192425 0.305242
O O3 0.814677 0.707698 0.349882
O O4 0.933676 0.211720 0.375173
O O5 0.144040 0.550650 0.527507
O O6 0.144512 0.893186 0.326604
O O7 0.081779 0.840443 0.139570
O O8 0.683400 0.774656 0.079365
O O9 0.750000 0.000000 0.193025
O O10 0.750000 0.500000 0.501254
O O11 0.000000 0.008270 0.750000
O O12 0.000000 0.000000 0.000000
#
# Coordination Sequence:
#
# PCOD9423457 Si02
#       5
#     8   8   8   8   8
#     4   9  24  47  65  95 148 179 234 292 365 433
#     4   9  24  46  67  96 143 180 236 296 355 428
#     4  11  23  38  68  99 137 185 234 285 349 433
#     4  10  23  42  68 103 136 189 230 283 364 436
#     4  11  26  46  77 108 139 192 250 305 369 429
#
# _framework density 21.917657999999999
#
# number of rings (size 3 to 8) (size 9 to 14) (size 15 to 20)
#    1.200    0.800    0.000    1.200    8.400    7.200 
#    0.000    0.000    0.000    0.000    0.000    0.000 
#    0.000    0.000    0.000    0.000    0.000    0.000 
#
# Total GULP energy -222971.716200 kJ/mol
# GULP energy per Si atom -5574.292905 kJ/mol
# Density = 2.186777 g / cm^3
# Si number density = 21.917658 Si / 1000 Ang^3
#
#
#
# Elastic Constant Matrix: (Units=GPa)
#
#
# Indices 1 2 3 4 5 6 
#
# 1 65.2955 53.8599 27.2168 0.0000 0.0000 0.0000
# 2 53.8599 163.7372 35.2394 0.0000 0.0000 0.0000
# 3 27.2168 35.2394 68.4683 0.0000 0.0000 0.0000
# 4 0.0000 0.0000 0.0000 38.1727 0.0000 0.0000
# 5 0.0000 0.0000 0.0000 0.0000 8.3893 0.0000
# 6 0.0000 0.0000 0.0000 0.0000 0.0000 33.9933
#
#
#
# Elastic Compliance Matrix: (Units=1/GPa)
#
#
# Indices 1 2 3 4 5 6 
#
# 1 0.022952 -0.006282 -0.005890 0.000000 0.000000 0.000000
# 2 -0.006282 0.008588 -0.001923 0.000000 0.000000 0.000000
# 3 -0.005890 -0.001923 0.017936 0.000000 0.000000 0.000000
# 4 0.000000 0.000000 0.000000 0.026197 0.000000 0.000000
# 5 0.000000 0.000000 0.000000 0.000000 0.119199 0.000000
# 6 0.000000 0.000000 0.000000 0.000000 0.000000 0.029418
#
#
# Mechanical properties :
#
#
# Convention : Reuss Voigt Hill
#
# Bulk Modulus (GPa) = 46.97994 58.90368 52.94181
# Shear Modulus (GPa) = 19.26224 28.19005 23.72614
#
# Velocity S-wave (km/s) = 2.96775 3.59023 3.29373
# Velocity P-wave (km/s) = 5.76408 6.64226 6.21869
#
# Compressibility (1/GPa) = 0.02128568
#
# Stress axis : x y z
#
# Youngs Moduli (GPa) = 43.56872 116.44676 55.75272
#
# Poissons Ratio (x) = 0.73154 0.32841
# Poissons Ratio (y) = 0.27371 0.10719
# Poissons Ratio (z) = 0.25664 0.22389
#
# Static dielectric constant tensor:
#      x y z
#    x 1.782630 0.000000 0.000000 
#    y 0.000000 1.834240 0.000000 
#    z 0.000000 0.000000 1.887240 
# 
# From -- ./inp_files/10154.got.cif
#   From: 2010.05.17/outbox.cif.g08.bks.cpg/sg54_6_cif.got.tgz:10154.got - 2010.06.03 13:09:01.
