data_PCOD9423009
_publ_section_title
;
Structure prediction by ZEFSAII (Michael W. Deem and Ramdas Pophale) SiO2 
 PCOD9423009
Probable space group: P C C A
;
_chemical_formula_sum "Si O2"
_cell_formula_units_Z 40
_cell_length_a 18.461611
_cell_length_b 4.966516
_cell_length_c 20.216105
_cell_angle_alpha 90.000000
_cell_angle_beta 90.000000
_cell_angle_gamma 90.000000
_cell_volume 1853.612371
_symmetry_space_group_name_H-M "P C C A"
_symmetry_group_IT_number 54
_symmetry_cell_setting 'orthorhombic'
loop_
_space_group_symop_operation_xyz
x,y,z
1/2-x,-y,z
1/2+x,-y,1/2-z
-x,y,1/2-z
-x,-y,-z
1/2+x,y,-z
1/2-x,y,1/2+z
x,-y,1/2+z
loop_
_atom_site_type_symbol
_atom_site_label
_atom_site_fract_x
_atom_site_fract_y
_atom_site_fract_z
Si Si1 0.324430 0.601651 0.941781
Si Si2 0.895008 0.215348 0.163708
Si Si3 0.034744 0.939232 0.134397
Si Si4 0.000000 0.598674 0.250000
Si Si5 0.250000 0.000000 0.837313
Si Si6 0.566032 0.556307 0.450191
O O1 0.250000 0.500000 0.973501
O O2 0.368665 0.374878 0.901501
O O3 0.293749 0.800622 0.885944
O O4 0.373932 0.684345 0.002388
O O5 0.946178 0.404993 0.208558
O O6 0.818318 0.139226 0.198459
O O7 0.946363 0.969979 0.138621
O O8 0.047905 0.801149 0.205066
O O9 0.071877 0.735322 0.083379
O O10 0.054783 0.235807 0.109958
O O11 0.500000 0.500000 0.500000
#
# Coordination Sequence:
#
# PCOD9423009 Si02
#       6
#     8   8   8   4   4   8
#     4  10  23  40  66 104 140 178 226 288 355 422
#     4  11  22  42  67 104 135 182 231 290 345 405
#     4  12  25  40  68 101 136 176 228 286 341 399
#     4  12  24  44  64 104 138 184 242 286 332 412
#     4  10  22  40  68 102 140 180 226 288 354 412
#     4  12  23  39  67 104 137 172 222 286 356 412
#
# _framework density 21.579484999999998
#
# number of rings (size 3 to 8) (size 9 to 14) (size 15 to 20)
#    0.000    0.800    4.000    3.600    5.600    0.000 
#    0.000    0.000    0.000    9.600    5.200    0.000 
#    0.000    0.000    0.000    0.000    0.000    0.000 
#
# Total GULP energy -222783.965013 kJ/mol
# GULP energy per Si atom -5569.599125 kJ/mol
# Density = 2.153037 g / cm^3
# Si number density = 21.579485 Si / 1000 Ang^3
#
#
#
# Elastic Constant Matrix: (Units=GPa)
#
#
# Indices 1 2 3 4 5 6 
#
# 1 112.5073 24.8302 32.7152 0.0000 0.0000 0.0000
# 2 24.8302 99.1585 15.0410 0.0000 0.0000 0.0000
# 3 32.7152 15.0410 69.1857 0.0000 0.0000 0.0000
# 4 0.0000 0.0000 0.0000 26.4897 0.0000 0.0000
# 5 0.0000 0.0000 0.0000 0.0000 27.7504 0.0000
# 6 0.0000 0.0000 0.0000 0.0000 0.0000 35.6224
#
#
#
# Elastic Compliance Matrix: (Units=1/GPa)
#
#
# Indices 1 2 3 4 5 6 
#
# 1 0.010665 -0.001971 -0.004615 0.000000 0.000000 0.000000
# 2 -0.001971 0.010793 -0.001415 0.000000 0.000000 0.000000
# 3 -0.004615 -0.001415 0.016943 0.000000 0.000000 0.000000
# 4 0.000000 0.000000 0.000000 0.037751 0.000000 0.000000
# 5 0.000000 0.000000 0.000000 0.000000 0.036035 0.000000
# 6 0.000000 0.000000 0.000000 0.000000 0.000000 0.028072
#
#
# Mechanical properties :
#
#
# Convention : Reuss Voigt Hill
#
# Bulk Modulus (GPa) = 44.63943 47.33605 45.98774
# Shear Modulus (GPa) = 30.53869 31.85684 31.19777
#
# Velocity S-wave (km/s) = 3.76596 3.84638 3.80638
# Velocity P-wave (km/s) = 6.29610 6.45828 6.37771
#
# Compressibility (1/GPa) = 0.02240172
#
# Stress axis : x y z
#
# Youngs Moduli (GPa) = 93.76371 92.65354 59.01970
#
# Poissons Ratio (x) = 0.18259 0.27236
# Poissons Ratio (y) = 0.18478 0.08349
# Poissons Ratio (z) = 0.43269 0.13106
#
# Static dielectric constant tensor:
#      x y z
#    x 1.787540 0.000000 0.000000 
#    y 0.000000 1.858820 0.000000 
#    z 0.000000 0.000000 1.803890 
# 
# From -- ./inp_files/21801.got.cif
#   From: 2010.05.17/outbox.cif.g08.bks.cpg/sg54_11_cif.got.tgz:21801.got - 2010.06.03 13:09:01.
