data_PCOD9423419
_publ_section_title
;
Structure prediction by ZEFSAII (Michael W. Deem and Ramdas Pophale) SiO2 
 PCOD9423419
Probable space group: P C C A
;
_chemical_formula_sum "Si O2"
_cell_formula_units_Z 64
_cell_length_a 11.944907
_cell_length_b 12.807362
_cell_length_c 18.072183
_cell_angle_alpha 90.000000
_cell_angle_beta 90.000000
_cell_angle_gamma 90.000000
_cell_volume 2764.732218
_symmetry_space_group_name_H-M "P C C A"
_symmetry_group_IT_number 54
_symmetry_cell_setting 'orthorhombic'
loop_
_space_group_symop_operation_xyz
x,y,z
1/2-x,-y,z
1/2+x,-y,1/2-z
-x,y,1/2-z
-x,-y,-z
1/2+x,y,-z
1/2-x,y,1/2+z
x,-y,1/2+z
loop_
_atom_site_type_symbol
_atom_site_label
_atom_site_fract_x
_atom_site_fract_y
_atom_site_fract_z
Si Si1 0.186830 0.609510 0.821600
Si Si2 0.781479 0.814223 0.108133
Si Si3 0.668310 0.096922 0.957616
Si Si4 0.287001 0.617710 0.156878
Si Si5 0.377698 0.951671 0.765718
Si Si6 0.937711 0.164241 0.028887
Si Si7 0.840099 0.810856 0.368871
Si Si8 0.003165 0.598791 0.557046
O O1 0.250000 0.500000 0.818559
O O2 0.264842 0.699757 0.857929
O O3 0.163121 0.647235 0.737539
O O4 0.080027 0.585974 0.872887
O O5 0.857844 0.890531 0.156747
O O6 0.654454 0.853446 0.093277
O O7 0.822958 0.819083 0.023904
O O8 0.537135 0.086219 0.951318
O O9 0.714610 0.144848 0.882272
O O10 0.750000 0.000000 0.976332
O O11 0.250000 0.500000 0.163363
O O12 0.179447 0.688871 0.139761
O O13 0.374473 0.618207 0.090418
O O14 0.500000 0.008555 0.750000
O O15 0.387418 0.862738 0.703080
O O16 0.250000 0.000000 0.754953
O O17 0.965072 0.287892 0.028020
O O18 0.898992 0.152700 0.943971
O O19 0.000000 0.500000 0.500000
#
# Coordination Sequence:
#
# PCOD9423419 Si02
#       8
#     8   8   8   8   8   8   8   8
#     4  10  23  42  66  99 143 190 238 297 372 442
#     4  10  23  43  69  99 143 184 241 301 364 443
#     4  11  23  41  66  98 139 187 240 301 374 441
#     4  11  22  43  66 100 142 186 241 298 368 447
#     4  12  27  49  73 108 142 192 250 313 380 451
#     4  10  23  41  67 103 137 187 234 302 372 438
#     4  11  23  43  68  99 142 183 239 304 368 444
#     4  11  23  39  67 102 137 188 243 302 368 444
#
# _framework density 23.148716
#
# number of rings (size 3 to 8) (size 9 to 14) (size 15 to 20)
#    0.000    1.250    2.500    2.625    1.750    5.500 
#    2.250    0.000    0.000    2.250    0.000    0.000 
#    0.000    0.000    0.000    0.000    0.000    0.000 
#
# Total GULP energy -356767.971351 kJ/mol
# GULP energy per Si atom -5574.499552 kJ/mol
# Density = 2.309603 g / cm^3
# Si number density = 23.148716 Si / 1000 Ang^3
#
#
#
# Elastic Constant Matrix: (Units=GPa)
#
#
# Indices 1 2 3 4 5 6 
#
# 1 106.1672 20.4906 15.9451 0.0000 0.0000 0.0000
# 2 20.4906 83.9653 17.8665 0.0000 0.0000 0.0000
# 3 15.9451 17.8665 99.8840 0.0000 0.0000 0.0000
# 4 0.0000 0.0000 0.0000 22.1449 0.0000 0.0000
# 5 0.0000 0.0000 0.0000 0.0000 15.4773 0.0000
# 6 0.0000 0.0000 0.0000 0.0000 0.0000 36.3189
#
#
#
# Elastic Compliance Matrix: (Units=1/GPa)
#
#
# Indices 1 2 3 4 5 6 
#
# 1 0.010023 -0.002189 -0.001209 0.000000 0.000000 0.000000
# 2 -0.002189 0.012859 -0.001951 0.000000 0.000000 0.000000
# 3 -0.001209 -0.001951 0.010553 0.000000 0.000000 0.000000
# 4 0.000000 0.000000 0.000000 0.045157 0.000000 0.000000
# 5 0.000000 0.000000 0.000000 0.000000 0.064611 0.000000
# 6 0.000000 0.000000 0.000000 0.000000 0.000000 0.027534
#
#
# Mechanical properties :
#
#
# Convention : Reuss Voigt Hill
#
# Bulk Modulus (GPa) = 43.97666 44.29122 44.13394
# Shear Modulus (GPa) = 26.45320 30.50251 28.47786
#
# Velocity S-wave (km/s) = 3.38413 3.63392 3.51124
# Velocity P-wave (km/s) = 5.85734 6.06482 5.96198
#
# Compressibility (1/GPa) = 0.02273934
#
# Stress axis : x y z
#
# Youngs Moduli (GPa) = 99.76991 77.76707 94.75560
#
# Poissons Ratio (x) = 0.17022 0.11451
# Poissons Ratio (y) = 0.21838 0.18484
# Poissons Ratio (z) = 0.12057 0.15170
#
# Static dielectric constant tensor:
#      x y z
#    x 2.049490 0.000000 0.000000 
#    y 0.000000 1.901410 0.000000 
#    z 0.000000 0.000000 1.860410 
# 
# From -- ./inp_files/17457.got.cif
#   From: 2010.05.17/outbox.cif.g08.bks.cpg/sg54_9_cif.got.tgz:17457.got - 2010.06.03 13:09:01.
