data_PCOD9423087
_publ_section_title
;
Structure prediction by ZEFSAII (Michael W. Deem and Ramdas Pophale) SiO2 
 PCOD9423087
Probable space group: P C C A
;
_chemical_formula_sum "Si O2"
_cell_formula_units_Z 60
_cell_length_a 7.377196
_cell_length_b 12.996968
_cell_length_c 23.430309
_cell_angle_alpha 90.000000
_cell_angle_beta 90.000000
_cell_angle_gamma 90.000000
_cell_volume 2246.525683
_symmetry_space_group_name_H-M "P C C A"
_symmetry_group_IT_number 54
_symmetry_cell_setting 'orthorhombic'
loop_
_space_group_symop_operation_xyz
x,y,z
1/2-x,-y,z
1/2+x,-y,1/2-z
-x,y,1/2-z
-x,-y,-z
1/2+x,y,-z
1/2-x,y,1/2+z
x,-y,1/2+z
loop_
_atom_site_type_symbol
_atom_site_label
_atom_site_fract_x
_atom_site_fract_y
_atom_site_fract_z
Si Si1 0.494291 0.155476 0.161067
Si Si2 0.020970 0.820129 0.931733
Si Si3 0.057130 0.060424 0.310798
Si Si4 0.711774 0.326037 0.684229
Si Si5 0.635020 0.412283 0.569593
Si Si6 0.275273 0.668936 0.190374
Si Si7 0.848800 0.107125 0.952478
Si Si8 0.750000 0.500000 0.398125
O O1 0.671521 0.220301 0.180160
O O2 0.328840 0.226042 0.180330
O O3 0.503471 0.135888 0.092863
O O4 0.441927 0.044417 0.185085
O O5 0.806778 0.808375 0.942015
O O6 0.042585 0.875079 0.869950
O O7 0.110276 0.708978 0.944331
O O8 0.089528 0.892947 0.982568
O O9 0.991702 0.318236 0.317029
O O10 0.250000 0.000000 0.310062
O O11 0.745553 0.394905 0.629220
O O12 0.759570 0.369945 0.745770
O O13 0.750000 0.500000 0.537481
O O14 0.433036 0.458286 0.573534
O O15 0.195877 0.592185 0.144196
O O16 0.000000 0.110907 0.250000
O O17 0.750000 0.000000 0.938430
#
# Coordination Sequence:
#
# PCOD9423087 Si02
#       8
#     8   8   8   8   8   8   8   4
#     4  12  25  47  75 111 156 212 260 320 399 475
#     4  12  29  54  81 119 156 213 273 338 399 487
#     4  12  29  50  77 118 168 211 261 325 408 490
#     4  10  22  41  71 112 153 209 269 324 393 476
#     4  11  25  48  78 109 151 200 267 338 406 476
#     4  10  22  43  71 109 158 209 268 334 391 474
#     4  12  27  51  86 114 159 211 274 328 398 481
#     4  10  22  44  70 106 154 200 262 338 402 474
#
# _framework density 26.707908
#
# number of rings (size 3 to 8) (size 9 to 14) (size 15 to 20)
#    0.000    0.800    1.333    5.200    6.533    0.000 
#   16.800    0.667    1.467    0.000    0.000    0.000 
#    0.000    0.000    0.000    0.000    0.000    0.000 
#
# Total GULP energy -335634.904476 kJ/mol
# GULP energy per Si atom -5593.915075 kJ/mol
# Density = 2.664712 g / cm^3
# Si number density = 26.707908 Si / 1000 Ang^3
#
#
#
# Elastic Constant Matrix: (Units=GPa)
#
#
# Indices 1 2 3 4 5 6 
#
# 1 101.5772 21.4797 40.8898 0.0000 0.0000 0.0000
# 2 21.4797 143.8671 25.8989 0.0000 0.0000 0.0000
# 3 40.8898 25.8989 166.6854 0.0000 0.0000 0.0000
# 4 0.0000 0.0000 0.0000 10.0907 0.0000 0.0000
# 5 0.0000 0.0000 0.0000 0.0000 8.2964 0.0000
# 6 0.0000 0.0000 0.0000 0.0000 0.0000 46.2393
#
#
#
# Elastic Compliance Matrix: (Units=1/GPa)
#
#
# Indices 1 2 3 4 5 6 
#
# 1 0.011122 -0.001203 -0.002541 0.000000 0.000000 0.000000
# 2 -0.001203 0.007281 -0.000836 0.000000 0.000000 0.000000
# 3 -0.002541 -0.000836 0.006753 0.000000 0.000000 0.000000
# 4 0.000000 0.000000 0.000000 0.099101 0.000000 0.000000
# 5 0.000000 0.000000 0.000000 0.000000 0.120534 0.000000
# 6 0.000000 0.000000 0.000000 0.000000 0.000000 0.021627
#
#
# Mechanical properties :
#
#
# Convention : Reuss Voigt Hill
#
# Bulk Modulus (GPa) = 62.52151 65.40741 63.96446
# Shear Modulus (GPa) = 17.79925 34.51604 26.15764
#
# Velocity S-wave (km/s) = 2.58435 3.59883 3.13293
# Velocity P-wave (km/s) = 5.68906 6.46621 6.09004
#
# Compressibility (1/GPa) = 0.01599450
#
# Stress axis : x y z
#
# Youngs Moduli (GPa) = 89.91031 137.34368 148.08889
#
# Poissons Ratio (x) = 0.16523 0.37636
# Poissons Ratio (y) = 0.10817 0.12383
# Poissons Ratio (z) = 0.22850 0.11484
#
# Static dielectric constant tensor:
#      x y z
#    x 2.213570 0.000000 0.000000 
#    y 0.000000 2.338850 0.000000 
#    z 0.000000 0.000000 2.148250 
# 
# From -- ./inp_files/25954.got.cif
#   From: 2010.05.17/outbox.cif.g08.bks.cpg/sg54_13_cif.got.tgz:25954.got - 2010.06.03 13:09:01.
