data_PCOD9423421
_publ_section_title
;
Structure prediction by ZEFSAII (Michael W. Deem and Ramdas Pophale) SiO2 
 PCOD9423421
Probable space group: P C C A
;
_chemical_formula_sum "Si O2"
_cell_formula_units_Z 60
_cell_length_a 9.743639
_cell_length_b 10.190809
_cell_length_c 28.317218
_cell_angle_alpha 90.000000
_cell_angle_beta 90.000000
_cell_angle_gamma 90.000000
_cell_volume 2811.774133
_symmetry_space_group_name_H-M "P C C A"
_symmetry_group_IT_number 54
_symmetry_cell_setting 'orthorhombic'
loop_
_space_group_symop_operation_xyz
x,y,z
1/2-x,-y,z
1/2+x,-y,1/2-z
-x,y,1/2-z
-x,-y,-z
1/2+x,y,-z
1/2-x,y,1/2+z
x,-y,1/2+z
loop_
_atom_site_type_symbol
_atom_site_label
_atom_site_fract_x
_atom_site_fract_y
_atom_site_fract_z
Si Si1 0.283966 0.345571 0.364522
Si Si2 0.597106 0.701008 0.445334
Si Si3 0.876405 0.094706 0.369491
Si Si4 0.750000 0.500000 0.872689
Si Si5 0.542817 0.360457 0.298948
Si Si6 0.719915 0.349694 0.529694
Si Si7 0.731700 0.156736 0.779279
Si Si8 0.364385 0.111400 0.820472
O O1 0.250000 0.500000 0.358055
O O2 0.412117 0.318761 0.330248
O O3 0.297573 0.324688 0.420615
O O4 0.167467 0.241543 0.350320
O O5 0.579934 0.834322 0.416366
O O6 0.665123 0.596089 0.408632
O O7 0.705841 0.725190 0.487316
O O8 0.444469 0.663579 0.463581
O O9 0.832828 0.199180 0.328981
O O10 0.005233 0.036259 0.341811
O O11 0.750000 0.000000 0.379355
O O12 0.861140 0.436229 0.836578
O O13 0.500000 0.434891 0.250000
O O14 0.629373 0.238344 0.277728
O O15 0.750000 0.500000 0.517491
O O16 0.640804 0.166349 0.732766
O O17 0.750000 0.000000 0.784048
O O18 0.250000 0.000000 0.822541
#
# Coordination Sequence:
#
# PCOD9423421 Si02
#       8
#     8   8   8   4   8   8   8   8
#     4  11  25  44  71 104 148 185 238 302 365 430
#     4  12  25  46  71 107 136 186 236 300 363 428
#     4  11  25  46  68 100 142 182 237 300 361 421
#     4  12  26  44  68 102 148 186 234 284 362 438
#     4  12  26  42  67 104 147 194 236 285 367 430
#     4  11  24  44  74 105 139 183 241 298 357 434
#     4  10  23  41  67  97 135 183 242 290 334 419
#     4  11  24  44  72 102 139 193 247 289 351 433
#
# _framework density 21.338840999999999
#
# number of rings (size 3 to 8) (size 9 to 14) (size 15 to 20)
#    0.000    0.800    4.667    2.400    6.533    0.000 
#    0.000    1.333    0.000    0.000    0.000    0.000 
#    0.000    0.000    0.000    0.000    0.000    0.000 
#
# Total GULP energy -334485.135471 kJ/mol
# GULP energy per Si atom -5574.752258 kJ/mol
# Density = 2.129027 g / cm^3
# Si number density = 21.338841 Si / 1000 Ang^3
#
#
#
# Elastic Constant Matrix: (Units=GPa)
#
#
# Indices 1 2 3 4 5 6 
#
# 1 160.6693 31.4078 59.0940 0.0000 0.0000 0.0000
# 2 31.4078 52.0895 29.9360 0.0000 0.0000 0.0000
# 3 59.0940 29.9360 138.6385 0.0000 0.0000 0.0000
# 4 0.0000 0.0000 0.0000 13.4277 0.0000 0.0000
# 5 0.0000 0.0000 0.0000 0.0000 35.5895 0.0000
# 6 0.0000 0.0000 0.0000 0.0000 0.0000 26.5133
#
#
#
# Elastic Compliance Matrix: (Units=1/GPa)
#
#
# Indices 1 2 3 4 5 6 
#
# 1 0.007821 -0.003197 -0.002643 0.000000 0.000000 0.000000
# 2 -0.003197 0.023224 -0.003652 0.000000 0.000000 0.000000
# 3 -0.002643 -0.003652 0.009128 0.000000 0.000000 0.000000
# 4 0.000000 0.000000 0.000000 0.074473 0.000000 0.000000
# 5 0.000000 0.000000 0.000000 0.000000 0.028098 0.000000
# 6 0.000000 0.000000 0.000000 0.000000 0.000000 0.037717
#
#
# Mechanical properties :
#
#
# Convention : Reuss Voigt Hill
#
# Bulk Modulus (GPa) = 47.19426 65.80808 56.50117
# Shear Modulus (GPa) = 24.21201 30.50340 27.35771
#
# Velocity S-wave (km/s) = 3.37210 3.78495 3.58447
# Velocity P-wave (km/s) = 6.10951 7.07161 6.60809
#
# Compressibility (1/GPa) = 0.02118902
#
# Stress axis : x y z
#
# Youngs Moduli (GPa) = 127.85927 43.05884 109.54840
#
# Poissons Ratio (x) = 0.13764 0.28959
# Poissons Ratio (y) = 0.40871 0.40009
# Poissons Ratio (z) = 0.33799 0.15726
#
# Static dielectric constant tensor:
#      x y z
#    x 1.893610 0.000000 0.000000 
#    y 0.000000 1.759890 0.000000 
#    z 0.000000 0.000000 1.852900 
# 
# From -- ./inp_files/25950.got.cif
#   From: 2010.05.17/outbox.cif.g08.bks.cpg/sg54_13_cif.got.tgz:25950.got - 2010.06.03 13:09:01.
