data_PCOD9423228
_publ_section_title
;
Structure prediction by ZEFSAII (Michael W. Deem and Ramdas Pophale) SiO2 
 PCOD9423228
Probable space group: P C C A
;
_chemical_formula_sum "Si O2"
_cell_formula_units_Z 40
_cell_length_a 7.207554
_cell_length_b 12.096270
_cell_length_c 17.569552
_cell_angle_alpha 90.000000
_cell_angle_beta 90.000000
_cell_angle_gamma 90.000000
_cell_volume 1531.792944
_symmetry_space_group_name_H-M "P C C A"
_symmetry_group_IT_number 54
_symmetry_cell_setting 'orthorhombic'
loop_
_space_group_symop_operation_xyz
x,y,z
1/2-x,-y,z
1/2+x,-y,1/2-z
-x,y,1/2-z
-x,-y,-z
1/2+x,y,-z
1/2-x,y,1/2+z
x,-y,1/2+z
loop_
_atom_site_type_symbol
_atom_site_label
_atom_site_fract_x
_atom_site_fract_y
_atom_site_fract_z
Si Si1 0.723435 0.275305 0.831455
Si Si2 0.430700 0.172651 0.400927
Si Si3 0.549973 0.962280 0.334054
Si Si4 0.250000 0.500000 0.885728
Si Si5 0.500000 0.455163 0.750000
Si Si6 0.426552 0.286534 0.946265
O O1 0.933576 0.234119 0.840247
O O2 0.597747 0.165926 0.820602
O O3 0.668426 0.371498 0.773264
O O4 0.626586 0.314511 0.909762
O O5 0.520107 0.216691 0.479463
O O6 0.218300 0.210308 0.398854
O O7 0.433191 0.041399 0.389112
O O8 0.500000 0.004929 0.250000
O O9 0.750000 0.000000 0.362199
O O10 0.424619 0.514430 0.826465
O O11 0.311530 0.400187 0.939998
#
# Coordination Sequence:
#
# PCOD9423228 Si02
#       6
#     8   8   8   4   4   8
#     4  10  22  44  65  95 134 170 216 286 333 401
#     4  11  24  42  68  96 133 179 225 268 336 412
#     4  10  23  40  65  98 129 173 219 275 345 407
#     4  10  26  42  68 102 130 180 230 282 340 390
#     4  10  22  44  68  96 134 168 228 288 338 392
#     4  11  24  45  64  94 136 177 227 278 330 395
#
# _framework density 26.113189999999999
#
# number of rings (size 3 to 8) (size 9 to 14) (size 15 to 20)
#    0.000    1.600    3.000    0.000    5.600    3.200 
#    3.600    0.000    0.000    0.000    0.000    0.000 
#    0.000    0.000    0.000    0.000    0.000    0.000 
#
# Total GULP energy -222807.757960 kJ/mol
# GULP energy per Si atom -5570.193949 kJ/mol
# Density = 2.605375 g / cm^3
# Si number density = 26.113190 Si / 1000 Ang^3
#
#
#
# Elastic Constant Matrix: (Units=GPa)
#
#
# Indices 1 2 3 4 5 6 
#
# 1 101.5044 -24.0110 6.3612 0.0000 0.0000 0.0000
# 2 -24.0110 101.8718 28.2696 0.0000 0.0000 0.0000
# 3 6.3612 28.2696 87.2906 0.0000 0.0000 0.0000
# 4 0.0000 0.0000 0.0000 38.4595 0.0000 0.0000
# 5 0.0000 0.0000 0.0000 0.0000 18.3637 0.0000
# 6 0.0000 0.0000 0.0000 0.0000 0.0000 31.7474
#
#
#
# Elastic Compliance Matrix: (Units=1/GPa)
#
#
# Indices 1 2 3 4 5 6 
#
# 1 0.010671 0.003001 -0.001749 0.000000 0.000000 0.000000
# 2 0.003001 0.011629 -0.003985 0.000000 0.000000 0.000000
# 3 -0.001749 -0.003985 0.012874 0.000000 0.000000 0.000000
# 4 0.000000 0.000000 0.000000 0.026001 0.000000 0.000000
# 5 0.000000 0.000000 0.000000 0.000000 0.054455 0.000000
# 6 0.000000 0.000000 0.000000 0.000000 0.000000 0.031499
#
#
# Mechanical properties :
#
#
# Convention : Reuss Voigt Hill
#
# Bulk Modulus (GPa) = 33.66185 34.65628 34.15907
# Shear Modulus (GPa) = 30.76931 36.38392 33.57661
#
# Velocity S-wave (km/s) = 3.43637 3.73676 3.58971
# Velocity P-wave (km/s) = 5.35384 5.64962 5.50372
#
# Compressibility (1/GPa) = 0.02970722
#
# Stress axis : x y z
#
# Youngs Moduli (GPa) = 93.70983 85.98953 77.67589
#
# Poissons Ratio (x) = -0.25803 0.13589
# Poissons Ratio (y) = -0.28119 0.30953
# Poissons Ratio (z) = 0.16394 0.34266
#
# Static dielectric constant tensor:
#      x y z
#    x 2.171940 0.000000 0.000000 
#    y 0.000000 2.382540 0.000000 
#    z 0.000000 0.000000 2.129210 
# 
# From -- ./inp_files/16386.got.cif
#   From: 2010.05.17/outbox.cif.g08.bks.cpg/sg54_9_cif.got.tgz:16386.got - 2010.06.03 13:09:01.
