data_PCOD9423095
_publ_section_title
;
Structure prediction by ZEFSAII (Michael W. Deem and Ramdas Pophale) SiO2 
 PCOD9423095
Probable space group: P C C A
;
_chemical_formula_sum "Si O2"
_cell_formula_units_Z 48
_cell_length_a 11.517357
_cell_length_b 11.579045
_cell_length_c 16.524253
_cell_angle_alpha 90.000000
_cell_angle_beta 90.000000
_cell_angle_gamma 90.000000
_cell_volume 2203.674297
_symmetry_space_group_name_H-M "P C C A"
_symmetry_group_IT_number 54
_symmetry_cell_setting 'orthorhombic'
loop_
_space_group_symop_operation_xyz
x,y,z
1/2-x,-y,z
1/2+x,-y,1/2-z
-x,y,1/2-z
-x,-y,-z
1/2+x,y,-z
1/2-x,y,1/2+z
x,-y,1/2+z
loop_
_atom_site_type_symbol
_atom_site_label
_atom_site_fract_x
_atom_site_fract_y
_atom_site_fract_z
Si Si1 0.218020 0.775312 0.293332
Si Si2 0.971698 0.262045 0.448329
Si Si3 0.775733 0.242967 0.880564
Si Si4 0.670111 0.111897 0.548000
Si Si5 0.981791 0.342610 0.629865
Si Si6 0.407546 0.596467 0.319227
O O1 0.225958 0.827336 0.203666
O O2 0.279338 0.843407 0.366077
O O3 0.085948 0.753245 0.318635
O O4 0.286213 0.651424 0.290604
O O5 0.855100 0.279659 0.397863
O O6 0.950451 0.309951 0.537764
O O7 0.029341 0.133197 0.445673
O O8 0.066211 0.340835 0.404076
O O9 0.878755 0.335557 0.865232
O O10 0.808525 0.182316 0.964867
O O11 0.750000 0.000000 0.534421
O O12 0.931183 0.463478 0.660178
O O13 0.500000 0.629284 0.250000
#
# Coordination Sequence:
#
# PCOD9423095 Si02
#       6
#     8   8   8   8   8   8
#     4  11  22  41  66  90 133 167 216 279 332 388
#     4  10  22  42  62  92 130 172 214 270 329 390
#     4  11  22  42  65  91 134 172 213 276 331 397
#     4  10  24  43  68  94 122 167 222 277 334 397
#     4  11  23  39  61  95 132 174 219 264 325 396
#     4  11  21  37  62  93 128 176 221 263 323 400
#
# _framework density 21.781803
#
# number of rings (size 3 to 8) (size 9 to 14) (size 15 to 20)
#    0.000    1.333    3.333    2.500    0.000    2.000 
#    3.000    0.000    3.667    0.000    0.000    0.000 
#    0.000    0.000    0.000    0.000    0.000    0.000 
#
# Total GULP energy -267236.639612 kJ/mol
# GULP energy per Si atom -5567.429992 kJ/mol
# Density = 2.173223 g / cm^3
# Si number density = 21.781803 Si / 1000 Ang^3
#
#
#
# Elastic Constant Matrix: (Units=GPa)
#
#
# Indices 1 2 3 4 5 6 
#
# 1 109.2179 7.7048 13.8550 0.0000 0.0000 0.0000
# 2 7.7048 28.5565 -2.3728 0.0000 0.0000 0.0000
# 3 13.8550 -2.3728 171.4260 0.0000 0.0000 0.0000
# 4 0.0000 0.0000 0.0000 -8.1008 0.0000 0.0000
# 5 0.0000 0.0000 0.0000 0.0000 36.9654 0.0000
# 6 0.0000 0.0000 0.0000 0.0000 0.0000 -8.8623
#
#
#
# Elastic Compliance Matrix: (Units=1/GPa)
#
#
# Indices 1 2 3 4 5 6 
#
# 1 0.009442 -0.002614 -0.000799 0.000000 0.000000 0.000000
# 2 -0.002614 0.035782 0.000707 0.000000 0.000000 0.000000
# 3 -0.000799 0.000707 0.005908 0.000000 0.000000 0.000000
# 4 0.000000 0.000000 0.000000 -0.123445 0.000000 0.000000
# 5 0.000000 0.000000 0.000000 0.000000 0.027052 0.000000
# 6 0.000000 0.000000 0.000000 0.000000 0.000000 -0.112837
#
#
# Mechanical properties :
#
#
# Convention : Reuss Voigt Hill
#
# Bulk Modulus (GPa) = 21.87297 38.61938 30.24618
# Shear Modulus (GPa) = -36.37814 23.33468 -6.52173
#
# Velocity S-wave (km/s) = -4.09114 3.27661 -1.73223
# Velocity P-wave (km/s) = 3.50041 5.66423 3.14886
#
# Compressibility (1/GPa) = 0.04571853
#
# Stress axis : x y z
#
# Youngs Moduli (GPa) = 105.91198 27.94684 169.26774
#
# Poissons Ratio (x) = 0.07305 0.13529
# Poissons Ratio (y) = 0.27684 -0.11959
# Poissons Ratio (z) = 0.08465 -0.01975
#
# Static dielectric constant tensor:
#      x y z
#    x 1.878700 0.000000 0.000000 
#    y 0.000000 1.853260 0.000000 
#    z 0.000000 0.000000 1.805470 
# 
# From -- ./inp_files/17305.got.cif
#   From: 2010.05.17/outbox.cif.g08.bks.cpg/sg54_9_cif.got.tgz:17305.got - 2010.06.03 13:09:01.
