data_PCOD9423164
_publ_section_title
;
Structure prediction by ZEFSAII (Michael W. Deem and Ramdas Pophale) SiO2 
 PCOD9423164
Probable space group: P C C A
;
_chemical_formula_sum "Si O2"
_cell_formula_units_Z 32
_cell_length_a 15.179075
_cell_length_b 5.237675
_cell_length_c 17.793568
_cell_angle_alpha 90.000000
_cell_angle_beta 90.000000
_cell_angle_gamma 90.000000
_cell_volume 1414.643134
_symmetry_space_group_name_H-M "P C C A"
_symmetry_group_IT_number 54
_symmetry_cell_setting 'orthorhombic'
loop_
_space_group_symop_operation_xyz
x,y,z
1/2-x,-y,z
1/2+x,-y,1/2-z
-x,y,1/2-z
-x,-y,-z
1/2+x,y,-z
1/2-x,y,1/2+z
x,-y,1/2+z
loop_
_atom_site_type_symbol
_atom_site_label
_atom_site_fract_x
_atom_site_fract_y
_atom_site_fract_z
Si Si1 0.494308 0.525168 0.590699
Si Si2 0.250000 0.000000 0.980095
Si Si3 0.888480 0.976559 0.890680
Si Si4 0.176372 0.673301 0.849043
Si Si5 0.750000 0.000000 0.770020
O O1 0.500000 0.500000 0.500000
O O2 0.465241 0.815732 0.603480
O O3 0.586897 0.462798 0.629971
O O4 0.427395 0.307083 0.622484
O O5 0.220902 0.774035 0.925255
O O6 0.166317 0.052571 0.032173
O O7 0.819656 0.102975 0.832121
O O8 0.250000 0.500000 0.809792
O O9 0.175957 0.897767 0.788811
#
# Coordination Sequence:
#
# PCOD9423164 Si02
#       5
#     8   4   8   8   4
#     4  12  25  45  76 109 138 178 246 304 358 411
#     4  10  22  42  72 102 140 184 234 292 356 416
#     4  11  26  46  73 104 141 187 237 297 353 438
#     4  11  25  44  70 101 145 188 234 294 356 428
#     4  10  28  48  66 102 148 198 236 280 380 436
#
# _framework density 22.620543999999999
#
# number of rings (size 3 to 8) (size 9 to 14) (size 15 to 20)
#    0.000    1.000    2.500    2.250   10.500    3.000 
#    0.000    0.000    0.000    0.000    0.000    0.000 
#    0.000    0.000    0.000    0.000    0.000    0.000 
#
# Total GULP energy -178277.693108 kJ/mol
# GULP energy per Si atom -5571.177910 kJ/mol
# Density = 2.256906 g / cm^3
# Si number density = 22.620544 Si / 1000 Ang^3
#
#
#
# Elastic Constant Matrix: (Units=GPa)
#
#
# Indices 1 2 3 4 5 6 
#
# 1 81.0774 14.2879 16.7845 0.0000 0.0000 0.0000
# 2 14.2879 55.1469 -1.2439 0.0000 0.0000 0.0000
# 3 16.7845 -1.2439 84.5951 0.0000 0.0000 0.0000
# 4 0.0000 0.0000 0.0000 7.9094 0.0000 0.0000
# 5 0.0000 0.0000 0.0000 0.0000 22.8633 0.0000
# 6 0.0000 0.0000 0.0000 0.0000 0.0000 18.8146
#
#
#
# Elastic Compliance Matrix: (Units=1/GPa)
#
#
# Indices 1 2 3 4 5 6 
#
# 1 0.013529 -0.003567 -0.002737 0.000000 0.000000 0.000000
# 2 -0.003567 0.019080 0.000988 0.000000 0.000000 0.000000
# 3 -0.002737 0.000988 0.012379 0.000000 0.000000 0.000000
# 4 0.000000 0.000000 0.000000 0.126431 0.000000 0.000000
# 5 0.000000 0.000000 0.000000 0.000000 0.043738 0.000000
# 6 0.000000 0.000000 0.000000 0.000000 0.000000 0.053150
#
#
# Mechanical properties :
#
#
# Convention : Reuss Voigt Hill
#
# Bulk Modulus (GPa) = 29.10651 31.16405 30.13528
# Shear Modulus (GPa) = 17.21820 22.65019 19.93419
#
# Velocity S-wave (km/s) = 2.76193 3.16778 2.97179
# Velocity P-wave (km/s) = 4.80273 5.21407 5.01263
#
# Compressibility (1/GPa) = 0.03435658
#
# Stress axis : x y z
#
# Youngs Moduli (GPa) = 73.91513 52.41136 80.78496
#
# Poissons Ratio (x) = 0.18695 0.22109
# Poissons Ratio (y) = 0.26365 -0.07984
# Poissons Ratio (z) = 0.20229 -0.05180
#
# Static dielectric constant tensor:
#      x y z
#    x 1.858800 0.000000 0.000000 
#    y 0.000000 2.020740 0.000000 
#    z 0.000000 0.000000 1.819970 
# 
# From -- ./inp_files/17614.got.cif
#   From: 2010.05.17/outbox.cif.g08.bks.cpg/sg54_9_cif.got.tgz:17614.got - 2010.06.03 13:09:01.
