data_PCOD9423026
_publ_section_title
;
Structure prediction by ZEFSAII (Michael W. Deem and Ramdas Pophale) SiO2 
 PCOD9423026
Probable space group: P C C A
;
_chemical_formula_sum "Si O2"
_cell_formula_units_Z 48
_cell_length_a 9.694446
_cell_length_b 16.200341
_cell_length_c 13.310258
_cell_angle_alpha 90.000000
_cell_angle_beta 90.000000
_cell_angle_gamma 90.000000
_cell_volume 2090.420355
_symmetry_space_group_name_H-M "P C C A"
_symmetry_group_IT_number 54
_symmetry_cell_setting 'orthorhombic'
loop_
_space_group_symop_operation_xyz
x,y,z
1/2-x,-y,z
1/2+x,-y,1/2-z
-x,y,1/2-z
-x,-y,-z
1/2+x,y,-z
1/2-x,y,1/2+z
x,-y,1/2+z
loop_
_atom_site_type_symbol
_atom_site_label
_atom_site_fract_x
_atom_site_fract_y
_atom_site_fract_z
Si Si1 0.147694 0.573301 0.725004
Si Si2 0.251285 0.872157 0.110415
Si Si3 0.219069 0.318130 0.589295
Si Si4 0.250000 0.000000 0.780507
Si Si5 0.278401 0.731217 0.357179
Si Si6 0.430421 0.105389 0.914560
Si Si7 0.000000 0.705475 0.250000
O O1 0.250000 0.500000 0.747362
O O2 0.172032 0.610481 0.614157
O O3 0.169408 0.655446 0.790843
O O4 0.000000 0.539958 0.750000
O O5 0.255907 0.774142 0.127463
O O6 0.405947 0.896046 0.077930
O O7 0.213322 0.924577 0.207565
O O8 0.144195 0.891079 0.021869
O O9 0.211257 0.302936 0.471127
O O10 0.086326 0.339467 0.660126
O O11 0.374462 0.028845 0.850870
O O12 0.374652 0.812145 0.357597
O O13 0.121130 0.748878 0.317913
#
# Coordination Sequence:
#
# PCOD9423026 Si02
#       7
#     8   8   8   4   8   8   4
#     4  11  25  43  68 102 145 183 234 294 356 436
#     4  11  26  46  69 103 136 180 239 290 352 432
#     4  10  24  45  74 101 139 187 236 297 360 425
#     4  12  24  42  66  96 136 188 220 290 350 420
#     4  10  24  45  74 101 139 187 236 297 360 425
#     4  11  26  46  69 103 136 180 239 290 352 432
#     4  10  22  40  70 112 138 176 238 300 338 446
#
# _framework density 22.961887999999998
#
# number of rings (size 3 to 8) (size 9 to 14) (size 15 to 20)
#    0.000    1.333    0.000    4.000   16.333    4.667 
#    6.000    1.667    0.000    0.000    0.000    0.000 
#    0.000    0.000    0.000    0.000    0.000    0.000 
#
# Total GULP energy -268197.321650 kJ/mol
# GULP energy per Si atom -5587.444201 kJ/mol
# Density = 2.290963 g / cm^3
# Si number density = 22.961888 Si / 1000 Ang^3
#
#
#
# Elastic Constant Matrix: (Units=GPa)
#
#
# Indices 1 2 3 4 5 6 
#
# 1 130.7352 38.3625 34.0776 0.0000 0.0000 0.0000
# 2 38.3625 73.2433 23.3727 0.0000 0.0000 0.0000
# 3 34.0776 23.3727 97.9461 0.0000 0.0000 0.0000
# 4 0.0000 0.0000 0.0000 22.0024 0.0000 0.0000
# 5 0.0000 0.0000 0.0000 0.0000 -0.1551 0.0000
# 6 0.0000 0.0000 0.0000 0.0000 0.0000 25.1090
#
#
#
# Elastic Compliance Matrix: (Units=1/GPa)
#
#
# Indices 1 2 3 4 5 6 
#
# 1 0.009490 -0.004240 -0.002290 0.000000 0.000000 0.000000
# 2 -0.004240 0.016673 -0.002503 0.000000 0.000000 0.000000
# 3 -0.002290 -0.002503 0.011604 0.000000 0.000000 0.000000
# 4 0.000000 0.000000 0.000000 0.045450 0.000000 0.000000
# 5 0.000000 0.000000 0.000000 0.000000 -6.448937 0.000000
# 6 0.000000 0.000000 0.000000 0.000000 0.000000 0.039826
#
#
# Mechanical properties :
#
#
# Convention : Reuss Voigt Hill
#
# Bulk Modulus (GPa) = 50.76155 54.83892 52.80024
# Shear Modulus (GPa) = -0.79349 23.13205 11.16928
#
# Velocity S-wave (km/s) = -0.58849 3.17742 2.20790
# Velocity P-wave (km/s) = 4.65759 6.11521 5.43548
#
# Compressibility (1/GPa) = 0.01969995
#
# Stress axis : x y z
#
# Youngs Moduli (GPa) = 105.37292 59.97834 86.17821
#
# Poissons Ratio (x) = 0.25430 0.19735
# Poissons Ratio (y) = 0.44676 0.21574
# Poissons Ratio (z) = 0.24131 0.15015
#
# Static dielectric constant tensor:
#      x y z
#    x 1.913170 0.000000 0.000000 
#    y 0.000000 1.856490 0.000000 
#    z 0.000000 0.000000 1.929010 
# 
# From -- ./inp_files/11763.got.cif
#   From: 2010.05.17/outbox.cif.g08.bks.cpg/sg54_6_cif.got.tgz:11763.got - 2010.06.03 13:09:01.
