data_PCOD9423497
_publ_section_title
;
Structure prediction by ZEFSAII (Michael W. Deem and Ramdas Pophale) SiO2 
 PCOD9423497
Probable space group: P C C A
;
_chemical_formula_sum "Si O2"
_cell_formula_units_Z 32
_cell_length_a 9.451345
_cell_length_b 9.723092
_cell_length_c 12.852768
_cell_angle_alpha 90.000000
_cell_angle_beta 90.000000
_cell_angle_gamma 90.000000
_cell_volume 1181.121785
_symmetry_space_group_name_H-M "P C C A"
_symmetry_group_IT_number 54
_symmetry_cell_setting 'orthorhombic'
loop_
_space_group_symop_operation_xyz
x,y,z
1/2-x,-y,z
1/2+x,-y,1/2-z
-x,y,1/2-z
-x,-y,-z
1/2+x,y,-z
1/2-x,y,1/2+z
x,-y,1/2+z
loop_
_atom_site_type_symbol
_atom_site_label
_atom_site_fract_x
_atom_site_fract_y
_atom_site_fract_z
Si Si1 0.677461 0.850645 0.190791
Si Si2 0.387911 0.683967 0.936685
Si Si3 0.595154 0.530846 0.340270
Si Si4 0.125047 0.107463 0.091616
O O1 0.743278 0.727069 0.121142
O O2 0.525274 0.897255 0.148363
O O3 0.699271 0.808067 0.312359
O O4 0.750000 0.000000 0.188919
O O5 0.500372 0.604090 0.867902
O O6 0.380357 0.601028 0.046145
O O7 0.427303 0.832212 0.981843
O O8 0.750000 0.500000 0.298259
O O9 0.500000 0.601811 0.250000
O O10 0.250000 0.000000 0.067916
#
# Coordination Sequence:
#
# PCOD9423497 Si02
#       4
#     8   8   8   8
#     4  10  23  44  73 111 151 197 247 305 379 457
#     4  11  25  46  77 106 149 199 254 313 381 458
#     4  11  28  48  74 111 145 197 261 317 390 460
#     4  10  23  43  73 112 153 194 246 307 378 453
#
# _framework density 27.092887999999999
#
# number of rings (size 3 to 8) (size 9 to 14) (size 15 to 20)
#    0.000    1.500    0.000    2.250    7.000   10.000 
#    4.500    0.000    0.000    0.000    0.000    0.000 
#    0.000    0.000    0.000    0.000    0.000    0.000 
#
# Total GULP energy -178256.557127 kJ/mol
# GULP energy per Si atom -5570.517410 kJ/mol
# Density = 2.703122 g / cm^3
# Si number density = 27.092888 Si / 1000 Ang^3
#
#
#
# Elastic Constant Matrix: (Units=GPa)
#
#
# Indices 1 2 3 4 5 6 
#
# 1 146.1893 54.7032 23.3158 0.0000 0.0000 0.0000
# 2 54.7032 100.0894 40.4753 0.0000 0.0000 0.0000
# 3 23.3158 40.4753 129.6371 0.0000 0.0000 0.0000
# 4 0.0000 0.0000 0.0000 22.4403 0.0000 0.0000
# 5 0.0000 0.0000 0.0000 0.0000 38.1243 0.0000
# 6 0.0000 0.0000 0.0000 0.0000 0.0000 44.0089
#
#
#
# Elastic Compliance Matrix: (Units=1/GPa)
#
#
# Indices 1 2 3 4 5 6 
#
# 1 0.008600 -0.004664 -0.000091 0.000000 0.000000 0.000000
# 2 -0.004664 0.013964 -0.003521 0.000000 0.000000 0.000000
# 3 -0.000091 -0.003521 0.008829 0.000000 0.000000 0.000000
# 4 0.000000 0.000000 0.000000 0.044563 0.000000 0.000000
# 5 0.000000 0.000000 0.000000 0.000000 0.026230 0.000000
# 6 0.000000 0.000000 0.000000 0.000000 0.000000 0.022723
#
#
# Mechanical properties :
#
#
# Convention : Reuss Voigt Hill
#
# Bulk Modulus (GPa) = 67.37320 68.10049 67.73684
# Shear Modulus (GPa) = 34.15141 38.07613 36.11377
#
# Velocity S-wave (km/s) = 3.55425 3.75292 3.65493
# Velocity P-wave (km/s) = 6.46259 6.63097 6.54732
#
# Compressibility (1/GPa) = 0.01484270
#
# Stress axis : x y z
#
# Youngs Moduli (GPa) = 116.27901 71.61368 113.25690
#
# Poissons Ratio (x) = 0.33398 0.01027
# Poissons Ratio (y) = 0.54228 0.39878
# Poissons Ratio (z) = 0.01054 0.25215
#
# Static dielectric constant tensor:
#      x y z
#    x 2.173880 0.000000 0.000000 
#    y 0.000000 2.441190 0.000000 
#    z 0.000000 0.000000 2.240730 
# 
# From -- ./inp_files/11312.got.cif
#   From: 2010.05.17/outbox.cif.g08.bks.cpg/sg54_6_cif.got.tgz:11312.got - 2010.06.03 13:09:01.
