data_PCOD9423231
_publ_section_title
;
Structure prediction by ZEFSAII (Michael W. Deem and Ramdas Pophale) SiO2 
 PCOD9423231
Probable space group: P C C A
;
_chemical_formula_sum "Si O2"
_cell_formula_units_Z 44
_cell_length_a 9.839771
_cell_length_b 13.367579
_cell_length_c 14.544428
_cell_angle_alpha 90.000000
_cell_angle_beta 90.000000
_cell_angle_gamma 90.000000
_cell_volume 1913.085574
_symmetry_space_group_name_H-M "P C C A"
_symmetry_group_IT_number 54
_symmetry_cell_setting 'orthorhombic'
loop_
_space_group_symop_operation_xyz
x,y,z
1/2-x,-y,z
1/2+x,-y,1/2-z
-x,y,1/2-z
-x,-y,-z
1/2+x,y,-z
1/2-x,y,1/2+z
x,-y,1/2+z
loop_
_atom_site_type_symbol
_atom_site_label
_atom_site_fract_x
_atom_site_fract_y
_atom_site_fract_z
Si Si1 0.088406 0.650730 0.629868
Si Si2 0.170404 0.222456 0.404427
Si Si3 0.000000 0.904789 0.250000
Si Si4 0.750000 0.500000 0.234671
Si Si5 0.250000 0.000000 0.842329
Si Si6 0.586365 0.620109 0.585279
Si Si7 0.358608 0.755021 0.611717
O O1 0.083929 0.601668 0.525671
O O2 0.200195 0.739562 0.626741
O O3 0.944276 0.708388 0.646296
O O4 0.841072 0.573218 0.799402
O O5 0.210175 0.108188 0.384652
O O6 0.309303 0.286488 0.403011
O O7 0.114056 0.216928 0.507296
O O8 0.073128 0.833335 0.177606
O O9 0.883971 0.973993 0.212025
O O10 0.856686 0.543503 0.159426
O O11 0.437249 0.650245 0.619601
#
# Coordination Sequence:
#
# PCOD9423231 Si02
#       7
#     8   8   4   4   4   8   8
#     4  10  24  41  69 102 136 191 242 292 357 436
#     4  10  24  47  69  97 143 186 240 297 359 434
#     4  12  26  42  66 106 136 176 236 296 356 438
#     4  12  24  40  72 104 146 188 240 298 378 430
#     4  12  28  44  72 106 142 182 242 300 370 442
#     4  10  22  44  65  97 144 183 237 300 352 434
#     4  10  22  46  67  91 141 189 227 295 358 424
#
# _framework density 22.999493000000001
#
# number of rings (size 3 to 8) (size 9 to 14) (size 15 to 20)
#    0.000    1.455    1.818    1.636    2.545    5.091 
#    0.000    5.455    0.000    0.000    0.000    0.000 
#    0.000    0.000    0.000    0.000    0.000    0.000 
#
# Total GULP energy -245663.972519 kJ/mol
# GULP energy per Si atom -5583.272103 kJ/mol
# Density = 2.294715 g / cm^3
# Si number density = 22.999493 Si / 1000 Ang^3
#
#
#
# Elastic Constant Matrix: (Units=GPa)
#
#
# Indices 1 2 3 4 5 6 
#
# 1 111.1297 34.0758 11.8257 0.0000 0.0000 0.0000
# 2 34.0758 92.2184 60.9978 0.0000 0.0000 0.0000
# 3 11.8257 60.9978 60.7855 0.0000 0.0000 0.0000
# 4 0.0000 0.0000 0.0000 43.6816 0.0000 0.0000
# 5 0.0000 0.0000 0.0000 0.0000 31.7260 0.0000
# 6 0.0000 0.0000 0.0000 0.0000 0.0000 -63.9420
#
#
#
# Elastic Compliance Matrix: (Units=1/GPa)
#
#
# Indices 1 2 3 4 5 6 
#
# 1 0.010762 -0.007708 0.005641 0.000000 0.000000 0.000000
# 2 -0.007708 0.037771 -0.036403 0.000000 0.000000 0.000000
# 3 0.005641 -0.036403 0.051884 0.000000 0.000000 0.000000
# 4 0.000000 0.000000 0.000000 0.022893 0.000000 0.000000
# 5 0.000000 0.000000 0.000000 0.000000 0.031520 0.000000
# 6 0.000000 0.000000 0.000000 0.000000 0.000000 -0.015639
#
#
# Mechanical properties :
#
#
# Convention : Reuss Voigt Hill
#
# Bulk Modulus (GPa) = 42.59525 53.10359 47.84942
# Shear Modulus (GPa) = 22.32579 12.77541 17.55060
#
# Velocity S-wave (km/s) = 3.11900 2.35939 2.76540
# Velocity P-wave (km/s) = 5.61526 5.52824 5.57192
#
# Compressibility (1/GPa) = 0.02347680
#
# Stress axis : x y z
#
# Youngs Moduli (GPa) = 92.92223 26.47539 19.27367
#
# Poissons Ratio (x) = 0.20407 -0.10873
# Poissons Ratio (y) = 0.71624 0.70163
# Poissons Ratio (z) = -0.52419 0.96379
#
# Static dielectric constant tensor:
#      x y z
#    x 1.975570 0.000000 0.000000 
#    y 0.000000 1.906110 0.000000 
#    z 0.000000 0.000000 1.906460 
# 
# From -- ./inp_files/16571.got.cif
#   From: 2010.05.17/outbox.cif.g08.bks.cpg/sg54_9_cif.got.tgz:16571.got - 2010.06.03 13:09:01.
