data_PCOD9423790
_publ_section_title
;
Structure prediction by ZEFSAII (Michael W. Deem and Ramdas Pophale) SiO2 
 PCOD9423790
Probable space group: P C C A
;
_chemical_formula_sum "Si O2"
_cell_formula_units_Z 64
_cell_length_a 10.962802
_cell_length_b 18.665486
_cell_length_c 13.172856
_cell_angle_alpha 90.000000
_cell_angle_beta 90.000000
_cell_angle_gamma 90.000000
_cell_volume 2695.509191
_symmetry_space_group_name_H-M "P C C A"
_symmetry_group_IT_number 54
_symmetry_cell_setting 'orthorhombic'
loop_
_space_group_symop_operation_xyz
x,y,z
1/2-x,-y,z
1/2+x,-y,1/2-z
-x,y,1/2-z
-x,-y,-z
1/2+x,y,-z
1/2-x,y,1/2+z
x,-y,1/2+z
loop_
_atom_site_type_symbol
_atom_site_label
_atom_site_fract_x
_atom_site_fract_y
_atom_site_fract_z
Si Si1 0.468063 0.854620 0.132503
Si Si2 0.613551 0.807638 0.671354
Si Si3 0.259781 0.922854 0.704891
Si Si4 0.530830 0.921571 0.958010
Si Si5 0.084434 0.301196 0.148435
Si Si6 0.116240 0.535722 0.147865
Si Si7 0.707684 0.654339 0.712553
Si Si8 0.422154 0.579920 0.417540
O O1 0.500000 0.853513 0.250000
O O2 0.354567 0.908466 0.132247
O O3 0.427562 0.776176 0.101943
O O4 0.574626 0.881166 0.059712
O O5 0.500000 0.800926 0.750000
O O6 0.719526 0.852611 0.727819
O O7 0.569311 0.864423 0.585240
O O8 0.655993 0.725052 0.654817
O O9 0.376287 0.928774 0.633032
O O10 0.250000 0.000000 0.759604
O O11 0.500000 0.000000 0.000000
O O12 0.217321 0.315381 0.190591
O O13 0.000000 0.304263 0.250000
O O14 0.026935 0.359711 0.075809
O O15 0.250000 0.500000 0.164937
O O16 0.119350 0.598386 0.231888
O O17 0.997163 0.482975 0.141087
O O18 0.118391 0.561387 0.030552
O O19 0.805487 0.610645 0.643556
#
# Coordination Sequence:
#
# PCOD9423790 Si02
#       8
#     8   8   8   8   8   8   8   8
#     4  11  24  42  69  99 137 192 241 289 369 445
#     4  10  25  47  68 106 151 187 251 310 379 453
#     4  11  23  43  69 101 138 187 240 300 366 448
#     4  11  25  44  67 105 147 185 240 309 368 450
#     4   9  19  41  66  95 133 181 239 291 357 438
#     4  11  24  45  72 108 148 195 253 317 394 470
#     4  11  22  47  76 101 142 203 245 317 388 451
#     4  10  24  46  69 106 150 194 252 318 385 471
#
# _framework density 23.743196000000001
#
# number of rings (size 3 to 8) (size 9 to 14) (size 15 to 20)
#    0.000    1.500    3.750    0.000    1.750    4.500 
#    6.750    0.000    0.000    0.000    0.000    0.000 
#    0.000    0.000    0.000    0.000    0.000    0.000 
#
# Total GULP energy -357082.466860 kJ/mol
# GULP energy per Si atom -5579.413545 kJ/mol
# Density = 2.368916 g / cm^3
# Si number density = 23.743196 Si / 1000 Ang^3
#
#
#
# Elastic Constant Matrix: (Units=GPa)
#
#
# Indices 1 2 3 4 5 6 
#
# 1 86.0813 60.1755 23.8885 0.0000 0.0000 0.0000
# 2 60.1755 195.3846 58.1189 0.0000 0.0000 0.0000
# 3 23.8885 58.1189 73.3061 0.0000 0.0000 0.0000
# 4 0.0000 0.0000 0.0000 37.4771 0.0000 0.0000
# 5 0.0000 0.0000 0.0000 0.0000 27.3225 0.0000
# 6 0.0000 0.0000 0.0000 0.0000 0.0000 13.0735
#
#
#
# Elastic Compliance Matrix: (Units=1/GPa)
#
#
# Indices 1 2 3 4 5 6 
#
# 1 0.014946 -0.004128 -0.001598 0.000000 0.000000 0.000000
# 2 -0.004128 0.007838 -0.004869 0.000000 0.000000 0.000000
# 3 -0.001598 -0.004869 0.018022 0.000000 0.000000 0.000000
# 4 0.000000 0.000000 0.000000 0.026683 0.000000 0.000000
# 5 0.000000 0.000000 0.000000 0.000000 0.036600 0.000000
# 6 0.000000 0.000000 0.000000 0.000000 0.000000 0.076491
#
#
# Mechanical properties :
#
#
# Convention : Reuss Voigt Hill
#
# Bulk Modulus (GPa) = 50.97631 71.01530 60.99581
# Shear Modulus (GPa) = 24.00304 29.74723 26.87514
#
# Velocity S-wave (km/s) = 3.18298 3.54344 3.36804
# Velocity P-wave (km/s) = 5.91819 6.83491 6.39300
#
# Compressibility (1/GPa) = 0.01961695
#
# Stress axis : x y z
#
# Youngs Moduli (GPa) = 66.90796 127.58894 55.48723
#
# Poissons Ratio (x) = 0.52667 0.08866
# Poissons Ratio (y) = 0.27618 0.27015
# Poissons Ratio (z) = 0.10691 0.62120
#
# Static dielectric constant tensor:
#      x y z
#    x 1.949740 0.000000 0.000000 
#    y 0.000000 1.796270 0.000000 
#    z 0.000000 0.000000 1.930720 
# 
# From -- ./inp_files/12844.got.cif
#   From: 2010.05.17/outbox.cif.g08.bks.cpg/sg54_7_cif.got.tgz:12844.got - 2010.06.03 13:09:01.
