data_PCOD9423211
_publ_section_title
;
Structure prediction by ZEFSAII (Michael W. Deem and Ramdas Pophale) SiO2 
 PCOD9423211
Probable space group: P C C A
;
_chemical_formula_sum "Si O2"
_cell_formula_units_Z 48
_cell_length_a 9.550214
_cell_length_b 15.865410
_cell_length_c 14.942087
_cell_angle_alpha 90.000000
_cell_angle_beta 90.000000
_cell_angle_gamma 90.000000
_cell_volume 2263.996045
_symmetry_space_group_name_H-M "P C C A"
_symmetry_group_IT_number 54
_symmetry_cell_setting 'orthorhombic'
loop_
_space_group_symop_operation_xyz
x,y,z
1/2-x,-y,z
1/2+x,-y,1/2-z
-x,y,1/2-z
-x,-y,-z
1/2+x,y,-z
1/2-x,y,1/2+z
x,-y,1/2+z
loop_
_atom_site_type_symbol
_atom_site_label
_atom_site_fract_x
_atom_site_fract_y
_atom_site_fract_z
Si Si1 0.982204 0.200948 0.354618
Si Si2 0.597171 0.028083 0.580995
Si Si3 0.843143 0.777344 0.356395
Si Si4 0.500000 0.922370 0.750000
Si Si5 0.000000 0.362013 0.750000
Si Si6 0.863762 0.424131 0.569863
Si Si7 0.903180 0.328874 0.023418
O O1 0.817880 0.203432 0.375906
O O2 0.041979 0.290160 0.385303
O O3 0.000000 0.188590 0.250000
O O4 0.067453 0.126049 0.401591
O O5 0.750000 0.000000 0.552604
O O6 0.500000 0.000000 0.500000
O O7 0.570517 0.980624 0.675196
O O8 0.903080 0.859810 0.308045
O O9 0.878934 0.699523 0.289580
O O10 0.916136 0.742909 0.446643
O O11 0.071273 0.413817 0.830669
O O12 0.750000 0.500000 0.566924
O O13 0.000276 0.407676 0.507113
O O14 0.759153 0.349836 0.537459
#
# Coordination Sequence:
#
# PCOD9423211 Si02
#       7
#     8   8   8   4   4   8   8
#     4  12  24  42  70  96 135 178 241 285 355 425
#     4  12  29  44  66 100 140 187 239 299 362 421
#     4  10  22  43  71  98 133 190 226 293 349 423
#     4  11  24  46  70  97 148 174 238 301 360 414
#     4   9  22  44  66 105 150 182 240 283 364 438
#     4  11  23  45  70 107 145 185 230 298 362 431
#     4  11  23  43  73 104 139 184 240 285 357 443
#
# _framework density 21.201450000000001
#
# number of rings (size 3 to 8) (size 9 to 14) (size 15 to 20)
#    0.000    1.000    2.500    3.500    4.667    2.667 
#    4.500    1.667    0.000    0.000    0.000    0.000 
#    0.000    0.000    0.000    0.000    0.000    0.000 
#
# Total GULP energy -267868.385749 kJ/mol
# GULP energy per Si atom -5580.591370 kJ/mol
# Density = 2.115319 g / cm^3
# Si number density = 21.201450 Si / 1000 Ang^3
#
#
#
# Elastic Constant Matrix: (Units=GPa)
#
#
# Indices 1 2 3 4 5 6 
#
# 1 144.0642 28.1517 25.4600 0.0000 0.0000 0.0000
# 2 28.1517 79.8526 34.5451 0.0000 0.0000 0.0000
# 3 25.4600 34.5451 84.3738 0.0000 0.0000 0.0000
# 4 0.0000 0.0000 0.0000 9.0396 0.0000 0.0000
# 5 0.0000 0.0000 0.0000 0.0000 39.2331 0.0000
# 6 0.0000 0.0000 0.0000 0.0000 0.0000 -106.9444
#
#
#
# Elastic Compliance Matrix: (Units=1/GPa)
#
#
# Indices 1 2 3 4 5 6 
#
# 1 0.007599 -0.002050 -0.001454 0.000000 0.000000 0.000000
# 2 -0.002050 0.015772 -0.005839 0.000000 0.000000 0.000000
# 3 -0.001454 -0.005839 0.014681 0.000000 0.000000 0.000000
# 4 0.000000 0.000000 0.000000 0.110625 0.000000 0.000000
# 5 0.000000 0.000000 0.000000 0.000000 0.025489 0.000000
# 6 0.000000 0.000000 0.000000 0.000000 0.000000 -0.009351
#
#
# Mechanical properties :
#
#
# Convention : Reuss Voigt Hill
#
# Bulk Modulus (GPa) = 51.63465 53.84490 52.73977
# Shear Modulus (GPa) = 26.32197 2.94123 14.63160
#
# Velocity S-wave (km/s) = 3.52734 1.17911 2.62987
# Velocity P-wave (km/s) = 6.40286 5.22548 5.84390
#
# Compressibility (1/GPa) = 0.01936684
#
# Stress axis : x y z
#
# Youngs Moduli (GPa) = 131.59881 63.40448 68.11426
#
# Poissons Ratio (x) = 0.12999 0.09901
# Poissons Ratio (y) = 0.26979 0.39770
# Poissons Ratio (z) = 0.19129 0.37021
#
# Static dielectric constant tensor:
#      x y z
#    x 1.755430 0.000000 0.000000 
#    y 0.000000 1.814570 0.000000 
#    z 0.000000 0.000000 1.744380 
# 
# From -- ./inp_files/11773.got.cif
#   From: 2010.05.17/outbox.cif.g08.bks.cpg/sg54_6_cif.got.tgz:11773.got - 2010.06.03 13:09:01.
