data_PCOD9423348
_publ_section_title
;
Structure prediction by ZEFSAII (Michael W. Deem and Ramdas Pophale) SiO2 
 PCOD9423348
Probable space group: P C C A
;
_chemical_formula_sum "Si O2"
_cell_formula_units_Z 40
_cell_length_a 22.450190
_cell_length_b 6.410322
_cell_length_c 12.484360
_cell_angle_alpha 90.000000
_cell_angle_beta 90.000000
_cell_angle_gamma 90.000000
_cell_volume 1796.661037
_symmetry_space_group_name_H-M "P C C A"
_symmetry_group_IT_number 54
_symmetry_cell_setting 'orthorhombic'
loop_
_space_group_symop_operation_xyz
x,y,z
1/2-x,-y,z
1/2+x,-y,1/2-z
-x,y,1/2-z
-x,-y,-z
1/2+x,y,-z
1/2-x,y,1/2+z
x,-y,1/2+z
loop_
_atom_site_type_symbol
_atom_site_label
_atom_site_fract_x
_atom_site_fract_y
_atom_site_fract_z
Si Si1 0.601865 0.873508 0.644401
Si Si2 0.250000 0.500000 0.901232
Si Si3 0.000000 0.119774 0.250000
Si Si4 0.859707 0.617819 0.952792
Si Si5 0.202063 0.156529 0.245193
Si Si6 0.563753 0.528951 0.795013
O O1 0.611191 0.800984 0.523287
O O2 0.605262 0.658199 0.714388
O O3 0.538327 0.985512 0.666227
O O4 0.652882 0.026497 0.688479
O O5 0.192198 0.475935 0.974948
O O6 0.261630 0.301818 0.826452
O O7 0.950335 0.280676 0.294348
O O8 0.828796 0.705062 0.845667
O O9 0.908660 0.448197 0.913017
O O10 0.250000 0.000000 0.193794
O O11 0.500000 0.603070 0.750000
#
# Coordination Sequence:
#
# PCOD9423348 Si02
#       6
#     8   4   4   8   8   8
#     4  12  25  48  75 108 147 197 252 306 370 453
#     4  12  28  50  72 112 150 194 250 316 374 454
#     4  10  22  50  70 100 160 186 240 318 358 428
#     4  12  27  44  79 107 144 208 242 309 388 439
#     4  12  27  49  72 107 151 186 251 319 358 449
#     4  10  24  49  68 110 153 189 248 317 359 440
#
# _framework density 22.263518999999999
#
# number of rings (size 3 to 8) (size 9 to 14) (size 15 to 20)
#    0.600    0.000    5.000    1.800    5.600    1.600 
#    0.000    0.000    0.000    0.000    0.000    0.000 
#    0.000    0.000    0.000    0.000    0.000    0.000 
#
# Total GULP energy -222921.053116 kJ/mol
# GULP energy per Si atom -5573.026328 kJ/mol
# Density = 2.221285 g / cm^3
# Si number density = 22.263519 Si / 1000 Ang^3
#
#
#
# Elastic Constant Matrix: (Units=GPa)
#
#
# Indices 1 2 3 4 5 6 
#
# 1 87.1485 27.4930 11.8297 0.0000 0.0000 0.0000
# 2 27.4930 63.5477 21.8605 0.0000 0.0000 0.0000
# 3 11.8297 21.8605 72.9275 0.0000 0.0000 0.0000
# 4 0.0000 0.0000 0.0000 23.2893 0.0000 0.0000
# 5 0.0000 0.0000 0.0000 0.0000 50.1009 0.0000
# 6 0.0000 0.0000 0.0000 0.0000 0.0000 17.5733
#
#
#
# Elastic Compliance Matrix: (Units=1/GPa)
#
#
# Indices 1 2 3 4 5 6 
#
# 1 0.013304 -0.005590 -0.000482 0.000000 0.000000 0.000000
# 2 -0.005590 0.019894 -0.005057 0.000000 0.000000 0.000000
# 3 -0.000482 -0.005057 0.015306 0.000000 0.000000 0.000000
# 4 0.000000 0.000000 0.000000 0.042938 0.000000 0.000000
# 5 0.000000 0.000000 0.000000 0.000000 0.019960 0.000000
# 6 0.000000 0.000000 0.000000 0.000000 0.000000 0.056905
#
#
# Mechanical properties :
#
#
# Convention : Reuss Voigt Hill
#
# Bulk Modulus (GPa) = 38.10056 38.44333 38.27195
# Shear Modulus (GPa) = 25.08622 29.02205 27.05414
#
# Velocity S-wave (km/s) = 3.36041 3.61442 3.48972
# Velocity P-wave (km/s) = 5.67512 5.89267 5.78492
#
# Compressibility (1/GPa) = 0.02624633
#
# Stress axis : x y z
#
# Youngs Moduli (GPa) = 75.16800 50.26653 65.33274
#
# Poissons Ratio (x) = 0.28097 0.03152
# Poissons Ratio (y) = 0.42016 0.33036
# Poissons Ratio (z) = 0.03627 0.25418
#
# Static dielectric constant tensor:
#      x y z
#    x 1.951280 0.000000 0.000000 
#    y 0.000000 1.829740 0.000000 
#    z 0.000000 0.000000 1.787070 
# 
# From -- ./inp_files/10202.got.cif
#   From: 2010.05.17/outbox.cif.g08.bks.cpg/sg54_6_cif.got.tgz:10202.got - 2010.06.03 13:09:01.
