data_PCOD9423264
_publ_section_title
;
Structure prediction by ZEFSAII (Michael W. Deem and Ramdas Pophale) SiO2 
 PCOD9423264
Probable space group: P C C A
;
_chemical_formula_sum "Si O2"
_cell_formula_units_Z 32
_cell_length_a 12.841042
_cell_length_b 5.092427
_cell_length_c 25.130642
_cell_angle_alpha 90.000000
_cell_angle_beta 90.000000
_cell_angle_gamma 90.000000
_cell_volume 1643.344675
_symmetry_space_group_name_H-M "P C C A"
_symmetry_group_IT_number 54
_symmetry_cell_setting 'orthorhombic'
loop_
_space_group_symop_operation_xyz
x,y,z
1/2-x,-y,z
1/2+x,-y,1/2-z
-x,y,1/2-z
-x,-y,-z
1/2+x,y,-z
1/2-x,y,1/2+z
x,-y,1/2+z
loop_
_atom_site_type_symbol
_atom_site_label
_atom_site_fract_x
_atom_site_fract_y
_atom_site_fract_z
Si Si1 0.250000 0.000000 0.476894
Si Si2 0.250000 0.500000 0.047953
Si Si3 0.938482 0.603099 0.374174
Si Si4 0.354675 0.331836 0.891664
Si Si5 0.504137 0.877549 0.312427
O O1 0.217545 0.750543 0.512340
O O2 0.337406 0.880396 0.437800
O O3 0.344909 0.409059 0.084853
O O4 0.046910 0.520288 0.402656
O O5 0.928686 0.377371 0.329002
O O6 0.951719 0.877862 0.345001
O O7 0.250000 0.500000 0.886377
O O8 0.390413 0.187903 0.837470
O O9 0.500000 0.922268 0.250000
#
# Coordination Sequence:
#
# PCOD9423264 Si02
#       5
#     4   4   8   8   8
#     4  12  24  42  68  92 134 178 224 256 342 370
#     4  12  26  44  64  98 132 184 210 276 326 382
#     4  10  24  43  67  94 139 159 231 263 324 392
#     4  10  23  45  64 101 128 171 220 276 307 409
#     4  10  22  44  71  96 131 172 210 278 333 386
#
# _framework density 19.472481999999999
#
# number of rings (size 3 to 8) (size 9 to 14) (size 15 to 20)
#    1.500    0.000    1.250    3.750    0.000    2.000 
#    2.250    2.500    0.000    0.000    0.000    0.000 
#    0.000    0.000    0.000    0.000    0.000    0.000 
#
# Total GULP energy -178413.287613 kJ/mol
# GULP energy per Si atom -5575.415238 kJ/mol
# Density = 1.942816 g / cm^3
# Si number density = 19.472482 Si / 1000 Ang^3
#
#
#
# Elastic Constant Matrix: (Units=GPa)
#
#
# Indices 1 2 3 4 5 6 
#
# 1 107.0758 38.7197 64.3286 0.0000 0.0000 0.0000
# 2 38.7197 130.1514 46.8659 0.0000 0.0000 0.0000
# 3 64.3286 46.8659 126.9468 0.0000 0.0000 0.0000
# 4 0.0000 0.0000 0.0000 -34.7622 0.0000 0.0000
# 5 0.0000 0.0000 0.0000 0.0000 24.1338 0.0000
# 6 0.0000 0.0000 0.0000 0.0000 0.0000 4.8830
#
#
#
# Elastic Compliance Matrix: (Units=1/GPa)
#
#
# Indices 1 2 3 4 5 6 
#
# 1 0.013795 -0.001830 -0.006315 0.000000 0.000000 0.000000
# 2 -0.001830 0.009104 -0.002434 0.000000 0.000000 0.000000
# 3 -0.006315 -0.002434 0.011976 0.000000 0.000000 0.000000
# 4 0.000000 0.000000 0.000000 -0.028767 0.000000 0.000000
# 5 0.000000 0.000000 0.000000 0.000000 0.041436 0.000000
# 6 0.000000 0.000000 0.000000 0.000000 0.000000 0.204791
#
#
# Mechanical properties :
#
#
# Convention : Reuss Voigt Hill
#
# Bulk Modulus (GPa) = 72.89874 73.77805 73.33839
# Shear Modulus (GPa) = 17.98151 13.13491 15.55821
#
# Velocity S-wave (km/s) = 3.04210 2.60000 2.82970
# Velocity P-wave (km/s) = 7.06096 6.85449 6.95849
#
# Compressibility (1/GPa) = 0.01371766
#
# Stress axis : x y z
#
# Youngs Moduli (GPa) = 72.49206 109.84022 83.50296
#
# Poissons Ratio (x) = 0.20101 0.52729
# Poissons Ratio (y) = 0.13266 0.20322
# Poissons Ratio (z) = 0.45776 0.26732
#
# Static dielectric constant tensor:
#      x y z
#    x 1.685570 0.000000 0.000000 
#    y 0.000000 1.707690 0.000000 
#    z 0.000000 0.000000 1.660460 
# 
# From -- ./inp_files/26010.got.cif
#   From: 2010.05.17/outbox.cif.g08.bks.cpg/sg54_14_cif.got.tgz:26010.got - 2010.06.03 13:09:01.
