data_PCOD9423483
_publ_section_title
;
Structure prediction by ZEFSAII (Michael W. Deem and Ramdas Pophale) SiO2 
 PCOD9423483
Probable space group: P C C A
;
_chemical_formula_sum "Si O2"
_cell_formula_units_Z 28
_cell_length_a 18.969253
_cell_length_b 7.422136
_cell_length_c 9.800790
_cell_angle_alpha 90.000000
_cell_angle_beta 90.000000
_cell_angle_gamma 90.000000
_cell_volume 1379.876507
_symmetry_space_group_name_H-M "P C C A"
_symmetry_group_IT_number 54
_symmetry_cell_setting 'orthorhombic'
loop_
_space_group_symop_operation_xyz
x,y,z
1/2-x,-y,z
1/2+x,-y,1/2-z
-x,y,1/2-z
-x,-y,-z
1/2+x,y,-z
1/2-x,y,1/2+z
x,-y,1/2+z
loop_
_atom_site_type_symbol
_atom_site_label
_atom_site_fract_x
_atom_site_fract_y
_atom_site_fract_z
Si Si1 0.451262 0.927041 0.620326
Si Si2 0.381160 0.701717 0.162631
Si Si3 0.393225 0.591735 0.461515
Si Si4 0.750000 0.500000 0.934229
O O1 0.500000 0.893651 0.750000
O O2 0.417372 0.746798 0.563388
O O3 0.500000 0.000000 0.500000
O O4 0.396028 0.086919 0.654346
O O5 0.412262 0.627666 0.305221
O O6 0.299388 0.637838 0.150457
O O7 0.414725 0.597948 0.031377
O O8 0.308139 0.595426 0.472782
#
# Coordination Sequence:
#
# PCOD9423483 Si02
#       4
#     8   8   8   4
#     4  12  26  43  62  98 133 169 217 258 323 388
#     4  10  23  43  68  96 129 170 214 268 322 380
#     4  10  23  43  68  95 129 170 210 275 317 383
#     4   8  22  42  70  98 122 166 222 260 338 362
#
# _framework density 20.291671000000001
#
# number of rings (size 3 to 8) (size 9 to 14) (size 15 to 20)
#    1.714    0.000    2.857    0.857    4.000    3.429 
#    0.000    2.857    0.000    0.000    0.000    0.000 
#    0.000    0.000    0.000    0.000    0.000    0.000 
#
# Total GULP energy -156015.672809 kJ/mol
# GULP energy per Si atom -5571.988315 kJ/mol
# Density = 2.024549 g / cm^3
# Si number density = 20.291671 Si / 1000 Ang^3
#
#
#
# Elastic Constant Matrix: (Units=GPa)
#
#
# Indices 1 2 3 4 5 6 
#
# 1 67.5378 19.0895 9.1900 0.0000 0.0000 0.0000
# 2 19.0895 43.7287 -21.2889 0.0000 0.0000 0.0000
# 3 9.1900 -21.2889 92.8298 0.0000 0.0000 0.0000
# 4 0.0000 0.0000 0.0000 52.9415 0.0000 0.0000
# 5 0.0000 0.0000 0.0000 0.0000 31.6238 0.0000
# 6 0.0000 0.0000 0.0000 0.0000 0.0000 44.1510
#
#
#
# Elastic Compliance Matrix: (Units=1/GPa)
#
#
# Indices 1 2 3 4 5 6 
#
# 1 0.018162 -0.009910 -0.004071 0.000000 0.000000 0.000000
# 2 -0.009910 0.031150 0.008125 0.000000 0.000000 0.000000
# 3 -0.004071 0.008125 0.013039 0.000000 0.000000 0.000000
# 4 0.000000 0.000000 0.000000 0.018889 0.000000 0.000000
# 5 0.000000 0.000000 0.000000 0.000000 0.031622 0.000000
# 6 0.000000 0.000000 0.000000 0.000000 0.000000 0.022650
#
#
# Mechanical properties :
#
#
# Convention : Reuss Voigt Hill
#
# Bulk Modulus (GPa) = 19.74793 24.23083 21.98938
# Shear Modulus (GPa) = 30.46896 38.88365 34.67631
#
# Velocity S-wave (km/s) = 3.87919 4.38223 4.13836
# Velocity P-wave (km/s) = 5.46052 6.12964 5.80473
#
# Compressibility (1/GPa) = 0.05063821
#
# Stress axis : x y z
#
# Youngs Moduli (GPa) = 55.06149 32.10282 76.69486
#
# Poissons Ratio (x) = 0.31814 0.31220
# Poissons Ratio (y) = 0.54566 -0.62313
# Poissons Ratio (z) = 0.22414 -0.26083
#
# Static dielectric constant tensor:
#      x y z
#    x 1.748060 0.000000 0.000000 
#    y 0.000000 1.746900 0.000000 
#    z 0.000000 0.000000 1.666490 
# 
# From -- ./inp_files/3876.got.cif
#   From: 2010.05.17/outbox.cif.g08.bks.cpg/sg54_2_cif.got.tgz:3876.got - 2010.06.03 13:09:01.
