data_PCOD9423725
_publ_section_title
;
Structure prediction by ZEFSAII (Michael W. Deem and Ramdas Pophale) SiO2 
 PCOD9423725
Probable space group: P C C A
;
_chemical_formula_sum "Si O2"
_cell_formula_units_Z 36
_cell_length_a 28.281940
_cell_length_b 5.112129
_cell_length_c 10.560260
_cell_angle_alpha 90.000000
_cell_angle_beta 90.000000
_cell_angle_gamma 90.000000
_cell_volume 1526.812166
_symmetry_space_group_name_H-M "P C C A"
_symmetry_group_IT_number 54
_symmetry_cell_setting 'orthorhombic'
loop_
_space_group_symop_operation_xyz
x,y,z
1/2-x,-y,z
1/2+x,-y,1/2-z
-x,y,1/2-z
-x,-y,-z
1/2+x,y,-z
1/2-x,y,1/2+z
x,-y,1/2+z
loop_
_atom_site_type_symbol
_atom_site_label
_atom_site_fract_x
_atom_site_fract_y
_atom_site_fract_z
Si Si1 0.093561 0.426976 0.585279
Si Si2 0.825988 0.199133 0.354198
Si Si3 0.030980 0.064779 0.123573
Si Si4 0.838865 0.195245 0.081241
Si Si5 0.750000 0.500000 0.977795
O O1 0.141295 0.540311 0.649244
O O2 0.057514 0.665347 0.594019
O O3 0.112906 0.355858 0.444372
O O4 0.068464 0.171301 0.640446
O O5 0.773266 0.285991 0.386771
O O6 0.840412 0.020182 0.471429
O O7 0.833375 0.072183 0.218490
O O8 0.000000 0.087869 0.250000
O O9 0.000000 0.000000 0.000000
O O10 0.792542 0.375592 0.058673
#
# Coordination Sequence:
#
# PCOD9423725 Si02
#       5
#     8   8   8   8   4
#     4  11  26  47  72 110 146 193 244 300 371 433
#     4  11  25  45  75 106 153 196 247 308 364 450
#     4  12  28  48  76 107 148 192 248 308 370 442
#     4  11  25  45  75 106 153 194 250 303 369 443
#     4  10  24  44  68 112 146 202 246 304 364 438
#
# _framework density 23.578541000000001
#
# number of rings (size 3 to 8) (size 9 to 14) (size 15 to 20)
#    0.000    0.889    2.222    2.667    6.222   10.667 
#    0.000    0.000    0.000    0.000    0.000    0.000 
#    0.000    0.000    0.000    0.000    0.000    0.000 
#
# Total GULP energy -201431.925128 kJ/mol
# GULP energy per Si atom -5595.331254 kJ/mol
# Density = 2.352488 g / cm^3
# Si number density = 23.578541 Si / 1000 Ang^3
#
#
#
# Elastic Constant Matrix: (Units=GPa)
#
#
# Indices 1 2 3 4 5 6 
#
# 1 81.4564 24.0209 11.6245 0.0000 0.0000 0.0000
# 2 24.0209 115.8446 27.2384 0.0000 0.0000 0.0000
# 3 11.6245 27.2384 148.8609 0.0000 0.0000 0.0000
# 4 0.0000 0.0000 0.0000 26.8384 0.0000 0.0000
# 5 0.0000 0.0000 0.0000 0.0000 17.9350 0.0000
# 6 0.0000 0.0000 0.0000 0.0000 0.0000 49.3671
#
#
#
# Elastic Compliance Matrix: (Units=1/GPa)
#
#
# Indices 1 2 3 4 5 6 
#
# 1 0.013119 -0.002591 -0.000550 0.000000 0.000000 0.000000
# 2 -0.002591 0.009532 -0.001542 0.000000 0.000000 0.000000
# 3 -0.000550 -0.001542 0.007043 0.000000 0.000000 0.000000
# 4 0.000000 0.000000 0.000000 0.037260 0.000000 0.000000
# 5 0.000000 0.000000 0.000000 0.000000 0.055757 0.000000
# 6 0.000000 0.000000 0.000000 0.000000 0.000000 0.020256
#
#
# Mechanical properties :
#
#
# Convention : Reuss Voigt Hill
#
# Bulk Modulus (GPa) = 49.19407 52.43663 50.81535
# Shear Modulus (GPa) = 31.42492 37.71331 34.56911
#
# Velocity S-wave (km/s) = 3.65468 4.00368 3.83316
# Velocity P-wave (km/s) = 6.22239 6.60758 6.41787
#
# Compressibility (1/GPa) = 0.02032765
#
# Stress axis : x y z
#
# Youngs Moduli (GPa) = 76.22482 104.90955 141.98934
#
# Poissons Ratio (x) = 0.27181 0.07815
# Poissons Ratio (y) = 0.19749 0.21892
# Poissons Ratio (z) = 0.04195 0.16175
#
# Static dielectric constant tensor:
#      x y z
#    x 1.934130 0.000000 0.000000 
#    y 0.000000 1.932890 0.000000 
#    z 0.000000 0.000000 1.891990 
# 
# From -- ./inp_files/10415.got.cif
#   From: 2010.05.17/outbox.cif.g08.bks.cpg/sg54_6_cif.got.tgz:10415.got - 2010.06.03 13:09:01.
