data_PCOD9423477
_publ_section_title
;
Structure prediction by ZEFSAII (Michael W. Deem and Ramdas Pophale) SiO2 
 PCOD9423477
Probable space group: P C C A
;
_chemical_formula_sum "Si O2"
_cell_formula_units_Z 24
_cell_length_a 14.344709
_cell_length_b 13.854938
_cell_length_c 5.284748
_cell_angle_alpha 90.000000
_cell_angle_beta 90.000000
_cell_angle_gamma 90.000000
_cell_volume 1050.317526
_symmetry_space_group_name_H-M "P C C A"
_symmetry_group_IT_number 54
_symmetry_cell_setting 'orthorhombic'
loop_
_space_group_symop_operation_xyz
x,y,z
1/2-x,-y,z
1/2+x,-y,1/2-z
-x,y,1/2-z
-x,-y,-z
1/2+x,y,-z
1/2-x,y,1/2+z
x,-y,1/2+z
loop_
_atom_site_type_symbol
_atom_site_label
_atom_site_fract_x
_atom_site_fract_y
_atom_site_fract_z
Si Si1 0.395106 0.539305 0.457654
Si Si2 0.112478 0.056472 0.254934
Si Si3 0.190438 0.729985 0.800840
O O1 0.500000 0.500000 0.500000
O O2 0.351813 0.525085 0.734282
O O3 0.386062 0.648391 0.363209
O O4 0.150708 0.162189 0.312368
O O5 0.000000 0.061418 0.250000
O O6 0.140818 0.984203 0.480786
O O7 0.233159 0.717725 0.522114
#
# Coordination Sequence:
#
# PCOD9423477 Si02
#       3
#     8   8   8
#     4  10  23  43  66  95 126 182 221 271 328 402
#     4  10  23  44  68  98 134 180 225 268 324 407
#     4  12  26  42  68 104 136 173 222 284 344 401
#
# _framework density 22.850231999999998
#
# number of rings (size 3 to 8) (size 9 to 14) (size 15 to 20)
#    0.000    1.333    0.000    4.000    4.667    8.000 
#   12.000    0.000    0.000    0.000    0.000    0.000 
#    0.000    0.000    0.000    0.000    0.000    0.000 
#
# Total GULP energy -134256.549531 kJ/mol
# GULP energy per Si atom -5594.022897 kJ/mol
# Density = 2.279822 g / cm^3
# Si number density = 22.850232 Si / 1000 Ang^3
#
#
#
# Elastic Constant Matrix: (Units=GPa)
#
#
# Indices 1 2 3 4 5 6 
#
# 1 96.0426 43.0903 16.3430 0.0000 0.0000 0.0000
# 2 43.0903 193.5978 51.3438 0.0000 0.0000 0.0000
# 3 16.3430 51.3438 189.9993 0.0000 0.0000 0.0000
# 4 0.0000 0.0000 0.0000 46.6019 0.0000 0.0000
# 5 0.0000 0.0000 0.0000 0.0000 7.8720 0.0000
# 6 0.0000 0.0000 0.0000 0.0000 0.0000 41.3753
#
#
#
# Elastic Compliance Matrix: (Units=1/GPa)
#
#
# Indices 1 2 3 4 5 6 
#
# 1 0.011586 -0.002493 -0.000323 0.000000 0.000000 0.000000
# 2 -0.002493 0.006101 -0.001434 0.000000 0.000000 0.000000
# 3 -0.000323 -0.001434 0.005678 0.000000 0.000000 0.000000
# 4 0.000000 0.000000 0.000000 0.021458 0.000000 0.000000
# 5 0.000000 0.000000 0.000000 0.000000 0.127033 0.000000
# 6 0.000000 0.000000 0.000000 0.000000 0.000000 0.024169
#
#
# Mechanical properties :
#
#
# Convention : Reuss Voigt Hill
#
# Bulk Modulus (GPa) = 67.27411 77.91044 72.59228
# Shear Modulus (GPa) = 23.86867 43.76069 33.81468
#
# Velocity S-wave (km/s) = 3.23549 4.38094 3.85104
# Velocity P-wave (km/s) = 6.59265 7.73048 7.18413
#
# Compressibility (1/GPa) = 0.01486456
#
# Stress axis : x y z
#
# Youngs Moduli (GPa) = 86.31478 163.91887 176.10310
#
# Poissons Ratio (x) = 0.40866 0.05685
# Poissons Ratio (y) = 0.21519 0.25255
# Poissons Ratio (z) = 0.02787 0.23508
#
# Static dielectric constant tensor:
#      x y z
#    x 1.406660 0.000000 0.000000 
#    y 0.000000 1.802920 0.000000 
#    z 0.000000 0.000000 1.903300 
# 
# From -- ./inp_files/286.got.cif
#   From: 2010.05.17/outbox.cif.g08.bks.cpg/sg54_1_cif.got.tgz:286.got - 2010.06.03 13:09:01.
