data_PCOD9423127
_publ_section_title
;
Structure prediction by ZEFSAII (Michael W. Deem and Ramdas Pophale) SiO2 
 PCOD9423127
Probable space group: P C C A
;
_chemical_formula_sum "Si O2"
_cell_formula_units_Z 32
_cell_length_a 9.176001
_cell_length_b 13.825886
_cell_length_c 11.409194
_cell_angle_alpha 90.000000
_cell_angle_beta 90.000000
_cell_angle_gamma 90.000000
_cell_volume 1447.442728
_symmetry_space_group_name_H-M "P C C A"
_symmetry_group_IT_number 54
_symmetry_cell_setting 'orthorhombic'
loop_
_space_group_symop_operation_xyz
x,y,z
1/2-x,-y,z
1/2+x,-y,1/2-z
-x,y,1/2-z
-x,-y,-z
1/2+x,y,-z
1/2-x,y,1/2+z
x,-y,1/2+z
loop_
_atom_site_type_symbol
_atom_site_label
_atom_site_fract_x
_atom_site_fract_y
_atom_site_fract_z
Si Si1 0.750000 0.000000 0.458028
Si Si2 0.793766 0.611247 0.936043
Si Si3 0.505986 0.712413 0.611094
Si Si4 0.493927 0.129878 0.931536
Si Si5 0.000000 0.708342 0.750000
O O1 0.862312 0.940207 0.537580
O O2 0.639129 0.927754 0.389445
O O3 0.750000 0.500000 0.931667
O O4 0.651863 0.677367 0.930856
O O5 0.890317 0.642282 0.823799
O O6 0.881214 0.636904 0.054152
O O7 0.500000 0.715511 0.750000
O O8 0.538584 0.815255 0.551534
O O9 0.442232 0.215180 0.845921
#
# Coordination Sequence:
#
# PCOD9423127 Si02
#       5
#     4   8   8   8   4
#     4  10  22  42  66  94 140 174 240 294 338 442
#     4  11  26  46  72 106 144 186 248 293 356 434
#     4  11  26  45  73 101 146 193 233 300 365 427
#     4  10  22  44  63 102 135 182 235 286 362 420
#     4  10  24  42  74  98 146 184 230 304 360 424
#
# _framework density 22.107956999999999
#
# number of rings (size 3 to 8) (size 9 to 14) (size 15 to 20)
#    0.000    1.500    0.000    3.750   12.250    2.000 
#    9.000    0.000    0.000    0.000    0.000    0.000 
#    0.000    0.000    0.000    0.000    0.000    0.000 
#
# Total GULP energy -178854.005920 kJ/mol
# GULP energy per Si atom -5589.187685 kJ/mol
# Density = 2.205764 g / cm^3
# Si number density = 22.107957 Si / 1000 Ang^3
#
#
#
# Elastic Constant Matrix: (Units=GPa)
#
#
# Indices 1 2 3 4 5 6 
#
# 1 53.3904 40.8369 14.4273 0.0000 0.0000 0.0000
# 2 40.8369 134.4138 50.5135 0.0000 0.0000 0.0000
# 3 14.4273 50.5135 136.0693 0.0000 0.0000 0.0000
# 4 0.0000 0.0000 0.0000 7.3598 0.0000 0.0000
# 5 0.0000 0.0000 0.0000 0.0000 42.9676 0.0000
# 6 0.0000 0.0000 0.0000 0.0000 0.0000 54.6665
#
#
#
# Elastic Compliance Matrix: (Units=1/GPa)
#
#
# Indices 1 2 3 4 5 6 
#
# 1 0.024404 -0.007486 0.000192 0.000000 0.000000 0.000000
# 2 -0.007486 0.010943 -0.003268 0.000000 0.000000 0.000000
# 3 0.000192 -0.003268 0.008542 0.000000 0.000000 0.000000
# 4 0.000000 0.000000 0.000000 0.135873 0.000000 0.000000
# 5 0.000000 0.000000 0.000000 0.000000 0.023273 0.000000
# 6 0.000000 0.000000 0.000000 0.000000 0.000000 0.018293
#
#
# Mechanical properties :
#
#
# Convention : Reuss Voigt Hill
#
# Bulk Modulus (GPa) = 43.93165 59.49211 51.71188
# Shear Modulus (GPa) = 19.99660 35.53850 27.76755
#
# Velocity S-wave (km/s) = 3.01075 4.01371 3.54785
# Velocity P-wave (km/s) = 5.65692 6.96047 6.34227
#
# Compressibility (1/GPa) = 0.02276263
#
# Stress axis : x y z
#
# Youngs Moduli (GPa) = 40.97627 91.38675 117.06542
#
# Poissons Ratio (x) = 0.68416 -0.02244
# Poissons Ratio (y) = 0.30677 0.38262
# Poissons Ratio (z) = -0.00785 0.29869
#
# Static dielectric constant tensor:
#      x y z
#    x 1.809000 0.000000 0.000000 
#    y 0.000000 1.811640 0.000000 
#    z 0.000000 0.000000 1.892620 
# 
# From -- ./inp_files/6739.got.cif
#   From: 2010.05.17/outbox.cif.g08.bks.cpg/sg54_4_cif.got.tgz:6739.got - 2010.06.03 13:09:01.
