data_PCOD9423207
_publ_section_title
;
Structure prediction by ZEFSAII (Michael W. Deem and Ramdas Pophale) SiO2 
 PCOD9423207
Probable space group: P C C A
;
_chemical_formula_sum "Si O2"
_cell_formula_units_Z 48
_cell_length_a 8.383339
_cell_length_b 13.717085
_cell_length_c 19.509781
_cell_angle_alpha 90.000000
_cell_angle_beta 90.000000
_cell_angle_gamma 90.000000
_cell_volume 2243.526752
_symmetry_space_group_name_H-M "P C C A"
_symmetry_group_IT_number 54
_symmetry_cell_setting 'orthorhombic'
loop_
_space_group_symop_operation_xyz
x,y,z
1/2-x,-y,z
1/2+x,-y,1/2-z
-x,y,1/2-z
-x,-y,-z
1/2+x,y,-z
1/2-x,y,1/2+z
x,-y,1/2+z
loop_
_atom_site_type_symbol
_atom_site_label
_atom_site_fract_x
_atom_site_fract_y
_atom_site_fract_z
Si Si1 0.033582 0.224263 0.420044
Si Si2 0.922830 0.547678 0.565650
Si Si3 0.389300 0.075722 0.038827
Si Si4 0.040419 0.399355 0.828190
Si Si5 0.831821 0.272233 0.216161
Si Si6 0.679765 0.220447 0.358424
O O1 0.063181 0.337320 0.437107
O O2 0.109800 0.160840 0.480744
O O3 0.117972 0.203530 0.347048
O O4 0.842941 0.216249 0.404112
O O5 0.750000 0.500000 0.566556
O O6 0.995485 0.499514 0.633380
O O7 0.000000 0.500000 0.500000
O O8 0.423444 0.132288 0.109808
O O9 0.250000 0.000000 0.056173
O O10 0.500000 0.000000 0.000000
O O11 0.219331 0.354125 0.819488
O O12 0.000000 0.413923 0.750000
O O13 0.927996 0.317439 0.863106
O O14 0.735081 0.221932 0.278680
O O15 0.000000 0.307209 0.250000
#
# Coordination Sequence:
#
# PCOD9423207 Si02
#       6
#     8   8   8   8   8   8
#     4  11  24  43  69  98 143 182 231 298 351 426
#     4  12  27  42  64 103 145 187 236 284 352 424
#     4  12  26  45  72 100 135 185 242 294 369 432
#     4  10  22  43  70 104 141 192 232 280 348 428
#     4   9  20  42  71 100 140 186 227 288 354 412
#     4  10  23  43  70 102 138 179 235 296 354 422
#
# _framework density 21.394884000000001
#
# number of rings (size 3 to 8) (size 9 to 14) (size 15 to 20)
#    0.000    1.333    3.333    1.000    7.000    2.000 
#    0.000    0.833    0.000    0.000    0.000    0.000 
#    0.000    0.000    0.000    0.000    0.000    0.000 
#
# Total GULP energy -267335.018747 kJ/mol
# GULP energy per Si atom -5569.479557 kJ/mol
# Density = 2.134619 g / cm^3
# Si number density = 21.394884 Si / 1000 Ang^3
#
#
#
# Elastic Constant Matrix: (Units=GPa)
#
#
# Indices 1 2 3 4 5 6 
#
# 1 22.2408 14.3067 17.7410 0.0000 0.0000 0.0000
# 2 14.3067 153.7081 67.5540 0.0000 0.0000 0.0000
# 3 17.7410 67.5540 106.1983 0.0000 0.0000 0.0000
# 4 0.0000 0.0000 0.0000 41.8806 0.0000 0.0000
# 5 0.0000 0.0000 0.0000 0.0000 22.1645 0.0000
# 6 0.0000 0.0000 0.0000 0.0000 0.0000 25.4972
#
#
#
# Elastic Compliance Matrix: (Units=1/GPa)
#
#
# Indices 1 2 3 4 5 6 
#
# 1 0.052098 -0.001422 -0.007799 0.000000 0.000000 0.000000
# 2 -0.001422 0.009069 -0.005532 0.000000 0.000000 0.000000
# 3 -0.007799 -0.005532 0.014238 0.000000 0.000000 0.000000
# 4 0.000000 0.000000 0.000000 0.023877 0.000000 0.000000
# 5 0.000000 0.000000 0.000000 0.000000 0.045117 0.000000
# 6 0.000000 0.000000 0.000000 0.000000 0.000000 0.039220
#
#
# Mechanical properties :
#
#
# Convention : Reuss Voigt Hill
#
# Bulk Modulus (GPa) = 21.78609 53.48342 37.63475
# Shear Modulus (GPa) = 21.88911 30.07815 25.98363
#
# Velocity S-wave (km/s) = 3.20206 3.75354 3.48872
# Velocity P-wave (km/s) = 4.88630 6.62102 5.81867
#
# Compressibility (1/GPa) = 0.04590084
#
# Stress axis : x y z
#
# Youngs Moduli (GPa) = 19.19464 110.26268 70.23497
#
# Poissons Ratio (x) = 0.15674 0.54776
# Poissons Ratio (y) = 0.02729 0.38851
# Poissons Ratio (z) = 0.14970 0.60993
#
# Static dielectric constant tensor:
#      x y z
#    x 1.723610 0.000000 0.000000 
#    y 0.000000 1.731770 0.000000 
#    z 0.000000 0.000000 1.697630 
# 
# From -- ./inp_files/20390.got.cif
#   From: 2010.05.17/outbox.cif.g08.bks.cpg/sg54_11_cif.got.tgz:20390.got - 2010.06.03 13:09:01.
