data_PCOD9423927
_publ_section_title
;
Structure prediction by ZEFSAII (Michael W. Deem and Ramdas Pophale) SiO2 
 PCOD9423927
Probable space group: P C C A
;
_chemical_formula_sum "Si O2"
_cell_formula_units_Z 48
_cell_length_a 16.753384
_cell_length_b 4.874900
_cell_length_c 23.033700
_cell_angle_alpha 90.000000
_cell_angle_beta 90.000000
_cell_angle_gamma 90.000000
_cell_volume 1881.186963
_symmetry_space_group_name_H-M "P C C A"
_symmetry_group_IT_number 54
_symmetry_cell_setting 'orthorhombic'
loop_
_space_group_symop_operation_xyz
x,y,z
1/2-x,-y,z
1/2+x,-y,1/2-z
-x,y,1/2-z
-x,-y,-z
1/2+x,y,-z
1/2-x,y,1/2+z
x,-y,1/2+z
loop_
_atom_site_type_symbol
_atom_site_label
_atom_site_fract_x
_atom_site_fract_y
_atom_site_fract_z
Si Si1 0.500000 0.218990 0.750000
Si Si2 0.360973 0.671570 0.431629
Si Si3 0.979295 0.379573 0.371832
Si Si4 0.837303 0.867659 0.250413
Si Si5 0.832059 0.862061 0.998750
Si Si6 0.750000 0.500000 0.166659
Si Si7 0.118418 0.132999 0.617532
O O1 0.480786 0.420699 0.696815
O O2 0.419302 0.037257 0.762023
O O3 0.438703 0.551299 0.401060
O O4 0.390274 0.949490 0.462782
O O5 0.295930 0.695803 0.379865
O O6 0.336594 0.448902 0.480735
O O7 0.910792 0.566412 0.399594
O O8 0.959027 0.057840 0.373796
O O9 0.821592 0.608806 0.208332
O O10 0.839079 0.832190 0.320418
O O11 0.750000 0.000000 0.239000
O O12 0.750000 0.000000 0.019252
O O13 0.838340 0.962330 0.932622
#
# Coordination Sequence:
#
# PCOD9423927 Si02
#       7
#     4   8   8   8   8   4   8
#     4  10  26  48  78 110 166 200 254 320 398 472
#     4  12  27  44  78 103 146 193 250 317 379 455
#     4  11  26  45  72 112 142 199 243 314 386 453
#     4  11  27  48  75 114 149 204 248 324 379 467
#     4  12  25  49  70 105 144 199 254 311 377 458
#     4  12  28  44  76 112 146 196 252 314 384 464
#     4  11  27  47  74 105 151 194 252 306 385 453
#
# _framework density 25.515806000000001
#
# number of rings (size 3 to 8) (size 9 to 14) (size 15 to 20)
#    0.000    0.667    1.667    3.500   16.333    4.667 
#    3.000    0.000    0.000    0.000    0.000    0.000 
#    0.000    0.000    0.000    0.000    0.000    0.000 
#
# Total GULP energy -267917.203178 kJ/mol
# GULP energy per Si atom -5581.608400 kJ/mol
# Density = 2.545773 g / cm^3
# Si number density = 25.515806 Si / 1000 Ang^3
#
#
#
# Elastic Constant Matrix: (Units=GPa)
#
#
# Indices 1 2 3 4 5 6 
#
# 1 97.8197 22.1788 38.9953 0.0000 0.0000 0.0000
# 2 22.1788 105.1042 33.2807 0.0000 0.0000 0.0000
# 3 38.9953 33.2807 167.0704 0.0000 0.0000 0.0000
# 4 0.0000 0.0000 0.0000 36.3804 0.0000 0.0000
# 5 0.0000 0.0000 0.0000 0.0000 29.9237 0.0000
# 6 0.0000 0.0000 0.0000 0.0000 0.0000 28.2747
#
#
#
# Elastic Compliance Matrix: (Units=1/GPa)
#
#
# Indices 1 2 3 4 5 6 
#
# 1 0.011546 -0.001690 -0.002358 0.000000 0.000000 0.000000
# 2 -0.001690 0.010402 -0.001678 0.000000 0.000000 0.000000
# 3 -0.002358 -0.001678 0.006870 0.000000 0.000000 0.000000
# 4 0.000000 0.000000 0.000000 0.027487 0.000000 0.000000
# 5 0.000000 0.000000 0.000000 0.000000 0.033418 0.000000
# 6 0.000000 0.000000 0.000000 0.000000 0.000000 0.035367
#
#
# Mechanical properties :
#
#
# Convention : Reuss Voigt Hill
#
# Bulk Modulus (GPa) = 57.58075 62.10044 59.84059
# Shear Modulus (GPa) = 35.12912 37.28505 36.20708
#
# Velocity S-wave (km/s) = 3.71450 3.82678 3.77106
# Velocity P-wave (km/s) = 6.40409 6.62695 6.51647
#
# Compressibility (1/GPa) = 0.01736691
#
# Stress axis : x y z
#
# Youngs Moduli (GPa) = 86.60904 96.13383 145.55695
#
# Poissons Ratio (x) = 0.16244 0.34327
# Poissons Ratio (y) = 0.14634 0.24421
# Poissons Ratio (z) = 0.20425 0.16129
#
# Static dielectric constant tensor:
#      x y z
#    x 2.182220 0.000000 0.000000 
#    y 0.000000 2.171700 0.000000 
#    z 0.000000 0.000000 2.034450 
# 
# From -- ./inp_files/24628.got.cif
#   From: 2010.05.17/outbox.cif.g08.bks.cpg/sg54_13_cif.got.tgz:24628.got - 2010.06.03 13:09:01.
