data_PCOD9423642
_publ_section_title
;
Structure prediction by ZEFSAII (Michael W. Deem and Ramdas Pophale) SiO2 
 PCOD9423642
Probable space group: P C C A
;
_chemical_formula_sum "Si O2"
_cell_formula_units_Z 40
_cell_length_a 8.354902
_cell_length_b 15.736856
_cell_length_c 14.653087
_cell_angle_alpha 90.000000
_cell_angle_beta 90.000000
_cell_angle_gamma 90.000000
_cell_volume 1926.586262
_symmetry_space_group_name_H-M "P C C A"
_symmetry_group_IT_number 54
_symmetry_cell_setting 'orthorhombic'
loop_
_space_group_symop_operation_xyz
x,y,z
1/2-x,-y,z
1/2+x,-y,1/2-z
-x,y,1/2-z
-x,-y,-z
1/2+x,y,-z
1/2-x,y,1/2+z
x,-y,1/2+z
loop_
_atom_site_type_symbol
_atom_site_label
_atom_site_fract_x
_atom_site_fract_y
_atom_site_fract_z
Si Si1 0.325797 0.805193 0.708153
Si Si2 0.000000 0.293534 0.250000
Si Si3 0.479039 0.807708 0.514123
Si Si4 0.484932 0.622868 0.429080
Si Si5 0.737235 0.900422 0.116116
Si Si6 0.750000 0.500000 0.963823
O O1 0.500000 0.772053 0.750000
O O2 0.159060 0.753571 0.713224
O O3 0.360310 0.819117 0.601289
O O4 0.282301 0.881562 0.778545
O O5 0.926126 0.346499 0.167797
O O6 0.500924 0.708105 0.490249
O O7 0.425008 0.858551 0.423113
O O8 0.636924 0.848984 0.555130
O O9 0.365639 0.557337 0.475227
O O10 0.646421 0.569881 0.411714
O O11 0.750000 0.000000 0.098783
#
# Coordination Sequence:
#
# PCOD9423642 Si02
#       6
#     8   4   8   8   8   4
#     4  10  24  41  63  99 129 178 235 273 332 399
#     4  12  22  42  70  98 130 182 228 276 338 426
#     4  11  22  43  68  95 132 189 220 276 347 413
#     4  11  23  42  68  96 134 174 226 272 351 407
#     4  11  23  41  63  99 137 173 231 285 333 395
#     4  10  24  42  64 100 132 172 216 290 334 410
#
# _framework density 20.762111999999998
#
# number of rings (size 3 to 8) (size 9 to 14) (size 15 to 20)
#    0.000    1.200    2.000    4.200    2.800    1.600 
#    5.400    0.000    0.000    0.000    0.000    0.000 
#    0.000    0.000    0.000    0.000    0.000    0.000 
#
# Total GULP energy -222877.671064 kJ/mol
# GULP energy per Si atom -5571.941777 kJ/mol
# Density = 2.071486 g / cm^3
# Si number density = 20.762112 Si / 1000 Ang^3
#
#
#
# Elastic Constant Matrix: (Units=GPa)
#
#
# Indices 1 2 3 4 5 6 
#
# 1 16.5118 -6.0504 -1.5081 0.0000 0.0000 0.0000
# 2 -6.0504 121.9497 29.9261 0.0000 0.0000 0.0000
# 3 -1.5081 29.9261 95.7573 0.0000 0.0000 0.0000
# 4 0.0000 0.0000 0.0000 31.5698 0.0000 0.0000
# 5 0.0000 0.0000 0.0000 0.0000 44.6041 0.0000
# 6 0.0000 0.0000 0.0000 0.0000 0.0000 -133.6282
#
#
#
# Elastic Compliance Matrix: (Units=1/GPa)
#
#
# Indices 1 2 3 4 5 6 
#
# 1 0.061684 0.003056 0.000016 0.000000 0.000000 0.000000
# 2 0.003056 0.009033 -0.002775 0.000000 0.000000 0.000000
# 3 0.000016 -0.002775 0.011310 0.000000 0.000000 0.000000
# 4 0.000000 0.000000 0.000000 0.031676 0.000000 0.000000
# 5 0.000000 0.000000 0.000000 0.000000 0.022419 0.000000
# 6 0.000000 0.000000 0.000000 0.000000 0.000000 -0.007483
#
#
# Mechanical properties :
#
#
# Convention : Reuss Voigt Hill
#
# Bulk Modulus (GPa) = 12.10311 30.99489 21.54900
# Shear Modulus (GPa) = 32.13686 2.63257 17.38472
#
# Velocity S-wave (km/s) = 3.93855 1.12726 2.89680
# Velocity P-wave (km/s) = 5.15025 4.08109 4.64652
#
# Compressibility (1/GPa) = 0.08262339
#
# Stress axis : x y z
#
# Youngs Moduli (GPa) = 16.21156 110.70939 88.41349
#
# Poissons Ratio (x) = -0.33837 -0.00144
# Poissons Ratio (y) = -0.04955 0.24533
# Poissons Ratio (z) = -0.00026 0.30719
#
# Static dielectric constant tensor:
#      x y z
#    x -0.048660 0.000000 0.000000 
#    y 0.000000 1.781770 0.000000 
#    z 0.000000 0.000000 1.747230 
# 
# From -- ./inp_files/11529.got.cif
#   From: 2010.05.17/outbox.cif.g08.bks.cpg/sg54_6_cif.got.tgz:11529.got - 2010.06.03 13:09:01.
