data_PCOD9423178
_publ_section_title
;
Structure prediction by ZEFSAII (Michael W. Deem and Ramdas Pophale) SiO2 
 PCOD9423178
Probable space group: P C C A
;
_chemical_formula_sum "Si O2"
_cell_formula_units_Z 32
_cell_length_a 7.992157
_cell_length_b 15.040111
_cell_length_c 11.716070
_cell_angle_alpha 90.000000
_cell_angle_beta 90.000000
_cell_angle_gamma 90.000000
_cell_volume 1408.305923
_symmetry_space_group_name_H-M "P C C A"
_symmetry_group_IT_number 54
_symmetry_cell_setting 'orthorhombic'
loop_
_space_group_symop_operation_xyz
x,y,z
1/2-x,-y,z
1/2+x,-y,1/2-z
-x,y,1/2-z
-x,-y,-z
1/2+x,y,-z
1/2-x,y,1/2+z
x,-y,1/2+z
loop_
_atom_site_type_symbol
_atom_site_label
_atom_site_fract_x
_atom_site_fract_y
_atom_site_fract_z
Si Si1 0.857969 0.294229 0.152179
Si Si2 0.873382 0.429451 0.949961
Si Si3 0.000000 0.303441 0.750000
Si Si4 0.512230 0.881158 0.383828
Si Si5 0.250000 0.000000 0.999300
O O1 0.680361 0.261515 0.208337
O O2 0.945497 0.214964 0.078981
O O3 0.000000 0.318621 0.250000
O O4 0.817998 0.372019 0.061223
O O5 0.750000 0.500000 0.890601
O O6 0.941928 0.363177 0.856057
O O7 0.000000 0.500000 0.000000
O O8 0.500000 0.873794 0.250000
O O9 0.689516 0.915901 0.426957
O O10 0.393030 0.961100 0.420502
#
# Coordination Sequence:
#
# PCOD9423178 Si02
#       5
#     8   8   4   8   4
#     4  11  27  47  70 106 144 189 249 301 366 438
#     4  12  26  44  70  99 144 191 253 304 358 433
#     4  12  28  46  74 104 142 204 236 316 370 420
#     4  10  23  44  68 106 139 182 233 289 356 436
#     4  10  22  42  74  98 144 182 228 288 360 432
#
# _framework density 22.722337
#
# number of rings (size 3 to 8) (size 9 to 14) (size 15 to 20)
#    0.000    1.000    2.500    2.250    8.750    2.000 
#   11.250    0.000    0.000    0.000    0.000    0.000 
#    0.000    0.000    0.000    0.000    0.000    0.000 
#
# Total GULP energy -178264.438592 kJ/mol
# GULP energy per Si atom -5570.763706 kJ/mol
# Density = 2.267062 g / cm^3
# Si number density = 22.722337 Si / 1000 Ang^3
#
#
#
# Elastic Constant Matrix: (Units=GPa)
#
#
# Indices 1 2 3 4 5 6 
#
# 1 84.1924 9.7337 5.3560 0.0000 0.0000 0.0000
# 2 9.7337 86.3519 14.3789 0.0000 0.0000 0.0000
# 3 5.3560 14.3789 57.1674 0.0000 0.0000 0.0000
# 4 0.0000 0.0000 0.0000 21.1554 0.0000 0.0000
# 5 0.0000 0.0000 0.0000 0.0000 17.1609 0.0000
# 6 0.0000 0.0000 0.0000 0.0000 0.0000 42.7422
#
#
#
# Elastic Compliance Matrix: (Units=1/GPa)
#
#
# Indices 1 2 3 4 5 6 
#
# 1 0.012071 -0.001224 -0.000823 0.000000 0.000000 0.000000
# 2 -0.001224 0.012211 -0.002957 0.000000 0.000000 0.000000
# 3 -0.000823 -0.002957 0.018313 0.000000 0.000000 0.000000
# 4 0.000000 0.000000 0.000000 0.047269 0.000000 0.000000
# 5 0.000000 0.000000 0.000000 0.000000 0.058272 0.000000
# 6 0.000000 0.000000 0.000000 0.000000 0.000000 0.023396
#
#
# Mechanical properties :
#
#
# Convention : Reuss Voigt Hill
#
# Bulk Modulus (GPa) = 30.68570 31.84991 31.26780
# Shear Modulus (GPa) = 25.98719 29.42790 27.70754
#
# Velocity S-wave (km/s) = 3.38551 3.60267 3.49577
# Velocity P-wave (km/s) = 5.36807 5.59938 5.48494
#
# Compressibility (1/GPa) = 0.03258847
#
# Stress axis : x y z
#
# Youngs Moduli (GPa) = 82.84051 81.89490 54.60521
#
# Poissons Ratio (x) = 0.10021 0.04495
# Poissons Ratio (y) = 0.10137 0.16145
# Poissons Ratio (z) = 0.06819 0.24213
#
# Static dielectric constant tensor:
#      x y z
#    x 2.019410 0.000000 0.000000 
#    y 0.000000 1.875830 0.000000 
#    z 0.000000 0.000000 1.803300 
# 
# From -- ./inp_files/6741.got.cif
#   From: 2010.05.17/outbox.cif.g08.bks.cpg/sg54_4_cif.got.tgz:6741.got - 2010.06.03 13:09:01.
