data_PCOD9423338
_publ_section_title
;
Structure prediction by ZEFSAII (Michael W. Deem and Ramdas Pophale) SiO2 
 PCOD9423338
Probable space group: P C C A
;
_chemical_formula_sum "Si O2"
_cell_formula_units_Z 28
_cell_length_a 10.097584
_cell_length_b 5.361524
_cell_length_c 18.818012
_cell_angle_alpha 90.000000
_cell_angle_beta 90.000000
_cell_angle_gamma 90.000000
_cell_volume 1018.777794
_symmetry_space_group_name_H-M "P C C A"
_symmetry_group_IT_number 54
_symmetry_cell_setting 'orthorhombic'
loop_
_space_group_symop_operation_xyz
x,y,z
1/2-x,-y,z
1/2+x,-y,1/2-z
-x,y,1/2-z
-x,-y,-z
1/2+x,y,-z
1/2-x,y,1/2+z
x,-y,1/2+z
loop_
_atom_site_type_symbol
_atom_site_label
_atom_site_fract_x
_atom_site_fract_y
_atom_site_fract_z
Si Si1 0.750000 0.500000 0.243902
Si Si2 0.922174 0.185133 0.324756
Si Si3 0.879003 0.827090 0.974139
Si Si4 0.372208 0.203645 0.372318
O O1 0.780548 0.266508 0.293835
O O2 0.858696 0.590935 0.187962
O O3 0.916522 0.320997 0.402772
O O4 0.000000 0.219559 0.250000
O O5 0.991329 0.935311 0.353690
O O6 0.750000 0.000000 0.959082
O O7 0.856430 0.688209 0.048706
O O8 0.000000 0.000000 0.000000
O O9 0.250000 0.000000 0.365002
#
# Coordination Sequence:
#
# PCOD9423338 Si02
#       4
#     4   8   8   8
#     4  12  26  44  74 110 146 200 244 306 388 438
#     4  11  24  44  71 110 146 189 249 313 370 446
#     4   9  21  43  73 104 144 201 246 306 385 448
#     4  10  22  48  69 101 149 192 244 305 370 448
#
# _framework density 27.483910999999999
#
# number of rings (size 3 to 8) (size 9 to 14) (size 15 to 20)
#    0.000    1.714    2.857    0.000    4.000    2.286 
#    5.143    1.429    0.000    0.000    0.000    0.000 
#    0.000    0.000    0.000    0.000    0.000    0.000 
#
# Total GULP energy -155892.049374 kJ/mol
# GULP energy per Si atom -5567.573192 kJ/mol
# Density = 2.742136 g / cm^3
# Si number density = 27.483911 Si / 1000 Ang^3
#
#
#
# Elastic Constant Matrix: (Units=GPa)
#
#
# Indices 1 2 3 4 5 6 
#
# 1 119.6140 26.7328 48.4836 0.0000 0.0000 0.0000
# 2 26.7328 70.9723 64.7509 0.0000 0.0000 0.0000
# 3 48.4836 64.7509 346.6928 0.0000 0.0000 0.0000
# 4 0.0000 0.0000 0.0000 -9.3196 0.0000 0.0000
# 5 0.0000 0.0000 0.0000 0.0000 126.0974 0.0000
# 6 0.0000 0.0000 0.0000 0.0000 0.0000 39.6785
#
#
#
# Elastic Compliance Matrix: (Units=1/GPa)
#
#
# Indices 1 2 3 4 5 6 
#
# 1 0.009300 -0.002792 -0.000779 0.000000 0.000000 0.000000
# 2 -0.002792 0.017822 -0.002938 0.000000 0.000000 0.000000
# 3 -0.000779 -0.002938 0.003542 0.000000 0.000000 0.000000
# 4 0.000000 0.000000 0.000000 -0.107300 0.000000 0.000000
# 5 0.000000 0.000000 0.000000 0.000000 0.007930 0.000000
# 6 0.000000 0.000000 0.000000 0.000000 0.000000 0.025203
#
#
# Mechanical properties :
#
#
# Convention : Reuss Voigt Hill
#
# Bulk Modulus (GPa) = 56.67140 90.80151 73.73646
# Shear Modulus (GPa) = -203.23454 57.77869 -72.72792
#
# Velocity S-wave (km/s) = -8.60856 4.59003 -5.14970
# Velocity P-wave (km/s) = 8.83997 7.82310 2.91068
#
# Compressibility (1/GPa) = 0.01764558
#
# Stress axis : x y z
#
# Youngs Moduli (GPa) = 107.52627 56.10940 282.31851
#
# Poissons Ratio (x) = 0.15667 0.21995
# Poissons Ratio (y) = 0.30024 0.82949
# Poissons Ratio (z) = 0.08377 0.16486
#
# Static dielectric constant tensor:
#      x y z
#    x 2.459530 0.000000 0.000000 
#    y 0.000000 1.788520 0.000000 
#    z 0.000000 0.000000 2.109010 
# 
# From -- ./inp_files/20758.got.cif
#   From: 2010.05.17/outbox.cif.g08.bks.cpg/sg54_11_cif.got.tgz:20758.got - 2010.06.03 13:09:01.
