data_PCOD9423714
_publ_section_title
;
Structure prediction by ZEFSAII (Michael W. Deem and Ramdas Pophale) SiO2 
 PCOD9423714
Probable space group: P C C A
;
_chemical_formula_sum "Si O2"
_cell_formula_units_Z 56
_cell_length_a 8.664102
_cell_length_b 21.913234
_cell_length_c 15.001010
_cell_angle_alpha 90.000000
_cell_angle_beta 90.000000
_cell_angle_gamma 90.000000
_cell_volume 2848.069175
_symmetry_space_group_name_H-M "P C C A"
_symmetry_group_IT_number 54
_symmetry_cell_setting 'orthorhombic'
loop_
_space_group_symop_operation_xyz
x,y,z
1/2-x,-y,z
1/2+x,-y,1/2-z
-x,y,1/2-z
-x,-y,-z
1/2+x,y,-z
1/2-x,y,1/2+z
x,-y,1/2+z
loop_
_atom_site_type_symbol
_atom_site_label
_atom_site_fract_x
_atom_site_fract_y
_atom_site_fract_z
Si Si1 0.870041 0.955496 0.961868
Si Si2 0.830623 0.336244 0.421969
Si Si3 0.683866 0.566540 0.268871
Si Si4 0.641239 0.212989 0.379066
Si Si5 0.195052 0.652855 0.884315
Si Si6 0.207006 0.778668 0.317489
Si Si7 0.362358 0.871715 0.447896
O O1 0.973548 0.901196 0.921811
O O2 0.750000 0.000000 0.910338
O O3 0.767327 0.923770 0.038741
O O4 0.000000 0.000000 0.000000
O O5 0.777831 0.387247 0.350072
O O6 0.747037 0.271029 0.404645
O O7 0.788372 0.349560 0.524075
O O8 0.015401 0.338157 0.410261
O O9 0.750000 0.500000 0.286493
O O10 0.500000 0.563827 0.250000
O O11 0.740335 0.595401 0.176005
O O12 0.462559 0.228919 0.360700
O O13 0.698413 0.193841 0.281181
O O14 0.635728 0.162177 0.455966
O O15 0.226811 0.710919 0.821143
O O16 0.308462 0.822044 0.378348
#
# Coordination Sequence:
#
# PCOD9423714 Si02
#       7
#     8   8   8   8   8   8   8
#     4   9  20  38  64  90 124 169 209 248 303 369
#     4  11  23  40  61  91 128 165 208 265 322 380
#     4  10  24  44  64  88 124 170 216 258 319 391
#     4  11  23  37  59  94 131 162 209 261 328 379
#     4  11  23  40  61  91 128 165 208 264 324 374
#     4  11  23  37  59  94 131 164 205 267 323 380
#     4  11  20  38  62  94 123 165 216 254 313 376
#
# _framework density 19.662444000000001
#
# number of rings (size 3 to 8) (size 9 to 14) (size 15 to 20)
#    0.000    1.429    4.286    0.857    2.000    2.857 
#    0.000    2.857    0.000   12.857    0.000    0.000 
#    0.000    0.000    0.000    0.000    0.000    0.000 
#
# Total GULP energy -312251.855586 kJ/mol
# GULP energy per Si atom -5575.925993 kJ/mol
# Density = 1.961769 g / cm^3
# Si number density = 19.662444 Si / 1000 Ang^3
#
#
#
# Elastic Constant Matrix: (Units=GPa)
#
#
# Indices 1 2 3 4 5 6 
#
# 1 63.7780 23.5600 15.7563 0.0000 0.0000 0.0000
# 2 23.5600 79.8937 21.1624 0.0000 0.0000 0.0000
# 3 15.7563 21.1624 89.0733 0.0000 0.0000 0.0000
# 4 0.0000 0.0000 0.0000 -31.2540 0.0000 0.0000
# 5 0.0000 0.0000 0.0000 0.0000 18.0355 0.0000
# 6 0.0000 0.0000 0.0000 0.0000 0.0000 38.5964
#
#
#
# Elastic Compliance Matrix: (Units=1/GPa)
#
#
# Indices 1 2 3 4 5 6 
#
# 1 0.017939 -0.004748 -0.002045 0.000000 0.000000 0.000000
# 2 -0.004748 0.014614 -0.002632 0.000000 0.000000 0.000000
# 3 -0.002045 -0.002632 0.012214 0.000000 0.000000 0.000000
# 4 0.000000 0.000000 0.000000 -0.031996 0.000000 0.000000
# 5 0.000000 0.000000 0.000000 0.000000 0.055446 0.000000
# 6 0.000000 0.000000 0.000000 0.000000 0.000000 0.025909
#
#
# Mechanical properties :
#
#
# Convention : Reuss Voigt Hill
#
# Bulk Modulus (GPa) = 38.58683 39.30026 38.94355
# Shear Modulus (GPa) = 41.11320 16.56000 28.83660
#
# Velocity S-wave (km/s) = 4.57765 2.90524 3.83375
# Velocity P-wave (km/s) = 6.89979 5.59328 6.28060
#
# Compressibility (1/GPa) = 0.02591558
#
# Stress axis : x y z
#
# Youngs Moduli (GPa) = 55.74549 68.42723 81.87448
#
# Poissons Ratio (x) = 0.32491 0.16744
# Poissons Ratio (y) = 0.26469 0.21551
# Poissons Ratio (z) = 0.11400 0.18011
#
# Static dielectric constant tensor:
#      x y z
#    x 1.720040 0.000000 0.000000 
#    y 0.000000 1.720000 0.000000 
#    z 0.000000 0.000000 1.670130 
# 
# From -- ./inp_files/11891.got.cif
#   From: 2010.05.17/outbox.cif.g08.bks.cpg/sg54_6_cif.got.tgz:11891.got - 2010.06.03 13:09:01.
