data_PCOD9423033
_publ_section_title
;
Structure prediction by ZEFSAII (Michael W. Deem and Ramdas Pophale) SiO2 
 PCOD9423033
Probable space group: P C C A
;
_chemical_formula_sum "Si O2"
_cell_formula_units_Z 44
_cell_length_a 26.492502
_cell_length_b 9.466466
_cell_length_c 8.315757
_cell_angle_alpha 90.000000
_cell_angle_beta 90.000000
_cell_angle_gamma 90.000000
_cell_volume 2085.511770
_symmetry_space_group_name_H-M "P C C A"
_symmetry_group_IT_number 54
_symmetry_cell_setting 'orthorhombic'
loop_
_space_group_symop_operation_xyz
x,y,z
1/2-x,-y,z
1/2+x,-y,1/2-z
-x,y,1/2-z
-x,-y,-z
1/2+x,y,-z
1/2-x,y,1/2+z
x,-y,1/2+z
loop_
_atom_site_type_symbol
_atom_site_label
_atom_site_fract_x
_atom_site_fract_y
_atom_site_fract_z
Si Si1 0.250000 0.000000 0.923722
Si Si2 0.907382 0.034921 0.970279
Si Si3 0.446946 0.809842 0.832383
Si Si4 0.059102 0.458633 0.024456
Si Si5 0.315379 0.855020 0.159348
Si Si6 0.894408 0.312115 0.173095
O O1 0.294280 0.056649 0.809894
O O2 0.231152 0.131054 0.034313
O O3 0.906246 0.154690 0.108101
O O4 0.949346 0.920486 0.021033
O O5 0.914671 0.116706 0.804644
O O6 0.858836 0.937844 0.937866
O O7 0.500000 0.782980 0.750000
O O8 0.427217 0.663195 0.897430
O O9 0.096121 0.588491 0.982156
O O10 0.068738 0.384399 0.195935
O O11 0.000000 0.500000 0.000000
O O12 0.341283 0.714080 0.232638
#
# Coordination Sequence:
#
# PCOD9423033 Si02
#       6
#     4   8   8   8   8   8
#     4  10  22  40  74 106 136 156 214 296 366 444
#     4  12  22  41  66 100 132 171 230 291 342 401
#     4  12  23  38  60  95 135 181 228 282 332 389
#     4  12  26  45  63  92 139 199 237 267 326 409
#     4  11  21  42  69 107 127 166 214 285 361 408
#     4  12  24  43  68  98 137 182 233 280 339 410
#
# _framework density 21.097939
#
# number of rings (size 3 to 8) (size 9 to 14) (size 15 to 20)
#    0.000    0.364    5.455    4.364    0.000    1.455 
#    0.000    0.000    0.000    3.273    0.000    0.000 
#    0.000    0.000    0.000    0.000    0.000    0.000 
#
# Total GULP energy -245289.908953 kJ/mol
# GULP energy per Si atom -5574.770658 kJ/mol
# Density = 2.104992 g / cm^3
# Si number density = 21.097939 Si / 1000 Ang^3
#
#
#
# Elastic Constant Matrix: (Units=GPa)
#
#
# Indices 1 2 3 4 5 6 
#
# 1 33.8553 13.2675 10.3424 0.0000 0.0000 0.0000
# 2 13.2675 111.0980 28.8643 0.0000 0.0000 0.0000
# 3 10.3424 28.8643 83.5920 0.0000 0.0000 0.0000
# 4 0.0000 0.0000 0.0000 53.5571 0.0000 0.0000
# 5 0.0000 0.0000 0.0000 0.0000 31.9500 0.0000
# 6 0.0000 0.0000 0.0000 0.0000 0.0000 34.1754
#
#
#
# Elastic Compliance Matrix: (Units=1/GPa)
#
#
# Indices 1 2 3 4 5 6 
#
# 1 0.031600 -0.003030 -0.002863 0.000000 0.000000 0.000000
# 2 -0.003030 0.010179 -0.003140 0.000000 0.000000 0.000000
# 3 -0.002863 -0.003140 0.013401 0.000000 0.000000 0.000000
# 4 0.000000 0.000000 0.000000 0.018672 0.000000 0.000000
# 5 0.000000 0.000000 0.000000 0.000000 0.031299 0.000000
# 6 0.000000 0.000000 0.000000 0.000000 0.000000 0.029261
#
#
# Mechanical properties :
#
#
# Convention : Reuss Voigt Hill
#
# Bulk Modulus (GPa) = 26.94439 37.05484 31.99961
# Shear Modulus (GPa) = 30.33096 35.67459 33.00278
#
# Velocity S-wave (km/s) = 3.79572 4.11652 3.95937
# Velocity P-wave (km/s) = 5.65763 6.34001 6.00851
#
# Compressibility (1/GPa) = 0.03711348
#
# Stress axis : x y z
#
# Youngs Moduli (GPa) = 31.64601 98.24505 74.61940
#
# Poissons Ratio (x) = 0.29765 0.21367
# Poissons Ratio (y) = 0.09588 0.23429
# Poissons Ratio (z) = 0.09062 0.30847
#
# Static dielectric constant tensor:
#      x y z
#    x 1.823870 0.000000 0.000000 
#    y 0.000000 1.750490 0.000000 
#    z 0.000000 0.000000 1.864310 
# 
# From -- ./inp_files/5791.got.cif
#   From: 2010.05.17/outbox.cif.g08.bks.cpg/sg54_3_cif.got.tgz:5791.got - 2010.06.03 13:09:01.
