data_PCOD9423844
_publ_section_title
;
Structure prediction by ZEFSAII (Michael W. Deem and Ramdas Pophale) SiO2 
 PCOD9423844
Probable space group: P C C A
;
_chemical_formula_sum "Si O2"
_cell_formula_units_Z 40
_cell_length_a 15.528849
_cell_length_b 10.070740
_cell_length_c 11.366384
_cell_angle_alpha 90.000000
_cell_angle_beta 90.000000
_cell_angle_gamma 90.000000
_cell_volume 1777.554703
_symmetry_space_group_name_H-M "P C C A"
_symmetry_group_IT_number 54
_symmetry_cell_setting 'orthorhombic'
loop_
_space_group_symop_operation_xyz
x,y,z
1/2-x,-y,z
1/2+x,-y,1/2-z
-x,y,1/2-z
-x,-y,-z
1/2+x,y,-z
1/2-x,y,1/2+z
x,-y,1/2+z
loop_
_atom_site_type_symbol
_atom_site_label
_atom_site_fract_x
_atom_site_fract_y
_atom_site_fract_z
Si Si1 0.101379 0.962153 0.009676
Si Si2 0.869543 0.752912 0.921614
Si Si3 0.073128 0.634195 0.333095
Si Si4 0.309029 0.247314 0.160022
Si Si5 0.500000 0.619373 0.250000
Si Si6 0.250000 0.000000 0.318661
O O1 0.164604 0.965666 0.896452
O O2 0.136005 0.088221 0.082220
O O3 0.122059 0.824024 0.074272
O O4 0.000000 0.000000 0.000000
O O5 0.772524 0.701662 0.911972
O O6 0.928886 0.703739 0.816074
O O7 0.909269 0.706662 0.045617
O O8 0.153608 0.641583 0.245522
O O9 0.000000 0.700967 0.250000
O O10 0.041972 0.482779 0.344137
O O11 0.276532 0.129388 0.245515
#
# Coordination Sequence:
#
# PCOD9423844 Si02
#       6
#     8   8   8   8   4   4
#     4  12  25  40  71 106 143 186 225 295 374 444
#     4  12  23  47  71 104 143 182 244 297 362 439
#     4  10  24  49  71  95 144 189 243 295 351 423
#     4  12  23  43  71 106 145 183 228 302 361 440
#     4  10  28  46  72 102 132 196 250 300 338 440
#     4  12  22  44  62 112 150 172 234 286 362 454
#
# _framework density 22.502824
#
# number of rings (size 3 to 8) (size 9 to 14) (size 15 to 20)
#    0.600    0.000    6.000    1.800    2.800    0.800 
#    3.600    2.000    0.000    0.000    0.000    0.000 
#    0.000    0.000    0.000    0.000    0.000    0.000 
#
# Total GULP energy -223342.052738 kJ/mol
# GULP energy per Si atom -5583.551318 kJ/mol
# Density = 2.245161 g / cm^3
# Si number density = 22.502824 Si / 1000 Ang^3
#
#
#
# Elastic Constant Matrix: (Units=GPa)
#
#
# Indices 1 2 3 4 5 6 
#
# 1 125.0926 -14.6497 45.9059 0.0000 0.0000 0.0000
# 2 -14.6497 26.6200 1.3303 0.0000 0.0000 0.0000
# 3 45.9059 1.3303 71.2983 0.0000 0.0000 0.0000
# 4 0.0000 0.0000 0.0000 12.9493 0.0000 0.0000
# 5 0.0000 0.0000 0.0000 0.0000 41.0781 0.0000
# 6 0.0000 0.0000 0.0000 0.0000 0.0000 26.5111
#
#
#
# Elastic Compliance Matrix: (Units=1/GPa)
#
#
# Indices 1 2 3 4 5 6 
#
# 1 0.011561 0.006741 -0.007570 0.000000 0.000000 0.000000
# 2 0.006741 0.041531 -0.005115 0.000000 0.000000 0.000000
# 3 -0.007570 -0.005115 0.018995 0.000000 0.000000 0.000000
# 4 0.000000 0.000000 0.000000 0.077224 0.000000 0.000000
# 5 0.000000 0.000000 0.000000 0.000000 0.024344 0.000000
# 6 0.000000 0.000000 0.000000 0.000000 0.000000 0.037720
#
#
# Mechanical properties :
#
#
# Convention : Reuss Voigt Hill
#
# Bulk Modulus (GPa) = 16.61144 32.02042 24.31593
# Shear Modulus (GPa) = 20.54827 28.80265 24.67546
#
# Velocity S-wave (km/s) = 3.02510 3.58153 3.31501
# Velocity P-wave (km/s) = 4.42715 5.60032 5.04793
#
# Compressibility (1/GPa) = 0.06019948
#
# Stress axis : x y z
#
# Youngs Moduli (GPa) = 86.49487 24.07842 52.64603
#
# Poissons Ratio (x) = -0.16231 0.39851
# Poissons Ratio (y) = -0.58305 0.26928
# Poissons Ratio (z) = 0.65474 0.12316
#
# Static dielectric constant tensor:
#      x y z
#    x 2.593570 0.000000 0.000000 
#    y 0.000000 1.802110 0.000000 
#    z 0.000000 0.000000 1.837360 
# 
# From -- ./inp_files/8258.got.cif
#   From: 2010.05.17/outbox.cif.g08.bks.cpg/sg54_5_cif.got.tgz:8258.got - 2010.06.03 13:09:01.
