data_PCOD9423572
_publ_section_title
;
Structure prediction by ZEFSAII (Michael W. Deem and Ramdas Pophale) SiO2 
 PCOD9423572
Probable space group: P C C A
;
_chemical_formula_sum "Si O2"
_cell_formula_units_Z 40
_cell_length_a 20.558197
_cell_length_b 7.202059
_cell_length_c 11.133004
_cell_angle_alpha 90.000000
_cell_angle_beta 90.000000
_cell_angle_gamma 90.000000
_cell_volume 1648.367576
_symmetry_space_group_name_H-M "P C C A"
_symmetry_group_IT_number 54
_symmetry_cell_setting 'orthorhombic'
loop_
_space_group_symop_operation_xyz
x,y,z
1/2-x,-y,z
1/2+x,-y,1/2-z
-x,y,1/2-z
-x,-y,-z
1/2+x,y,-z
1/2-x,y,1/2+z
x,-y,1/2+z
loop_
_atom_site_type_symbol
_atom_site_label
_atom_site_fract_x
_atom_site_fract_y
_atom_site_fract_z
Si Si1 0.189216 0.100913 0.148302
Si Si2 0.386063 0.215151 0.257733
Si Si3 0.424136 0.693172 0.494236
Si Si4 0.812566 0.589435 0.668975
Si Si5 0.563120 0.247091 0.991393
O O1 0.209635 0.285762 0.219294
O O2 0.250000 0.000000 0.083579
O O3 0.165805 0.948888 0.245509
O O4 0.125761 0.158573 0.072126
O O5 0.417208 0.226967 0.126842
O O6 0.353610 0.414943 0.282926
O O7 0.432978 0.185104 0.370108
O O8 0.359704 0.711004 0.414733
O O9 0.429599 0.470508 0.509731
O O10 0.490475 0.777515 0.439616
O O11 0.750000 0.500000 0.604512
#
# Coordination Sequence:
#
# PCOD9423572 Si02
#       5
#     8   8   8   8   8
#     4  12  26  44  72 106 146 194 248 298 369 438
#     4  11  24  44  71 105 146 187 238 309 363 436
#     4  10  23  46  75 101 147 195 242 307 368 435
#     4  11  24  46  71 105 143 192 244 302 369 433
#     4  10  24  46  72 107 145 195 247 299 370 443
#
# _framework density 24.26643
#
# number of rings (size 3 to 8) (size 9 to 14) (size 15 to 20)
#    0.000    1.200    4.000    0.600    2.800    6.400 
#    3.600    0.000    0.000    0.000    0.000    0.000 
#    0.000    0.000    0.000    0.000    0.000    0.000 
#
# Total GULP energy -223598.593481 kJ/mol
# GULP energy per Si atom -5589.964837 kJ/mol
# Density = 2.421120 g / cm^3
# Si number density = 24.266430 Si / 1000 Ang^3
#
#
#
# Elastic Constant Matrix: (Units=GPa)
#
#
# Indices 1 2 3 4 5 6 
#
# 1 201.8810 39.5597 57.4638 0.0000 0.0000 0.0000
# 2 39.5597 111.7084 21.7057 0.0000 0.0000 0.0000
# 3 57.4638 21.7057 65.4034 0.0000 0.0000 0.0000
# 4 0.0000 0.0000 0.0000 16.1286 0.0000 0.0000
# 5 0.0000 0.0000 0.0000 0.0000 31.1907 0.0000
# 6 0.0000 0.0000 0.0000 0.0000 0.0000 38.1931
#
#
#
# Elastic Compliance Matrix: (Units=1/GPa)
#
#
# Indices 1 2 3 4 5 6 
#
# 1 0.006785 -0.001330 -0.005520 0.000000 0.000000 0.000000
# 2 -0.001330 0.009830 -0.002093 0.000000 0.000000 0.000000
# 3 -0.005520 -0.002093 0.020835 0.000000 0.000000 0.000000
# 4 0.000000 0.000000 0.000000 0.062002 0.000000 0.000000
# 5 0.000000 0.000000 0.000000 0.000000 0.032061 0.000000
# 6 0.000000 0.000000 0.000000 0.000000 0.000000 0.026183
#
#
# Mechanical properties :
#
#
# Convention : Reuss Voigt Hill
#
# Bulk Modulus (GPa) = 51.11995 68.49459 59.80727
# Shear Modulus (GPa) = 27.45695 34.45339 30.95517
#
# Velocity S-wave (km/s) = 3.36740 3.77211 3.57548
# Velocity P-wave (km/s) = 6.01922 6.87452 6.46104
#
# Compressibility (1/GPa) = 0.01956183
#
# Stress axis : x y z
#
# Youngs Moduli (GPa) = 147.37599 101.73195 47.99728
#
# Poissons Ratio (x) = 0.13534 0.26495
# Poissons Ratio (y) = 0.19606 0.10048
# Poissons Ratio (z) = 0.81354 0.21297
#
# Static dielectric constant tensor:
#      x y z
#    x 2.043420 0.000000 0.000000 
#    y 0.000000 1.938270 0.000000 
#    z 0.000000 0.000000 1.899220 
# 
# From -- ./inp_files/8708.got.cif
#   From: 2010.05.17/outbox.cif.g08.bks.cpg/sg54_5_cif.got.tgz:8708.got - 2010.06.03 13:09:01.
