data_PCOD9423848
_publ_section_title
;
Structure prediction by ZEFSAII (Michael W. Deem and Ramdas Pophale) SiO2 
 PCOD9423848
Probable space group: P C C A
;
_chemical_formula_sum "Si O2"
_cell_formula_units_Z 32
_cell_length_a 5.299269
_cell_length_b 15.321112
_cell_length_c 17.671802
_cell_angle_alpha 90.000000
_cell_angle_beta 90.000000
_cell_angle_gamma 90.000000
_cell_volume 1434.785866
_symmetry_space_group_name_H-M "P C C A"
_symmetry_group_IT_number 54
_symmetry_cell_setting 'orthorhombic'
loop_
_space_group_symop_operation_xyz
x,y,z
1/2-x,-y,z
1/2+x,-y,1/2-z
-x,y,1/2-z
-x,-y,-z
1/2+x,y,-z
1/2-x,y,1/2+z
x,-y,1/2+z
loop_
_atom_site_type_symbol
_atom_site_label
_atom_site_fract_x
_atom_site_fract_y
_atom_site_fract_z
Si Si1 0.000000 0.368920 0.750000
Si Si2 0.127184 0.228545 0.176766
Si Si3 0.750000 0.500000 0.631783
Si Si4 0.777671 0.102867 0.950763
Si Si5 0.441610 0.341515 0.951095
O O1 0.203214 0.306269 0.710545
O O2 0.106562 0.432367 0.814498
O O3 0.272105 0.160012 0.124797
O O4 0.000000 0.185994 0.250000
O O5 0.932876 0.275903 0.119815
O O6 0.928226 0.560099 0.580624
O O7 0.750000 0.000000 0.933000
O O8 0.531890 0.121416 0.002540
O O9 0.703105 0.327853 0.994797
#
# Coordination Sequence:
#
# PCOD9423848 Si02
#       5
#     4   8   4   8   8
#     4  12  26  46  68 102 150 186 248 300 378 420
#     4  12  26  46  70 107 144 193 234 299 361 436
#     4  12  24  46  68  98 140 198 242 314 356 426
#     4  10  24  49  79 111 146 188 234 290 359 433
#     4  12  26  45  69 100 136 185 246 300 352 414
#
# _framework density 22.302980999999999
#
# number of rings (size 3 to 8) (size 9 to 14) (size 15 to 20)
#    0.000    0.500    2.500    5.250    3.500    2.000 
#    2.250    0.000    0.000    0.000    0.000    0.000 
#    0.000    0.000    0.000    0.000    0.000    0.000 
#
# Total GULP energy -179359.842685 kJ/mol
# GULP energy per Si atom -5604.995084 kJ/mol
# Density = 2.225222 g / cm^3
# Si number density = 22.302981 Si / 1000 Ang^3
#
#
#
# Elastic Constant Matrix: (Units=GPa)
#
#
# Indices 1 2 3 4 5 6 
#
# 1 101.5526 17.8550 50.4560 0.0000 0.0000 0.0000
# 2 17.8550 91.7034 55.2007 0.0000 0.0000 0.0000
# 3 50.4560 55.2007 151.1369 0.0000 0.0000 0.0000
# 4 0.0000 0.0000 0.0000 37.9231 0.0000 0.0000
# 5 0.0000 0.0000 0.0000 0.0000 32.9128 0.0000
# 6 0.0000 0.0000 0.0000 0.0000 0.0000 21.6953
#
#
#
# Elastic Compliance Matrix: (Units=1/GPa)
#
#
# Indices 1 2 3 4 5 6 
#
# 1 0.011806 0.000095 -0.003976 0.000000 0.000000 0.000000
# 2 0.000095 0.013979 -0.005137 0.000000 0.000000 0.000000
# 3 -0.003976 -0.005137 0.009820 0.000000 0.000000 0.000000
# 4 0.000000 0.000000 0.000000 0.026369 0.000000 0.000000
# 5 0.000000 0.000000 0.000000 0.000000 0.030383 0.000000
# 6 0.000000 0.000000 0.000000 0.000000 0.000000 0.046093
#
#
# Mechanical properties :
#
#
# Convention : Reuss Voigt Hill
#
# Bulk Modulus (GPa) = 56.92208 65.71293 61.31751
# Shear Modulus (GPa) = 30.79905 33.23162 32.01534
#
# Velocity S-wave (km/s) = 3.72013 3.86425 3.79287
# Velocity P-wave (km/s) = 6.63552 7.03119 6.83622
#
# Compressibility (1/GPa) = 0.01756787
#
# Stress axis : x y z
#
# Youngs Moduli (GPa) = 84.70355 71.53816 101.83215
#
# Poissons Ratio (x) = -0.00677 0.40487
# Poissons Ratio (y) = -0.00801 0.52312
# Poissons Ratio (z) = 0.33677 0.36750
#
# Static dielectric constant tensor:
#      x y z
#    x 1.845380 0.000000 0.000000 
#    y 0.000000 1.818130 0.000000 
#    z 0.000000 0.000000 1.813640 
# 
# From -- ./inp_files/15689.got.cif
#   From: 2010.05.17/outbox.cif.g08.bks.cpg/sg54_8_cif.got.tgz:15689.got - 2010.06.03 13:09:01.
