data_PCOD9423829
_publ_section_title
;
Structure prediction by ZEFSAII (Michael W. Deem and Ramdas Pophale) SiO2 
 PCOD9423829
Probable space group: P C C A
;
_chemical_formula_sum "Si O2"
_cell_formula_units_Z 40
_cell_length_a 9.572729
_cell_length_b 13.705703
_cell_length_c 14.069266
_cell_angle_alpha 90.000000
_cell_angle_beta 90.000000
_cell_angle_gamma 90.000000
_cell_volume 1845.901495
_symmetry_space_group_name_H-M "P C C A"
_symmetry_group_IT_number 54
_symmetry_cell_setting 'orthorhombic'
loop_
_space_group_symop_operation_xyz
x,y,z
1/2-x,-y,z
1/2+x,-y,1/2-z
-x,y,1/2-z
-x,-y,-z
1/2+x,y,-z
1/2-x,y,1/2+z
x,-y,1/2+z
loop_
_atom_site_type_symbol
_atom_site_label
_atom_site_fract_x
_atom_site_fract_y
_atom_site_fract_z
Si Si1 0.496662 0.627529 0.432741
Si Si2 0.904226 0.801793 0.038397
Si Si3 0.750000 0.500000 0.490292
Si Si4 0.331045 0.901227 0.562601
Si Si5 0.722272 0.110058 0.223882
Si Si6 0.500000 0.233189 0.750000
O O1 0.526845 0.697046 0.523587
O O2 0.632745 0.557698 0.429657
O O3 0.350932 0.570677 0.447573
O O4 0.493264 0.698042 0.342317
O O5 0.851526 0.826746 0.143211
O O6 0.023281 0.880702 0.011925
O O7 0.773060 0.815539 0.969479
O O8 0.356005 0.900003 0.675521
O O9 0.250000 0.000000 0.538930
O O10 0.866442 0.163220 0.248803
O O11 0.750000 0.000000 0.188227
#
# Coordination Sequence:
#
# PCOD9423829 Si02
#       6
#     8   8   4   8   8   4
#     4  11  24  44  73  96 136 167 230 280 360 410
#     4  12  23  43  67 100 131 193 223 283 337 408
#     4  10  24  48  70 100 124 174 214 296 358 426
#     4  11  24  39  63  95 140 182 237 275 324 386
#     4  11  26  40  65  99 147 184 236 277 326 385
#     4  12  24  44  68 104 136 182 224 292 328 412
#
# _framework density 21.669629
#
# number of rings (size 3 to 8) (size 9 to 14) (size 15 to 20)
#    0.000    0.800    2.000    5.400    5.600    0.800 
#    0.000    0.000    0.000    0.000    0.000    0.000 
#    0.000    0.000    0.000    0.000    0.000    0.000 
#
# Total GULP energy -223688.598502 kJ/mol
# GULP energy per Si atom -5592.214963 kJ/mol
# Density = 2.162031 g / cm^3
# Si number density = 21.669629 Si / 1000 Ang^3
#
#
#
# Elastic Constant Matrix: (Units=GPa)
#
#
# Indices 1 2 3 4 5 6 
#
# 1 126.5712 38.1008 17.5601 0.0000 0.0000 0.0000
# 2 38.1008 93.3264 21.4819 0.0000 0.0000 0.0000
# 3 17.5601 21.4819 76.3183 0.0000 0.0000 0.0000
# 4 0.0000 0.0000 0.0000 22.4752 0.0000 0.0000
# 5 0.0000 0.0000 0.0000 0.0000 25.2257 0.0000
# 6 0.0000 0.0000 0.0000 0.0000 0.0000 47.2240
#
#
#
# Elastic Compliance Matrix: (Units=1/GPa)
#
#
# Indices 1 2 3 4 5 6 
#
# 1 0.009096 -0.003456 -0.001120 0.000000 0.000000 0.000000
# 2 -0.003456 0.012770 -0.002799 0.000000 0.000000 0.000000
# 3 -0.001120 -0.002799 0.014149 0.000000 0.000000 0.000000
# 4 0.000000 0.000000 0.000000 0.044493 0.000000 0.000000
# 5 0.000000 0.000000 0.000000 0.000000 0.039642 0.000000
# 6 0.000000 0.000000 0.000000 0.000000 0.000000 0.021176
#
#
# Mechanical properties :
#
#
# Convention : Reuss Voigt Hill
#
# Bulk Modulus (GPa) = 47.02667 50.05572 48.54120
# Shear Modulus (GPa) = 30.64369 33.58985 32.11677
#
# Velocity S-wave (km/s) = 3.76457 3.94139 3.85399
# Velocity P-wave (km/s) = 6.37533 6.62287 6.50027
#
# Compressibility (1/GPa) = 0.02126453
#
# Stress axis : x y z
#
# Youngs Moduli (GPa) = 109.93389 78.30687 70.67764
#
# Poissons Ratio (x) = 0.27061 0.07918
# Poissons Ratio (y) = 0.37991 0.19786
# Poissons Ratio (z) = 0.12316 0.21921
#
# Static dielectric constant tensor:
#      x y z
#    x 1.788290 0.000000 0.000000 
#    y 0.000000 1.827190 0.000000 
#    z 0.000000 0.000000 1.776500 
# 
# From -- ./inp_files/11530.got.cif
#   From: 2010.05.17/outbox.cif.g08.bks.cpg/sg54_6_cif.got.tgz:11530.got - 2010.06.03 13:09:01.
