data_PCOD9423751
_publ_section_title
;
Structure prediction by ZEFSAII (Michael W. Deem and Ramdas Pophale) SiO2 
 PCOD9423751
Probable space group: P C C A
;
_chemical_formula_sum "Si O2"
_cell_formula_units_Z 40
_cell_length_a 8.781324
_cell_length_b 8.506275
_cell_length_c 22.515252
_cell_angle_alpha 90.000000
_cell_angle_beta 90.000000
_cell_angle_gamma 90.000000
_cell_volume 1681.807297
_symmetry_space_group_name_H-M "P C C A"
_symmetry_group_IT_number 54
_symmetry_cell_setting 'orthorhombic'
loop_
_space_group_symop_operation_xyz
x,y,z
1/2-x,-y,z
1/2+x,-y,1/2-z
-x,y,1/2-z
-x,-y,-z
1/2+x,y,-z
1/2-x,y,1/2+z
x,-y,1/2+z
loop_
_atom_site_type_symbol
_atom_site_label
_atom_site_fract_x
_atom_site_fract_y
_atom_site_fract_z
Si Si1 0.135363 0.120365 0.999880
Si Si2 0.500000 0.916876 0.750000
Si Si3 0.274101 0.683208 0.100223
Si Si4 0.155905 0.222404 0.227450
Si Si5 0.568642 0.774293 0.623855
Si Si6 0.750000 0.500000 0.189061
O O1 0.168225 0.170461 0.932379
O O2 0.250000 0.000000 0.030234
O O3 0.132785 0.270534 0.041852
O O4 0.000000 0.000000 0.000000
O O5 0.677630 0.852543 0.766495
O O6 0.551159 0.898708 0.676527
O O7 0.250000 0.500000 0.107382
O O8 0.361429 0.744663 0.158445
O O9 0.100839 0.745082 0.098966
O O10 0.160793 0.377976 0.267923
O O11 0.000000 0.123512 0.250000
O O12 0.639077 0.612759 0.651227
#
# Coordination Sequence:
#
# PCOD9423751 Si02
#       6
#     8   4   8   8   8   4
#     4  12  28  50  76 111 152 201 258 312 373 460
#     4  10  26  44  74 106 152 190 252 302 394 448
#     4  12  26  48  78 103 155 201 255 311 390 456
#     4  10  24  44  72 112 146 192 247 312 377 456
#     4  12  28  48  74 111 149 203 253 317 386 453
#     4  12  26  42  74 108 154 190 256 322 376 460
#
# _framework density 23.783937000000002
#
# number of rings (size 3 to 8) (size 9 to 14) (size 15 to 20)
#    0.600    0.000    3.000    3.600    5.600    4.000 
#    0.000    0.000    0.000    0.000    0.000    0.000 
#    0.000    0.000    0.000    0.000    0.000    0.000 
#
# Total GULP energy -222890.187604 kJ/mol
# GULP energy per Si atom -5572.254690 kJ/mol
# Density = 2.372980 g / cm^3
# Si number density = 23.783937 Si / 1000 Ang^3
#
#
#
# Elastic Constant Matrix: (Units=GPa)
#
#
# Indices 1 2 3 4 5 6 
#
# 1 93.2641 44.0267 30.9560 0.0000 0.0000 0.0000
# 2 44.0267 139.8906 67.6920 0.0000 0.0000 0.0000
# 3 30.9560 67.6920 171.4589 0.0000 0.0000 0.0000
# 4 0.0000 0.0000 0.0000 40.0988 0.0000 0.0000
# 5 0.0000 0.0000 0.0000 0.0000 26.8561 0.0000
# 6 0.0000 0.0000 0.0000 0.0000 0.0000 43.3297
#
#
#
# Elastic Compliance Matrix: (Units=1/GPa)
#
#
# Indices 1 2 3 4 5 6 
#
# 1 0.012701 -0.003570 -0.000884 0.000000 0.000000 0.000000
# 2 -0.003570 0.009840 -0.003240 0.000000 0.000000 0.000000
# 3 -0.000884 -0.003240 0.007271 0.000000 0.000000 0.000000
# 4 0.000000 0.000000 0.000000 0.024938 0.000000 0.000000
# 5 0.000000 0.000000 0.000000 0.000000 0.037235 0.000000
# 6 0.000000 0.000000 0.000000 0.000000 0.000000 0.023079
#
#
# Mechanical properties :
#
#
# Convention : Reuss Voigt Hill
#
# Bulk Modulus (GPa) = 69.32714 76.66257 72.99485
# Shear Modulus (GPa) = 36.96593 39.51950 38.24272
#
# Velocity S-wave (km/s) = 3.94666 4.08070 4.01424
# Velocity P-wave (km/s) = 7.06967 7.38280 7.22793
#
# Compressibility (1/GPa) = 0.01442437
#
# Stress axis : x y z
#
# Youngs Moduli (GPa) = 78.73624 101.62794 137.53008
#
# Poissons Ratio (x) = 0.36276 0.12155
# Poissons Ratio (y) = 0.28105 0.44564
# Poissons Ratio (z) = 0.06959 0.32931
#
# Static dielectric constant tensor:
#      x y z
#    x 1.929320 0.000000 0.000000 
#    y 0.000000 2.258940 0.000000 
#    z 0.000000 0.000000 1.875190 
# 
# From -- ./inp_files/23313.got.cif
#   From: 2010.05.17/outbox.cif.g08.bks.cpg/sg54_12_cif.got.tgz:23313.got - 2010.06.03 13:09:01.
