data_PCOD9423141
_publ_section_title
;
Structure prediction by ZEFSAII (Michael W. Deem and Ramdas Pophale) SiO2 
 PCOD9423141
Probable space group: P C C A
;
_chemical_formula_sum "Si O2"
_cell_formula_units_Z 60
_cell_length_a 9.216473
_cell_length_b 26.871191
_cell_length_c 11.600734
_cell_angle_alpha 90.000000
_cell_angle_beta 90.000000
_cell_angle_gamma 90.000000
_cell_volume 2873.010014
_symmetry_space_group_name_H-M "P C C A"
_symmetry_group_IT_number 54
_symmetry_cell_setting 'orthorhombic'
loop_
_space_group_symop_operation_xyz
x,y,z
1/2-x,-y,z
1/2+x,-y,1/2-z
-x,y,1/2-z
-x,-y,-z
1/2+x,y,-z
1/2-x,y,1/2+z
x,-y,1/2+z
loop_
_atom_site_type_symbol
_atom_site_label
_atom_site_fract_x
_atom_site_fract_y
_atom_site_fract_z
Si Si1 0.422560 0.484192 0.624052
Si Si2 0.497376 0.834394 0.377617
Si Si3 0.000000 0.752591 0.250000
Si Si4 0.058575 0.635176 0.624679
Si Si5 0.561574 0.050440 0.134823
Si Si6 0.343210 0.690069 0.549486
Si Si7 0.793187 0.213579 0.560832
Si Si8 0.611902 0.937523 0.089967
O O1 0.250000 0.500000 0.624854
O O2 0.500000 0.499697 0.750000
O O3 0.500000 0.500000 0.500000
O O4 0.435003 0.424416 0.621607
O O5 0.500000 0.812946 0.250000
O O6 0.611885 0.807626 0.457386
O O7 0.343405 0.821562 0.430472
O O8 0.496959 0.894029 0.371270
O O9 0.924528 0.718979 0.347838
O O10 0.883280 0.784486 0.178990
O O11 0.218401 0.656087 0.602773
O O12 0.000000 0.650836 0.750000
O O13 0.953661 0.658093 0.527314
O O14 0.500000 0.073565 0.250000
O O15 0.717150 0.073246 0.101902
O O16 0.588324 0.991194 0.147553
O O17 0.435713 0.055306 0.041457
O O18 0.265495 0.731607 0.470074
#
# Coordination Sequence:
#
# PCOD9423141 Si02
#       8
#     8   8   4   8   8   8   8   8
#     4  11  24  46  70 102 144 190 233 287 349 414
#     4  12  26  44  66  95 131 171 215 268 322 399
#     4  12  24  44  68  92 130 170 220 272 328 388
#     4  11  25  43  69 103 135 173 232 278 332 397
#     4  10  22  42  68  91 128 165 205 270 323 381
#     4  12  23  45  69  99 131 174 222 278 337 389
#     4  12  25  45  68  95 131 175 214 270 335 394
#     4  10  23  42  64  97 123 164 219 257 323 393
#
# _framework density 20.88402
#
# number of rings (size 3 to 8) (size 9 to 14) (size 15 to 20)
#    0.000    0.800    2.667    4.000    0.000    8.533 
#    4.800    0.000    0.000    0.000    0.000    0.000 
#    0.000    0.000    0.000    0.000    0.000    0.000 
#
# Total GULP energy -335109.992147 kJ/mol
# GULP energy per Si atom -5585.166536 kJ/mol
# Density = 2.083649 g / cm^3
# Si number density = 20.884020 Si / 1000 Ang^3
#
#
#
# Elastic Constant Matrix: (Units=GPa)
#
#
# Indices 1 2 3 4 5 6 
#
# 1 110.0743 -4.9240 46.4501 0.0000 0.0000 0.0000
# 2 -4.9240 48.1194 -6.3927 0.0000 0.0000 0.0000
# 3 46.4501 -6.3927 100.7963 0.0000 0.0000 0.0000
# 4 0.0000 0.0000 0.0000 35.5563 0.0000 0.0000
# 5 0.0000 0.0000 0.0000 0.0000 18.0061 0.0000
# 6 0.0000 0.0000 0.0000 0.0000 0.0000 57.9397
#
#
#
# Elastic Compliance Matrix: (Units=1/GPa)
#
#
# Indices 1 2 3 4 5 6 
#
# 1 0.011288 0.000468 -0.005172 0.000000 0.000000 0.000000
# 2 0.000468 0.020978 0.001115 0.000000 0.000000 0.000000
# 3 -0.005172 0.001115 0.012375 0.000000 0.000000 0.000000
# 4 0.000000 0.000000 0.000000 0.028124 0.000000 0.000000
# 5 0.000000 0.000000 0.000000 0.000000 0.055537 0.000000
# 6 0.000000 0.000000 0.000000 0.000000 0.000000 0.017259
#
#
# Mechanical properties :
#
#
# Convention : Reuss Voigt Hill
#
# Bulk Modulus (GPa) = 26.69366 36.58409 31.63887
# Shear Modulus (GPa) = 30.26115 37.22420 33.74268
#
# Velocity S-wave (km/s) = 3.81072 4.22646 4.02396
# Velocity P-wave (km/s) = 5.67201 6.43219 6.06402
#
# Compressibility (1/GPa) = 0.03746209
#
# Stress axis : x y z
#
# Youngs Moduli (GPa) = 88.58670 47.66985 80.80622
#
# Poissons Ratio (x) = -0.02231 0.41796
# Poissons Ratio (y) = -0.04146 -0.09008
# Poissons Ratio (z) = 0.45820 -0.05314
#
# Static dielectric constant tensor:
#      x y z
#    x 1.724530 0.000000 0.000000 
#    y 0.000000 1.785220 0.000000 
#    z 0.000000 0.000000 1.766020 
# 
# From -- ./inp_files/7003.got.cif
#   From: 2010.05.17/outbox.cif.g08.bks.cpg/sg54_4_cif.got.tgz:7003.got - 2010.06.03 13:09:01.
