data_PCOD9423881
_publ_section_title
;
Structure prediction by ZEFSAII (Michael W. Deem and Ramdas Pophale) SiO2 
 PCOD9423881
Probable space group: P C C A
;
_chemical_formula_sum "Si O2"
_cell_formula_units_Z 32
_cell_length_a 9.540870
_cell_length_b 15.211145
_cell_length_c 8.847839
_cell_angle_alpha 90.000000
_cell_angle_beta 90.000000
_cell_angle_gamma 90.000000
_cell_volume 1284.065259
_symmetry_space_group_name_H-M "P C C A"
_symmetry_group_IT_number 54
_symmetry_cell_setting 'orthorhombic'
loop_
_space_group_symop_operation_xyz
x,y,z
1/2-x,-y,z
1/2+x,-y,1/2-z
-x,y,1/2-z
-x,-y,-z
1/2+x,y,-z
1/2-x,y,1/2+z
x,-y,1/2+z
loop_
_atom_site_type_symbol
_atom_site_label
_atom_site_fract_x
_atom_site_fract_y
_atom_site_fract_z
Si Si1 0.627906 0.935651 0.534794
Si Si2 0.570026 0.415441 0.082355
Si Si3 0.346601 0.307373 0.959966
Si Si4 0.758867 0.818226 0.276681
O O1 0.680623 0.886788 0.384232
O O2 0.625789 0.864042 0.668363
O O3 0.750000 0.000000 0.587048
O O4 0.500000 0.000000 0.500000
O O5 0.500000 0.414656 0.250000
O O6 0.735124 0.386961 0.080032
O O7 0.500000 0.500000 0.000000
O O8 0.502718 0.340455 0.978813
O O9 0.340968 0.229839 0.840807
O O10 0.312541 0.260345 0.118065
#
# Coordination Sequence:
#
# PCOD9423881 Si02
#       4
#     8   8   8   8
#     4  11  26  45  71 106 148 189 248 308 375 437
#     4  12  28  47  74 113 154 195 248 306 372 444
#     4  11  25  48  76 107 152 198 251 304 367 447
#     4  10  25  46  75 108 144 199 247 304 372 439
#
# _framework density 24.920849
#
# number of rings (size 3 to 8) (size 9 to 14) (size 15 to 20)
#    0.000    1.000    2.500    1.500    3.500   18.000 
#    0.000    3.750    0.000    0.000    0.000    0.000 
#    0.000    0.000    0.000    0.000    0.000    0.000 
#
# Total GULP energy -178889.643398 kJ/mol
# GULP energy per Si atom -5590.301356 kJ/mol
# Density = 2.486413 g / cm^3
# Si number density = 24.920849 Si / 1000 Ang^3
#
#
#
# Elastic Constant Matrix: (Units=GPa)
#
#
# Indices 1 2 3 4 5 6 
#
# 1 87.0131 6.1571 10.9007 0.0000 0.0000 0.0000
# 2 6.1571 85.9839 41.9846 0.0000 0.0000 0.0000
# 3 10.9007 41.9846 146.4869 0.0000 0.0000 0.0000
# 4 0.0000 0.0000 0.0000 49.0239 0.0000 0.0000
# 5 0.0000 0.0000 0.0000 0.0000 19.1305 0.0000
# 6 0.0000 0.0000 0.0000 0.0000 0.0000 37.2251
#
#
#
# Elastic Compliance Matrix: (Units=1/GPa)
#
#
# Indices 1 2 3 4 5 6 
#
# 1 0.011617 -0.000476 -0.000728 0.000000 0.000000 0.000000
# 2 -0.000476 0.013542 -0.003846 0.000000 0.000000 0.000000
# 3 -0.000728 -0.003846 0.007983 0.000000 0.000000 0.000000
# 4 0.000000 0.000000 0.000000 0.020398 0.000000 0.000000
# 5 0.000000 0.000000 0.000000 0.000000 0.052273 0.000000
# 6 0.000000 0.000000 0.000000 0.000000 0.000000 0.026864
#
#
# Mechanical properties :
#
#
# Convention : Reuss Voigt Hill
#
# Bulk Modulus (GPa) = 43.39899 48.61873 46.00886
# Shear Modulus (GPa) = 33.23188 38.43868 35.83528
#
# Velocity S-wave (km/s) = 3.65567 3.93164 3.79616
# Velocity P-wave (km/s) = 5.93895 6.33735 6.14138
#
# Compressibility (1/GPa) = 0.02304201
#
# Stress axis : x y z
#
# Youngs Moduli (GPa) = 86.07754 73.84397 125.26660
#
# Poissons Ratio (x) = 0.03518 0.09119
# Poissons Ratio (y) = 0.04101 0.48175
# Poissons Ratio (z) = 0.06266 0.28399
#
# Static dielectric constant tensor:
#      x y z
#    x 8.858060 0.000000 0.000000 
#    y 0.000000 1.886700 0.000000 
#    z 0.000000 0.000000 2.024060 
# 
# From -- ./inp_files/2797.got.cif
#   From: 2010.05.17/outbox.cif.g08.bks.cpg/sg54_2_cif.got.tgz:2797.got - 2010.06.03 13:09:01.
