data_PCOD9423227
_publ_section_title
;
Structure prediction by ZEFSAII (Michael W. Deem and Ramdas Pophale) SiO2 
 PCOD9423227
Probable space group: P C C A
;
_chemical_formula_sum "Si O2"
_cell_formula_units_Z 60
_cell_length_a 13.172398
_cell_length_b 8.184621
_cell_length_c 24.434712
_cell_angle_alpha 90.000000
_cell_angle_beta 90.000000
_cell_angle_gamma 90.000000
_cell_volume 2634.332819
_symmetry_space_group_name_H-M "P C C A"
_symmetry_group_IT_number 54
_symmetry_cell_setting 'orthorhombic'
loop_
_space_group_symop_operation_xyz
x,y,z
1/2-x,-y,z
1/2+x,-y,1/2-z
-x,y,1/2-z
-x,-y,-z
1/2+x,y,-z
1/2-x,y,1/2+z
x,-y,1/2+z
loop_
_atom_site_type_symbol
_atom_site_label
_atom_site_fract_x
_atom_site_fract_y
_atom_site_fract_z
Si Si1 0.773114 0.309860 0.312195
Si Si2 0.925949 0.112593 0.552077
Si Si3 0.500000 0.993710 0.750000
Si Si4 0.469509 0.338157 0.968127
Si Si5 0.483711 0.418555 0.655653
Si Si6 0.661691 0.241720 0.700136
Si Si7 0.577212 0.797594 0.853079
Si Si8 0.284029 0.208706 0.925774
O O1 0.750000 0.500000 0.321096
O O2 0.893624 0.305386 0.320899
O O3 0.757785 0.268382 0.248292
O O4 0.700370 0.208312 0.352227
O O5 0.978914 0.179799 0.496926
O O6 0.834113 0.238460 0.563481
O O7 0.014849 0.121682 0.597273
O O8 0.851858 0.953882 0.557806
O O9 0.547588 0.886186 0.797656
O O10 0.588310 0.097257 0.720224
O O11 0.501509 0.350952 0.905235
O O12 0.348067 0.332581 0.962791
O O13 0.500000 0.500000 0.000000
O O14 0.584841 0.393949 0.691339
O O15 0.456159 0.608111 0.651027
O O16 0.705723 0.212870 0.639994
#
# Coordination Sequence:
#
# PCOD9423227 Si02
#       8
#     8   8   4   8   8   8   8   8
#     4  10  23  39  64  98 132 177 219 271 331 400
#     4  11  23  45  66  98 135 173 219 279 336 402
#     4  12  24  38  68  94 132 184 208 278 324 394
#     4  11  23  44  69  94 126 168 227 282 333 387
#     4  10  22  44  65  92 133 176 221 280 332 393
#     4  11  22  43  64  95 139 174 223 269 333 398
#     4  11  25  39  63 100 132 175 223 265 336 398
#     4  10  25  43  67  97 133 176 219 276 337 400
#
# _framework density 22.776163
#
# number of rings (size 3 to 8) (size 9 to 14) (size 15 to 20)
#    0.000    1.333    4.000    0.400    5.600    2.133 
#    2.400    0.000    0.000    0.000    0.000    0.000 
#    0.000    0.000    0.000    0.000    0.000    0.000 
#
# Total GULP energy -334731.660649 kJ/mol
# GULP energy per Si atom -5578.861011 kJ/mol
# Density = 2.272432 g / cm^3
# Si number density = 22.776163 Si / 1000 Ang^3
#
#
#
# Elastic Constant Matrix: (Units=GPa)
#
#
# Indices 1 2 3 4 5 6 
#
# 1 79.1349 -9.8226 25.7693 0.0000 0.0000 0.0000
# 2 -9.8226 31.8522 -3.7484 0.0000 0.0000 0.0000
# 3 25.7693 -3.7484 71.3884 0.0000 0.0000 0.0000
# 4 0.0000 0.0000 0.0000 36.3304 0.0000 0.0000
# 5 0.0000 0.0000 0.0000 0.0000 36.8029 0.0000
# 6 0.0000 0.0000 0.0000 0.0000 0.0000 7.1155
#
#
#
# Elastic Compliance Matrix: (Units=1/GPa)
#
#
# Indices 1 2 3 4 5 6 
#
# 1 0.014800 0.003960 -0.005135 0.000000 0.000000 0.000000
# 2 0.003960 0.032650 0.000285 0.000000 0.000000 0.000000
# 3 -0.005135 0.000285 0.015876 0.000000 0.000000 0.000000
# 4 0.000000 0.000000 0.000000 0.027525 0.000000 0.000000
# 5 0.000000 0.000000 0.000000 0.000000 0.027172 0.000000
# 6 0.000000 0.000000 0.000000 0.000000 0.000000 0.140539
#
#
# Mechanical properties :
#
#
# Convention : Reuss Voigt Hill
#
# Bulk Modulus (GPa) = 16.24787 22.97468 19.61128
# Shear Modulus (GPa) = 17.80265 27.39489 22.59877
#
# Velocity S-wave (km/s) = 2.79881 3.47189 3.15336
# Velocity P-wave (km/s) = 4.19448 5.11674 4.67839
#
# Compressibility (1/GPa) = 0.06154653
#
# Stress axis : x y z
#
# Youngs Moduli (GPa) = 67.56680 30.62822 62.98709
#
# Poissons Ratio (x) = -0.12128 0.32341
# Poissons Ratio (y) = -0.26755 -0.01795
# Poissons Ratio (z) = 0.34692 -0.00873
#
# Static dielectric constant tensor:
#      x y z
#    x 1.997070 0.000000 0.000000 
#    y 0.000000 2.029320 0.000000 
#    z 0.000000 0.000000 1.828980 
# 
# From -- ./inp_files/26314.got.cif
#   From: 2010.05.17/outbox.cif.g08.bks.cpg/sg54_14_cif.got.tgz:26314.got - 2010.06.03 13:09:01.
