data_PCOD9423145
_publ_section_title
;
Structure prediction by ZEFSAII (Michael W. Deem and Ramdas Pophale) SiO2 
 PCOD9423145
Probable space group: P C C A
;
_chemical_formula_sum "Si O2"
_cell_formula_units_Z 64
_cell_length_a 18.081940
_cell_length_b 15.964435
_cell_length_c 11.012706
_cell_angle_alpha 90.000000
_cell_angle_beta 90.000000
_cell_angle_gamma 90.000000
_cell_volume 3179.015329
_symmetry_space_group_name_H-M "P C C A"
_symmetry_group_IT_number 54
_symmetry_cell_setting 'orthorhombic'
loop_
_space_group_symop_operation_xyz
x,y,z
1/2-x,-y,z
1/2+x,-y,1/2-z
-x,y,1/2-z
-x,-y,-z
1/2+x,y,-z
1/2-x,y,1/2+z
x,-y,1/2+z
loop_
_atom_site_type_symbol
_atom_site_label
_atom_site_fract_x
_atom_site_fract_y
_atom_site_fract_z
Si Si1 0.082299 0.033455 0.476235
Si Si2 0.584052 0.831171 0.237898
Si Si3 0.586570 0.526437 0.006705
Si Si4 0.679878 0.267166 0.166935
Si Si5 0.179038 0.156484 0.605070
Si Si6 0.340392 0.128605 0.514205
Si Si7 0.589748 0.423520 0.241864
Si Si8 0.339863 0.697998 0.413517
O O1 0.085948 0.099085 0.366726
O O2 0.117295 0.084857 0.589995
O O3 0.131835 0.953075 0.445475
O O4 0.000000 0.000000 0.500000
O O5 0.500000 0.804439 0.250000
O O6 0.615226 0.869132 0.360644
O O7 0.629469 0.749718 0.200094
O O8 0.614264 0.467245 0.115906
O O9 0.610351 0.618316 0.054316
O O10 0.500000 0.500000 0.000000
O O11 0.613172 0.527599 0.865628
O O12 0.697471 0.192881 0.262804
O O13 0.645425 0.215742 0.055180
O O14 0.625550 0.332111 0.231488
O O15 0.753289 0.314430 0.118472
O O16 0.253830 0.123177 0.543313
O O17 0.156179 0.237072 0.525185
O O18 0.500000 0.418103 0.250000
#
# Coordination Sequence:
#
# PCOD9423145 Si02
#       8
#     8   8   8   8   8   8   8   8
#     4  11  24  41  63  94 132 178 225 281 340 400
#     4  11  23  40  64  92 131 168 221 281 340 402
#     4  10  22  43  67  97 135 174 221 281 346 418
#     4  11  23  41  69  97 130 177 224 280 342 413
#     4  10  22  44  65  92 133 177 221 279 338 407
#     4  11  24  41  63  98 128 174 230 274 342 412
#     4  10  23  42  68 101 135 175 228 272 345 418
#     4  10  22  42  68  93 130 172 222 275 338 416
#
# _framework density 20.132020000000001
#
# number of rings (size 3 to 8) (size 9 to 14) (size 15 to 20)
#    0.000    1.500    3.750    0.375    1.750    6.000 
#    0.000    1.250    0.000    0.000    0.000    0.000 
#    0.000    0.000    0.000    0.000    0.000    0.000 
#
# Total GULP energy -356900.579190 kJ/mol
# GULP energy per Si atom -5576.571550 kJ/mol
# Density = 2.008620 g / cm^3
# Si number density = 20.132020 Si / 1000 Ang^3
#
#
#
# Elastic Constant Matrix: (Units=GPa)
#
#
# Indices 1 2 3 4 5 6 
#
# 1 68.9553 56.5331 15.6918 0.0000 0.0000 0.0000
# 2 56.5331 67.8061 21.9769 0.0000 0.0000 0.0000
# 3 15.6918 21.9769 92.6716 0.0000 0.0000 0.0000
# 4 0.0000 0.0000 0.0000 23.6605 0.0000 0.0000
# 5 0.0000 0.0000 0.0000 0.0000 23.3328 0.0000
# 6 0.0000 0.0000 0.0000 0.0000 0.0000 38.8705
#
#
#
# Elastic Compliance Matrix: (Units=1/GPa)
#
#
# Indices 1 2 3 4 5 6 
#
# 1 0.045998 -0.038809 0.001415 0.000000 0.000000 0.000000
# 2 -0.038809 0.048720 -0.004982 0.000000 0.000000 0.000000
# 3 0.001415 -0.004982 0.011733 0.000000 0.000000 0.000000
# 4 0.000000 0.000000 0.000000 0.042265 0.000000 0.000000
# 5 0.000000 0.000000 0.000000 0.000000 0.042858 0.000000
# 6 0.000000 0.000000 0.000000 0.000000 0.000000 0.025726
#
#
# Mechanical properties :
#
#
# Convention : Reuss Voigt Hill
#
# Bulk Modulus (GPa) = 46.08913 46.42628 46.25771
# Shear Modulus (GPa) = 16.16632 26.18818 21.17725
#
# Velocity S-wave (km/s) = 2.83683 3.61060 3.24685
# Velocity P-wave (km/s) = 5.80287 6.36341 6.08959
#
# Compressibility (1/GPa) = 0.02169709
#
# Stress axis : x y z
#
# Youngs Moduli (GPa) = 21.74016 20.52559 85.23131
#
# Poissons Ratio (x) = 0.79658 -0.12059
# Poissons Ratio (y) = 0.84372 0.42465
# Poissons Ratio (z) = -0.03076 0.10227
#
# Static dielectric constant tensor:
#      x y z
#    x 1.700690 0.000000 0.000000 
#    y 0.000000 1.696610 0.000000 
#    z 0.000000 0.000000 1.754040 
# 
# From -- ./inp_files/9093.got.cif
#   From: 2010.05.17/outbox.cif.g08.bks.cpg/sg54_5_cif.got.tgz:9093.got - 2010.06.03 13:09:01.
