data_PCOD9423713
_publ_section_title
;
Structure prediction by ZEFSAII (Michael W. Deem and Ramdas Pophale) SiO2 
 PCOD9423713
Probable space group: P C C A
;
_chemical_formula_sum "Si O2"
_cell_formula_units_Z 60
_cell_length_a 8.096022
_cell_length_b 24.391294
_cell_length_c 14.807848
_cell_angle_alpha 90.000000
_cell_angle_beta 90.000000
_cell_angle_gamma 90.000000
_cell_volume 2924.142066
_symmetry_space_group_name_H-M "P C C A"
_symmetry_group_IT_number 54
_symmetry_cell_setting 'orthorhombic'
loop_
_space_group_symop_operation_xyz
x,y,z
1/2-x,-y,z
1/2+x,-y,1/2-z
-x,y,1/2-z
-x,-y,-z
1/2+x,y,-z
1/2-x,y,1/2+z
x,-y,1/2+z
loop_
_atom_site_type_symbol
_atom_site_label
_atom_site_fract_x
_atom_site_fract_y
_atom_site_fract_z
Si Si1 0.816378 0.768639 0.123301
Si Si2 0.750000 0.000000 0.561866
Si Si3 0.765281 0.639096 0.880015
Si Si4 0.345312 0.349581 0.918064
Si Si5 0.195413 0.561294 0.772068
Si Si6 0.714107 0.841478 0.453930
Si Si7 0.984042 0.078936 0.947782
Si Si8 0.306152 0.758193 0.670577
O O1 0.734148 0.710042 0.100560
O O2 0.753857 0.813970 0.052272
O O3 0.790370 0.781190 0.228836
O O4 0.016585 0.764918 0.120593
O O5 0.621749 0.956362 0.606518
O O6 0.863993 0.963175 0.497677
O O7 0.726986 0.586655 0.818922
O O8 0.715279 0.693334 0.825454
O O9 0.960425 0.647914 0.896696
O O10 0.680742 0.637612 0.976970
O O11 0.269502 0.396261 0.853117
O O12 0.250000 0.500000 0.792321
O O13 0.000000 0.561028 0.750000
O O14 0.577665 0.886586 0.474770
O O15 0.674816 0.789728 0.391488
O O16 0.863964 0.875026 0.406475
#
# Coordination Sequence:
#
# PCOD9423713 Si02
#       8
#     8   4   8   8   8   8   8   8
#     4  11  23  37  56  86 124 164 198 244 309 372
#     4   8  16  34  56  90 114 166 202 248 290 354
#     4  11  23  40  61  88 120 160 203 246 308 370
#     4  11  23  40  61  88 120 160 203 246 308 370
#     4  10  24  44  64  88 118 156 210 259 298 359
#     4  11  20  35  54  92 119 158 197 256 292 362
#     4   9  18  32  58  86 124 150 211 248 292 346
#     4  11  23  37  56  86 124 164 198 244 309 372
#
# _framework density 20.518837000000001
#
# number of rings (size 3 to 8) (size 9 to 14) (size 15 to 20)
#    0.000    1.600    4.000    0.800    1.867    2.667 
#    0.000    2.667    0.000    0.000    0.000   65.333 
#    0.000    0.000    0.000    0.000    0.000    0.000 
#
# Total GULP energy -334427.740919 kJ/mol
# GULP energy per Si atom -5573.795682 kJ/mol
# Density = 2.047214 g / cm^3
# Si number density = 20.518837 Si / 1000 Ang^3
#
#
#
# Elastic Constant Matrix: (Units=GPa)
#
#
# Indices 1 2 3 4 5 6 
#
# 1 30.2857 26.4671 2.3560 0.0000 0.0000 0.0000
# 2 26.4671 116.6784 14.6029 0.0000 0.0000 0.0000
# 3 2.3560 14.6029 68.3199 0.0000 0.0000 0.0000
# 4 0.0000 0.0000 0.0000 13.9140 0.0000 0.0000
# 5 0.0000 0.0000 0.0000 0.0000 12.4365 0.0000
# 6 0.0000 0.0000 0.0000 0.0000 0.0000 36.4728
#
#
#
# Elastic Compliance Matrix: (Units=1/GPa)
#
#
# Indices 1 2 3 4 5 6 
#
# 1 0.041206 -0.009421 0.000593 0.000000 0.000000 0.000000
# 2 -0.009421 0.010960 -0.002018 0.000000 0.000000 0.000000
# 3 0.000593 -0.002018 0.015048 0.000000 0.000000 0.000000
# 4 0.000000 0.000000 0.000000 0.071870 0.000000 0.000000
# 5 0.000000 0.000000 0.000000 0.000000 0.080408 0.000000
# 6 0.000000 0.000000 0.000000 0.000000 0.000000 0.027418
#
#
# Mechanical properties :
#
#
# Convention : Reuss Voigt Hill
#
# Bulk Modulus (GPa) = 21.96760 33.57067 27.76913
# Shear Modulus (GPa) = 17.61948 24.02187 20.82067
#
# Velocity S-wave (km/s) = 2.93353 3.42529 3.18891
# Velocity P-wave (km/s) = 4.71206 5.66038 5.20785
#
# Compressibility (1/GPa) = 0.04552158
#
# Stress axis : x y z
#
# Youngs Moduli (GPa) = 24.26816 91.23904 66.45464
#
# Poissons Ratio (x) = 0.85959 -0.03939
# Poissons Ratio (y) = 0.22864 0.13409
# Poissons Ratio (z) = -0.01438 0.18410
#
# Static dielectric constant tensor:
#      x y z
#    x 1.819040 0.000000 0.000000 
#    y 0.000000 1.738580 0.000000 
#    z 0.000000 0.000000 1.687450 
# 
# From -- ./inp_files/3732.got.cif
#   From: 2010.05.17/outbox.cif.g08.bks.cpg/sg54_2_cif.got.tgz:3732.got - 2010.06.03 13:09:01.
