data_PCOD9423921
_publ_section_title
;
Structure prediction by ZEFSAII (Michael W. Deem and Ramdas Pophale) SiO2 
 PCOD9423921
Probable space group: P C C A
;
_chemical_formula_sum "Si O2"
_cell_formula_units_Z 28
_cell_length_a 12.920682
_cell_length_b 10.973449
_cell_length_c 8.182140
_cell_angle_alpha 90.000000
_cell_angle_beta 90.000000
_cell_angle_gamma 90.000000
_cell_volume 1160.100179
_symmetry_space_group_name_H-M "P C C A"
_symmetry_group_IT_number 54
_symmetry_cell_setting 'orthorhombic'
loop_
_space_group_symop_operation_xyz
x,y,z
1/2-x,-y,z
1/2+x,-y,1/2-z
-x,y,1/2-z
-x,-y,-z
1/2+x,y,-z
1/2-x,y,1/2+z
x,-y,1/2+z
loop_
_atom_site_type_symbol
_atom_site_label
_atom_site_fract_x
_atom_site_fract_y
_atom_site_fract_z
Si Si1 0.813560 0.842003 0.838331
Si Si2 0.500000 0.578103 0.750000
Si Si3 0.889094 0.940796 0.183453
Si Si4 0.848936 0.415799 0.471351
O O1 0.697179 0.883015 0.801645
O O2 0.876405 0.911879 0.696165
O O3 0.860913 0.897699 0.003486
O O4 0.817136 0.698072 0.859105
O O5 0.583621 0.635566 0.624508
O O6 0.426018 0.497569 0.635135
O O7 0.000000 0.906304 0.250000
O O8 0.750000 0.500000 0.518804
#
# Coordination Sequence:
#
# PCOD9423921 Si02
#       4
#     8   4   8   8
#     4  11  26  45  73 105 150 185 250 290 365 428
#     4  10  26  48  70 110 136 192 248 278 394 408
#     4  11  25  47  71 108 145 194 234 299 358 431
#     4  11  26  47  75 107 145 188 239 309 353 438
#
# _framework density 24.135847999999999
#
# number of rings (size 3 to 8) (size 9 to 14) (size 15 to 20)
#    0.000    1.143    0.000    5.143   12.000    2.286 
#    0.000    0.000    0.000    0.000    0.000    0.000 
#    0.000    0.000    0.000    0.000    0.000    0.000 
#
# Total GULP energy -156610.188030 kJ/mol
# GULP energy per Si atom -5593.221001 kJ/mol
# Density = 2.408091 g / cm^3
# Si number density = 24.135848 Si / 1000 Ang^3
#
#
#
# Elastic Constant Matrix: (Units=GPa)
#
#
# Indices 1 2 3 4 5 6 
#
# 1 136.6783 -3.4800 5.7799 0.0000 0.0000 0.0000
# 2 -3.4800 82.2985 -10.8558 0.0000 0.0000 0.0000
# 3 5.7799 -10.8558 64.0696 0.0000 0.0000 0.0000
# 4 0.0000 0.0000 0.0000 37.9551 0.0000 0.0000
# 5 0.0000 0.0000 0.0000 0.0000 43.6405 0.0000
# 6 0.0000 0.0000 0.0000 0.0000 0.0000 21.5179
#
#
#
# Elastic Compliance Matrix: (Units=1/GPa)
#
#
# Indices 1 2 3 4 5 6 
#
# 1 0.007349 0.000228 -0.000624 0.000000 0.000000 0.000000
# 2 0.000228 0.012436 0.002086 0.000000 0.000000 0.000000
# 3 -0.000624 0.002086 0.016018 0.000000 0.000000 0.000000
# 4 0.000000 0.000000 0.000000 0.026347 0.000000 0.000000
# 5 0.000000 0.000000 0.000000 0.000000 0.022914 0.000000
# 6 0.000000 0.000000 0.000000 0.000000 0.000000 0.046473
#
#
# Mechanical properties :
#
#
# Convention : Reuss Voigt Hill
#
# Bulk Modulus (GPa) = 25.52088 29.54828 27.53458
# Shear Modulus (GPa) = 35.40662 40.06285 37.73473
#
# Velocity S-wave (km/s) = 3.83426 4.07859 3.95831
# Velocity P-wave (km/s) = 5.49535 5.86933 5.68541
#
# Compressibility (1/GPa) = 0.03918360
#
# Stress axis : x y z
#
# Youngs Moduli (GPa) = 136.07921 80.41315 62.43024
#
# Poissons Ratio (x) = -0.01837 0.03897
# Poissons Ratio (y) = -0.03108 -0.13026
# Poissons Ratio (z) = 0.08495 -0.16778
#
# Static dielectric constant tensor:
#      x y z
#    x 1.917450 0.000000 0.000000 
#    y 0.000000 1.950030 0.000000 
#    z 0.000000 0.000000 1.943020 
# 
# From -- ./inp_files/3188.got.cif
#   From: 2010.05.17/outbox.cif.g08.bks.cpg/sg54_2_cif.got.tgz:3188.got - 2010.06.03 13:09:01.
