data_PCOD9423368
_publ_section_title
;
Structure prediction by ZEFSAII (Michael W. Deem and Ramdas Pophale) SiO2 
 PCOD9423368
Probable space group: P C C A
;
_chemical_formula_sum "Si O2"
_cell_formula_units_Z 32
_cell_length_a 9.506688
_cell_length_b 10.129969
_cell_length_c 14.077645
_cell_angle_alpha 90.000000
_cell_angle_beta 90.000000
_cell_angle_gamma 90.000000
_cell_volume 1355.711770
_symmetry_space_group_name_H-M "P C C A"
_symmetry_group_IT_number 54
_symmetry_cell_setting 'orthorhombic'
loop_
_space_group_symop_operation_xyz
x,y,z
1/2-x,-y,z
1/2+x,-y,1/2-z
-x,y,1/2-z
-x,-y,-z
1/2+x,y,-z
1/2-x,y,1/2+z
x,-y,1/2+z
loop_
_atom_site_type_symbol
_atom_site_label
_atom_site_fract_x
_atom_site_fract_y
_atom_site_fract_z
Si Si1 0.134883 0.087644 0.700047
Si Si2 0.017365 0.667303 0.399783
Si Si3 0.433501 0.377735 0.601642
Si Si4 0.284386 0.304613 0.794768
O O1 0.229973 0.154897 0.782672
O O2 0.000000 0.020135 0.750000
O O3 0.067402 0.207124 0.638766
O O4 0.250000 0.000000 0.646344
O O5 0.092785 0.690948 0.500774
O O6 0.139619 0.626455 0.325761
O O7 0.926236 0.535516 0.412911
O O8 0.339005 0.342028 0.690963
O O9 0.590691 0.332496 0.632719
#
# Coordination Sequence:
#
# PCOD9423368 Si02
#       4
#     8   8   8   8
#     4  10  24  44  69  96 136 186 239 282 334 413
#     4  10  23  42  65 104 136 179 227 288 345 422
#     4  10  23  39  68 102 138 171 226 286 359 418
#     4  10  23  40  66  94 137 176 224 281 355 402
#
# _framework density 23.603836999999999
#
# number of rings (size 3 to 8) (size 9 to 14) (size 15 to 20)
#    0.000    2.000    0.000    0.750   21.000    0.000 
#    0.000    2.500    0.000    0.000    0.000    0.000 
#    0.000    0.000    0.000    0.000    0.000    0.000 
#
# Total GULP energy -178762.942827 kJ/mol
# GULP energy per Si atom -5586.341963 kJ/mol
# Density = 2.355011 g / cm^3
# Si number density = 23.603837 Si / 1000 Ang^3
#
#
#
# Elastic Constant Matrix: (Units=GPa)
#
#
# Indices 1 2 3 4 5 6 
#
# 1 134.0772 57.7848 52.7202 0.0000 0.0000 0.0000
# 2 57.7848 52.7101 20.5134 0.0000 0.0000 0.0000
# 3 52.7202 20.5134 98.3772 0.0000 0.0000 0.0000
# 4 0.0000 0.0000 0.0000 8.7434 0.0000 0.0000
# 5 0.0000 0.0000 0.0000 0.0000 24.4692 0.0000
# 6 0.0000 0.0000 0.0000 0.0000 0.0000 47.7142
#
#
#
# Elastic Compliance Matrix: (Units=1/GPa)
#
#
# Indices 1 2 3 4 5 6 
#
# 1 0.016497 -0.015938 -0.005517 0.000000 0.000000 0.000000
# 2 -0.015938 0.036045 0.001025 0.000000 0.000000 0.000000
# 3 -0.005517 0.001025 0.012908 0.000000 0.000000 0.000000
# 4 0.000000 0.000000 0.000000 0.114372 0.000000 0.000000
# 5 0.000000 0.000000 0.000000 0.000000 0.040868 0.000000
# 6 0.000000 0.000000 0.000000 0.000000 0.000000 0.020958
#
#
# Mechanical properties :
#
#
# Convention : Reuss Voigt Hill
#
# Bulk Modulus (GPa) = 40.66760 60.80013 50.73387
# Shear Modulus (GPa) = 17.19960 26.46176 21.83068
#
# Velocity S-wave (km/s) = 2.70233 3.35188 3.04448
# Velocity P-wave (km/s) = 5.19648 6.38707 5.82229
#
# Compressibility (1/GPa) = 0.02458960
#
# Stress axis : x y z
#
# Youngs Moduli (GPa) = 60.61814 27.74308 77.47186
#
# Poissons Ratio (x) = 0.44216 0.42743
# Poissons Ratio (y) = 0.96612 -0.07941
# Poissons Ratio (z) = 0.33445 -0.02844
#
# Static dielectric constant tensor:
#      x y z
#    x 1.966280 0.000000 0.000000 
#    y 0.000000 2.004710 0.000000 
#    z 0.000000 0.000000 1.895780 
# 
# From -- ./inp_files/11236.got.cif
#   From: 2010.05.17/outbox.cif.g08.bks.cpg/sg54_6_cif.got.tgz:11236.got - 2010.06.03 13:09:01.
