data_PCOD9423311
_publ_section_title
;
Structure prediction by ZEFSAII (Michael W. Deem and Ramdas Pophale) SiO2 
 PCOD9423311
Probable space group: P C C A
;
_chemical_formula_sum "Si O2"
_cell_formula_units_Z 40
_cell_length_a 10.107934
_cell_length_b 19.714938
_cell_length_c 8.451632
_cell_angle_alpha 90.000000
_cell_angle_beta 90.000000
_cell_angle_gamma 90.000000
_cell_volume 1684.218339
_symmetry_space_group_name_H-M "P C C A"
_symmetry_group_IT_number 54
_symmetry_cell_setting 'orthorhombic'
loop_
_space_group_symop_operation_xyz
x,y,z
1/2-x,-y,z
1/2+x,-y,1/2-z
-x,y,1/2-z
-x,-y,-z
1/2+x,y,-z
1/2-x,y,1/2+z
x,-y,1/2+z
loop_
_atom_site_type_symbol
_atom_site_label
_atom_site_fract_x
_atom_site_fract_y
_atom_site_fract_z
Si Si1 0.500000 0.863678 0.250000
Si Si2 0.933981 0.789680 0.080413
Si Si3 0.565666 0.370459 0.033917
Si Si4 0.250000 0.000000 0.575108
Si Si5 0.717927 0.904092 0.677486
Si Si6 0.704329 0.577387 0.850195
O O1 0.523056 0.818773 0.409815
O O2 0.373306 0.908933 0.287899
O O3 0.941183 0.709107 0.070877
O O4 0.796485 0.827003 0.118940
O O5 0.000000 0.810126 0.250000
O O6 0.418041 0.402031 0.033481
O O7 0.643635 0.406844 0.178399
O O8 0.662514 0.380643 0.885758
O O9 0.334077 0.943066 0.668356
O O10 0.166787 0.951755 0.460695
O O11 0.750000 0.500000 0.865708
#
# Coordination Sequence:
#
# PCOD9423311 Si02
#       6
#     4   8   8   4   8   8
#     4  12  28  44  78 106 144 214 240 328 404 436
#     4  12  27  49  73 109 157 191 267 315 384 465
#     4  11  27  45  74 112 151 202 255 318 383 465
#     4  10  22  46  68 104 150 192 260 316 394 450
#     4  11  24  46  69 106 146 196 257 322 378 474
#     4  11  24  47  73 109 152 197 250 311 383 464
#
# _framework density 23.749890000000001
#
# number of rings (size 3 to 8) (size 9 to 14) (size 15 to 20)
#    0.000    0.800    4.000    2.400    5.600    3.200 
#    7.200    0.000    0.000    0.000    0.000    0.000 
#    0.000    0.000    0.000    0.000    0.000    0.000 
#
# Total GULP energy -222861.096920 kJ/mol
# GULP energy per Si atom -5571.527423 kJ/mol
# Density = 2.369583 g / cm^3
# Si number density = 23.749890 Si / 1000 Ang^3
#
#
#
# Elastic Constant Matrix: (Units=GPa)
#
#
# Indices 1 2 3 4 5 6 
#
# 1 100.6953 45.6082 17.3115 0.0000 0.0000 0.0000
# 2 45.6082 125.2962 21.7209 0.0000 0.0000 0.0000
# 3 17.3115 21.7209 120.3282 0.0000 0.0000 0.0000
# 4 0.0000 0.0000 0.0000 8.1925 0.0000 0.0000
# 5 0.0000 0.0000 0.0000 0.0000 26.9160 0.0000
# 6 0.0000 0.0000 0.0000 0.0000 0.0000 17.0974
#
#
#
# Elastic Compliance Matrix: (Units=1/GPa)
#
#
# Indices 1 2 3 4 5 6 
#
# 1 0.012000 -0.004200 -0.000968 0.000000 0.000000 0.000000
# 2 -0.004200 0.009709 -0.001148 0.000000 0.000000 0.000000
# 3 -0.000968 -0.001148 0.008657 0.000000 0.000000 0.000000
# 4 0.000000 0.000000 0.000000 0.122063 0.000000 0.000000
# 5 0.000000 0.000000 0.000000 0.000000 0.037153 0.000000
# 6 0.000000 0.000000 0.000000 0.000000 0.000000 0.058488
#
#
# Mechanical properties :
#
#
# Convention : Reuss Voigt Hill
#
# Bulk Modulus (GPa) = 56.39317 57.28897 56.84107
# Shear Modulus (GPa) = 18.75366 27.88646 23.32006
#
# Velocity S-wave (km/s) = 2.81309 3.43034 3.13693
# Velocity P-wave (km/s) = 5.86067 6.31378 6.09144
#
# Compressibility (1/GPa) = 0.01773264
#
# Stress axis : x y z
#
# Youngs Moduli (GPa) = 83.33493 102.99716 115.51090
#
# Poissons Ratio (x) = 0.43260 0.11184
# Poissons Ratio (y) = 0.35002 0.13265
# Poissons Ratio (z) = 0.08069 0.11828
#
# Static dielectric constant tensor:
#      x y z
#    x 2.045500 0.000000 0.000000 
#    y 0.000000 1.900660 0.000000 
#    z 0.000000 0.000000 2.036340 
# 
# From -- ./inp_files/2963.got.cif
#   From: 2010.05.17/outbox.cif.g08.bks.cpg/sg54_2_cif.got.tgz:2963.got - 2010.06.03 13:09:01.
