data_PCOD9423745
_publ_section_title
;
Structure prediction by ZEFSAII (Michael W. Deem and Ramdas Pophale) SiO2 
 PCOD9423745
Probable space group: P C C A
;
_chemical_formula_sum "Si O2"
_cell_formula_units_Z 60
_cell_length_a 17.548919
_cell_length_b 11.988571
_cell_length_c 13.823109
_cell_angle_alpha 90.000000
_cell_angle_beta 90.000000
_cell_angle_gamma 90.000000
_cell_volume 2908.194988
_symmetry_space_group_name_H-M "P C C A"
_symmetry_group_IT_number 54
_symmetry_cell_setting 'orthorhombic'
loop_
_space_group_symop_operation_xyz
x,y,z
1/2-x,-y,z
1/2+x,-y,1/2-z
-x,y,1/2-z
-x,-y,-z
1/2+x,y,-z
1/2-x,y,1/2+z
x,-y,1/2+z
loop_
_atom_site_type_symbol
_atom_site_label
_atom_site_fract_x
_atom_site_fract_y
_atom_site_fract_z
Si Si1 0.239950 0.766346 0.249645
Si Si2 0.312063 0.705268 0.047160
Si Si3 0.580456 0.689363 0.801713
Si Si4 0.586737 0.492634 0.468051
Si Si5 0.297075 0.399455 0.886242
Si Si6 0.967872 0.935922 0.355242
Si Si7 0.750000 0.000000 0.644393
Si Si8 0.116922 0.063390 0.987722
O O1 0.265887 0.748588 0.139971
O O2 0.156433 0.708905 0.262548
O O3 0.302754 0.700170 0.311763
O O4 0.237652 0.891973 0.288591
O O5 0.375516 0.609699 0.064716
O O6 0.253440 0.647465 0.974271
O O7 0.349261 0.813656 0.999397
O O8 0.500000 0.661240 0.750000
O O9 0.596137 0.597005 0.882478
O O10 0.566390 0.812313 0.845753
O O11 0.500000 0.500000 0.500000
O O12 0.629342 0.449258 0.564029
O O13 0.250000 0.500000 0.838177
O O14 0.000000 0.970944 0.250000
O O15 0.040659 0.930646 0.424764
O O16 0.905936 0.013740 0.407751
O O17 0.822327 0.990660 0.572524
#
# Coordination Sequence:
#
# PCOD9423745 Si02
#       8
#     8   8   8   8   8   8   4   8
#     4  12  27  43  72 103 144 178 240 285 350 420
#     4  11  25  46  67 105 139 182 225 296 347 413
#     4  11  25  42  70  98 136 178 232 279 351 415
#     4  11  25  45  72 102 138 181 233 281 354 425
#     4  10  24  44  71  97 141 176 220 285 352 405
#     4  10  24  45  69  97 137 187 228 283 354 416
#     4  12  26  42  72 106 134 188 240 286 354 412
#     4  11  25  45  69  98 144 177 237 289 349 408
#
# _framework density 20.631352
#
# number of rings (size 3 to 8) (size 9 to 14) (size 15 to 20)
#    0.000    1.067    2.667    2.400   13.067    0.000 
#    0.000    0.667    0.000    0.000    0.000    0.000 
#    0.000    0.000    0.000    0.000    0.000    0.000 
#
# Total GULP energy -335377.267880 kJ/mol
# GULP energy per Si atom -5589.621131 kJ/mol
# Density = 2.058439 g / cm^3
# Si number density = 20.631352 Si / 1000 Ang^3
#
#
#
# Elastic Constant Matrix: (Units=GPa)
#
#
# Indices 1 2 3 4 5 6 
#
# 1 90.4381 17.4985 8.8366 0.0000 0.0000 0.0000
# 2 17.4985 60.1530 23.6041 0.0000 0.0000 0.0000
# 3 8.8366 23.6041 67.8758 0.0000 0.0000 0.0000
# 4 0.0000 0.0000 0.0000 44.9429 0.0000 0.0000
# 5 0.0000 0.0000 0.0000 0.0000 25.7222 0.0000
# 6 0.0000 0.0000 0.0000 0.0000 0.0000 28.2976
#
#
#
# Elastic Compliance Matrix: (Units=1/GPa)
#
#
# Indices 1 2 3 4 5 6 
#
# 1 0.011726 -0.003256 -0.000394 0.000000 0.000000 0.000000
# 2 -0.003256 0.020156 -0.006585 0.000000 0.000000 0.000000
# 3 -0.000394 -0.006585 0.017074 0.000000 0.000000 0.000000
# 4 0.000000 0.000000 0.000000 0.022250 0.000000 0.000000
# 5 0.000000 0.000000 0.000000 0.000000 0.038877 0.000000
# 6 0.000000 0.000000 0.000000 0.000000 0.000000 0.035339
#
#
# Mechanical properties :
#
#
# Convention : Reuss Voigt Hill
#
# Bulk Modulus (GPa) = 35.10735 35.37169 35.23952
# Shear Modulus (GPa) = 28.50824 31.02774 29.76799
#
# Velocity S-wave (km/s) = 3.72128 3.88224 3.80261
# Velocity P-wave (km/s) = 5.95964 6.10553 6.03303
#
# Compressibility (1/GPa) = 0.02848407
#
# Stress axis : x y z
#
# Youngs Moduli (GPa) = 85.28162 49.61399 58.56802
#
# Poissons Ratio (x) = 0.16156 0.02308
# Poissons Ratio (y) = 0.27771 0.38569
# Poissons Ratio (z) = 0.03361 0.32672
#
# Static dielectric constant tensor:
#      x y z
#    x 1.751590 0.000000 0.000000 
#    y 0.000000 1.715880 0.000000 
#    z 0.000000 0.000000 1.744840 
# 
# From -- ./inp_files/14296.got.cif
#   From: 2010.05.17/outbox.cif.g08.bks.cpg/sg54_8_cif.got.tgz:14296.got - 2010.06.03 13:09:01.
