data_PCOD9423407
_publ_section_title
;
Structure prediction by ZEFSAII (Michael W. Deem and Ramdas Pophale) SiO2 
 PCOD9423407
Probable space group: P C C A
;
_chemical_formula_sum "Si O2"
_cell_formula_units_Z 24
_cell_length_a 4.716843
_cell_length_b 17.885896
_cell_length_c 10.793505
_cell_angle_alpha 90.000000
_cell_angle_beta 90.000000
_cell_angle_gamma 90.000000
_cell_volume 910.593654
_symmetry_space_group_name_H-M "P C C A"
_symmetry_group_IT_number 54
_symmetry_cell_setting 'orthorhombic'
loop_
_space_group_symop_operation_xyz
x,y,z
1/2-x,-y,z
1/2+x,-y,1/2-z
-x,y,1/2-z
-x,-y,-z
1/2+x,y,-z
1/2-x,y,1/2+z
x,-y,1/2+z
loop_
_atom_site_type_symbol
_atom_site_label
_atom_site_fract_x
_atom_site_fract_y
_atom_site_fract_z
Si Si1 0.230554 0.175868 0.419264
Si Si2 0.000000 0.698931 0.250000
Si Si3 0.822447 0.417544 0.414643
Si Si4 0.500000 0.050593 0.250000
O O1 0.400007 0.177045 0.549568
O O2 0.325902 0.247377 0.341829
O O3 0.336504 0.102961 0.347303
O O4 0.788467 0.646713 0.327125
O O5 0.750000 0.500000 0.364081
O O6 0.646249 0.412284 0.543855
O O7 0.250000 0.000000 0.192355
#
# Coordination Sequence:
#
# PCOD9423407 Si02
#       4
#     8   4   8   4
#     4  11  25  43  65  96 132 170 212 263 320 379
#     4  11  24  42  68  93 128 172 218 263 320 390
#     4  10  23  41  62  91 124 161 209 264 319 372
#     4  11  24  42  68  99 128 168 216 259 316 384
#
# _framework density 26.35643
#
# number of rings (size 3 to 8) (size 9 to 14) (size 15 to 20)
#    0.000    1.333    0.000    4.000    0.000   16.000 
#    0.000    0.000    0.000    0.000    0.000    0.000 
#    0.000    0.000    0.000    0.000    0.000    0.000 
#
# Total GULP energy -134924.400072 kJ/mol
# GULP energy per Si atom -5621.850003 kJ/mol
# Density = 2.629644 g / cm^3
# Si number density = 26.356430 Si / 1000 Ang^3
#
#
#
# Elastic Constant Matrix: (Units=GPa)
#
#
# Indices 1 2 3 4 5 6 
#
# 1 103.9570 27.8325 9.8913 0.0000 0.0000 0.0000
# 2 27.8325 171.3785 42.7816 0.0000 0.0000 0.0000
# 3 9.8913 42.7816 67.2909 0.0000 0.0000 0.0000
# 4 0.0000 0.0000 0.0000 32.5954 0.0000 0.0000
# 5 0.0000 0.0000 0.0000 0.0000 44.0299 0.0000
# 6 0.0000 0.0000 0.0000 0.0000 0.0000 37.4666
#
#
#
# Elastic Compliance Matrix: (Units=1/GPa)
#
#
# Indices 1 2 3 4 5 6 
#
# 1 0.010072 -0.001505 -0.000524 0.000000 0.000000 0.000000
# 2 -0.001505 0.007161 -0.004331 0.000000 0.000000 0.000000
# 3 -0.000524 -0.004331 0.017692 0.000000 0.000000 0.000000
# 4 0.000000 0.000000 0.000000 0.030679 0.000000 0.000000
# 5 0.000000 0.000000 0.000000 0.000000 0.022712 0.000000
# 6 0.000000 0.000000 0.000000 0.000000 0.000000 0.026690
#
#
# Mechanical properties :
#
#
# Convention : Reuss Voigt Hill
#
# Bulk Modulus (GPa) = 45.03630 55.95969 50.49799
# Shear Modulus (GPa) = 37.00212 40.29312 38.64762
#
# Velocity S-wave (km/s) = 3.75095 3.91420 3.83344
# Velocity P-wave (km/s) = 5.99032 6.45801 6.22856
#
# Compressibility (1/GPa) = 0.02220431
#
# Stress axis : x y z
#
# Youngs Moduli (GPa) = 99.28383 139.65116 56.52410
#
# Poissons Ratio (x) = 0.21018 0.02960
# Poissons Ratio (y) = 0.14942 0.24483
# Poissons Ratio (z) = 0.05199 0.60488
#
# Static dielectric constant tensor:
#      x y z
#    x 1.957410 0.000000 0.000000 
#    y 0.000000 2.020340 0.000000 
#    z 0.000000 0.000000 2.041760 
# 
# From -- ./inp_files/6154.got.cif
#   From: 2010.05.17/outbox.cif.g08.bks.cpg/sg54_4_cif.got.tgz:6154.got - 2010.06.03 13:09:01.
