data_PCOD9423466
_publ_section_title
;
Structure prediction by ZEFSAII (Michael W. Deem and Ramdas Pophale) SiO2 
 PCOD9423466
Probable space group: P C C A
;
_chemical_formula_sum "Si O2"
_cell_formula_units_Z 60
_cell_length_a 12.439156
_cell_length_b 8.258376
_cell_length_c 27.888817
_cell_angle_alpha 90.000000
_cell_angle_beta 90.000000
_cell_angle_gamma 90.000000
_cell_volume 2864.940845
_symmetry_space_group_name_H-M "P C C A"
_symmetry_group_IT_number 54
_symmetry_cell_setting 'orthorhombic'
loop_
_space_group_symop_operation_xyz
x,y,z
1/2-x,-y,z
1/2+x,-y,1/2-z
-x,y,1/2-z
-x,-y,-z
1/2+x,y,-z
1/2-x,y,1/2+z
x,-y,1/2+z
loop_
_atom_site_type_symbol
_atom_site_label
_atom_site_fract_x
_atom_site_fract_y
_atom_site_fract_z
Si Si1 0.670256 0.766775 0.802923
Si Si2 0.519794 0.385886 0.954556
Si Si3 0.208147 0.680531 0.925427
Si Si4 0.226168 0.815586 0.518521
Si Si5 0.500000 0.466822 0.250000
Si Si6 0.626183 0.876335 0.262387
Si Si7 0.330190 0.645217 0.313442
Si Si8 0.847112 0.622481 0.402590
O O1 0.594653 0.641352 0.773991
O O2 0.801511 0.758833 0.797265
O O3 0.642395 0.744493 0.858707
O O4 0.641966 0.944262 0.782668
O O5 0.412349 0.293732 0.942973
O O6 0.615597 0.260989 0.962856
O O7 0.550347 0.510000 0.911994
O O8 0.500000 0.500000 0.000000
O O9 0.250000 0.500000 0.937790
O O10 0.197579 0.683485 0.868417
O O11 0.275136 0.794121 0.960858
O O12 0.314329 0.708436 0.547427
O O13 0.250000 0.000000 0.530750
O O14 0.442990 0.571887 0.292601
O O15 0.500000 0.863609 0.250000
O O16 0.682448 0.815993 0.213525
O O17 0.250000 0.500000 0.299887
O O18 0.750000 0.500000 0.390521
#
# Coordination Sequence:
#
# PCOD9423466 Si02
#       8
#     8   8   8   8   4   8   8   8
#     4  11  25  42  64  96 135 176 220 280 343 402
#     4  11  20  43  71  95 130 180 223 281 329 405
#     4  11  22  43  67  94 129 177 226 271 334 409
#     4  11  24  42  63  99 139 167 217 280 340 404
#     4  12  22  42  66  94 130 166 230 278 324 404
#     4  11  24  44  64  92 139 178 216 286 343 399
#     4  11  24  41  68  98 128 174 228 282 335 406
#     4  10  23  42  71  98 127 174 228 275 335 402
#
# _framework density 20.94284
#
# number of rings (size 3 to 8) (size 9 to 14) (size 15 to 20)
#    0.000    1.067    5.333    1.200    3.733    2.667 
#    2.400    0.000    0.000    0.000    0.000    0.000 
#    0.000    0.000    0.000    0.000    0.000    0.000 
#
# Total GULP energy -334119.463470 kJ/mol
# GULP energy per Si atom -5568.657724 kJ/mol
# Density = 2.089517 g / cm^3
# Si number density = 20.942840 Si / 1000 Ang^3
#
#
#
# Elastic Constant Matrix: (Units=GPa)
#
#
# Indices 1 2 3 4 5 6 
#
# 1 81.8740 21.4229 28.0626 0.0000 0.0000 0.0000
# 2 21.4229 104.8071 43.5255 0.0000 0.0000 0.0000
# 3 28.0626 43.5255 107.5218 0.0000 0.0000 0.0000
# 4 0.0000 0.0000 0.0000 136.4690 0.0000 0.0000
# 5 0.0000 0.0000 0.0000 0.0000 15.7858 0.0000
# 6 0.0000 0.0000 0.0000 0.0000 0.0000 20.0483
#
#
#
# Elastic Compliance Matrix: (Units=1/GPa)
#
#
# Indices 1 2 3 4 5 6 
#
# 1 0.013626 -0.001573 -0.002920 0.000000 0.000000 0.000000
# 2 -0.001573 0.011651 -0.004306 0.000000 0.000000 0.000000
# 3 -0.002920 -0.004306 0.011806 0.000000 0.000000 0.000000
# 4 0.000000 0.000000 0.000000 0.007328 0.000000 0.000000
# 5 0.000000 0.000000 0.000000 0.000000 0.063348 0.000000
# 6 0.000000 0.000000 0.000000 0.000000 0.000000 0.049880
#
#
# Mechanical properties :
#
#
# Convention : Reuss Voigt Hill
#
# Bulk Modulus (GPa) = 51.31887 53.35832 52.33860
# Shear Modulus (GPa) = 27.51331 47.87339 37.69335
#
# Velocity S-wave (km/s) = 3.62848 4.78630 4.24703
# Velocity P-wave (km/s) = 6.48937 7.48855 7.00679
#
# Compressibility (1/GPa) = 0.01948601
#
# Stress axis : x y z
#
# Youngs Moduli (GPa) = 73.38836 85.82937 84.70603
#
# Poissons Ratio (x) = 0.13498 0.24732
# Poissons Ratio (y) = 0.11542 0.36474
# Poissons Ratio (z) = 0.21427 0.36958
#
# Static dielectric constant tensor:
#      x y z
#    x 1.786150 0.000000 0.000000 
#    y 0.000000 1.654490 0.000000 
#    z 0.000000 0.000000 1.803840 
# 
# From -- ./inp_files/26308.got.cif
#   From: 2010.05.17/outbox.cif.g08.bks.cpg/sg54_14_cif.got.tgz:26308.got - 2010.06.03 13:09:01.
