data_PCOD9423549
_publ_section_title
;
Structure prediction by ZEFSAII (Michael W. Deem and Ramdas Pophale) SiO2 
 PCOD9423549
Probable space group: P C C A
;
_chemical_formula_sum "Si O2"
_cell_formula_units_Z 36
_cell_length_a 9.604071
_cell_length_b 8.118098
_cell_length_c 23.591640
_cell_angle_alpha 90.000000
_cell_angle_beta 90.000000
_cell_angle_gamma 90.000000
_cell_volume 1839.364432
_symmetry_space_group_name_H-M "P C C A"
_symmetry_group_IT_number 54
_symmetry_cell_setting 'orthorhombic'
loop_
_space_group_symop_operation_xyz
x,y,z
1/2-x,-y,z
1/2+x,-y,1/2-z
-x,y,1/2-z
-x,-y,-z
1/2+x,y,-z
1/2-x,y,1/2+z
x,-y,1/2+z
loop_
_atom_site_type_symbol
_atom_site_label
_atom_site_fract_x
_atom_site_fract_y
_atom_site_fract_z
Si Si1 0.234198 0.804089 0.554306
Si Si2 0.939861 0.646508 0.536778
Si Si3 0.250000 0.500000 0.369111
Si Si4 0.845670 0.837727 0.327395
Si Si5 0.165851 0.171731 0.803104
O O1 0.319510 0.730370 0.501275
O O2 0.300303 0.745426 0.614808
O O3 0.071105 0.761365 0.551169
O O4 0.250000 0.000000 0.551284
O O5 0.875203 0.561841 0.591570
O O6 0.000000 0.500000 0.500000
O O7 0.287492 0.335341 0.335268
O O8 0.824250 0.774969 0.263222
O O9 0.010771 0.869552 0.325769
O O10 0.750000 0.000000 0.329105
O O11 0.250000 0.000000 0.810135
#
# Coordination Sequence:
#
# PCOD9423549 Si02
#       5
#     8   8   4   8   8
#     4  11  24  42  70  97 128 180 225 273 338 399
#     4  12  24  45  62  95 140 169 221 283 329 395
#     4  12  26  42  68 106 132 180 226 272 350 402
#     4   9  21  44  67 101 131 174 228 275 336 396
#     4  10  23  45  70  97 140 175 222 281 332 406
#
# _framework density 19.571978999999999
#
# number of rings (size 3 to 8) (size 9 to 14) (size 15 to 20)
#    0.000    1.333    2.222    2.000    6.222    0.889 
#   12.000    0.000    0.000    0.000    0.000    0.000 
#    0.000    0.000    0.000    0.000    0.000    0.000 
#
# Total GULP energy -200680.390184 kJ/mol
# GULP energy per Si atom -5574.455283 kJ/mol
# Density = 1.952743 g / cm^3
# Si number density = 19.571979 Si / 1000 Ang^3
#
#
#
# Elastic Constant Matrix: (Units=GPa)
#
#
# Indices 1 2 3 4 5 6 
#
# 1 118.1060 53.6320 51.2404 0.0000 0.0000 0.0000
# 2 53.6320 118.0532 50.0903 0.0000 0.0000 0.0000
# 3 51.2404 50.0903 112.9733 0.0000 0.0000 0.0000
# 4 0.0000 0.0000 0.0000 39.0632 0.0000 0.0000
# 5 0.0000 0.0000 0.0000 0.0000 26.3612 0.0000
# 6 0.0000 0.0000 0.0000 0.0000 0.0000 36.4977
#
#
#
# Elastic Compliance Matrix: (Units=1/GPa)
#
#
# Indices 1 2 3 4 5 6 
#
# 1 0.011779 -0.003799 -0.003658 0.000000 0.000000 0.000000
# 2 -0.003799 0.011659 -0.003446 0.000000 0.000000 0.000000
# 3 -0.003658 -0.003446 0.012039 0.000000 0.000000 0.000000
# 4 0.000000 0.000000 0.000000 0.025600 0.000000 0.000000
# 5 0.000000 0.000000 0.000000 0.000000 0.037935 0.000000
# 6 0.000000 0.000000 0.000000 0.000000 0.000000 0.027399
#
#
# Mechanical properties :
#
#
# Convention : Reuss Voigt Hill
#
# Bulk Modulus (GPa) = 73.15293 73.22865 73.19079
# Shear Modulus (GPa) = 32.72810 33.32908 33.02859
#
# Velocity S-wave (km/s) = 4.09368 4.13110 4.11243
# Velocity P-wave (km/s) = 7.73316 7.76214 7.74767
#
# Compressibility (1/GPa) = 0.01366999
#
# Stress axis : x y z
#
# Youngs Moduli (GPa) = 84.89487 85.77070 83.06458
#
# Poissons Ratio (x) = 0.32586 0.30386
# Poissons Ratio (y) = 0.32253 0.28626
# Poissons Ratio (z) = 0.31056 0.29558
#
# Static dielectric constant tensor:
#      x y z
#    x 1.733130 0.000000 0.000000 
#    y 0.000000 1.695650 0.000000 
#    z 0.000000 0.000000 1.785820 
# 
# From -- ./inp_files/20134.got.cif
#   From: 2010.05.17/outbox.cif.g08.bks.cpg/sg54_11_cif.got.tgz:20134.got - 2010.06.03 13:09:01.
