data_PCOD9423470
_publ_section_title
;
Structure prediction by ZEFSAII (Michael W. Deem and Ramdas Pophale) SiO2 
 PCOD9423470
Probable space group: P C C A
;
_chemical_formula_sum "Si O2"
_cell_formula_units_Z 56
_cell_length_a 16.446154
_cell_length_b 5.349548
_cell_length_c 29.957373
_cell_angle_alpha 90.000000
_cell_angle_beta 90.000000
_cell_angle_gamma 90.000000
_cell_volume 2635.634405
_symmetry_space_group_name_H-M "P C C A"
_symmetry_group_IT_number 54
_symmetry_cell_setting 'orthorhombic'
loop_
_space_group_symop_operation_xyz
x,y,z
1/2-x,-y,z
1/2+x,-y,1/2-z
-x,y,1/2-z
-x,-y,-z
1/2+x,y,-z
1/2-x,y,1/2+z
x,-y,1/2+z
loop_
_atom_site_type_symbol
_atom_site_label
_atom_site_fract_x
_atom_site_fract_y
_atom_site_fract_z
Si Si1 0.467009 0.171155 0.709170
Si Si2 0.840513 0.459962 0.945861
Si Si3 0.828915 0.174311 0.757939
Si Si4 0.970761 0.106052 0.632645
Si Si5 0.442274 0.960459 0.042017
Si Si6 0.625032 0.449970 0.343637
Si Si7 0.198824 0.739838 0.342061
O O1 0.500000 0.340323 0.750000
O O2 0.400324 0.286574 0.676483
O O3 0.415210 0.966897 0.736577
O O4 0.534508 0.087086 0.673933
O O5 0.750000 0.500000 0.963998
O O6 0.878648 0.191309 0.957602
O O7 0.836636 0.464581 0.891908
O O8 0.897873 0.692567 0.959119
O O9 0.824670 0.326166 0.803935
O O10 0.826846 0.307700 0.709916
O O11 0.750000 0.000000 0.757079
O O12 0.883063 0.229790 0.629228
O O13 0.004715 0.984548 0.587488
O O14 0.040504 0.298736 0.648752
O O15 0.500000 0.000000 0.000000
O O16 0.250000 0.500000 0.356687
O O17 0.250000 0.000000 0.344117
#
# Coordination Sequence:
#
# PCOD9423470 Si02
#       7
#     8   8   8   8   8   8   8
#     4  11  21  36  59  89 125 170 224 263 325 384
#     4  11  24  43  70 106 142 168 216 281 349 401
#     4  10  24  35  52  85 126 174 221 266 324 383
#     4  10  23  43  60  92 127 166 226 268 333 399
#     4  11  24  47  74 101 130 181 219 275 339 417
#     4  10  24  34  62  91 127 178 214 270 329 400
#     4  11  26  41  60  87 125 175 224 281 325 375
#
# _framework density 21.247257999999999
#
# number of rings (size 3 to 8) (size 9 to 14) (size 15 to 20)
#    0.000    1.429    2.857    0.857   10.000    0.000 
#    0.000    2.143    0.000    0.000    0.000    0.000 
#    0.000    0.000    0.000    0.000    0.000    0.000 
#
# Total GULP energy -312679.835093 kJ/mol
# GULP energy per Si atom -5583.568484 kJ/mol
# Density = 2.119890 g / cm^3
# Si number density = 21.247258 Si / 1000 Ang^3
#
#
#
# Elastic Constant Matrix: (Units=GPa)
#
#
# Indices 1 2 3 4 5 6 
#
# 1 84.0453 -0.3694 8.0772 0.0000 0.0000 0.0000
# 2 -0.3694 49.3867 -6.6385 0.0000 0.0000 0.0000
# 3 8.0772 -6.6385 62.2206 0.0000 0.0000 0.0000
# 4 0.0000 0.0000 0.0000 -323.5288 0.0000 0.0000
# 5 0.0000 0.0000 0.0000 0.0000 14.5472 0.0000
# 6 0.0000 0.0000 0.0000 0.0000 0.0000 16.0970
#
#
#
# Elastic Compliance Matrix: (Units=1/GPa)
#
#
# Indices 1 2 3 4 5 6 
#
# 1 0.012049 -0.000122 -0.001577 0.000000 0.000000 0.000000
# 2 -0.000122 0.020544 0.002208 0.000000 0.000000 0.000000
# 3 -0.001577 0.002208 0.016512 0.000000 0.000000 0.000000
# 4 0.000000 0.000000 0.000000 -0.003091 0.000000 0.000000
# 5 0.000000 0.000000 0.000000 0.000000 0.068742 0.000000
# 6 0.000000 0.000000 0.000000 0.000000 0.000000 0.062123
#
#
# Mechanical properties :
#
#
# Convention : Reuss Voigt Hill
#
# Bulk Modulus (GPa) = 19.95089 21.97679 20.96384
# Shear Modulus (GPa) = 25.96456 -45.60469 -9.82006
#
# Velocity S-wave (km/s) = 3.49953 -4.63793 -2.15217
# Velocity P-wave (km/s) = 5.07338 4.27957 1.92672
#
# Compressibility (1/GPa) = 0.05012308
#
# Stress axis : x y z
#
# Youngs Moduli (GPa) = 82.99174 48.67554 60.56152
#
# Poissons Ratio (x) = 0.00593 0.09552
# Poissons Ratio (y) = 0.01011 -0.13370
# Poissons Ratio (z) = 0.13089 -0.10746
#
# Static dielectric constant tensor:
#      x y z
#    x 2.438650 0.000000 0.000000 
#    y 0.000000 1.900250 0.000000 
#    z 0.000000 0.000000 1.755180 
# 
# From -- ./inp_files/28255.got.cif
#   From: 2010.05.17/outbox.cif.g08.bks.cpg/sg54_15_cif.got.tgz:28255.got - 2010.06.03 13:09:01.
