data_PCOD9423647
_publ_section_title
;
Structure prediction by ZEFSAII (Michael W. Deem and Ramdas Pophale) SiO2 
 PCOD9423647
Probable space group: P C C A
;
_chemical_formula_sum "Si O2"
_cell_formula_units_Z 32
_cell_length_a 26.762658
_cell_length_b 5.440791
_cell_length_c 9.185920
_cell_angle_alpha 90.000000
_cell_angle_beta 90.000000
_cell_angle_gamma 90.000000
_cell_volume 1337.562076
_symmetry_space_group_name_H-M "P C C A"
_symmetry_group_IT_number 54
_symmetry_cell_setting 'orthorhombic'
loop_
_space_group_symop_operation_xyz
x,y,z
1/2-x,-y,z
1/2+x,-y,1/2-z
-x,y,1/2-z
-x,-y,-z
1/2+x,y,-z
1/2-x,y,1/2+z
x,-y,1/2+z
loop_
_atom_site_type_symbol
_atom_site_label
_atom_site_fract_x
_atom_site_fract_y
_atom_site_fract_z
Si Si1 0.693256 0.421524 0.097472
Si Si2 0.111569 0.190482 0.756160
Si Si3 0.633966 0.681274 0.320259
Si Si4 0.017559 0.249579 0.920006
O O1 0.750000 0.500000 0.109205
O O2 0.670677 0.211278 0.203734
O O3 0.678057 0.334993 0.937377
O O4 0.658662 0.642622 0.159470
O O5 0.102716 0.430945 0.659151
O O6 0.077574 0.231967 0.896893
O O7 0.103361 0.929237 0.686726
O O8 0.000000 0.246989 0.750000
O O9 0.000000 0.500000 0.000000
O O10 0.000000 0.000000 0.000000
#
# Coordination Sequence:
#
# PCOD9423647 Si02
#       4
#     8   8   8   8
#     4  10  24  44  68  99 136 180 233 280 351 417
#     4  10  26  43  70  97 143 172 237 282 361 407
#     4  10  24  41  68  95 136 178 221 285 343 414
#     4  12  28  46  77 106 145 190 249 303 376 442
#
# _framework density 23.924121
#
# number of rings (size 3 to 8) (size 9 to 14) (size 15 to 20)
#    1.500    0.000    0.000    3.000   10.500    1.000 
#    0.000    0.000    0.000    0.000    0.000    0.000 
#    0.000    0.000    0.000    0.000    0.000    0.000 
#
# Total GULP energy -178388.303288 kJ/mol
# GULP energy per Si atom -5574.634478 kJ/mol
# Density = 2.386967 g / cm^3
# Si number density = 23.924121 Si / 1000 Ang^3
#
#
#
# Elastic Constant Matrix: (Units=GPa)
#
#
# Indices 1 2 3 4 5 6 
#
# 1 102.2491 19.9106 32.1605 0.0000 0.0000 0.0000
# 2 19.9106 216.4493 67.0741 0.0000 0.0000 0.0000
# 3 32.1605 67.0741 128.2047 0.0000 0.0000 0.0000
# 4 0.0000 0.0000 0.0000 4.0617 0.0000 0.0000
# 5 0.0000 0.0000 0.0000 0.0000 38.2481 0.0000
# 6 0.0000 0.0000 0.0000 0.0000 0.0000 15.8139
#
#
#
# Elastic Compliance Matrix: (Units=1/GPa)
#
#
# Indices 1 2 3 4 5 6 
#
# 1 0.010624 -0.000181 -0.002570 0.000000 0.000000 0.000000
# 2 -0.000181 0.005517 -0.002841 0.000000 0.000000 0.000000
# 3 -0.002570 -0.002841 0.009931 0.000000 0.000000 0.000000
# 4 0.000000 0.000000 0.000000 0.246202 0.000000 0.000000
# 5 0.000000 0.000000 0.000000 0.000000 0.026145 0.000000
# 6 0.000000 0.000000 0.000000 0.000000 0.000000 0.063235
#
#
# Mechanical properties :
#
#
# Convention : Reuss Voigt Hill
#
# Bulk Modulus (GPa) = 67.17036 76.13261 71.65148
# Shear Modulus (GPa) = 13.23446 33.47528 23.35487
#
# Velocity S-wave (km/s) = 2.35454 3.74468 3.12782
# Velocity P-wave (km/s) = 5.96064 7.11256 6.56192
#
# Compressibility (1/GPa) = 0.01488752
#
# Stress axis : x y z
#
# Youngs Moduli (GPa) = 94.12912 181.25642 100.69253
#
# Poissons Ratio (x) = 0.03275 0.25882
# Poissons Ratio (y) = 0.01701 0.28608
# Poissons Ratio (z) = 0.24195 0.51496
#
# Static dielectric constant tensor:
#      x y z
#    x 2.009580 0.000000 0.000000 
#    y 0.000000 1.999310 0.000000 
#    z 0.000000 0.000000 1.955300 
# 
# From -- ./inp_files/5661.got.cif
#   From: 2010.05.17/outbox.cif.g08.bks.cpg/sg54_3_cif.got.tgz:5661.got - 2010.06.03 13:09:01.
