data_PCOD9423267
_publ_section_title
;
Structure prediction by ZEFSAII (Michael W. Deem and Ramdas Pophale) SiO2 
 PCOD9423267
Probable space group: P C C A
;
_chemical_formula_sum "Si O2"
_cell_formula_units_Z 40
_cell_length_a 20.288076
_cell_length_b 6.875407
_cell_length_c 12.560130
_cell_angle_alpha 90.000000
_cell_angle_beta 90.000000
_cell_angle_gamma 90.000000
_cell_volume 1751.997207
_symmetry_space_group_name_H-M "P C C A"
_symmetry_group_IT_number 54
_symmetry_cell_setting 'orthorhombic'
loop_
_space_group_symop_operation_xyz
x,y,z
1/2-x,-y,z
1/2+x,-y,1/2-z
-x,y,1/2-z
-x,-y,-z
1/2+x,y,-z
1/2-x,y,1/2+z
x,-y,1/2+z
loop_
_atom_site_type_symbol
_atom_site_label
_atom_site_fract_x
_atom_site_fract_y
_atom_site_fract_z
Si Si1 0.503508 0.838378 0.373577
Si Si2 0.500000 0.222557 0.250000
Si Si3 0.404166 0.479456 0.860109
Si Si4 0.643814 0.189358 0.988158
Si Si5 0.250000 0.000000 0.880718
Si Si6 0.289781 0.690293 0.221063
O O1 0.500000 0.767531 0.250000
O O2 0.495402 0.069836 0.349492
O O3 0.428531 0.164519 0.562560
O O4 0.451603 0.679776 0.419039
O O5 0.558785 0.367650 0.218370
O O6 0.363894 0.612551 0.943644
O O7 0.355646 0.361004 0.784741
O O8 0.680965 0.021724 0.055668
O O9 0.691537 0.207796 0.887530
O O10 0.251016 0.817561 0.802905
O O11 0.250000 0.500000 0.193720
#
# Coordination Sequence:
#
# PCOD9423267 Si02
#       6
#     8   4   8   8   4   8
#     4  10  23  46  72 110 151 190 242 317 383 442
#     4  10  22  44  72 108 152 186 228 320 362 448
#     4  12  24  47  75 113 146 196 257 300 387 452
#     4  12  27  47  80 107 148 208 250 315 384 465
#     4  12  30  50  72 116 146 202 264 310 386 460
#     4  12  27  51  73 106 159 194 255 328 369 456
#
# _framework density 22.831087
#
# number of rings (size 3 to 8) (size 9 to 14) (size 15 to 20)
#    0.600    0.000    5.000    1.200    8.400    2.400 
#    3.600    0.000    0.000    0.000    0.000    0.000 
#    0.000    0.000    0.000    0.000    0.000    0.000 
#
# Total GULP energy -222934.832533 kJ/mol
# GULP energy per Si atom -5573.370813 kJ/mol
# Density = 2.277912 g / cm^3
# Si number density = 22.831087 Si / 1000 Ang^3
#
#
#
# Elastic Constant Matrix: (Units=GPa)
#
#
# Indices 1 2 3 4 5 6 
#
# 1 63.2777 7.3696 16.4363 0.0000 0.0000 0.0000
# 2 7.3696 65.8472 13.2509 0.0000 0.0000 0.0000
# 3 16.4363 13.2509 85.4399 0.0000 0.0000 0.0000
# 4 0.0000 0.0000 0.0000 29.2521 0.0000 0.0000
# 5 0.0000 0.0000 0.0000 0.0000 26.6770 0.0000
# 6 0.0000 0.0000 0.0000 0.0000 0.0000 45.2827
#
#
#
# Elastic Compliance Matrix: (Units=1/GPa)
#
#
# Indices 1 2 3 4 5 6 
#
# 1 0.016736 -0.001265 -0.003023 0.000000 0.000000 0.000000
# 2 -0.001265 0.015771 -0.002203 0.000000 0.000000 0.000000
# 3 -0.003023 -0.002203 0.012627 0.000000 0.000000 0.000000
# 4 0.000000 0.000000 0.000000 0.034186 0.000000 0.000000
# 5 0.000000 0.000000 0.000000 0.000000 0.037486 0.000000
# 6 0.000000 0.000000 0.000000 0.000000 0.000000 0.022083
#
#
# Mechanical properties :
#
#
# Convention : Reuss Voigt Hill
#
# Bulk Modulus (GPa) = 31.10107 32.07540 31.58823
# Shear Modulus (GPa) = 30.75243 32.07621 31.41432
#
# Velocity S-wave (km/s) = 3.67407 3.75231 3.71340
# Velocity P-wave (km/s) = 5.62585 5.73172 5.67903
#
# Compressibility (1/GPa) = 0.03215324
#
# Stress axis : x y z
#
# Youngs Moduli (GPa) = 59.75158 63.40560 79.19303
#
# Poissons Ratio (x) = 0.08019 0.23943
# Poissons Ratio (y) = 0.07557 0.17444
# Poissons Ratio (z) = 0.18065 0.13966
#
# Static dielectric constant tensor:
#      x y z
#    x 1.888220 0.000000 0.000000 
#    y 0.000000 1.492390 0.000000 
#    z 0.000000 0.000000 1.878650 
# 
# From -- ./inp_files/10205.got.cif
#   From: 2010.05.17/outbox.cif.g08.bks.cpg/sg54_6_cif.got.tgz:10205.got - 2010.06.03 13:09:01.
