data_PCOD9423079
_publ_section_title
;
Structure prediction by ZEFSAII (Michael W. Deem and Ramdas Pophale) SiO2 
 PCOD9423079
Probable space group: P C C A
;
_chemical_formula_sum "Si O2"
_cell_formula_units_Z 48
_cell_length_a 11.565435
_cell_length_b 13.602927
_cell_length_c 12.337297
_cell_angle_alpha 90.000000
_cell_angle_beta 90.000000
_cell_angle_gamma 90.000000
_cell_volume 1940.950051
_symmetry_space_group_name_H-M "P C C A"
_symmetry_group_IT_number 54
_symmetry_cell_setting 'orthorhombic'
loop_
_space_group_symop_operation_xyz
x,y,z
1/2-x,-y,z
1/2+x,-y,1/2-z
-x,y,1/2-z
-x,-y,-z
1/2+x,y,-z
1/2-x,y,1/2+z
x,-y,1/2+z
loop_
_atom_site_type_symbol
_atom_site_label
_atom_site_fract_x
_atom_site_fract_y
_atom_site_fract_z
Si Si1 0.395793 0.491953 0.195765
Si Si2 0.274625 0.352668 0.803452
Si Si3 0.612566 0.364340 0.992863
Si Si4 0.220168 0.192480 0.152237
Si Si5 0.874178 0.052337 0.504923
Si Si6 0.984531 0.782943 0.377599
O O1 0.500000 0.435525 0.250000
O O2 0.296904 0.410189 0.208688
O O3 0.386160 0.580489 0.287209
O O4 0.403796 0.461624 0.577767
O O5 0.208756 0.373346 0.913709
O O6 0.284211 0.238580 0.772945
O O7 0.502027 0.315447 0.051313
O O8 0.656940 0.280098 0.911895
O O9 0.352163 0.181148 0.111407
O O10 0.153564 0.095475 0.115318
O O11 0.913912 0.143074 0.582294
O O12 0.750000 0.000000 0.537825
O O13 0.000000 0.000000 0.500000
O O14 0.000000 0.770840 0.250000
#
# Coordination Sequence:
#
# PCOD9423079 Si02
#       6
#     8   8   8   8   8   8
#     4  10  24  40  61  97 133 184 249 305 356 420
#     4  10  22  42  61  93 140 177 243 297 359 437
#     4  10  23  40  66  95 137 192 235 304 366 419
#     4  10  22  41  68  97 134 182 239 287 360 444
#     4  11  23  46  74 105 147 187 231 298 371 452
#     4  11  22  42  71 103 138 185 238 289 368 440
#
# _framework density 24.730156000000001
#
# number of rings (size 3 to 8) (size 9 to 14) (size 15 to 20)
#    0.000    1.667    3.333    0.000    4.667    6.000 
#    3.000    0.000    0.000    0.000    0.000    0.000 
#    0.000    0.000    0.000    0.000    0.000    0.000 
#
# Total GULP energy -267612.713363 kJ/mol
# GULP energy per Si atom -5575.264862 kJ/mol
# Density = 2.467387 g / cm^3
# Si number density = 24.730156 Si / 1000 Ang^3
#
#
#
# Elastic Constant Matrix: (Units=GPa)
#
#
# Indices 1 2 3 4 5 6 
#
# 1 101.2679 25.0560 4.2491 0.0000 0.0000 0.0000
# 2 25.0560 83.8239 24.1485 0.0000 0.0000 0.0000
# 3 4.2491 24.1485 98.2897 0.0000 0.0000 0.0000
# 4 0.0000 0.0000 0.0000 -3.3265 0.0000 0.0000
# 5 0.0000 0.0000 0.0000 0.0000 40.7017 0.0000
# 6 0.0000 0.0000 0.0000 0.0000 0.0000 35.8941
#
#
#
# Elastic Compliance Matrix: (Units=1/GPa)
#
#
# Indices 1 2 3 4 5 6 
#
# 1 0.010674 -0.003291 0.000347 0.000000 0.000000 0.000000
# 2 -0.003291 0.013853 -0.003261 0.000000 0.000000 0.000000
# 3 0.000347 -0.003261 0.010960 0.000000 0.000000 0.000000
# 4 0.000000 0.000000 0.000000 -0.300615 0.000000 0.000000
# 5 0.000000 0.000000 0.000000 0.000000 0.024569 0.000000
# 6 0.000000 0.000000 0.000000 0.000000 0.000000 0.027860
#
#
# Mechanical properties :
#
#
# Convention : Reuss Voigt Hill
#
# Bulk Modulus (GPa) = 43.33168 43.36540 43.34854
# Shear Modulus (GPa) = -25.96105 29.98239 2.01067
#
# Velocity S-wave (km/s) = -3.24353 3.48570 0.90267
# Velocity P-wave (km/s) = 1.87949 5.81151 4.31892
#
# Compressibility (1/GPa) = 0.02307780
#
# Stress axis : x y z
#
# Youngs Moduli (GPa) = 93.68185 72.18702 91.23884
#
# Poissons Ratio (x) = 0.23755 -0.03166
# Poissons Ratio (y) = 0.30828 0.29755
# Poissons Ratio (z) = -0.03251 0.23542
#
# Static dielectric constant tensor:
#      x y z
#    x 0.119100 0.000000 0.000000 
#    y 0.000000 2.084040 0.000000 
#    z 0.000000 0.000000 1.981700 
# 
# From -- ./inp_files/12625.got.cif
#   From: 2010.05.17/outbox.cif.g08.bks.cpg/sg54_7_cif.got.tgz:12625.got - 2010.06.03 13:09:01.
