data_PCOD9423246
_publ_section_title
;
Structure prediction by ZEFSAII (Michael W. Deem and Ramdas Pophale) SiO2 
 PCOD9423246
Probable space group: P C C A
;
_chemical_formula_sum "Si O2"
_cell_formula_units_Z 36
_cell_length_a 10.099203
_cell_length_b 16.965955
_cell_length_c 9.434838
_cell_angle_alpha 90.000000
_cell_angle_beta 90.000000
_cell_angle_gamma 90.000000
_cell_volume 1616.589896
_symmetry_space_group_name_H-M "P C C A"
_symmetry_group_IT_number 54
_symmetry_cell_setting 'orthorhombic'
loop_
_space_group_symop_operation_xyz
x,y,z
1/2-x,-y,z
1/2+x,-y,1/2-z
-x,y,1/2-z
-x,-y,-z
1/2+x,y,-z
1/2-x,y,1/2+z
x,-y,1/2+z
loop_
_atom_site_type_symbol
_atom_site_label
_atom_site_fract_x
_atom_site_fract_y
_atom_site_fract_z
Si Si1 0.250000 0.500000 0.379050
Si Si2 0.606455 0.433385 0.856287
Si Si3 0.154773 0.074963 0.704362
Si Si4 0.492103 0.257884 0.591064
Si Si5 0.254899 0.824150 0.454736
O O1 0.141658 0.523732 0.497948
O O2 0.275652 0.569329 0.262506
O O3 0.500000 0.473061 0.750000
O O4 0.554042 0.347855 0.898416
O O5 0.176259 0.105802 0.544423
O O6 0.218310 0.143583 0.800759
O O7 0.000000 0.062665 0.750000
O O8 0.250000 0.000000 0.724323
O O9 0.500000 0.226141 0.750000
O O10 0.384223 0.206240 0.512639
O O11 0.639805 0.246691 0.534164
#
# Coordination Sequence:
#
# PCOD9423246 Si02
#       5
#     4   8   8   8   8
#     4  10  22  44  68 100 142 184 236 294 346 414
#     4  10  23  41  69 100 138 185 235 288 350 414
#     4  12  28  45  72 104 138 185 231 284 351 417
#     4  11  25  43  73 101 140 181 234 289 349 414
#     4  12  25  47  70 102 142 179 232 291 345 415
#
# _framework density 22.269100999999999
#
# number of rings (size 3 to 8) (size 9 to 14) (size 15 to 20)
#    0.000    0.889    4.444    1.333    9.333    1.778 
#    0.000    0.000    0.000    0.000    0.000    0.000 
#    0.000    0.000    0.000    0.000    0.000    0.000 
#
# Total GULP energy -200643.642129 kJ/mol
# GULP energy per Si atom -5573.434504 kJ/mol
# Density = 2.221842 g / cm^3
# Si number density = 22.269101 Si / 1000 Ang^3
#
#
#
# Elastic Constant Matrix: (Units=GPa)
#
#
# Indices 1 2 3 4 5 6 
#
# 1 112.2929 26.2840 5.8613 0.0000 0.0000 0.0000
# 2 26.2840 60.2893 9.3284 0.0000 0.0000 0.0000
# 3 5.8613 9.3284 88.5736 0.0000 0.0000 0.0000
# 4 0.0000 0.0000 0.0000 32.7234 0.0000 0.0000
# 5 0.0000 0.0000 0.0000 0.0000 32.5883 0.0000
# 6 0.0000 0.0000 0.0000 0.0000 0.0000 33.8340
#
#
#
# Elastic Compliance Matrix: (Units=1/GPa)
#
#
# Indices 1 2 3 4 5 6 
#
# 1 0.009921 -0.004294 -0.000204 0.000000 0.000000 0.000000
# 2 -0.004294 0.018720 -0.001687 0.000000 0.000000 0.000000
# 3 -0.000204 -0.001687 0.011481 0.000000 0.000000 0.000000
# 4 0.000000 0.000000 0.000000 0.030559 0.000000 0.000000
# 5 0.000000 0.000000 0.000000 0.000000 0.030686 0.000000
# 6 0.000000 0.000000 0.000000 0.000000 0.000000 0.029556
#
#
# Mechanical properties :
#
#
# Convention : Reuss Voigt Hill
#
# Bulk Modulus (GPa) = 36.03439 38.23370 37.13404
# Shear Modulus (GPa) = 32.77747 34.47463 33.62605
#
# Velocity S-wave (km/s) = 3.84067 3.93885 3.89007
# Velocity P-wave (km/s) = 5.99034 6.15567 6.07357
#
# Compressibility (1/GPa) = 0.02775127
#
# Stress axis : x y z
#
# Youngs Moduli (GPa) = 100.79710 53.41994 87.09827
#
# Poissons Ratio (x) = 0.22936 0.01780
# Poissons Ratio (y) = 0.43278 0.14697
# Poissons Ratio (z) = 0.02059 0.09014
#
# Static dielectric constant tensor:
#      x y z
#    x 2.122190 0.000000 0.000000 
#    y 0.000000 1.815080 0.000000 
#    z 0.000000 0.000000 1.812150 
# 
# From -- ./inp_files/2478.got.cif
#   From: 2010.05.17/outbox.cif.g08.bks.cpg/sg54_2_cif.got.tgz:2478.got - 2010.06.03 13:09:01.
