data_PCOD9423350
_publ_section_title
;
Structure prediction by ZEFSAII (Michael W. Deem and Ramdas Pophale) SiO2 
 PCOD9423350
Probable space group: P C C A
;
_chemical_formula_sum "Si O2"
_cell_formula_units_Z 36
_cell_length_a 15.761141
_cell_length_b 5.142530
_cell_length_c 18.143872
_cell_angle_alpha 90.000000
_cell_angle_beta 90.000000
_cell_angle_gamma 90.000000
_cell_volume 1470.599661
_symmetry_space_group_name_H-M "P C C A"
_symmetry_group_IT_number 54
_symmetry_cell_setting 'orthorhombic'
loop_
_space_group_symop_operation_xyz
x,y,z
1/2-x,-y,z
1/2+x,-y,1/2-z
-x,y,1/2-z
-x,-y,-z
1/2+x,y,-z
1/2-x,y,1/2+z
x,-y,1/2+z
loop_
_atom_site_type_symbol
_atom_site_label
_atom_site_fract_x
_atom_site_fract_y
_atom_site_fract_z
Si Si1 0.519741 0.071946 0.633863
Si Si2 0.750000 0.500000 0.752199
Si Si3 0.180578 0.837441 0.368247
Si Si4 0.903136 0.431885 0.862582
Si Si5 0.904513 0.583726 0.522908
O O1 0.601033 0.963994 0.676195
O O2 0.450850 0.845587 0.635670
O O3 0.639673 0.602109 0.583088
O O4 0.473843 0.342312 0.650197
O O5 0.756787 0.267899 0.694565
O O6 0.832349 0.478801 0.802319
O O7 0.139155 0.442061 0.556000
O O8 0.250000 0.000000 0.415372
O O9 0.073782 0.865340 0.941811
O O10 0.000000 0.500000 0.500000
#
# Coordination Sequence:
#
# PCOD9423350 Si02
#       5
#     8   4   8   8   8
#     4  11  23  50  79 114 148 205 256 327 392 476
#     4  12  32  54  64 120 166 212 256 332 388 482
#     4  12  27  49  79 112 168 203 265 323 404 470
#     4  11  27  48  83 112 154 202 269 325 398 464
#     4  10  22  50  82 118 146 201 270 333 395 462
#
# _framework density 24.479811000000002
#
# number of rings (size 3 to 8) (size 9 to 14) (size 15 to 20)
#    0.000    0.889    4.444    2.000    6.222    3.556 
#    4.000    0.000    0.000    0.000    0.000    0.000 
#    0.000    0.000    0.000    0.000    0.000    0.000 
#
# Total GULP energy -200727.112590 kJ/mol
# GULP energy per Si atom -5575.753127 kJ/mol
# Density = 2.442409 g / cm^3
# Si number density = 24.479811 Si / 1000 Ang^3
#
#
#
# Elastic Constant Matrix: (Units=GPa)
#
#
# Indices 1 2 3 4 5 6 
#
# 1 144.0625 53.1827 42.1676 0.0000 0.0000 0.0000
# 2 53.1827 149.2864 22.9814 0.0000 0.0000 0.0000
# 3 42.1676 22.9814 82.1653 0.0000 0.0000 0.0000
# 4 0.0000 0.0000 0.0000 6.2978 0.0000 0.0000
# 5 0.0000 0.0000 0.0000 0.0000 23.5330 0.0000
# 6 0.0000 0.0000 0.0000 0.0000 0.0000 46.1454
#
#
#
# Elastic Compliance Matrix: (Units=1/GPa)
#
#
# Indices 1 2 3 4 5 6 
#
# 1 0.009055 -0.002624 -0.003913 0.000000 0.000000 0.000000
# 2 -0.002624 0.007760 -0.000824 0.000000 0.000000 0.000000
# 3 -0.003913 -0.000824 0.014410 0.000000 0.000000 0.000000
# 4 0.000000 0.000000 0.000000 0.158785 0.000000 0.000000
# 5 0.000000 0.000000 0.000000 0.000000 0.042494 0.000000
# 6 0.000000 0.000000 0.000000 0.000000 0.000000 0.021671
#
#
# Mechanical properties :
#
#
# Convention : Reuss Voigt Hill
#
# Bulk Modulus (GPa) = 60.59577 68.01975 64.30776
# Shear Modulus (GPa) = 18.22177 32.34073 25.28125
#
# Velocity S-wave (km/s) = 2.73125 3.63866 3.21711
# Velocity P-wave (km/s) = 5.89520 6.74533 6.33455
#
# Compressibility (1/GPa) = 0.01650280
#
# Stress axis : x y z
#
# Youngs Moduli (GPa) = 110.43088 128.86586 69.39865
#
# Poissons Ratio (x) = 0.33808 0.27159
# Poissons Ratio (y) = 0.28972 0.05719
# Poissons Ratio (z) = 0.43217 0.10619
#
# Static dielectric constant tensor:
#      x y z
#    x 4.808660 0.000000 0.000000 
#    y 0.000000 2.241770 0.000000 
#    z 0.000000 0.000000 2.160370 
# 
# From -- ./inp_files/21344.got.cif
#   From: 2010.05.17/outbox.cif.g08.bks.cpg/sg54_11_cif.got.tgz:21344.got - 2010.06.03 13:09:01.
