data_PCOD9423021
_publ_section_title
;
Structure prediction by ZEFSAII (Michael W. Deem and Ramdas Pophale) SiO2 
 PCOD9423021
Probable space group: P C C A
;
_chemical_formula_sum "Si O2"
_cell_formula_units_Z 40
_cell_length_a 13.448676
_cell_length_b 7.666843
_cell_length_c 14.431953
_cell_angle_alpha 90.000000
_cell_angle_beta 90.000000
_cell_angle_gamma 90.000000
_cell_volume 1488.062618
_symmetry_space_group_name_H-M "P C C A"
_symmetry_group_IT_number 54
_symmetry_cell_setting 'orthorhombic'
loop_
_space_group_symop_operation_xyz
x,y,z
1/2-x,-y,z
1/2+x,-y,1/2-z
-x,y,1/2-z
-x,-y,-z
1/2+x,y,-z
1/2-x,y,1/2+z
x,-y,1/2+z
loop_
_atom_site_type_symbol
_atom_site_label
_atom_site_fract_x
_atom_site_fract_y
_atom_site_fract_z
Si Si1 0.913574 0.078362 0.818806
Si Si2 0.228486 0.295813 0.939653
Si Si3 0.218735 0.749320 0.729024
Si Si4 0.417070 0.598815 0.088999
Si Si5 0.433298 0.783557 0.499538
O O1 0.815630 0.197742 0.828759
O O2 0.000000 0.139445 0.750000
O O3 0.861633 0.906354 0.776810
O O4 0.961180 0.076200 0.921463
O O5 0.250000 0.500000 0.957778
O O6 0.232962 0.277360 0.829554
O O7 0.133403 0.283118 0.006099
O O8 0.319613 0.178542 0.972692
O O9 0.154861 0.601580 0.677209
O O10 0.437844 0.402669 0.056887
O O11 0.517958 0.710587 0.096455
#
# Coordination Sequence:
#
# PCOD9423021 Si02
#       5
#     8   8   8   8   8
#     4  11  25  45  63  96 138 179 224 270 336 412
#     4  10  22  40  68  99 128 171 221 281 337 396
#     4  11  25  43  67  99 134 180 222 275 345 411
#     4  10  22  43  69 100 132 169 233 283 338 401
#     4  10  22  43  68  98 133 175 221 286 341 394
#
# _framework density 26.880586999999998
#
# number of rings (size 3 to 8) (size 9 to 14) (size 15 to 20)
#    0.000    1.600    2.000    1.200    5.600    0.800 
#    7.200    0.000    0.000    0.000    0.000    0.000 
#    0.000    0.000    0.000    0.000    0.000    0.000 
#
# Total GULP energy -223205.599387 kJ/mol
# GULP energy per Si atom -5580.139985 kJ/mol
# Density = 2.681941 g / cm^3
# Si number density = 26.880587 Si / 1000 Ang^3
#
#
#
# Elastic Constant Matrix: (Units=GPa)
#
#
# Indices 1 2 3 4 5 6 
#
# 1 61.5438 -29.0345 -1.3420 0.0000 0.0000 0.0000
# 2 -29.0345 55.3050 -35.4073 0.0000 0.0000 0.0000
# 3 -1.3420 -35.4073 123.9208 0.0000 0.0000 0.0000
# 4 0.0000 0.0000 0.0000 30.8334 0.0000 0.0000
# 5 0.0000 0.0000 0.0000 0.0000 49.2368 0.0000
# 6 0.0000 0.0000 0.0000 0.0000 0.0000 13.4806
#
#
#
# Elastic Compliance Matrix: (Units=1/GPa)
#
#
# Indices 1 2 3 4 5 6 
#
# 1 0.023597 0.015362 0.004645 0.000000 0.000000 0.000000
# 2 0.015362 0.032130 0.009347 0.000000 0.000000 0.000000
# 3 0.004645 0.009347 0.010791 0.000000 0.000000 0.000000
# 4 0.000000 0.000000 0.000000 0.032432 0.000000 0.000000
# 5 0.000000 0.000000 0.000000 0.000000 0.020310 0.000000
# 6 0.000000 0.000000 0.000000 0.000000 0.000000 0.074181
#
#
# Mechanical properties :
#
#
# Convention : Reuss Voigt Hill
#
# Bulk Modulus (GPa) = 7.98557 12.13355 10.05956
# Shear Modulus (GPa) = 28.33247 39.14703 33.73975
#
# Velocity S-wave (km/s) = 3.25008 3.82033 3.54668
# Velocity P-wave (km/s) = 4.13052 4.89730 4.53016
#
# Compressibility (1/GPa) = 0.12522580
#
# Stress axis : x y z
#
# Youngs Moduli (GPa) = 42.37784 31.12308 92.67327
#
# Poissons Ratio (x) = -0.47811 -0.43045
# Poissons Ratio (y) = -0.65101 -0.86620
# Poissons Ratio (z) = -0.19684 -0.29090
#
# Static dielectric constant tensor:
#      x y z
#    x 2.151330 0.000000 0.000000 
#    y 0.000000 2.235550 0.000000 
#    z 0.000000 0.000000 2.233500 
# 
# From -- ./inp_files/13213.got.cif
#   From: 2010.05.17/outbox.cif.g08.bks.cpg/sg54_7_cif.got.tgz:13213.got - 2010.06.03 13:09:01.
