data_PCOD9423561
_publ_section_title
;
Structure prediction by ZEFSAII (Michael W. Deem and Ramdas Pophale) SiO2 
 PCOD9423561
Probable space group: P C C A
;
_chemical_formula_sum "Si O2"
_cell_formula_units_Z 44
_cell_length_a 18.042585
_cell_length_b 9.266915
_cell_length_c 11.487155
_cell_angle_alpha 90.000000
_cell_angle_beta 90.000000
_cell_angle_gamma 90.000000
_cell_volume 1920.641996
_symmetry_space_group_name_H-M "P C C A"
_symmetry_group_IT_number 54
_symmetry_cell_setting 'orthorhombic'
loop_
_space_group_symop_operation_xyz
x,y,z
1/2-x,-y,z
1/2+x,-y,1/2-z
-x,y,1/2-z
-x,-y,-z
1/2+x,y,-z
1/2-x,y,1/2+z
x,-y,1/2+z
loop_
_atom_site_type_symbol
_atom_site_label
_atom_site_fract_x
_atom_site_fract_y
_atom_site_fract_z
Si Si1 0.366686 0.541706 0.407120
Si Si2 0.639502 0.781324 0.641100
Si Si3 0.500000 0.087190 0.250000
Si Si4 0.750000 0.500000 0.894792
Si Si5 0.585766 0.860023 0.384260
Si Si6 0.288260 0.221625 0.761936
Si Si7 0.000000 0.386781 0.250000
O O1 0.339923 0.388033 0.358138
O O2 0.326741 0.530484 0.533291
O O3 0.334767 0.692045 0.359581
O O4 0.450192 0.538485 0.351611
O O5 0.570812 0.816532 0.723079
O O6 0.611381 0.832288 0.514903
O O7 0.716302 0.847703 0.681653
O O8 0.525066 0.982211 0.355917
O O9 0.766382 0.647475 0.825857
O O10 0.658648 0.886125 0.307123
O O11 0.552757 0.714136 0.328239
#
# Coordination Sequence:
#
# PCOD9423561 Si02
#       7
#     8   8   4   4   8   8   4
#     4  11  20  37  61 101 130 165 203 256 333 397
#     4  12  22  40  66  92 124 170 214 267 322 378
#     4  11  27  44  62  88 129 171 234 272 298 377
#     4  12  18  36  64 100 138 156 198 268 328 400
#     4  10  23  46  62  88 130 174 217 268 316 371
#     4  11  21  39  67  97 132 159 205 267 326 398
#     4   9  23  38  62  92 137 171 200 258 330 393
#
# _framework density 22.909006999999999
#
# number of rings (size 3 to 8) (size 9 to 14) (size 15 to 20)
#    0.000    1.091    5.455    1.091    0.000    2.909 
#    0.000    7.273    0.000    0.000    0.000    0.000 
#    0.000    0.000    0.000    0.000    0.000    0.000 
#
# Total GULP energy -245180.461400 kJ/mol
# GULP energy per Si atom -5572.283214 kJ/mol
# Density = 2.285687 g / cm^3
# Si number density = 22.909007 Si / 1000 Ang^3
#
#
#
# Elastic Constant Matrix: (Units=GPa)
#
#
# Indices 1 2 3 4 5 6 
#
# 1 99.3619 -8.2203 18.2955 0.0000 0.0000 0.0000
# 2 -8.2203 30.5310 -11.7965 0.0000 0.0000 0.0000
# 3 18.2955 -11.7965 65.9347 0.0000 0.0000 0.0000
# 4 0.0000 0.0000 0.0000 -10.6639 0.0000 0.0000
# 5 0.0000 0.0000 0.0000 0.0000 35.4532 0.0000
# 6 0.0000 0.0000 0.0000 0.0000 0.0000 38.0237
#
#
#
# Elastic Compliance Matrix: (Units=1/GPa)
#
#
# Indices 1 2 3 4 5 6 
#
# 1 0.010704 0.001863 -0.002637 0.000000 0.000000 0.000000
# 2 0.001863 0.035510 0.005836 0.000000 0.000000 0.000000
# 3 -0.002637 0.005836 0.016942 0.000000 0.000000 0.000000
# 4 0.000000 0.000000 0.000000 -0.093775 0.000000 0.000000
# 5 0.000000 0.000000 0.000000 0.000000 0.028206 0.000000
# 6 0.000000 0.000000 0.000000 0.000000 0.000000 0.026299
#
#
# Mechanical properties :
#
#
# Convention : Reuss Voigt Hill
#
# Bulk Modulus (GPa) = 13.64598 21.37612 17.51105
# Shear Modulus (GPa) = 130.92648 25.73255 78.32951
#
# Velocity S-wave (km/s) = 7.56801 3.35513 5.85370
# Velocity P-wave (km/s) = 9.07391 4.93562 7.30398
#
# Compressibility (1/GPa) = 0.07328165
#
# Stress axis : x y z
#
# Youngs Moduli (GPa) = 93.42421 28.16093 59.02377
#
# Poissons Ratio (x) = -0.05247 0.15563
# Poissons Ratio (y) = -0.17407 -0.34448
# Poissons Ratio (z) = 0.24634 -0.16435
#
# Static dielectric constant tensor:
#      x y z
#    x 1.911410 0.000000 0.000000 
#    y 0.000000 1.824160 0.000000 
#    z 0.000000 0.000000 1.888390 
# 
# From -- ./inp_files/8900.got.cif
#   From: 2010.05.17/outbox.cif.g08.bks.cpg/sg54_5_cif.got.tgz:8900.got - 2010.06.03 13:09:01.
