data_PCOD9423753
_publ_section_title
;
Structure prediction by ZEFSAII (Michael W. Deem and Ramdas Pophale) SiO2 
 PCOD9423753
Probable space group: P C C A
;
_chemical_formula_sum "Si O2"
_cell_formula_units_Z 44
_cell_length_a 12.418093
_cell_length_b 16.321814
_cell_length_c 9.925865
_cell_angle_alpha 90.000000
_cell_angle_beta 90.000000
_cell_angle_gamma 90.000000
_cell_volume 2011.831930
_symmetry_space_group_name_H-M "P C C A"
_symmetry_group_IT_number 54
_symmetry_cell_setting 'orthorhombic'
loop_
_space_group_symop_operation_xyz
x,y,z
1/2-x,-y,z
1/2+x,-y,1/2-z
-x,y,1/2-z
-x,-y,-z
1/2+x,y,-z
1/2-x,y,1/2+z
x,-y,1/2+z
loop_
_atom_site_type_symbol
_atom_site_label
_atom_site_fract_x
_atom_site_fract_y
_atom_site_fract_z
Si Si1 0.590578 0.871480 0.838819
Si Si2 0.725327 0.632165 0.431691
Si Si3 0.407302 0.870086 0.362318
Si Si4 0.750000 0.000000 0.752738
Si Si5 0.774153 0.739468 0.192278
Si Si6 0.576296 0.522127 0.878843
O O1 0.500000 0.913326 0.750000
O O2 0.626451 0.790503 0.755261
O O3 0.694734 0.929490 0.841270
O O4 0.545244 0.863549 0.988210
O O5 0.715928 0.702281 0.322226
O O6 0.701264 0.669397 0.579942
O O7 0.847380 0.597946 0.418851
O O8 0.653135 0.557617 0.376096
O O9 0.500000 0.858373 0.250000
O O10 0.341751 0.953650 0.332600
O O11 0.312821 0.801956 0.367131
O O12 0.500000 0.535319 0.750000
O O13 0.500000 0.500000 0.000000
#
# Coordination Sequence:
#
# PCOD9423753 Si02
#       6
#     8   8   8   4   8   8
#     4  11  25  43  67 100 134 177 229 278 341 410
#     4  11  24  44  68  98 138 180 227 283 344 407
#     4  11  25  43  68 101 134 178 228 277 341 410
#     4  10  24  44  72  94 136 176 226 284 340 398
#     4  11  24  44  65  95 139 177 220 280 340 403
#     4  11  24  43  69 101 133 176 230 281 338 409
#
# _framework density 21.870615000000001
#
# number of rings (size 3 to 8) (size 9 to 14) (size 15 to 20)
#    0.000    1.091    1.818    3.273    2.545   11.636 
#    0.000    0.000    0.000    0.000    0.000    0.000 
#    0.000    0.000    0.000    0.000    0.000    0.000 
#
# Total GULP energy -245591.902559 kJ/mol
# GULP energy per Si atom -5581.634149 kJ/mol
# Density = 2.182084 g / cm^3
# Si number density = 21.870615 Si / 1000 Ang^3
#
#
#
# Elastic Constant Matrix: (Units=GPa)
#
#
# Indices 1 2 3 4 5 6 
#
# 1 67.9909 17.8046 30.4218 0.0000 0.0000 0.0000
# 2 17.8046 67.3508 12.0194 0.0000 0.0000 0.0000
# 3 30.4218 12.0194 150.8225 0.0000 0.0000 0.0000
# 4 0.0000 0.0000 0.0000 12.8584 0.0000 0.0000
# 5 0.0000 0.0000 0.0000 0.0000 40.4200 0.0000
# 6 0.0000 0.0000 0.0000 0.0000 0.0000 23.2963
#
#
#
# Elastic Compliance Matrix: (Units=1/GPa)
#
#
# Indices 1 2 3 4 5 6 
#
# 1 0.017155 -0.003974 -0.003144 0.000000 0.000000 0.000000
# 2 -0.003974 0.015982 -0.000472 0.000000 0.000000 0.000000
# 3 -0.003144 -0.000472 0.007302 0.000000 0.000000 0.000000
# 4 0.000000 0.000000 0.000000 0.077770 0.000000 0.000000
# 5 0.000000 0.000000 0.000000 0.000000 0.024740 0.000000
# 6 0.000000 0.000000 0.000000 0.000000 0.000000 0.042925
#
#
# Mechanical properties :
#
#
# Convention : Reuss Voigt Hill
#
# Bulk Modulus (GPa) = 39.58813 45.18398 42.38605
# Shear Modulus (GPa) = 23.86925 30.37618 27.12271
#
# Velocity S-wave (km/s) = 3.30720 3.73084 3.52539
# Velocity P-wave (km/s) = 5.72047 6.26605 5.99947
#
# Compressibility (1/GPa) = 0.02526010
#
# Stress axis : x y z
#
# Youngs Moduli (GPa) = 58.29174 62.56857 136.94854
#
# Poissons Ratio (x) = 0.24865 0.43051
# Poissons Ratio (y) = 0.23165 0.06465
# Poissons Ratio (z) = 0.18324 0.02954
#
# Static dielectric constant tensor:
#      x y z
#    x 1.891400 0.000000 0.000000 
#    y 0.000000 1.240980 0.000000 
#    z 0.000000 0.000000 1.732150 
# 
# From -- ./inp_files/3533.got.cif
#   From: 2010.05.17/outbox.cif.g08.bks.cpg/sg54_2_cif.got.tgz:3533.got - 2010.06.03 13:09:01.
