data_PCOD9423076
_publ_section_title
;
Structure prediction by ZEFSAII (Michael W. Deem and Ramdas Pophale) SiO2 
 PCOD9423076
Probable space group: P C C A
;
_chemical_formula_sum "Si O2"
_cell_formula_units_Z 64
_cell_length_a 14.139431
_cell_length_b 20.952194
_cell_length_c 8.823492
_cell_angle_alpha 90.000000
_cell_angle_beta 90.000000
_cell_angle_gamma 90.000000
_cell_volume 2613.978046
_symmetry_space_group_name_H-M "P C C A"
_symmetry_group_IT_number 54
_symmetry_cell_setting 'orthorhombic'
loop_
_space_group_symop_operation_xyz
x,y,z
1/2-x,-y,z
1/2+x,-y,1/2-z
-x,y,1/2-z
-x,-y,-z
1/2+x,y,-z
1/2-x,y,1/2+z
x,-y,1/2+z
loop_
_atom_site_type_symbol
_atom_site_label
_atom_site_fract_x
_atom_site_fract_y
_atom_site_fract_z
Si Si1 0.078613 0.142995 0.380415
Si Si2 0.348734 0.480693 0.759435
Si Si3 0.924029 0.088863 0.576091
Si Si4 0.549840 0.567486 0.525935
Si Si5 0.719545 0.203163 0.052670
Si Si6 0.140189 0.015471 0.210092
Si Si7 0.762054 0.293779 0.284556
Si Si8 0.861034 0.631260 0.522798
O O1 0.168677 0.187044 0.421987
O O2 0.000000 0.162648 0.250000
O O3 0.017081 0.127985 0.529871
O O4 0.123504 0.076655 0.318292
O O5 0.250000 0.500000 0.693335
O O6 0.396036 0.547592 0.819044
O O7 0.395425 0.433920 0.634715
O O8 0.334349 0.437885 0.909128
O O9 0.838388 0.138901 0.563063
O O10 0.908757 0.037156 0.443422
O O11 0.500000 0.500000 0.500000
O O12 0.471112 0.622749 0.524720
O O13 0.593677 0.047830 0.224459
O O14 0.690025 0.254121 0.179801
O O15 0.699476 0.239751 0.897083
O O16 0.250000 0.000000 0.187981
O O17 0.706014 0.344075 0.388542
O O18 0.836513 0.323492 0.166498
#
# Coordination Sequence:
#
# PCOD9423076 Si02
#       8
#     8   8   8   8   8   8   8   8
#     4  10  22  41  68 101 138 184 238 298 373 446
#     4  11  24  42  76 111 155 196 235 286 372 441
#     4  11  24  40  66 101 143 185 234 297 375 447
#     4  10  22  43  68 111 149 187 235 284 348 444
#     4  11  23  48  74  97 138 189 256 309 358 434
#     4  11  21  38  62 104 141 185 222 295 374 446
#     4  10  24  45  73  98 136 190 249 301 362 418
#     4  10  23  44  70 102 144 186 231 303 359 420
#
# _framework density 24.483753
#
# number of rings (size 3 to 8) (size 9 to 14) (size 15 to 20)
#    0.000    1.500    1.250    4.125    5.250    0.000 
#    0.000   13.125    2.750    0.000    0.000    0.000 
#    0.000    0.000    0.000    0.000    0.000    0.000 
#
# Total GULP energy -357468.721255 kJ/mol
# GULP energy per Si atom -5585.448770 kJ/mol
# Density = 2.442803 g / cm^3
# Si number density = 24.483753 Si / 1000 Ang^3
#
#
#
# Elastic Constant Matrix: (Units=GPa)
#
#
# Indices 1 2 3 4 5 6 
#
# 1 128.1555 57.8123 31.9552 0.0000 0.0000 0.0000
# 2 57.8123 109.5315 55.5920 0.0000 0.0000 0.0000
# 3 31.9552 55.5920 92.2238 0.0000 0.0000 0.0000
# 4 0.0000 0.0000 0.0000 35.1855 0.0000 0.0000
# 5 0.0000 0.0000 0.0000 0.0000 25.4376 0.0000
# 6 0.0000 0.0000 0.0000 0.0000 0.0000 18.1518
#
#
#
# Elastic Compliance Matrix: (Units=1/GPa)
#
#
# Indices 1 2 3 4 5 6 
#
# 1 0.010253 -0.005199 -0.000419 0.000000 0.000000 0.000000
# 2 -0.005199 0.015791 -0.007717 0.000000 0.000000 0.000000
# 3 -0.000419 -0.007717 0.015640 0.000000 0.000000 0.000000
# 4 0.000000 0.000000 0.000000 0.028421 0.000000 0.000000
# 5 0.000000 0.000000 0.000000 0.000000 0.039312 0.000000
# 6 0.000000 0.000000 0.000000 0.000000 0.000000 0.055091
#
#
# Mechanical properties :
#
#
# Convention : Reuss Voigt Hill
#
# Bulk Modulus (GPa) = 66.60445 68.95887 67.78166
# Shear Modulus (GPa) = 25.48661 28.05840 26.77251
#
# Velocity S-wave (km/s) = 3.22989 3.38894 3.31037
# Velocity P-wave (km/s) = 6.41656 6.59845 6.50814
#
# Compressibility (1/GPa) = 0.01501401
#
# Stress axis : x y z
#
# Youngs Moduli (GPa) = 97.53474 63.32826 63.93842
#
# Poissons Ratio (x) = 0.32925 0.02676
# Poissons Ratio (y) = 0.50710 0.49342
# Poissons Ratio (z) = 0.04082 0.48871
#
# Static dielectric constant tensor:
#      x y z
#    x 2.055690 0.000000 0.000000 
#    y 0.000000 1.632420 0.000000 
#    z 0.000000 0.000000 2.022740 
# 
# From -- ./inp_files/4397.got.cif
#   From: 2010.05.17/outbox.cif.g08.bks.cpg/sg54_3_cif.got.tgz:4397.got - 2010.06.03 13:09:01.
