data_PCOD9423401
_publ_section_title
;
Structure prediction by ZEFSAII (Michael W. Deem and Ramdas Pophale) SiO2 
 PCOD9423401
Probable space group: P C C A
;
_chemical_formula_sum "Si O2"
_cell_formula_units_Z 32
_cell_length_a 5.488707
_cell_length_b 9.124718
_cell_length_c 28.086497
_cell_angle_alpha 90.000000
_cell_angle_beta 90.000000
_cell_angle_gamma 90.000000
_cell_volume 1406.653321
_symmetry_space_group_name_H-M "P C C A"
_symmetry_group_IT_number 54
_symmetry_cell_setting 'orthorhombic'
loop_
_space_group_symop_operation_xyz
x,y,z
1/2-x,-y,z
1/2+x,-y,1/2-z
-x,y,1/2-z
-x,-y,-z
1/2+x,y,-z
1/2-x,y,1/2+z
x,-y,1/2+z
loop_
_atom_site_type_symbol
_atom_site_label
_atom_site_fract_x
_atom_site_fract_y
_atom_site_fract_z
Si Si1 0.250000 0.000000 0.357032
Si Si2 0.085600 0.746070 0.117362
Si Si3 0.215243 0.176383 0.024702
Si Si4 0.037804 0.749304 0.693951
Si Si5 0.250000 0.500000 0.362899
O O1 0.424614 0.901245 0.324632
O O2 0.091909 0.885669 0.387174
O O3 0.296513 0.770771 0.079270
O O4 0.192586 0.742259 0.170991
O O5 0.940890 0.597505 0.108343
O O6 0.250000 0.000000 0.023890
O O7 0.471896 0.226669 0.001985
O O8 0.000000 0.739784 0.750000
O O9 0.893399 0.616016 0.669601
#
# Coordination Sequence:
#
# PCOD9423401 Si02
#       5
#     4   8   8   8   4
#     4  10  24  38  68 100 134 174 220 288 354 404
#     4  11  24  45  67 101 139 182 231 289 351 421
#     4  10  23  40  72 106 142 184 236 297 362 427
#     4  11  25  41  69  95 135 177 230 283 346 417
#     4  10  26  42  68  92 136 184 230 274 354 410
#
# _framework density 22.749030999999999
#
# number of rings (size 3 to 8) (size 9 to 14) (size 15 to 20)
#    0.000    1.500    0.000    3.000   19.250    2.000 
#    0.000    1.250    0.000    0.000    0.000    0.000 
#    0.000    0.000    0.000    0.000    0.000    0.000 
#
# Total GULP energy -179068.504003 kJ/mol
# GULP energy per Si atom -5595.890750 kJ/mol
# Density = 2.269725 g / cm^3
# Si number density = 22.749031 Si / 1000 Ang^3
#
#
#
# Elastic Constant Matrix: (Units=GPa)
#
#
# Indices 1 2 3 4 5 6 
#
# 1 99.4859 24.3293 25.5177 0.0000 0.0000 0.0000
# 2 24.3293 103.8647 1.4857 0.0000 0.0000 0.0000
# 3 25.5177 1.4857 93.8971 0.0000 0.0000 0.0000
# 4 0.0000 0.0000 0.0000 5.7143 0.0000 0.0000
# 5 0.0000 0.0000 0.0000 0.0000 21.8003 0.0000
# 6 0.0000 0.0000 0.0000 0.0000 0.0000 30.5018
#
#
#
# Elastic Compliance Matrix: (Units=1/GPa)
#
#
# Indices 1 2 3 4 5 6 
#
# 1 0.011489 -0.002647 -0.003080 0.000000 0.000000 0.000000
# 2 -0.002647 0.010240 0.000557 0.000000 0.000000 0.000000
# 3 -0.003080 0.000557 0.011478 0.000000 0.000000 0.000000
# 4 0.000000 0.000000 0.000000 0.175001 0.000000 0.000000
# 5 0.000000 0.000000 0.000000 0.000000 0.045871 0.000000
# 6 0.000000 0.000000 0.000000 0.000000 0.000000 0.032785
#
#
# Mechanical properties :
#
#
# Convention : Reuss Voigt Hill
#
# Bulk Modulus (GPa) = 43.73114 44.43480 44.08297
# Shear Modulus (GPa) = 16.40276 27.99761 22.20019
#
# Velocity S-wave (km/s) = 2.68812 3.51196 3.12729
# Velocity P-wave (km/s) = 5.37584 6.00168 5.69736
#
# Compressibility (1/GPa) = 0.02286700
#
# Stress axis : x y z
#
# Youngs Moduli (GPa) = 87.03860 97.65621 87.12100
#
# Poissons Ratio (x) = 0.25851 0.26837
# Poissons Ratio (y) = 0.23040 -0.04856
# Poissons Ratio (z) = 0.26812 -0.05443
#
# Static dielectric constant tensor:
#      x y z
#    x 1.914740 0.000000 0.000000 
#    y 0.000000 1.802560 0.000000 
#    z 0.000000 0.000000 1.817430 
# 
# From -- ./inp_files/26899.got.cif
#   From: 2010.05.17/outbox.cif.g08.bks.cpg/sg54_14_cif.got.tgz:26899.got - 2010.06.03 13:09:01.
