data_PCOD9423166
_publ_section_title
;
Structure prediction by ZEFSAII (Michael W. Deem and Ramdas Pophale) SiO2 
 PCOD9423166
Probable space group: P C C A
;
_chemical_formula_sum "Si O2"
_cell_formula_units_Z 40
_cell_length_a 11.723282
_cell_length_b 18.335861
_cell_length_c 8.683955
_cell_angle_alpha 90.000000
_cell_angle_beta 90.000000
_cell_angle_gamma 90.000000
_cell_volume 1866.672306
_symmetry_space_group_name_H-M "P C C A"
_symmetry_group_IT_number 54
_symmetry_cell_setting 'orthorhombic'
loop_
_space_group_symop_operation_xyz
x,y,z
1/2-x,-y,z
1/2+x,-y,1/2-z
-x,y,1/2-z
-x,-y,-z
1/2+x,y,-z
1/2-x,y,1/2+z
x,-y,1/2+z
loop_
_atom_site_type_symbol
_atom_site_label
_atom_site_fract_x
_atom_site_fract_y
_atom_site_fract_z
Si Si1 0.917198 0.567482 0.967180
Si Si2 0.250000 0.000000 0.171515
Si Si3 0.896255 0.683927 0.448229
Si Si4 0.593515 0.942123 0.564760
Si Si5 0.766772 0.612203 0.700525
Si Si6 0.500000 0.190026 0.250000
O O1 0.866974 0.571681 0.794388
O O2 0.808271 0.567915 0.079071
O O3 0.000000 0.500000 0.000000
O O4 0.987765 0.640830 0.009535
O O5 0.149668 0.974302 0.281419
O O6 0.305054 0.939585 0.060439
O O7 0.823174 0.679628 0.605828
O O8 0.822420 0.637466 0.328248
O O9 0.921445 0.757350 0.354636
O O10 0.551450 0.863974 0.620558
O O11 0.500000 0.000000 0.500000
#
# Coordination Sequence:
#
# PCOD9423166 Si02
#       6
#     8   4   8   8   8   4
#     4  11  24  45  72 102 144 181 242 297 355 418
#     4  10  22  42  72 104 140 182 236 282 350 442
#     4  11  24  45  66 103 140 183 239 287 360 424
#     4  11  22  44  68 105 140 182 236 286 351 428
#     4  10  24  45  71 101 141 186 240 288 359 436
#     4  12  24  44  74  98 156 182 228 314 346 430
#
# _framework density 21.428505999999999
#
# number of rings (size 3 to 8) (size 9 to 14) (size 15 to 20)
#    0.000    1.200    4.000    0.600    0.000    9.600 
#    0.000    5.000    0.000    0.000    0.000    0.000 
#    0.000    0.000    0.000    0.000    0.000    0.000 
#
# Total GULP energy -223305.546091 kJ/mol
# GULP energy per Si atom -5582.638652 kJ/mol
# Density = 2.137973 g / cm^3
# Si number density = 21.428506 Si / 1000 Ang^3
#
#
#
# Elastic Constant Matrix: (Units=GPa)
#
#
# Indices 1 2 3 4 5 6 
#
# 1 116.2035 51.2377 61.6729 0.0000 0.0000 0.0000
# 2 51.2377 96.6670 41.4567 0.0000 0.0000 0.0000
# 3 61.6729 41.4567 146.2927 0.0000 0.0000 0.0000
# 4 0.0000 0.0000 0.0000 35.1193 0.0000 0.0000
# 5 0.0000 0.0000 0.0000 0.0000 53.7098 0.0000
# 6 0.0000 0.0000 0.0000 0.0000 0.0000 21.8214
#
#
#
# Elastic Compliance Matrix: (Units=1/GPa)
#
#
# Indices 1 2 3 4 5 6 
#
# 1 0.013024 -0.005178 -0.004023 0.000000 0.000000 0.000000
# 2 -0.005178 0.013834 -0.001738 0.000000 0.000000 0.000000
# 3 -0.004023 -0.001738 0.009024 0.000000 0.000000 0.000000
# 4 0.000000 0.000000 0.000000 0.028474 0.000000 0.000000
# 5 0.000000 0.000000 0.000000 0.000000 0.018619 0.000000
# 6 0.000000 0.000000 0.000000 0.000000 0.000000 0.045827
#
#
# Mechanical properties :
#
#
# Convention : Reuss Voigt Hill
#
# Bulk Modulus (GPa) = 71.40228 74.21087 72.80657
# Shear Modulus (GPa) = 32.18587 35.78316 33.98451
#
# Velocity S-wave (km/s) = 3.87978 4.09086 3.98672
# Velocity P-wave (km/s) = 7.31189 7.55119 7.43251
#
# Compressibility (1/GPa) = 0.01400516
#
# Stress axis : x y z
#
# Youngs Moduli (GPa) = 76.78187 72.28325 110.81452
#
# Poissons Ratio (x) = 0.37427 0.44583
# Poissons Ratio (y) = 0.39756 0.19255
# Poissons Ratio (z) = 0.30891 0.12560
#
# Static dielectric constant tensor:
#      x y z
#    x 1.798230 0.000000 0.000000 
#    y 0.000000 1.790900 0.000000 
#    z 0.000000 0.000000 1.799120 
# 
# From -- ./inp_files/2975.got.cif
#   From: 2010.05.17/outbox.cif.g08.bks.cpg/sg54_2_cif.got.tgz:2975.got - 2010.06.03 13:09:01.
