data_PCOD9423482
_publ_section_title
;
Structure prediction by ZEFSAII (Michael W. Deem and Ramdas Pophale) SiO2 
 PCOD9423482
Probable space group: P C C A
;
_chemical_formula_sum "Si O2"
_cell_formula_units_Z 56
_cell_length_a 10.296864
_cell_length_b 14.545512
_cell_length_c 14.661025
_cell_angle_alpha 90.000000
_cell_angle_beta 90.000000
_cell_angle_gamma 90.000000
_cell_volume 2195.828027
_symmetry_space_group_name_H-M "P C C A"
_symmetry_group_IT_number 54
_symmetry_cell_setting 'orthorhombic'
loop_
_space_group_symop_operation_xyz
x,y,z
1/2-x,-y,z
1/2+x,-y,1/2-z
-x,y,1/2-z
-x,-y,-z
1/2+x,y,-z
1/2-x,y,1/2+z
x,-y,1/2+z
loop_
_atom_site_type_symbol
_atom_site_label
_atom_site_fract_x
_atom_site_fract_y
_atom_site_fract_z
Si Si1 0.872212 0.671610 0.344222
Si Si2 0.313416 0.306192 0.500004
Si Si3 0.581208 0.464946 0.086145
Si Si4 0.193876 0.130194 0.699829
Si Si5 0.750000 0.500000 0.241705
Si Si6 0.245550 0.864885 0.396496
Si Si7 0.526812 0.211118 0.850883
Si Si8 0.750000 0.000000 0.443144
O O1 0.814777 0.704379 0.440592
O O2 0.871340 0.769545 0.295438
O O3 0.782249 0.591304 0.299658
O O4 0.002063 0.617103 0.364183
O O5 0.305944 0.408380 0.463163
O O6 0.312759 0.234639 0.418536
O O7 0.428847 0.283292 0.571480
O O8 0.631708 0.522076 0.171918
O O9 0.500000 0.500000 0.000000
O O10 0.191905 0.094899 0.802670
O O11 0.343928 0.150592 0.669224
O O12 0.152787 0.055631 0.624459
O O13 0.400571 0.846108 0.383259
O O14 0.205329 0.923768 0.484038
O O15 0.500000 0.252610 0.750000
#
# Coordination Sequence:
#
# PCOD9423482 Si02
#       8
#     8   8   8   8   4   8   8   4
#     4  11  23  45  68  99 145 185 234 295 361 431
#     4  11  22  41  68 102 131 181 233 284 354 427
#     4  12  26  43  69 103 138 185 234 296 358 432
#     4  10  23  43  68 104 141 189 240 294 354 435
#     4  12  26  44  68 102 142 176 238 294 358 434
#     4  11  22  41  67  95 140 186 232 302 348 422
#     4   9  20  39  65  97 132 182 235 279 349 418
#     4  12  22  42  70 104 144 184 248 292 370 410
#
# _framework density 25.502908000000001
#
# number of rings (size 3 to 8) (size 9 to 14) (size 15 to 20)
#    0.000    1.143    2.857    4.286    0.000    4.000 
#    0.000    2.857    0.000    0.000    0.000    0.000 
#    0.000    0.000    0.000    0.000    0.000    0.000 
#
# Total GULP energy -312728.944128 kJ/mol
# GULP energy per Si atom -5584.445431 kJ/mol
# Density = 2.544486 g / cm^3
# Si number density = 25.502908 Si / 1000 Ang^3
#
#
#
# Elastic Constant Matrix: (Units=GPa)
#
#
# Indices 1 2 3 4 5 6 
#
# 1 50.3737 10.1212 23.4095 0.0000 0.0000 0.0000
# 2 10.1212 128.3839 48.9174 0.0000 0.0000 0.0000
# 3 23.4095 48.9174 176.1479 0.0000 0.0000 0.0000
# 4 0.0000 0.0000 0.0000 17.8559 0.0000 0.0000
# 5 0.0000 0.0000 0.0000 0.0000 38.1774 0.0000
# 6 0.0000 0.0000 0.0000 0.0000 0.0000 16.1617
#
#
#
# Elastic Compliance Matrix: (Units=1/GPa)
#
#
# Indices 1 2 3 4 5 6 
#
# 1 0.021210 -0.000669 -0.002633 0.000000 0.000000 0.000000
# 2 -0.000669 0.008732 -0.002336 0.000000 0.000000 0.000000
# 3 -0.002633 -0.002336 0.006676 0.000000 0.000000 0.000000
# 4 0.000000 0.000000 0.000000 0.056004 0.000000 0.000000
# 5 0.000000 0.000000 0.000000 0.000000 0.026194 0.000000
# 6 0.000000 0.000000 0.000000 0.000000 0.000000 0.061875
#
#
# Mechanical properties :
#
#
# Convention : Reuss Voigt Hill
#
# Bulk Modulus (GPa) = 39.46084 57.75574 48.60829
# Shear Modulus (GPa) = 24.94855 32.60280 28.77568
#
# Velocity S-wave (km/s) = 3.13111 3.57934 3.36271
# Velocity P-wave (km/s) = 5.34589 6.30699 5.84622
#
# Compressibility (1/GPa) = 0.02534158
#
# Stress axis : x y z
#
# Youngs Moduli (GPa) = 47.14848 114.52191 149.79735
#
# Poissons Ratio (x) = 0.07660 0.39441
# Poissons Ratio (y) = 0.03154 0.34993
# Poissons Ratio (z) = 0.12414 0.26753
#
# Static dielectric constant tensor:
#      x y z
#    x 2.116240 0.000000 0.000000 
#    y 0.000000 2.133010 0.000000 
#    z 0.000000 0.000000 2.007430 
# 
# From -- ./inp_files/12779.got.cif
#   From: 2010.05.17/outbox.cif.g08.bks.cpg/sg54_7_cif.got.tgz:12779.got - 2010.06.03 13:09:01.
