data_PCOD9423071
_publ_section_title
;
Structure prediction by ZEFSAII (Michael W. Deem and Ramdas Pophale) SiO2 
 PCOD9423071
Probable space group: P C C A
;
_chemical_formula_sum "Si O2"
_cell_formula_units_Z 60
_cell_length_a 9.082663
_cell_length_b 17.748865
_cell_length_c 15.919784
_cell_angle_alpha 90.000000
_cell_angle_beta 90.000000
_cell_angle_gamma 90.000000
_cell_volume 2566.379973
_symmetry_space_group_name_H-M "P C C A"
_symmetry_group_IT_number 54
_symmetry_cell_setting 'orthorhombic'
loop_
_space_group_symop_operation_xyz
x,y,z
1/2-x,-y,z
1/2+x,-y,1/2-z
-x,y,1/2-z
-x,-y,-z
1/2+x,y,-z
1/2-x,y,1/2+z
x,-y,1/2+z
loop_
_atom_site_type_symbol
_atom_site_label
_atom_site_fract_x
_atom_site_fract_y
_atom_site_fract_z
Si Si1 0.896094 0.070906 0.974834
Si Si2 0.647942 0.822727 0.491730
Si Si3 0.000000 0.625744 0.250000
Si Si4 0.440844 0.330079 0.427452
Si Si5 0.345855 0.207839 0.709672
Si Si6 0.256254 0.410981 0.031669
Si Si7 0.661974 0.930261 0.779291
Si Si8 0.664890 0.382744 0.784775
O O1 0.749452 0.105334 0.018734
O O2 0.846094 0.060602 0.879650
O O3 0.990046 0.145783 0.985198
O O4 0.000000 0.000000 0.000000
O O5 0.644257 0.742548 0.537629
O O6 0.657573 0.804334 0.391793
O O7 0.016580 0.676522 0.331625
O O8 0.165767 0.586151 0.238391
O O9 0.590880 0.364432 0.467835
O O10 0.323477 0.395316 0.444237
O O11 0.500000 0.183008 0.750000
O O12 0.226954 0.150037 0.744008
O O13 0.324574 0.293941 0.736277
O O14 0.250000 0.500000 0.043049
O O15 0.163820 0.384450 0.113530
O O16 0.500000 0.936398 0.750000
O O17 0.750000 0.000000 0.742241
O O18 0.500000 0.408454 0.750000
#
# Coordination Sequence:
#
# PCOD9423071 Si02
#       8
#     8   8   4   8   8   8   8   8
#     4  11  24  42  64  95 132 176 233 289 353 435
#     4  11  23  40  69  94 131 184 225 294 352 429
#     4  10  26  42  70 108 148 184 252 314 354 456
#     4  11  24  45  70 105 145 188 252 301 374 450
#     4  10  22  41  66  98 132 176 235 289 354 437
#     4  11  24  45  72 106 147 193 248 307 375 462
#     4  11  25  42  64  92 136 176 224 294 357 433
#     4  10  23  44  71 102 148 193 243 305 376 443
#
# _framework density 23.379234
#
# number of rings (size 3 to 8) (size 9 to 14) (size 15 to 20)
#    0.000    1.333    1.333    3.600    8.400    4.267 
#    4.800    0.667    0.000    0.000    0.000    0.000 
#    0.000    0.000    0.000    0.000    0.000    0.000 
#
# Total GULP energy -334032.984080 kJ/mol
# GULP energy per Si atom -5567.216401 kJ/mol
# Density = 2.332602 g / cm^3
# Si number density = 23.379234 Si / 1000 Ang^3
#
#
#
# Elastic Constant Matrix: (Units=GPa)
#
#
# Indices 1 2 3 4 5 6 
#
# 1 143.0522 40.9239 25.5726 0.0000 0.0000 0.0000
# 2 40.9239 63.6895 17.2026 0.0000 0.0000 0.0000
# 3 25.5726 17.2026 45.0419 0.0000 0.0000 0.0000
# 4 0.0000 0.0000 0.0000 6.0795 0.0000 0.0000
# 5 0.0000 0.0000 0.0000 0.0000 25.4097 0.0000
# 6 0.0000 0.0000 0.0000 0.0000 0.0000 25.4208
#
#
#
# Elastic Compliance Matrix: (Units=1/GPa)
#
#
# Indices 1 2 3 4 5 6 
#
# 1 0.008966 -0.004890 -0.003222 0.000000 0.000000 0.000000
# 2 -0.004890 0.020175 -0.004929 0.000000 0.000000 0.000000
# 3 -0.003222 -0.004929 0.025913 0.000000 0.000000 0.000000
# 4 0.000000 0.000000 0.000000 0.164487 0.000000 0.000000
# 5 0.000000 0.000000 0.000000 0.000000 0.039355 0.000000
# 6 0.000000 0.000000 0.000000 0.000000 0.000000 0.039338
#
#
# Mechanical properties :
#
#
# Convention : Reuss Voigt Hill
#
# Bulk Modulus (GPa) = 34.51767 46.57576 40.54672
# Shear Modulus (GPa) = 14.97122 22.58763 18.77943
#
# Velocity S-wave (km/s) = 2.53329 3.11165 2.83725
# Velocity P-wave (km/s) = 4.83250 5.73367 5.30226
#
# Compressibility (1/GPa) = 0.02897067
#
# Stress axis : x y z
#
# Youngs Moduli (GPa) = 111.53791 49.56672 38.59001
#
# Poissons Ratio (x) = 0.24241 0.12435
# Poissons Ratio (y) = 0.54547 0.19020
# Poissons Ratio (z) = 0.35942 0.24430
#
# Static dielectric constant tensor:
#      x y z
#    x 3.284550 0.000000 0.000000 
#    y 0.000000 1.882370 0.000000 
#    z 0.000000 0.000000 1.868610 
# 
# From -- ./inp_files/16828.got.cif
#   From: 2010.05.17/outbox.cif.g08.bks.cpg/sg54_9_cif.got.tgz:16828.got - 2010.06.03 13:09:01.
