data_PCOD9423794
_publ_section_title
;
Structure prediction by ZEFSAII (Michael W. Deem and Ramdas Pophale) SiO2 
 PCOD9423794
Probable space group: P C C A
;
_chemical_formula_sum "Si O2"
_cell_formula_units_Z 28
_cell_length_a 8.870087
_cell_length_b 13.963877
_cell_length_c 9.727764
_cell_angle_alpha 90.000000
_cell_angle_beta 90.000000
_cell_angle_gamma 90.000000
_cell_volume 1204.888669
_symmetry_space_group_name_H-M "P C C A"
_symmetry_group_IT_number 54
_symmetry_cell_setting 'orthorhombic'
loop_
_space_group_symop_operation_xyz
x,y,z
1/2-x,-y,z
1/2+x,-y,1/2-z
-x,y,1/2-z
-x,-y,-z
1/2+x,y,-z
1/2-x,y,1/2+z
x,-y,1/2+z
loop_
_atom_site_type_symbol
_atom_site_label
_atom_site_fract_x
_atom_site_fract_y
_atom_site_fract_z
Si Si1 0.750000 0.500000 0.488631
Si Si2 0.991059 0.364577 0.600825
Si Si3 0.277315 0.891254 0.192525
Si Si4 0.072956 0.179461 0.450840
O O1 0.664063 0.580323 0.575766
O O2 0.878055 0.555285 0.404413
O O3 0.018134 0.286547 0.482892
O O4 0.000000 0.318107 0.750000
O O5 0.305173 0.827230 0.327748
O O6 0.430865 0.880967 0.103498
O O7 0.250000 0.000000 0.237556
O O8 0.145618 0.860035 0.090015
#
# Coordination Sequence:
#
# PCOD9423794 Si02
#       4
#     4   8   8   8
#     4  10  24  46  70 108 140 194 234 298 358 438
#     4  11  24  45  72 106 147 187 242 293 365 429
#     4  11  25  47  71 106 146 189 244 293 362 433
#     4  11  26  44  74 109 143 193 238 301 361 431
#
# _framework density 23.238661
#
# number of rings (size 3 to 8) (size 9 to 14) (size 15 to 20)
#    0.000    1.143    0.000    4.286    8.000    2.286 
#   20.571    0.000    0.000    0.000    0.000    0.000 
#    0.000    0.000    0.000    0.000    0.000    0.000 
#
# Total GULP energy -156781.517355 kJ/mol
# GULP energy per Si atom -5599.339906 kJ/mol
# Density = 2.318577 g / cm^3
# Si number density = 23.238661 Si / 1000 Ang^3
#
#
#
# Elastic Constant Matrix: (Units=GPa)
#
#
# Indices 1 2 3 4 5 6 
#
# 1 66.0420 38.0302 21.0118 0.0000 0.0000 0.0000
# 2 38.0302 103.3686 56.0376 0.0000 0.0000 0.0000
# 3 21.0118 56.0376 122.4827 0.0000 0.0000 0.0000
# 4 0.0000 0.0000 0.0000 58.5016 0.0000 0.0000
# 5 0.0000 0.0000 0.0000 0.0000 25.0381 0.0000
# 6 0.0000 0.0000 0.0000 0.0000 0.0000 43.4201
#
#
#
# Elastic Compliance Matrix: (Units=1/GPa)
#
#
# Indices 1 2 3 4 5 6 
#
# 1 0.019213 -0.007024 -0.000082 0.000000 0.000000 0.000000
# 2 -0.007024 0.015433 -0.005856 0.000000 0.000000 0.000000
# 3 -0.000082 -0.005856 0.010858 0.000000 0.000000 0.000000
# 4 0.000000 0.000000 0.000000 0.017094 0.000000 0.000000
# 5 0.000000 0.000000 0.000000 0.000000 0.039939 0.000000
# 6 0.000000 0.000000 0.000000 0.000000 0.000000 0.023031
#
#
# Mechanical properties :
#
#
# Convention : Reuss Voigt Hill
#
# Bulk Modulus (GPa) = 51.07493 58.00584 54.54039
# Shear Modulus (GPa) = 31.64214 37.17953 34.41083
#
# Velocity S-wave (km/s) = 3.69401 4.00421 3.85224
# Velocity P-wave (km/s) = 6.34196 6.81127 6.58080
#
# Compressibility (1/GPa) = 0.01957908
#
# Stress axis : x y z
#
# Youngs Moduli (GPa) = 52.04870 64.79722 92.10095
#
# Poissons Ratio (x) = 0.45513 0.00759
# Poissons Ratio (y) = 0.36558 0.53932
# Poissons Ratio (z) = 0.00429 0.37944
#
# Static dielectric constant tensor:
#      x y z
#    x 1.902090 0.000000 0.000000 
#    y 0.000000 1.828450 0.000000 
#    z 0.000000 0.000000 1.852510 
# 
# From -- ./inp_files/6685.got.cif
#   From: 2010.05.17/outbox.cif.g08.bks.cpg/sg54_4_cif.got.tgz:6685.got - 2010.06.03 13:09:01.
