data_PCOD9423329
_publ_section_title
;
Structure prediction by ZEFSAII (Michael W. Deem and Ramdas Pophale) SiO2 
 PCOD9423329
Probable space group: P C C A
;
_chemical_formula_sum "Si O2"
_cell_formula_units_Z 40
_cell_length_a 13.734816
_cell_length_b 13.611495
_cell_length_c 9.366835
_cell_angle_alpha 90.000000
_cell_angle_beta 90.000000
_cell_angle_gamma 90.000000
_cell_volume 1751.142723
_symmetry_space_group_name_H-M "P C C A"
_symmetry_group_IT_number 54
_symmetry_cell_setting 'orthorhombic'
loop_
_space_group_symop_operation_xyz
x,y,z
1/2-x,-y,z
1/2+x,-y,1/2-z
-x,y,1/2-z
-x,-y,-z
1/2+x,y,-z
1/2-x,y,1/2+z
x,-y,1/2+z
loop_
_atom_site_type_symbol
_atom_site_label
_atom_site_fract_x
_atom_site_fract_y
_atom_site_fract_z
Si Si1 0.015181 0.223143 0.461911
Si Si2 0.665526 0.628798 0.101466
Si Si3 0.250000 0.500000 0.147400
Si Si4 0.500000 0.939039 0.250000
Si Si5 0.200892 0.816768 0.464500
Si Si6 0.136338 0.107423 0.665964
O O1 0.059291 0.323761 0.406360
O O2 0.051012 0.133977 0.360654
O O3 0.063873 0.194223 0.612585
O O4 0.899352 0.218796 0.463640
O O5 0.689965 0.569747 0.244805
O O6 0.739156 0.721346 0.087188
O O7 0.683904 0.562707 0.961259
O O8 0.574102 0.007977 0.336189
O O9 0.268845 0.879131 0.569141
O O10 0.168884 0.878393 0.327854
#
# Coordination Sequence:
#
# PCOD9423329 Si02
#       6
#     8   8   4   4   8   8
#     4  11  25  45  71 101 153 191 242 305 365 434
#     4  10  23  45  72 102 143 182 237 307 372 439
#     4  10  22  46  74 106 136 182 248 302 374 468
#     4  12  26  46  68 106 150 198 256 294 354 430
#     4  11  24  46  74 105 144 198 242 300 373 429
#     4  11  25  47  68 105 150 199 247 302 344 430
#
# _framework density 22.842229
#
# number of rings (size 3 to 8) (size 9 to 14) (size 15 to 20)
#    0.000    1.200    2.000    3.000    8.400    0.800 
#    3.600    6.000    0.000    0.000    0.000    0.000 
#    0.000    0.000    0.000    0.000    0.000    0.000 
#
# Total GULP energy -224014.507325 kJ/mol
# GULP energy per Si atom -5600.362683 kJ/mol
# Density = 2.279024 g / cm^3
# Si number density = 22.842229 Si / 1000 Ang^3
#
#
#
# Elastic Constant Matrix: (Units=GPa)
#
#
# Indices 1 2 3 4 5 6 
#
# 1 142.0569 43.5897 52.2120 0.0000 0.0000 0.0000
# 2 43.5897 112.5107 52.1733 0.0000 0.0000 0.0000
# 3 52.2120 52.1733 127.8825 0.0000 0.0000 0.0000
# 4 0.0000 0.0000 0.0000 32.4127 0.0000 0.0000
# 5 0.0000 0.0000 0.0000 0.0000 38.5349 0.0000
# 6 0.0000 0.0000 0.0000 0.0000 0.0000 15.3196
#
#
#
# Elastic Compliance Matrix: (Units=1/GPa)
#
#
# Indices 1 2 3 4 5 6 
#
# 1 0.008673 -0.002119 -0.002677 0.000000 0.000000 0.000000
# 2 -0.002119 0.011480 -0.003818 0.000000 0.000000 0.000000
# 3 -0.002677 -0.003818 0.010470 0.000000 0.000000 0.000000
# 4 0.000000 0.000000 0.000000 0.030852 0.000000 0.000000
# 5 0.000000 0.000000 0.000000 0.000000 0.025951 0.000000
# 6 0.000000 0.000000 0.000000 0.000000 0.000000 0.065276
#
#
# Mechanical properties :
#
#
# Convention : Reuss Voigt Hill
#
# Bulk Modulus (GPa) = 74.65293 75.37780 75.01536
# Shear Modulus (GPa) = 28.67054 32.88512 30.77783
#
# Velocity S-wave (km/s) = 3.54666 3.79841 3.67469
# Velocity P-wave (km/s) = 7.03738 7.23244 7.13557
#
# Compressibility (1/GPa) = 0.01339532
#
# Stress axis : x y z
#
# Youngs Moduli (GPa) = 115.29424 87.11081 95.50855
#
# Poissons Ratio (x) = 0.18460 0.25564
# Poissons Ratio (y) = 0.24432 0.36468
# Poissons Ratio (z) = 0.30860 0.33261
#
# Static dielectric constant tensor:
#      x y z
#    x 1.878750 0.000000 0.000000 
#    y 0.000000 1.823660 0.000000 
#    z 0.000000 0.000000 1.887490 
# 
# From -- ./inp_files/3457.got.cif
#   From: 2010.05.17/outbox.cif.g08.bks.cpg/sg54_2_cif.got.tgz:3457.got - 2010.06.03 13:09:01.
