data_PCOD9423585
_publ_section_title
;
Structure prediction by ZEFSAII (Michael W. Deem and Ramdas Pophale) SiO2 
 PCOD9423585
Probable space group: P C C A
;
_chemical_formula_sum "Si O2"
_cell_formula_units_Z 64
_cell_length_a 7.858842
_cell_length_b 18.808712
_cell_length_c 16.286051
_cell_angle_alpha 90.000000
_cell_angle_beta 90.000000
_cell_angle_gamma 90.000000
_cell_volume 2407.317675
_symmetry_space_group_name_H-M "P C C A"
_symmetry_group_IT_number 54
_symmetry_cell_setting 'orthorhombic'
loop_
_space_group_symop_operation_xyz
x,y,z
1/2-x,-y,z
1/2+x,-y,1/2-z
-x,y,1/2-z
-x,-y,-z
1/2+x,y,-z
1/2-x,y,1/2+z
x,-y,1/2+z
loop_
_atom_site_type_symbol
_atom_site_label
_atom_site_fract_x
_atom_site_fract_y
_atom_site_fract_z
Si Si1 0.627803 0.156701 0.929925
Si Si2 0.090390 0.282602 0.399848
Si Si3 0.107698 0.718299 0.079263
Si Si4 0.709375 0.077976 0.296579
Si Si5 0.648444 0.782428 0.690573
Si Si6 0.542822 0.576863 0.653904
Si Si7 0.409654 0.047479 0.430388
Si Si8 0.453946 0.578159 0.345535
O O1 0.459128 0.202328 0.925471
O O2 0.757161 0.219388 0.901737
O O3 0.638307 0.100536 0.856554
O O4 0.653732 0.113998 0.013874
O O5 0.162069 0.304693 0.488000
O O6 0.188170 0.267064 0.315085
O O7 0.968252 0.349243 0.381637
O O8 0.935820 0.764504 0.101879
O O9 0.059694 0.643550 0.119777
O O10 0.690937 0.140193 0.228547
O O11 0.547325 0.069934 0.360202
O O12 0.750000 0.000000 0.265275
O O13 0.500000 0.755376 0.750000
O O14 0.500000 0.574173 0.750000
O O15 0.495413 0.498700 0.619252
O O16 0.747902 0.585191 0.644136
O O17 0.250000 0.000000 0.403167
O O18 0.500000 0.000000 0.500000
O O19 0.500000 0.576838 0.250000
#
# Coordination Sequence:
#
# PCOD9423585 Si02
#       8
#     8   8   8   8   8   8   8   8
#     4  12  26  44  75 119 162 206 267 338 406 498
#     4  12  29  46  78 116 155 211 276 329 404 493
#     4  12  26  48  78 110 156 215 269 337 413 482
#     4  12  27  52  77 117 161 215 271 340 422 488
#     4  12  28  53  77 112 162 211 262 346 412 490
#     4  10  23  47  76 112 164 216 266 336 414 489
#     4  12  24  49  82 119 167 215 269 339 420 503
#     4  10  24  45  75 117 162 212 272 335 407 490
#
# _framework density 26.585607
#
# number of rings (size 3 to 8) (size 9 to 14) (size 15 to 20)
#    0.000    0.500    5.000    1.875    5.250    0.500 
#    2.250    0.000    0.000    0.000    0.000    0.000 
#    0.000    0.000    0.000    0.000    0.000    0.000 
#
# Total GULP energy -357151.168821 kJ/mol
# GULP energy per Si atom -5580.487013 kJ/mol
# Density = 2.652510 g / cm^3
# Si number density = 26.585607 Si / 1000 Ang^3
#
#
#
# Elastic Constant Matrix: (Units=GPa)
#
#
# Indices 1 2 3 4 5 6 
#
# 1 61.6658 44.4293 26.0780 0.0000 0.0000 0.0000
# 2 44.4293 259.4911 85.3132 0.0000 0.0000 0.0000
# 3 26.0780 85.3132 108.7213 0.0000 0.0000 0.0000
# 4 0.0000 0.0000 0.0000 114.7269 0.0000 0.0000
# 5 0.0000 0.0000 0.0000 0.0000 31.9258 0.0000
# 6 0.0000 0.0000 0.0000 0.0000 0.0000 30.8480
#
#
#
# Elastic Compliance Matrix: (Units=1/GPa)
#
#
# Indices 1 2 3 4 5 6 
#
# 1 0.019074 -0.002374 -0.002712 0.000000 0.000000 0.000000
# 2 -0.002374 0.005489 -0.003738 0.000000 0.000000 0.000000
# 3 -0.002712 -0.003738 0.012781 0.000000 0.000000 0.000000
# 4 0.000000 0.000000 0.000000 0.008716 0.000000 0.000000
# 5 0.000000 0.000000 0.000000 0.000000 0.031323 0.000000
# 6 0.000000 0.000000 0.000000 0.000000 0.000000 0.032417
#
#
# Mechanical properties :
#
#
# Convention : Reuss Voigt Hill
#
# Bulk Modulus (GPa) = 50.77097 82.39101 66.58099
# Shear Modulus (GPa) = 37.30960 53.77066 45.54013
#
# Velocity S-wave (km/s) = 3.75023 4.50215 4.14328
# Velocity P-wave (km/s) = 6.15556 7.62128 6.92730
#
# Compressibility (1/GPa) = 0.01969629
#
# Stress axis : x y z
#
# Youngs Moduli (GPa) = 52.42773 182.18050 78.23878
#
# Poissons Ratio (x) = 0.43252 0.21219
# Poissons Ratio (y) = 0.12447 0.29244
# Poissons Ratio (z) = 0.14219 0.68095
#
# Static dielectric constant tensor:
#      x y z
#    x 2.449410 0.000000 0.000000 
#    y 0.000000 2.116840 0.000000 
#    z 0.000000 0.000000 2.127530 
# 
# From -- ./inp_files/20678.got.cif
#   From: 2010.05.17/outbox.cif.g08.bks.cpg/sg54_11_cif.got.tgz:20678.got - 2010.06.03 13:09:01.
