data_PCOD9423278
_publ_section_title
;
Structure prediction by ZEFSAII (Michael W. Deem and Ramdas Pophale) SiO2 
 PCOD9423278
Probable space group: P C C A
;
_chemical_formula_sum "Si O2"
_cell_formula_units_Z 64
_cell_length_a 29.603806
_cell_length_b 9.387399
_cell_length_c 11.446189
_cell_angle_alpha 90.000000
_cell_angle_beta 90.000000
_cell_angle_gamma 90.000000
_cell_volume 3180.927272
_symmetry_space_group_name_H-M "P C C A"
_symmetry_group_IT_number 54
_symmetry_cell_setting 'orthorhombic'
loop_
_space_group_symop_operation_xyz
x,y,z
1/2-x,-y,z
1/2+x,-y,1/2-z
-x,y,1/2-z
-x,-y,-z
1/2+x,y,-z
1/2-x,y,1/2+z
x,-y,1/2+z
loop_
_atom_site_type_symbol
_atom_site_label
_atom_site_fract_x
_atom_site_fract_y
_atom_site_fract_z
Si Si1 0.632055 0.541667 0.289094
Si Si2 0.783552 0.622682 0.175041
Si Si3 0.000280 0.905386 0.117450
Si Si4 0.594213 0.259207 0.364146
Si Si5 0.901128 0.098534 0.637076
Si Si6 0.669012 0.222815 0.964462
Si Si7 0.779016 0.137972 0.247771
Si Si8 0.369789 0.208533 0.884083
O O1 0.674798 0.452380 0.240079
O O2 0.595989 0.424445 0.328421
O O3 0.648250 0.643697 0.393792
O O4 0.617045 0.650876 0.188299
O O5 0.750000 0.500000 0.132575
O O6 0.800103 0.715020 0.066347
O O7 0.754259 0.727250 0.255541
O O8 0.950610 0.836828 0.115331
O O9 0.000000 0.973461 0.250000
O O10 0.044031 0.804051 0.114720
O O11 0.000000 0.000000 0.000000
O O12 0.615173 0.169054 0.257070
O O13 0.623375 0.237939 0.480183
O O14 0.869799 0.135149 0.528594
O O15 0.900224 0.928159 0.649417
O O16 0.695554 0.127599 0.871337
O O17 0.818573 0.169944 0.154020
O O18 0.750000 0.000000 0.218844
#
# Coordination Sequence:
#
# PCOD9423278 Si02
#       8
#     8   8   8   8   8   8   8   8
#     4  11  25  44  68 102 137 191 235 290 357 425
#     4  12  23  44  62  94 133 183 234 284 348 412
#     4  10  22  44  75 109 139 181 235 290 358 442
#     4  11  24  44  76 101 143 185 232 293 361 425
#     4  11  24  44  73 102 141 181 232 292 361 423
#     4  11  25  41  69  94 139 182 238 293 349 426
#     4  11  27  44  64 101 135 182 243 296 351 411
#     4  11  24  43  70 100 138 183 237 284 360 416
#
# _framework density 20.11992
#
# number of rings (size 3 to 8) (size 9 to 14) (size 15 to 20)
#    0.000    1.000    5.000    1.500    5.250    1.500 
#    0.000    0.625    2.750    0.000    0.000    0.000 
#    0.000    0.000    0.000    0.000    0.000    0.000 
#
# Total GULP energy -357446.779109 kJ/mol
# GULP energy per Si atom -5585.105924 kJ/mol
# Density = 2.007413 g / cm^3
# Si number density = 20.119920 Si / 1000 Ang^3
#
#
#
# Elastic Constant Matrix: (Units=GPa)
#
#
# Indices 1 2 3 4 5 6 
#
# 1 85.1083 39.6079 52.7305 0.0000 0.0000 0.0000
# 2 39.6079 95.6898 37.8040 0.0000 0.0000 0.0000
# 3 52.7305 37.8040 136.8345 0.0000 0.0000 0.0000
# 4 0.0000 0.0000 0.0000 29.4191 0.0000 0.0000
# 5 0.0000 0.0000 0.0000 0.0000 25.5770 0.0000
# 6 0.0000 0.0000 0.0000 0.0000 0.0000 27.6200
#
#
#
# Elastic Compliance Matrix: (Units=1/GPa)
#
#
# Indices 1 2 3 4 5 6 
#
# 1 0.017412 -0.005114 -0.005297 0.000000 0.000000 0.000000
# 2 -0.005114 0.013233 -0.001685 0.000000 0.000000 0.000000
# 3 -0.005297 -0.001685 0.009815 0.000000 0.000000 0.000000
# 4 0.000000 0.000000 0.000000 0.033992 0.000000 0.000000
# 5 0.000000 0.000000 0.000000 0.000000 0.039098 0.000000
# 6 0.000000 0.000000 0.000000 0.000000 0.000000 0.036206
#
#
# Mechanical properties :
#
#
# Convention : Reuss Voigt Hill
#
# Bulk Modulus (GPa) = 61.47416 64.21306 62.84361
# Shear Modulus (GPa) = 27.87546 29.02255 28.44901
#
# Velocity S-wave (km/s) = 3.72622 3.80212 3.76436
# Velocity P-wave (km/s) = 7.00951 7.15956 7.08493
#
# Compressibility (1/GPa) = 0.01626700
#
# Stress axis : x y z
#
# Youngs Moduli (GPa) = 57.43302 75.56796 101.88702
#
# Poissons Ratio (x) = 0.38649 0.53967
# Poissons Ratio (y) = 0.29374 0.17169
# Poissons Ratio (z) = 0.30421 0.12734
#
# Static dielectric constant tensor:
#      x y z
#    x 1.735090 0.000000 0.000000 
#    y 0.000000 1.782440 0.000000 
#    z 0.000000 0.000000 1.727210 
# 
# From -- ./inp_files/10531.got.cif
#   From: 2010.05.17/outbox.cif.g08.bks.cpg/sg54_6_cif.got.tgz:10531.got - 2010.06.03 13:09:01.
