data_PCOD9423313
_publ_section_title
;
Structure prediction by ZEFSAII (Michael W. Deem and Ramdas Pophale) SiO2 
 PCOD9423313
Probable space group: P C C A
;
_chemical_formula_sum "Si O2"
_cell_formula_units_Z 48
_cell_length_a 14.834674
_cell_length_b 7.882233
_cell_length_c 18.788312
_cell_angle_alpha 90.000000
_cell_angle_beta 90.000000
_cell_angle_gamma 90.000000
_cell_volume 2196.924029
_symmetry_space_group_name_H-M "P C C A"
_symmetry_group_IT_number 54
_symmetry_cell_setting 'orthorhombic'
loop_
_space_group_symop_operation_xyz
x,y,z
1/2-x,-y,z
1/2+x,-y,1/2-z
-x,y,1/2-z
-x,-y,-z
1/2+x,y,-z
1/2-x,y,1/2+z
x,-y,1/2+z
loop_
_atom_site_type_symbol
_atom_site_label
_atom_site_fract_x
_atom_site_fract_y
_atom_site_fract_z
Si Si1 0.116762 0.161587 0.113782
Si Si2 0.317654 0.627161 0.364176
Si Si3 0.795505 0.173845 0.528347
Si Si4 0.099190 0.910144 0.768291
Si Si5 0.990830 0.497814 0.913975
Si Si6 0.477059 0.864516 0.886311
O O1 0.144171 0.091288 0.191111
O O2 0.072762 0.349328 0.112088
O O3 0.195267 0.174104 0.056156
O O4 0.038866 0.024691 0.091943
O O5 0.250000 0.500000 0.324658
O O6 0.264471 0.683487 0.435118
O O7 0.343340 0.792145 0.319496
O O8 0.410422 0.537532 0.383310
O O9 0.896511 0.171808 0.558936
O O10 0.750000 0.000000 0.550923
O O11 0.000000 0.832600 0.750000
O O12 0.071561 0.078946 0.812278
O O13 0.966466 0.309437 0.886436
O O14 0.000000 0.500000 0.000000
#
# Coordination Sequence:
#
# PCOD9423313 Si02
#       6
#     8   8   8   8   8   8
#     4  11  24  47  67 101 142 179 235 295 338 425
#     4  12  23  42  67 101 138 182 232 286 360 402
#     4  12  23  40  68  96 136 181 226 294 352 405
#     4  10  22  46  68  93 139 185 224 286 351 424
#     4  12  23  40  72 103 133 185 238 286 344 427
#     4  11  22  41  72 100 131 184 234 277 356 427
#
# _framework density 21.848728999999999
#
# number of rings (size 3 to 8) (size 9 to 14) (size 15 to 20)
#    0.000    0.667    8.333    0.500    2.333    0.000 
#   12.000    2.500    0.000    0.000    0.000    0.000 
#    0.000    0.000    0.000    0.000    0.000    0.000 
#
# Total GULP energy -267996.792722 kJ/mol
# GULP energy per Si atom -5583.266515 kJ/mol
# Density = 2.179900 g / cm^3
# Si number density = 21.848729 Si / 1000 Ang^3
#
#
#
# Elastic Constant Matrix: (Units=GPa)
#
#
# Indices 1 2 3 4 5 6 
#
# 1 39.2211 12.6705 -0.9176 0.0000 0.0000 0.0000
# 2 12.6705 155.4182 23.9359 0.0000 0.0000 0.0000
# 3 -0.9176 23.9359 124.8120 0.0000 0.0000 0.0000
# 4 0.0000 0.0000 0.0000 12.4662 0.0000 0.0000
# 5 0.0000 0.0000 0.0000 0.0000 17.2600 0.0000
# 6 0.0000 0.0000 0.0000 0.0000 0.0000 19.8041
#
#
#
# Elastic Compliance Matrix: (Units=1/GPa)
#
#
# Indices 1 2 3 4 5 6 
#
# 1 0.026233 -0.002234 0.000621 0.000000 0.000000 0.000000
# 2 -0.002234 0.006820 -0.001324 0.000000 0.000000 0.000000
# 3 0.000621 -0.001324 0.008271 0.000000 0.000000 0.000000
# 4 0.000000 0.000000 0.000000 0.080217 0.000000 0.000000
# 5 0.000000 0.000000 0.000000 0.000000 0.057937 0.000000
# 6 0.000000 0.000000 0.000000 0.000000 0.000000 0.050495
#
#
# Mechanical properties :
#
#
# Convention : Reuss Voigt Hill
#
# Bulk Modulus (GPa) = 28.20953 43.42544 35.81748
# Shear Modulus (GPa) = 20.18868 28.82358 24.50613
#
# Velocity S-wave (km/s) = 3.04307 3.63607 3.35270
# Velocity P-wave (km/s) = 5.02855 6.12753 5.60504
#
# Compressibility (1/GPa) = 0.03544901
#
# Stress axis : x y z
#
# Youngs Moduli (GPa) = 38.12021 146.61946 120.91015
#
# Poissons Ratio (x) = 0.32760 -0.07513
# Poissons Ratio (y) = 0.08517 0.16013
# Poissons Ratio (z) = -0.02369 0.19418
#
# Static dielectric constant tensor:
#      x y z
#    x 1.814940 0.000000 0.000000 
#    y 0.000000 1.836550 0.000000 
#    z 0.000000 0.000000 1.847020 
# 
# From -- ./inp_files/17982.got.cif
#   From: 2010.05.17/outbox.cif.g08.bks.cpg/sg54_9_cif.got.tgz:17982.got - 2010.06.03 13:09:01.
