data_PCOD9423486
_publ_section_title
;
Structure prediction by ZEFSAII (Michael W. Deem and Ramdas Pophale) SiO2 
 PCOD9423486
Probable space group: P C C A
;
_chemical_formula_sum "Si O2"
_cell_formula_units_Z 40
_cell_length_a 14.107917
_cell_length_b 11.681598
_cell_length_c 11.818651
_cell_angle_alpha 90.000000
_cell_angle_beta 90.000000
_cell_angle_gamma 90.000000
_cell_volume 1947.749318
_symmetry_space_group_name_H-M "P C C A"
_symmetry_group_IT_number 54
_symmetry_cell_setting 'orthorhombic'
loop_
_space_group_symop_operation_xyz
x,y,z
1/2-x,-y,z
1/2+x,-y,1/2-z
-x,y,1/2-z
-x,-y,-z
1/2+x,y,-z
1/2-x,y,1/2+z
x,-y,1/2+z
loop_
_atom_site_type_symbol
_atom_site_label
_atom_site_fract_x
_atom_site_fract_y
_atom_site_fract_z
Si Si1 0.796359 0.305183 0.158036
Si Si2 0.401820 0.712051 0.576620
Si Si3 0.595940 0.538153 0.322083
Si Si4 0.889179 0.722619 0.018917
Si Si5 0.229998 0.866337 0.653906
O O1 0.823873 0.404848 0.244381
O O2 0.691154 0.313347 0.107759
O O3 0.805716 0.187075 0.228017
O O4 0.867229 0.306412 0.052238
O O5 0.391067 0.591823 0.640608
O O6 0.510926 0.750312 0.576204
O O7 0.328735 0.801960 0.628364
O O8 0.500000 0.547662 0.250000
O O9 0.592441 0.616441 0.434334
O O10 0.843415 0.823978 0.943040
O O11 0.250000 0.000000 0.655932
#
# Coordination Sequence:
#
# PCOD9423486 Si02
#       5
#     8   8   8   8   8
#     4  10  24  43  64  95 139 173 218 270 339 394
#     4  11  24  42  66 100 135 172 223 274 336 404
#     4  11  23  41  67  98 140 172 211 270 334 415
#     4  10  23  43  69 100 132 177 220 272 342 401
#     4  10  25  45  67  95 129 176 234 284 331 390
#
# _framework density 20.536522999999999
#
# number of rings (size 3 to 8) (size 9 to 14) (size 15 to 20)
#    0.000    1.600    2.000    0.600    2.800   12.800 
#    0.000    2.000    0.000    0.000    0.000    0.000 
#    0.000    0.000    0.000    0.000    0.000    0.000 
#
# Total GULP energy -223855.850823 kJ/mol
# GULP energy per Si atom -5596.396271 kJ/mol
# Density = 2.048978 g / cm^3
# Si number density = 20.536523 Si / 1000 Ang^3
#
#
#
# Elastic Constant Matrix: (Units=GPa)
#
#
# Indices 1 2 3 4 5 6 
#
# 1 105.5238 33.8208 16.2877 0.0000 0.0000 0.0000
# 2 33.8208 160.5751 36.1893 0.0000 0.0000 0.0000
# 3 16.2877 36.1893 77.2754 0.0000 0.0000 0.0000
# 4 0.0000 0.0000 0.0000 7.4333 0.0000 0.0000
# 5 0.0000 0.0000 0.0000 0.0000 33.7329 0.0000
# 6 0.0000 0.0000 0.0000 0.0000 0.0000 36.0885
#
#
#
# Elastic Compliance Matrix: (Units=1/GPa)
#
#
# Indices 1 2 3 4 5 6 
#
# 1 0.010276 -0.001874 -0.001288 0.000000 0.000000 0.000000
# 2 -0.001874 0.007304 -0.003026 0.000000 0.000000 0.000000
# 3 -0.001288 -0.003026 0.014629 0.000000 0.000000 0.000000
# 4 0.000000 0.000000 0.000000 0.134531 0.000000 0.000000
# 5 0.000000 0.000000 0.000000 0.000000 0.029645 0.000000
# 6 0.000000 0.000000 0.000000 0.000000 0.000000 0.027710
#
#
# Mechanical properties :
#
#
# Convention : Reuss Voigt Hill
#
# Bulk Modulus (GPa) = 50.41977 57.32999 53.87488
# Shear Modulus (GPa) = 20.56923 32.58936 26.57929
#
# Velocity S-wave (km/s) = 3.16823 3.98791 3.60146
# Velocity P-wave (km/s) = 6.16345 7.01294 6.60187
#
# Compressibility (1/GPa) = 0.01983349
#
# Stress axis : x y z
#
# Youngs Moduli (GPa) = 97.31397 136.90683 68.35619
#
# Poissons Ratio (x) = 0.25657 0.08806
# Poissons Ratio (y) = 0.18237 0.20682
# Poissons Ratio (z) = 0.12537 0.41424
#
# Static dielectric constant tensor:
#      x y z
#    x 1.743270 0.000000 0.000000 
#    y 0.000000 1.678460 0.000000 
#    z 0.000000 0.000000 1.750710 
# 
# From -- ./inp_files/8188.got.cif
#   From: 2010.05.17/outbox.cif.g08.bks.cpg/sg54_5_cif.got.tgz:8188.got - 2010.06.03 13:09:01.
