data_PCOD9423369
_publ_section_title
;
Structure prediction by ZEFSAII (Michael W. Deem and Ramdas Pophale) SiO2 
 PCOD9423369
Probable space group: P C C A
;
_chemical_formula_sum "Si O2"
_cell_formula_units_Z 32
_cell_length_a 18.371731
_cell_length_b 5.101370
_cell_length_c 13.697234
_cell_angle_alpha 90.000000
_cell_angle_beta 90.000000
_cell_angle_gamma 90.000000
_cell_volume 1283.718432
_symmetry_space_group_name_H-M "P C C A"
_symmetry_group_IT_number 54
_symmetry_cell_setting 'orthorhombic'
loop_
_space_group_symop_operation_xyz
x,y,z
1/2-x,-y,z
1/2+x,-y,1/2-z
-x,y,1/2-z
-x,-y,-z
1/2+x,y,-z
1/2-x,y,1/2+z
x,-y,1/2+z
loop_
_atom_site_type_symbol
_atom_site_label
_atom_site_fract_x
_atom_site_fract_y
_atom_site_fract_z
Si Si1 0.521789 0.313988 0.358015
Si Si2 0.674987 0.623845 0.799755
Si Si3 0.865337 0.521833 0.079808
Si Si4 0.364300 0.982061 0.547201
O O1 0.500000 0.216907 0.250000
O O2 0.596067 0.481296 0.339481
O O3 0.452753 0.459917 0.402074
O O4 0.551750 0.078598 0.424115
O O5 0.750000 0.500000 0.832738
O O6 0.669326 0.591147 0.683961
O O7 0.671993 0.912183 0.848637
O O8 0.845128 0.246575 0.031439
O O9 0.846739 0.751314 0.004760
#
# Coordination Sequence:
#
# PCOD9423369 Si02
#       4
#     8   8   8   8
#     4   8  18  39  66 100 133 173 218 283 341 402
#     4   9  22  43  64  96 139 173 224 275 338 410
#     4  11  21  43  67 101 127 178 223 281 337 405
#     4  10  23  39  70  94 136 168 227 277 341 404
#
# _framework density 24.927585000000001
#
# number of rings (size 3 to 8) (size 9 to 14) (size 15 to 20)
#    1.500    1.000    0.000    1.500    0.000    3.000 
#    0.000   12.500    0.000    0.000    0.000    0.000 
#    0.000    0.000    0.000    0.000    0.000    0.000 
#
# Total GULP energy -178549.006692 kJ/mol
# GULP energy per Si atom -5579.656459 kJ/mol
# Density = 2.487085 g / cm^3
# Si number density = 24.927585 Si / 1000 Ang^3
#
#
#
# Elastic Constant Matrix: (Units=GPa)
#
#
# Indices 1 2 3 4 5 6 
#
# 1 153.7364 20.8477 25.3442 0.0000 0.0000 0.0000
# 2 20.8477 88.3430 43.9734 0.0000 0.0000 0.0000
# 3 25.3442 43.9734 133.1644 0.0000 0.0000 0.0000
# 4 0.0000 0.0000 0.0000 8.8378 0.0000 0.0000
# 5 0.0000 0.0000 0.0000 0.0000 12.1681 0.0000
# 6 0.0000 0.0000 0.0000 0.0000 0.0000 20.8094
#
#
#
# Elastic Compliance Matrix: (Units=1/GPa)
#
#
# Indices 1 2 3 4 5 6 
#
# 1 0.006812 -0.001151 -0.000916 0.000000 0.000000 0.000000
# 2 -0.001151 0.013741 -0.004318 0.000000 0.000000 0.000000
# 3 -0.000916 -0.004318 0.009110 0.000000 0.000000 0.000000
# 4 0.000000 0.000000 0.000000 0.113151 0.000000 0.000000
# 5 0.000000 0.000000 0.000000 0.000000 0.082182 0.000000
# 6 0.000000 0.000000 0.000000 0.000000 0.000000 0.048055
#
#
# Mechanical properties :
#
#
# Convention : Reuss Voigt Hill
#
# Bulk Modulus (GPa) = 59.20490 61.73051 60.46771
# Shear Modulus (GPa) = 17.15542 27.36827 22.26185
#
# Velocity S-wave (km/s) = 2.62622 3.31707 2.99165
# Velocity P-wave (km/s) = 5.74442 6.28397 6.02024
#
# Compressibility (1/GPa) = 0.01689049
#
# Stress axis : x y z
#
# Youngs Moduli (GPa) = 146.80348 72.77646 109.77102
#
# Poissons Ratio (x) = 0.08380 0.10057
# Poissons Ratio (y) = 0.16904 0.47402
# Poissons Ratio (z) = 0.13450 0.31427
#
# Static dielectric constant tensor:
#      x y z
#    x 2.164640 0.000000 0.000000 
#    y 0.000000 1.981100 0.000000 
#    z 0.000000 0.000000 1.981910 
# 
# From -- ./inp_files/14399.got.cif
#   From: 2010.05.17/outbox.cif.g08.bks.cpg/sg54_8_cif.got.tgz:14399.got - 2010.06.03 13:09:01.
