data_PCOD9423850
_publ_section_title
;
Structure prediction by ZEFSAII (Michael W. Deem and Ramdas Pophale) SiO2 
 PCOD9423850
Probable space group: P C C A
;
_chemical_formula_sum "Si O2"
_cell_formula_units_Z 24
_cell_length_a 17.450533
_cell_length_b 5.054472
_cell_length_c 9.886342
_cell_angle_alpha 90.000000
_cell_angle_beta 90.000000
_cell_angle_gamma 90.000000
_cell_volume 872.007302
_symmetry_space_group_name_H-M "P C C A"
_symmetry_group_IT_number 54
_symmetry_cell_setting 'orthorhombic'
loop_
_space_group_symop_operation_xyz
x,y,z
1/2-x,-y,z
1/2+x,-y,1/2-z
-x,y,1/2-z
-x,-y,-z
1/2+x,y,-z
1/2-x,y,1/2+z
x,-y,1/2+z
loop_
_atom_site_type_symbol
_atom_site_label
_atom_site_fract_x
_atom_site_fract_y
_atom_site_fract_z
Si Si1 0.338625 0.521864 0.922573
Si Si2 0.342376 0.977654 0.231725
Si Si3 0.051993 0.628765 0.119031
O O1 0.250000 0.500000 0.942833
O O2 0.359881 0.273059 0.827726
O O3 0.352635 0.783107 0.838873
O O4 0.371383 0.524890 0.073578
O O5 0.250000 0.000000 0.189233
O O6 0.410348 0.073797 0.127601
O O7 0.000000 0.593472 0.250000
O O8 0.000000 0.500000 0.000000
#
# Coordination Sequence:
#
# PCOD9423850 Si02
#       3
#     8   8   8
#     4  10  24  49  80 114 162 224 287 346 426 524
#     4  10  24  49  81 116 163 227 285 347 423 528
#     4  12  26  52  83 130 176 222 285 370 447 517
#
# _framework density 27.522703
#
# number of rings (size 3 to 8) (size 9 to 14) (size 15 to 20)
#    0.000    1.333    3.333    0.000    0.000   12.000 
#    6.000    0.000    0.000    0.000    0.000    0.000 
#    0.000    0.000    0.000    0.000    0.000    0.000 
#
# Total GULP energy -133795.818810 kJ/mol
# GULP energy per Si atom -5574.825784 kJ/mol
# Density = 2.746006 g / cm^3
# Si number density = 27.522703 Si / 1000 Ang^3
#
#
#
# Elastic Constant Matrix: (Units=GPa)
#
#
# Indices 1 2 3 4 5 6 
#
# 1 141.0860 50.8294 70.4025 0.0000 0.0000 0.0000
# 2 50.8294 165.3000 72.1096 0.0000 0.0000 0.0000
# 3 70.4025 72.1096 179.3311 0.0000 0.0000 0.0000
# 4 0.0000 0.0000 0.0000 12.9207 0.0000 0.0000
# 5 0.0000 0.0000 0.0000 0.0000 68.4898 0.0000
# 6 0.0000 0.0000 0.0000 0.0000 0.0000 57.5092
#
#
#
# Elastic Compliance Matrix: (Units=1/GPa)
#
#
# Indices 1 2 3 4 5 6 
#
# 1 0.009114 -0.001506 -0.002972 0.000000 0.000000 0.000000
# 2 -0.001506 0.007585 -0.002459 0.000000 0.000000 0.000000
# 3 -0.002972 -0.002459 0.007732 0.000000 0.000000 0.000000
# 4 0.000000 0.000000 0.000000 0.077395 0.000000 0.000000
# 5 0.000000 0.000000 0.000000 0.000000 0.014601 0.000000
# 6 0.000000 0.000000 0.000000 0.000000 0.000000 0.017389
#
#
# Mechanical properties :
#
#
# Convention : Reuss Voigt Hill
#
# Bulk Modulus (GPa) = 94.72677 96.93334 95.83005
# Shear Modulus (GPa) = 33.06695 47.27564 40.17129
#
# Velocity S-wave (km/s) = 3.46994 4.14901 3.82458
# Velocity P-wave (km/s) = 7.10960 7.63205 7.37545
#
# Compressibility (1/GPa) = 0.01055668
#
# Stress axis : x y z
#
# Youngs Moduli (GPa) = 109.72625 131.83397 129.33381
#
# Poissons Ratio (x) = 0.19851 0.38443
# Poissons Ratio (y) = 0.16522 0.31802
# Poissons Ratio (z) = 0.32615 0.32417
#
# Static dielectric constant tensor:
#      x y z
#    x 2.329920 0.000000 0.000000 
#    y 0.000000 2.248770 0.000000 
#    z 0.000000 0.000000 1.678140 
# 
# From -- ./inp_files/9126.got.cif
#   From: 2010.05.17/outbox.cif.g08.bks.cpg/sg54_5_cif.got.tgz:9126.got - 2010.06.03 13:09:01.
