data_PCOD9423129
_publ_section_title
;
Structure prediction by ZEFSAII (Michael W. Deem and Ramdas Pophale) SiO2 
 PCOD9423129
Probable space group: P C C A
;
_chemical_formula_sum "Si O2"
_cell_formula_units_Z 56
_cell_length_a 13.807858
_cell_length_b 9.020082
_cell_length_c 20.931928
_cell_angle_alpha 90.000000
_cell_angle_beta 90.000000
_cell_angle_gamma 90.000000
_cell_volume 2607.030007
_symmetry_space_group_name_H-M "P C C A"
_symmetry_group_IT_number 54
_symmetry_cell_setting 'orthorhombic'
loop_
_space_group_symop_operation_xyz
x,y,z
1/2-x,-y,z
1/2+x,-y,1/2-z
-x,y,1/2-z
-x,-y,-z
1/2+x,y,-z
1/2-x,y,1/2+z
x,-y,1/2+z
loop_
_atom_site_type_symbol
_atom_site_label
_atom_site_fract_x
_atom_site_fract_y
_atom_site_fract_z
Si Si1 0.500000 0.975590 0.750000
Si Si2 0.214686 0.669912 0.109197
Si Si3 0.138510 0.212620 0.195008
Si Si4 0.791745 0.284912 0.035477
Si Si5 0.750000 0.000000 0.593956
Si Si6 0.129578 0.436764 0.894119
Si Si7 0.684767 0.208373 0.204399
Si Si8 0.946042 0.454886 0.815443
O O1 0.411805 0.868942 0.769146
O O2 0.554279 0.090921 0.798433
O O3 0.250000 0.500000 0.107642
O O4 0.296948 0.785224 0.130744
O O5 0.138333 0.660194 0.167104
O O6 0.180240 0.696004 0.037770
O O7 0.217662 0.195734 0.252738
O O8 0.093433 0.378102 0.194492
O O9 0.809720 0.115073 0.052357
O O10 0.844810 0.397169 0.083839
O O11 0.679327 0.338216 0.049255
O O12 0.804324 0.108567 0.641184
O O13 0.173305 0.371690 0.827290
O O14 0.017066 0.439773 0.876334
O O15 0.000000 0.421654 0.750000
#
# Coordination Sequence:
#
# PCOD9423129 Si02
#       8
#     4   8   8   8   4   8   8   8
#     4  12  24  42  66 100 140 180 228 276 380 424
#     4  10  22  45  65  99 140 182 230 295 361 411
#     4  11  24  42  67  99 146 179 227 297 364 422
#     4  10  22  44  70  94 138 187 234 286 353 412
#     4  10  22  42  66  98 132 180 232 276 344 426
#     4  10  23  39  70  97 132 179 239 286 342 423
#     4  11  24  44  66 102 139 182 231 296 353 424
#     4  11  24  38  69 106 136 178 241 299 356 426
#
# _framework density 21.480381000000001
#
# number of rings (size 3 to 8) (size 9 to 14) (size 15 to 20)
#    0.000    1.429    3.571    0.857   11.000    0.571 
#    2.571    0.000    0.000    3.429    0.000    0.000 
#    0.000    0.000    0.000    0.000    0.000    0.000 
#
# Total GULP energy -311754.165657 kJ/mol
# GULP energy per Si atom -5567.038672 kJ/mol
# Density = 2.143149 g / cm^3
# Si number density = 21.480381 Si / 1000 Ang^3
#
#
#
# Elastic Constant Matrix: (Units=GPa)
#
#
# Indices 1 2 3 4 5 6 
#
# 1 58.0119 13.0527 7.9177 0.0000 0.0000 0.0000
# 2 13.0527 90.9637 14.4047 0.0000 0.0000 0.0000
# 3 7.9177 14.4047 54.9020 0.0000 0.0000 0.0000
# 4 0.0000 0.0000 0.0000 36.1561 0.0000 0.0000
# 5 0.0000 0.0000 0.0000 0.0000 19.0817 0.0000
# 6 0.0000 0.0000 0.0000 0.0000 0.0000 33.1456
#
#
#
# Elastic Compliance Matrix: (Units=1/GPa)
#
#
# Indices 1 2 3 4 5 6 
#
# 1 0.018022 -0.002269 -0.002004 0.000000 0.000000 0.000000
# 2 -0.002269 0.011756 -0.002757 0.000000 0.000000 0.000000
# 3 -0.002004 -0.002757 0.019227 0.000000 0.000000 0.000000
# 4 0.000000 0.000000 0.000000 0.027658 0.000000 0.000000
# 5 0.000000 0.000000 0.000000 0.000000 0.052406 0.000000
# 6 0.000000 0.000000 0.000000 0.000000 0.000000 0.030170
#
#
# Mechanical properties :
#
#
# Convention : Reuss Voigt Hill
#
# Bulk Modulus (GPa) = 28.61660 30.51420 29.56540
# Shear Modulus (GPa) = 27.03501 28.91019 27.97260
#
# Velocity S-wave (km/s) = 3.55151 3.67261 3.61257
# Velocity P-wave (km/s) = 5.49261 5.67632 5.58522
#
# Compressibility (1/GPa) = 0.03494476
#
# Stress axis : x y z
#
# Youngs Moduli (GPa) = 55.48840 85.06617 52.01112
#
# Poissons Ratio (x) = 0.19299 0.10422
# Poissons Ratio (y) = 0.12589 0.14340
# Poissons Ratio (z) = 0.11119 0.23454
#
# Static dielectric constant tensor:
#      x y z
#    x 1.865030 0.000000 0.000000 
#    y 0.000000 1.823560 0.000000 
#    z 0.000000 0.000000 1.801240 
# 
# From -- ./inp_files/21684.got.cif
#   From: 2010.05.17/outbox.cif.g08.bks.cpg/sg54_11_cif.got.tgz:21684.got - 2010.06.03 13:09:01.
