data_PCOD9423607
_publ_section_title
;
Structure prediction by ZEFSAII (Michael W. Deem and Ramdas Pophale) SiO2 
 PCOD9423607
Probable space group: P C C A
;
_chemical_formula_sum "Si O2"
_cell_formula_units_Z 36
_cell_length_a 9.224850
_cell_length_b 9.376323
_cell_length_c 21.378032
_cell_angle_alpha 90.000000
_cell_angle_beta 90.000000
_cell_angle_gamma 90.000000
_cell_volume 1849.096581
_symmetry_space_group_name_H-M "P C C A"
_symmetry_group_IT_number 54
_symmetry_cell_setting 'orthorhombic'
loop_
_space_group_symop_operation_xyz
x,y,z
1/2-x,-y,z
1/2+x,-y,1/2-z
-x,y,1/2-z
-x,-y,-z
1/2+x,y,-z
1/2-x,y,1/2+z
x,-y,1/2+z
loop_
_atom_site_type_symbol
_atom_site_label
_atom_site_fract_x
_atom_site_fract_y
_atom_site_fract_z
Si Si1 0.920213 0.460100 0.064465
Si Si2 0.396038 0.595322 0.810432
Si Si3 0.750000 0.000000 0.980411
Si Si4 0.106617 0.074260 0.807589
Si Si5 0.978619 0.870554 0.577228
O O1 0.750000 0.500000 0.057050
O O2 0.972525 0.545984 0.125517
O O3 0.945379 0.295952 0.083623
O O4 0.000000 0.500000 0.000000
O O5 0.250000 0.500000 0.802242
O O6 0.500000 0.582068 0.750000
O O7 0.360483 0.761274 0.822725
O O8 0.853626 0.895224 0.941376
O O9 0.634199 0.918215 0.023348
O O10 0.000000 0.074685 0.750000
O O11 0.250000 0.000000 0.784270
O O12 0.052655 0.977747 0.865342
#
# Coordination Sequence:
#
# PCOD9423607 Si02
#       5
#     8   8   4   8   8
#     4  11  24  40  64  96 128 166 209 263 323 385
#     4  10  24  44  63  90 126 169 213 261 324 384
#     4  10  24  38  66  90 126 168 204 258 324 380
#     4  11  24  42  65  93 126 167 218 267 313 385
#     4  11  23  42  64  93 128 165 213 264 318 389
#
# _framework density 19.468968
#
# number of rings (size 3 to 8) (size 9 to 14) (size 15 to 20)
#    0.000    1.333    1.111    4.000    7.778    4.444 
#    4.000    0.000    0.000    0.000    0.000    0.000 
#    0.000    0.000    0.000    0.000    0.000    0.000 
#
# Total GULP energy -200889.772155 kJ/mol
# GULP energy per Si atom -5580.271449 kJ/mol
# Density = 1.942466 g / cm^3
# Si number density = 19.468968 Si / 1000 Ang^3
#
#
#
# Elastic Constant Matrix: (Units=GPa)
#
#
# Indices 1 2 3 4 5 6 
#
# 1 102.0003 54.5132 37.1989 0.0000 0.0000 0.0000
# 2 54.5132 200.6278 60.8898 0.0000 0.0000 0.0000
# 3 37.1989 60.8898 85.2272 0.0000 0.0000 0.0000
# 4 0.0000 0.0000 0.0000 26.6971 0.0000 0.0000
# 5 0.0000 0.0000 0.0000 0.0000 25.7764 0.0000
# 6 0.0000 0.0000 0.0000 0.0000 0.0000 42.9738
#
#
#
# Elastic Compliance Matrix: (Units=1/GPa)
#
#
# Indices 1 2 3 4 5 6 
#
# 1 0.012377 -0.002201 -0.003830 0.000000 0.000000 0.000000
# 2 -0.002201 0.006756 -0.003866 0.000000 0.000000 0.000000
# 3 -0.003830 -0.003866 0.016167 0.000000 0.000000 0.000000
# 4 0.000000 0.000000 0.000000 0.037457 0.000000 0.000000
# 5 0.000000 0.000000 0.000000 0.000000 0.038795 0.000000
# 6 0.000000 0.000000 0.000000 0.000000 0.000000 0.023270
#
#
# Mechanical properties :
#
#
# Convention : Reuss Voigt Hill
#
# Bulk Modulus (GPa) = 64.48937 77.00657 70.74797
# Shear Modulus (GPa) = 31.29238 34.77302 33.03270
#
# Velocity S-wave (km/s) = 4.01346 4.23078 4.12355
# Velocity P-wave (km/s) = 7.39413 7.96903 7.68696
#
# Compressibility (1/GPa) = 0.01550643
#
# Stress axis : x y z
#
# Youngs Moduli (GPa) = 80.79710 148.02548 61.85451
#
# Poissons Ratio (x) = 0.32574 0.23689
# Poissons Ratio (y) = 0.17780 0.23913
# Poissons Ratio (z) = 0.30944 0.57227
#
# Static dielectric constant tensor:
#      x y z
#    x 1.789750 0.000000 0.000000 
#    y 0.000000 1.403320 0.000000 
#    z 0.000000 0.000000 1.751890 
# 
# From -- ./inp_files/20118.got.cif
#   From: 2010.05.17/outbox.cif.g08.bks.cpg/sg54_11_cif.got.tgz:20118.got - 2010.06.03 13:09:01.
