data_PCOD9423212
_publ_section_title
;
Structure prediction by ZEFSAII (Michael W. Deem and Ramdas Pophale) SiO2 
 PCOD9423212
Probable space group: P C C A
;
_chemical_formula_sum "Si O2"
_cell_formula_units_Z 48
_cell_length_a 22.556061
_cell_length_b 8.723379
_cell_length_c 11.441472
_cell_angle_alpha 90.000000
_cell_angle_beta 90.000000
_cell_angle_gamma 90.000000
_cell_volume 2251.282026
_symmetry_space_group_name_H-M "P C C A"
_symmetry_group_IT_number 54
_symmetry_cell_setting 'orthorhombic'
loop_
_space_group_symop_operation_xyz
x,y,z
1/2-x,-y,z
1/2+x,-y,1/2-z
-x,y,1/2-z
-x,-y,-z
1/2+x,y,-z
1/2-x,y,1/2+z
x,-y,1/2+z
loop_
_atom_site_type_symbol
_atom_site_label
_atom_site_fract_x
_atom_site_fract_y
_atom_site_fract_z
Si Si1 0.592412 0.716695 0.427141
Si Si2 0.515199 0.102856 0.616785
Si Si3 0.225821 0.327292 0.419967
Si Si4 0.658100 0.782156 0.645179
Si Si5 0.641252 0.878660 0.217196
Si Si6 0.680619 0.443034 0.356746
O O1 0.523475 0.741135 0.397036
O O2 0.602497 0.748349 0.563277
O O3 0.621046 0.851555 0.349184
O O4 0.630171 0.568843 0.386554
O O5 0.500000 0.037965 0.750000
O O6 0.584506 0.139099 0.631544
O O7 0.500000 0.000000 0.500000
O O8 0.250000 0.500000 0.401415
O O9 0.285333 0.232852 0.439923
O O10 0.190429 0.247019 0.316100
O O11 0.183960 0.332927 0.531170
O O12 0.664008 0.653019 0.743327
O O13 0.661107 0.948451 0.699944
O O14 0.750000 0.500000 0.349134
#
# Coordination Sequence:
#
# PCOD9423212 Si02
#       6
#     8   8   8   8   8   8
#     4  11  23  43  69  99 135 177 227 276 344 417
#     4  10  22  43  71  98 136 180 227 293 348 404
#     4  11  23  42  64  94 133 182 220 281 339 405
#     4  12  23  40  69 100 132 176 223 279 346 409
#     4  11  25  42  70  98 137 172 232 282 342 404
#     4  11  24  41  67  95 139 182 223 275 353 413
#
# _framework density 21.321185
#
# number of rings (size 3 to 8) (size 9 to 14) (size 15 to 20)
#    0.000    1.000    5.000    3.000    2.333    0.000 
#    0.000    0.833    3.667    0.000    0.000    0.000 
#    0.000    0.000    0.000    0.000    0.000    0.000 
#
# Total GULP energy -267573.440192 kJ/mol
# GULP energy per Si atom -5574.446671 kJ/mol
# Density = 2.127266 g / cm^3
# Si number density = 21.321185 Si / 1000 Ang^3
#
#
#
# Elastic Constant Matrix: (Units=GPa)
#
#
# Indices 1 2 3 4 5 6 
#
# 1 58.0587 29.1636 -16.6189 0.0000 0.0000 0.0000
# 2 29.1636 85.2873 28.7828 0.0000 0.0000 0.0000
# 3 -16.6189 28.7828 88.1762 0.0000 0.0000 0.0000
# 4 0.0000 0.0000 0.0000 25.1920 0.0000 0.0000
# 5 0.0000 0.0000 0.0000 0.0000 30.6959 0.0000
# 6 0.0000 0.0000 0.0000 0.0000 0.0000 30.2132
#
#
#
# Elastic Compliance Matrix: (Units=1/GPa)
#
#
# Indices 1 2 3 4 5 6 
#
# 1 0.025535 -0.011638 0.008611 0.000000 0.000000 0.000000
# 2 -0.011638 0.018481 -0.008226 0.000000 0.000000 0.000000
# 3 0.008611 -0.008226 0.015649 0.000000 0.000000 0.000000
# 4 0.000000 0.000000 0.000000 0.039695 0.000000 0.000000
# 5 0.000000 0.000000 0.000000 0.000000 0.032578 0.000000
# 6 0.000000 0.000000 0.000000 0.000000 0.000000 0.033098
#
#
# Mechanical properties :
#
#
# Convention : Reuss Voigt Hill
#
# Bulk Modulus (GPa) = 26.91058 34.90858 30.90958
# Shear Modulus (GPa) = 25.00922 29.89986 27.45454
#
# Velocity S-wave (km/s) = 3.42859 3.74886 3.59230
# Velocity P-wave (km/s) = 5.32189 5.92848 5.63336
#
# Compressibility (1/GPa) = 0.03716010
#
# Stress axis : x y z
#
# Youngs Moduli (GPa) = 39.16245 54.11078 63.90144
#
# Poissons Ratio (x) = 0.62972 -0.55028
# Poissons Ratio (y) = 0.45576 0.52565
# Poissons Ratio (z) = -0.33725 0.44511
#
# Static dielectric constant tensor:
#      x y z
#    x 1.821410 0.000000 0.000000 
#    y 0.000000 1.772220 0.000000 
#    z 0.000000 0.000000 1.835980 
# 
# From -- ./inp_files/9921.got.cif
#   From: 2010.05.17/outbox.cif.g08.bks.cpg/sg54_5_cif.got.tgz:9921.got - 2010.06.03 13:09:01.
