data_PCOD9423838
_publ_section_title
;
Structure prediction by ZEFSAII (Michael W. Deem and Ramdas Pophale) SiO2 
 PCOD9423838
Probable space group: P C C A
;
_chemical_formula_sum "Si O2"
_cell_formula_units_Z 28
_cell_length_a 15.097633
_cell_length_b 5.018631
_cell_length_c 13.314906
_cell_angle_alpha 90.000000
_cell_angle_beta 90.000000
_cell_angle_gamma 90.000000
_cell_volume 1008.863091
_symmetry_space_group_name_H-M "P C C A"
_symmetry_group_IT_number 54
_symmetry_cell_setting 'orthorhombic'
loop_
_space_group_symop_operation_xyz
x,y,z
1/2-x,-y,z
1/2+x,-y,1/2-z
-x,y,1/2-z
-x,-y,-z
1/2+x,y,-z
1/2-x,y,1/2+z
x,-y,1/2+z
loop_
_atom_site_type_symbol
_atom_site_label
_atom_site_fract_x
_atom_site_fract_y
_atom_site_fract_z
Si Si1 0.604332 0.286969 0.872699
Si Si2 0.344623 0.384989 0.851070
Si Si3 0.496823 0.788804 0.870490
Si Si4 0.750000 0.000000 0.996898
O O1 0.575091 0.584319 0.898393
O O2 0.693406 0.192748 0.925489
O O3 0.525109 0.084317 0.903303
O O4 0.593458 0.374370 0.108567
O O5 0.250000 0.500000 0.818598
O O6 0.385581 0.271878 0.748202
O O7 0.316971 0.164003 0.931759
O O8 0.500000 0.794851 0.750000
#
# Coordination Sequence:
#
# PCOD9423838 Si02
#       4
#     8   8   8   4
#     4  11  27  49  77 107 156 202 254 317 388 462
#     4  11  28  49  82 112 158 204 268 325 394 465
#     4  10  24  48  78 106 147 206 255 311 387 455
#     4  12  30  44  78 120 158 204 256 326 394 466
#
# _framework density 27.754014000000002
#
# number of rings (size 3 to 8) (size 9 to 14) (size 15 to 20)
#    0.000    1.143    0.000    3.429   24.000    2.286 
#    0.000    0.000    0.000    0.000    0.000    0.000 
#    0.000    0.000    0.000    0.000    0.000    0.000 
#
# Total GULP energy -157256.399153 kJ/mol
# GULP energy per Si atom -5616.299970 kJ/mol
# Density = 2.769085 g / cm^3
# Si number density = 27.754014 Si / 1000 Ang^3
#
#
#
# Elastic Constant Matrix: (Units=GPa)
#
#
# Indices 1 2 3 4 5 6 
#
# 1 124.9703 40.8820 19.0474 0.0000 0.0000 0.0000
# 2 40.8820 163.4302 27.1748 0.0000 0.0000 0.0000
# 3 19.0474 27.1748 115.4476 0.0000 0.0000 0.0000
# 4 0.0000 0.0000 0.0000 39.1069 0.0000 0.0000
# 5 0.0000 0.0000 0.0000 0.0000 65.9247 0.0000
# 6 0.0000 0.0000 0.0000 0.0000 0.0000 79.1188
#
#
#
# Elastic Compliance Matrix: (Units=1/GPa)
#
#
# Indices 1 2 3 4 5 6 
#
# 1 0.008819 -0.002044 -0.000974 0.000000 0.000000 0.000000
# 2 -0.002044 0.006842 -0.001273 0.000000 0.000000 0.000000
# 3 -0.000974 -0.001273 0.009122 0.000000 0.000000 0.000000
# 4 0.000000 0.000000 0.000000 0.025571 0.000000 0.000000
# 5 0.000000 0.000000 0.000000 0.000000 0.015169 0.000000
# 6 0.000000 0.000000 0.000000 0.000000 0.000000 0.012639
#
#
# Mechanical properties :
#
#
# Convention : Reuss Voigt Hill
#
# Bulk Modulus (GPa) = 61.72554 64.22850 62.97702
# Shear Modulus (GPa) = 54.26235 57.94634 56.10434
#
# Velocity S-wave (km/s) = 4.42647 4.57426 4.50097
# Velocity P-wave (km/s) = 6.95797 7.14778 7.05351
#
# Compressibility (1/GPa) = 0.01620075
#
# Stress axis : x y z
#
# Youngs Moduli (GPa) = 113.39104 146.15885 109.62135
#
# Poissons Ratio (x) = 0.29877 0.10676
# Poissons Ratio (y) = 0.23179 0.13957
# Poissons Ratio (z) = 0.11043 0.18609
#
# Static dielectric constant tensor:
#      x y z
#    x 2.164050 0.000000 0.000000 
#    y 0.000000 2.110730 0.000000 
#    z 0.000000 0.000000 2.114220 
# 
# From -- ./inp_files/9161.got.cif
#   From: 2010.05.17/outbox.cif.g08.bks.cpg/sg54_5_cif.got.tgz:9161.got - 2010.06.03 13:09:01.
