data_PCOD9423199
_publ_section_title
;
Structure prediction by ZEFSAII (Michael W. Deem and Ramdas Pophale) SiO2 
 PCOD9423199
Probable space group: P C C A
;
_chemical_formula_sum "Si O2"
_cell_formula_units_Z 28
_cell_length_a 8.341430
_cell_length_b 8.511791
_cell_length_c 17.784256
_cell_angle_alpha 90.000000
_cell_angle_beta 90.000000
_cell_angle_gamma 90.000000
_cell_volume 1262.691225
_symmetry_space_group_name_H-M "P C C A"
_symmetry_group_IT_number 54
_symmetry_cell_setting 'orthorhombic'
loop_
_space_group_symop_operation_xyz
x,y,z
1/2-x,-y,z
1/2+x,-y,1/2-z
-x,y,1/2-z
-x,-y,-z
1/2+x,y,-z
1/2-x,y,1/2+z
x,-y,1/2+z
loop_
_atom_site_type_symbol
_atom_site_label
_atom_site_fract_x
_atom_site_fract_y
_atom_site_fract_z
Si Si1 0.500000 0.237621 0.750000
Si Si2 0.049945 0.174672 0.593037
Si Si3 0.442581 0.526746 0.830535
Si Si4 0.250000 0.000000 0.719477
Si Si5 0.750000 0.000000 0.529280
O O1 0.521266 0.353541 0.821287
O O2 0.651137 0.129004 0.736124
O O3 0.166342 0.130487 0.524143
O O4 0.010221 0.356869 0.607280
O O5 0.130177 0.095330 0.665576
O O6 0.885371 0.084955 0.576691
O O7 0.250000 0.500000 0.833017
O O8 0.500000 0.598254 0.750000
#
# Coordination Sequence:
#
# PCOD9423199 Si02
#       5
#     4   8   8   4   4
#     4  10  26  38  64 100 138 170 210 260 350 398
#     4  10  22  43  68  92 134 170 227 274 320 385
#     4  10  23  40  63  98 136 170 201 273 340 405
#     4  11  24  37  68  98 129 176 213 276 320 407
#     4   9  22  43  72  94 123 184 235 270 308 377
#
# _framework density 22.174859000000001
#
# number of rings (size 3 to 8) (size 9 to 14) (size 15 to 20)
#    0.857    1.143    0.000    1.714   10.000    0.000 
#    0.000    1.429    0.000    0.000    0.000    0.000 
#    0.000    0.000    0.000    0.000    0.000    0.000 
#
# Total GULP energy -156364.922751 kJ/mol
# GULP energy per Si atom -5584.461527 kJ/mol
# Density = 2.212439 g / cm^3
# Si number density = 22.174859 Si / 1000 Ang^3
#
#
#
# Elastic Constant Matrix: (Units=GPa)
#
#
# Indices 1 2 3 4 5 6 
#
# 1 116.6976 68.1889 35.1233 0.0000 0.0000 0.0000
# 2 68.1889 168.2293 49.3204 0.0000 0.0000 0.0000
# 3 35.1233 49.3204 38.9153 0.0000 0.0000 0.0000
# 4 0.0000 0.0000 0.0000 -7.2273 0.0000 0.0000
# 5 0.0000 0.0000 0.0000 0.0000 16.8488 0.0000
# 6 0.0000 0.0000 0.0000 0.0000 0.0000 22.1636
#
#
#
# Elastic Compliance Matrix: (Units=1/GPa)
#
#
# Indices 1 2 3 4 5 6 
#
# 1 0.012548 -0.002810 -0.007764 0.000000 0.000000 0.000000
# 2 -0.002810 0.010088 -0.010249 0.000000 0.000000 0.000000
# 3 -0.007764 -0.010249 0.045694 0.000000 0.000000 0.000000
# 4 0.000000 0.000000 0.000000 -0.138365 0.000000 0.000000
# 5 0.000000 0.000000 0.000000 0.000000 0.059352 0.000000
# 6 0.000000 0.000000 0.000000 0.000000 0.000000 0.045119
#
#
# Mechanical properties :
#
#
# Convention : Reuss Voigt Hill
#
# Bulk Modulus (GPa) = 37.47618 69.90083 53.68851
# Shear Modulus (GPa) = 58.84002 17.77098 38.30550
#
# Velocity S-wave (km/s) = 5.15676 2.83398 4.16074
# Velocity P-wave (km/s) = 7.23832 6.50381 6.88087
#
# Compressibility (1/GPa) = 0.02668361
#
# Stress axis : x y z
#
# Youngs Moduli (GPa) = 79.69538 99.12746 21.88469
#
# Poissons Ratio (x) = 0.27853 0.16991
# Poissons Ratio (y) = 0.22393 0.22430
# Poissons Ratio (z) = 0.61875 1.01599
#
# Static dielectric constant tensor:
#      x y z
#    x 1.814960 0.000000 0.000000 
#    y 0.000000 1.822890 0.000000 
#    z 0.000000 0.000000 1.825730 
# 
# From -- ./inp_files/16198.got.cif
#   From: 2010.05.17/outbox.cif.g08.bks.cpg/sg54_9_cif.got.tgz:16198.got - 2010.06.03 13:09:01.
