data_PCOD9423007
_publ_section_title
;
Structure prediction by ZEFSAII (Michael W. Deem and Ramdas Pophale) SiO2 
 PCOD9423007
Probable space group: P C C A
;
_chemical_formula_sum "Si O2"
_cell_formula_units_Z 40
_cell_length_a 5.073826
_cell_length_b 13.520383
_cell_length_c 27.470081
_cell_angle_alpha 90.000000
_cell_angle_beta 90.000000
_cell_angle_gamma 90.000000
_cell_volume 1884.449501
_symmetry_space_group_name_H-M "P C C A"
_symmetry_group_IT_number 54
_symmetry_cell_setting 'orthorhombic'
loop_
_space_group_symop_operation_xyz
x,y,z
1/2-x,-y,z
1/2+x,-y,1/2-z
-x,y,1/2-z
-x,-y,-z
1/2+x,y,-z
1/2-x,y,1/2+z
x,-y,1/2+z
loop_
_atom_site_type_symbol
_atom_site_label
_atom_site_fract_x
_atom_site_fract_y
_atom_site_fract_z
Si Si1 0.323565 0.282556 0.682317
Si Si2 0.338339 0.204593 0.373535
Si Si3 0.750000 0.500000 0.594770
Si Si4 0.750000 0.500000 0.334743
Si Si5 0.750000 0.000000 0.669244
Si Si6 0.334560 0.697169 0.467985
Si Si7 0.000000 0.131662 0.250000
O O1 0.610026 0.255057 0.660028
O O2 0.295447 0.398102 0.694276
O O3 0.287511 0.208545 0.727870
O O4 0.109751 0.256613 0.641236
O O5 0.246022 0.221500 0.428354
O O6 0.369587 0.088701 0.361884
O O7 0.499934 0.512321 0.629774
O O8 0.707945 0.405691 0.560469
O O9 0.560426 0.058937 0.705721
O O10 0.630974 0.702827 0.487339
#
# Coordination Sequence:
#
# PCOD9423007 Si02
#       7
#     8   8   4   4   4   8   4
#     4  11  22  40  64  92 133 164 209 254 319 373
#     4  11  23  42  64  92 126 171 204 266 322 369
#     4  12  22  39  63  92 126 176 216 246 315 371
#     4  12  20  39  63  92 132 178 204 244 315 401
#     4  10  22  42  70  92 122 160 220 262 324 376
#     4  12  23  39  61  96 129 161 217 265 303 373
#     4  10  22  40  68 102 118 160 216 276 302 376
#
# _framework density 21.226358000000001
#
# number of rings (size 3 to 8) (size 9 to 14) (size 15 to 20)
#    0.000    0.800    4.000    4.200    0.000    4.800 
#    0.000    6.000    0.000    0.000    0.000    0.000 
#    0.000    0.000    0.000    0.000    0.000    0.000 
#
# Total GULP energy -223578.237211 kJ/mol
# GULP energy per Si atom -5589.455930 kJ/mol
# Density = 2.117805 g / cm^3
# Si number density = 21.226358 Si / 1000 Ang^3
#
#
#
# Elastic Constant Matrix: (Units=GPa)
#
#
# Indices 1 2 3 4 5 6 
#
# 1 62.2700 -9.6490 5.6195 0.0000 0.0000 0.0000
# 2 -9.6490 183.1579 39.5273 0.0000 0.0000 0.0000
# 3 5.6195 39.5273 51.6152 0.0000 0.0000 0.0000
# 4 0.0000 0.0000 0.0000 70.6296 0.0000 0.0000
# 5 0.0000 0.0000 0.0000 0.0000 26.6220 0.0000
# 6 0.0000 0.0000 0.0000 0.0000 0.0000 16.4799
#
#
#
# Elastic Compliance Matrix: (Units=1/GPa)
#
#
# Indices 1 2 3 4 5 6 
#
# 1 0.016560 0.001511 -0.002960 0.000000 0.000000 0.000000
# 2 0.001511 0.006679 -0.005279 0.000000 0.000000 0.000000
# 3 -0.002960 -0.005279 0.023739 0.000000 0.000000 0.000000
# 4 0.000000 0.000000 0.000000 0.014158 0.000000 0.000000
# 5 0.000000 0.000000 0.000000 0.000000 0.037563 0.000000
# 6 0.000000 0.000000 0.000000 0.000000 0.000000 0.060680
#
#
# Mechanical properties :
#
#
# Convention : Reuss Voigt Hill
#
# Bulk Modulus (GPa) = 29.83115 40.89319 35.36217
# Shear Modulus (GPa) = 27.17243 40.18265 33.67754
#
# Velocity S-wave (km/s) = 3.58177 4.35564 3.98752
# Velocity P-wave (km/s) = 5.58478 6.67852 6.15599
#
# Compressibility (1/GPa) = 0.03352201
#
# Stress axis : x y z
#
# Youngs Moduli (GPa) = 60.38487 149.73027 42.12435
#
# Poissons Ratio (x) = -0.22629 0.12470
# Poissons Ratio (y) = -0.09126 0.22238
# Poissons Ratio (z) = 0.17876 0.79044
#
# Static dielectric constant tensor:
#      x y z
#    x 1.778030 0.000000 0.000000 
#    y 0.000000 1.794390 0.000000 
#    z 0.000000 0.000000 1.789880 
# 
# From -- ./inp_files/25221.got.cif
#   From: 2010.05.17/outbox.cif.g08.bks.cpg/sg54_13_cif.got.tgz:25221.got - 2010.06.03 13:09:01.
