data_PCOD9423190
_publ_section_title
;
Structure prediction by ZEFSAII (Michael W. Deem and Ramdas Pophale) SiO2 
 PCOD9423190
Probable space group: P C C A
;
_chemical_formula_sum "Si O2"
_cell_formula_units_Z 40
_cell_length_a 11.775541
_cell_length_b 5.985625
_cell_length_c 25.639028
_cell_angle_alpha 90.000000
_cell_angle_beta 90.000000
_cell_angle_gamma 90.000000
_cell_volume 1807.140547
_symmetry_space_group_name_H-M "P C C A"
_symmetry_group_IT_number 54
_symmetry_cell_setting 'orthorhombic'
loop_
_space_group_symop_operation_xyz
x,y,z
1/2-x,-y,z
1/2+x,-y,1/2-z
-x,y,1/2-z
-x,-y,-z
1/2+x,y,-z
1/2-x,y,1/2+z
x,-y,1/2+z
loop_
_atom_site_type_symbol
_atom_site_label
_atom_site_fract_x
_atom_site_fract_y
_atom_site_fract_z
Si Si1 0.946516 0.813550 0.302655
Si Si2 0.250000 0.000000 0.440933
Si Si3 0.864981 0.126701 0.395129
Si Si4 0.360172 0.620007 0.869223
Si Si5 0.250000 0.500000 0.669975
Si Si6 0.552000 0.311965 0.538141
O O1 0.830971 0.667796 0.297769
O O2 0.000000 0.911367 0.250000
O O3 0.046844 0.664490 0.326087
O O4 0.920826 0.990839 0.347726
O O5 0.323012 0.160829 0.402379
O O6 0.163782 0.160912 0.473099
O O7 0.829382 0.359954 0.369185
O O8 0.949901 0.154701 0.442909
O O9 0.750000 0.000000 0.409907
O O10 0.250000 0.500000 0.846176
O O11 0.409896 0.449978 0.911298
O O12 0.500000 0.500000 0.500000
#
# Coordination Sequence:
#
# PCOD9423190 Si02
#       6
#     8   4   8   8   4   8
#     4  11  23  41  68 101 138 182 224 277 337 404
#     4  10  22  46  68  96 140 172 226 284 348 406
#     4  10  22  45  67  97 139 179 228 283 342 410
#     4  10  22  43  65  98 136 175 222 279 332 399
#     4  10  22  44  64  98 138 176 232 276 340 406
#     4  11  23  45  71  99 133 179 233 282 349 417
#
# _framework density 22.134416999999999
#
# number of rings (size 3 to 8) (size 9 to 14) (size 15 to 20)
#    0.000    1.600    4.000    0.000    1.400    1.600 
#   12.600    0.000    0.000    0.000    0.000    0.000 
#    0.000    0.000    0.000    0.000    0.000    0.000 
#
# Total GULP energy -223499.175215 kJ/mol
# GULP energy per Si atom -5587.479380 kJ/mol
# Density = 2.208404 g / cm^3
# Si number density = 22.134417 Si / 1000 Ang^3
#
#
#
# Elastic Constant Matrix: (Units=GPa)
#
#
# Indices 1 2 3 4 5 6 
#
# 1 136.0687 30.5374 45.2041 0.0000 0.0000 0.0000
# 2 30.5374 59.3756 15.5988 0.0000 0.0000 0.0000
# 3 45.2041 15.5988 72.8752 0.0000 0.0000 0.0000
# 4 0.0000 0.0000 0.0000 6.9531 0.0000 0.0000
# 5 0.0000 0.0000 0.0000 0.0000 18.4638 0.0000
# 6 0.0000 0.0000 0.0000 0.0000 0.0000 45.0336
#
#
#
# Elastic Compliance Matrix: (Units=1/GPa)
#
#
# Indices 1 2 3 4 5 6 
#
# 1 0.009974 -0.003713 -0.005392 0.000000 0.000000 0.000000
# 2 -0.003713 0.019228 -0.001812 0.000000 0.000000 0.000000
# 3 -0.005392 -0.001812 0.017455 0.000000 0.000000 0.000000
# 4 0.000000 0.000000 0.000000 0.143820 0.000000 0.000000
# 5 0.000000 0.000000 0.000000 0.000000 0.054160 0.000000
# 6 0.000000 0.000000 0.000000 0.000000 0.000000 0.022206
#
#
# Mechanical properties :
#
#
# Convention : Reuss Voigt Hill
#
# Bulk Modulus (GPa) = 40.28805 50.11113 45.19959
# Shear Modulus (GPa) = 16.83780 25.88872 21.36326
#
# Velocity S-wave (km/s) = 2.76108 3.42367 3.11007
# Velocity P-wave (km/s) = 5.32971 6.19010 5.77595
#
# Compressibility (1/GPa) = 0.02482126
#
# Stress axis : x y z
#
# Youngs Moduli (GPa) = 100.26245 52.00816 57.29136
#
# Poissons Ratio (x) = 0.19311 0.30891
# Poissons Ratio (y) = 0.37228 0.10384
# Poissons Ratio (z) = 0.54061 0.09426
#
# Static dielectric constant tensor:
#      x y z
#    x 1.880370 0.000000 0.000000 
#    y 0.000000 2.068660 0.000000 
#    z 0.000000 0.000000 1.780560 
# 
# From -- ./inp_files/26118.got.cif
#   From: 2010.05.17/outbox.cif.g08.bks.cpg/sg54_14_cif.got.tgz:26118.got - 2010.06.03 13:09:01.
