data_PCOD9423374
_publ_section_title
;
Structure prediction by ZEFSAII (Michael W. Deem and Ramdas Pophale) SiO2 
 PCOD9423374
Probable space group: P C C A
;
_chemical_formula_sum "Si O2"
_cell_formula_units_Z 32
_cell_length_a 10.971886
_cell_length_b 8.659483
_cell_length_c 16.241081
_cell_angle_alpha 90.000000
_cell_angle_beta 90.000000
_cell_angle_gamma 90.000000
_cell_volume 1543.079078
_symmetry_space_group_name_H-M "P C C A"
_symmetry_group_IT_number 54
_symmetry_cell_setting 'orthorhombic'
loop_
_space_group_symop_operation_xyz
x,y,z
1/2-x,-y,z
1/2+x,-y,1/2-z
-x,y,1/2-z
-x,-y,-z
1/2+x,y,-z
1/2-x,y,1/2+z
x,-y,1/2+z
loop_
_atom_site_type_symbol
_atom_site_label
_atom_site_fract_x
_atom_site_fract_y
_atom_site_fract_z
Si Si1 0.373337 0.563900 0.967113
Si Si2 0.876697 0.908833 0.975351
Si Si3 0.373633 0.907426 0.221576
Si Si4 0.128583 0.562998 0.782878
O O1 0.250000 0.500000 0.009697
O O2 0.369058 0.497333 0.875353
O O3 0.500000 0.500000 0.000000
O O4 0.373087 0.747694 0.976142
O O5 0.880849 0.877576 0.876695
O O6 0.750000 0.000000 0.991566
O O7 0.000000 0.000000 0.000000
O O8 0.500000 0.987218 0.250000
O O9 0.368983 0.747015 0.271571
O O10 0.250000 0.000000 0.237843
O O11 0.250000 0.500000 0.739605
O O12 0.000000 0.505760 0.750000
#
# Coordination Sequence:
#
# PCOD9423374 Si02
#       4
#     8   8   8   8
#     4  11  23  41  66  94 128 170 216 266 318 380
#     4  11  25  43  66  97 132 171 214 265 325 385
#     4  10  23  42  65  94 127 164 210 263 319 384
#     4  10  23  40  61  93 126 163 212 262 316 377
#
# _framework density 20.737759
#
# number of rings (size 3 to 8) (size 9 to 14) (size 15 to 20)
#    0.000    1.500    0.000    4.500    0.000   18.000 
#    0.000    0.000    0.000    0.000    0.000    0.000 
#    0.000    0.000    0.000    0.000    0.000    0.000 
#
# Total GULP energy -178658.304142 kJ/mol
# GULP energy per Si atom -5583.072004 kJ/mol
# Density = 2.069056 g / cm^3
# Si number density = 20.737759 Si / 1000 Ang^3
#
#
#
# Elastic Constant Matrix: (Units=GPa)
#
#
# Indices 1 2 3 4 5 6 
#
# 1 249.3596 79.1710 55.2566 0.0000 0.0000 0.0000
# 2 79.1710 137.3636 56.3324 0.0000 0.0000 0.0000
# 3 55.2566 56.3324 96.3272 0.0000 0.0000 0.0000
# 4 0.0000 0.0000 0.0000 17.7336 0.0000 0.0000
# 5 0.0000 0.0000 0.0000 0.0000 33.5118 0.0000
# 6 0.0000 0.0000 0.0000 0.0000 0.0000 43.9483
#
#
#
# Elastic Compliance Matrix: (Units=1/GPa)
#
#
# Indices 1 2 3 4 5 6 
#
# 1 0.005086 -0.002282 -0.001583 0.000000 0.000000 0.000000
# 2 -0.002282 0.010601 -0.004890 0.000000 0.000000 0.000000
# 3 -0.001583 -0.004890 0.014149 0.000000 0.000000 0.000000
# 4 0.000000 0.000000 0.000000 0.056390 0.000000 0.000000
# 5 0.000000 0.000000 0.000000 0.000000 0.029840 0.000000
# 6 0.000000 0.000000 0.000000 0.000000 0.000000 0.022754
#
#
# Mechanical properties :
#
#
# Convention : Reuss Voigt Hill
#
# Bulk Modulus (GPa) = 81.13425 96.06338 88.59881
# Shear Modulus (GPa) = 31.16470 38.52476 34.84473
#
# Velocity S-wave (km/s) = 3.88080 4.31479 4.10354
# Velocity P-wave (km/s) = 7.69998 8.44078 8.07887
#
# Compressibility (1/GPa) = 0.01232525
#
# Stress axis : x y z
#
# Youngs Moduli (GPa) = 196.63628 94.33333 70.67639
#
# Poissons Ratio (x) = 0.21527 0.11186
# Poissons Ratio (y) = 0.44873 0.34563
# Poissons Ratio (z) = 0.31121 0.46131
#
# Static dielectric constant tensor:
#      x y z
#    x 1.853600 0.000000 0.000000 
#    y 0.000000 1.721060 0.000000 
#    z 0.000000 0.000000 1.740850 
# 
# From -- ./inp_files/12190.got.cif
#   From: 2010.05.17/outbox.cif.g08.bks.cpg/sg54_7_cif.got.tgz:12190.got - 2010.06.03 13:09:01.
