data_PCOD9423804
_publ_section_title
;
Structure prediction by ZEFSAII (Michael W. Deem and Ramdas Pophale) SiO2 
 PCOD9423804
Probable space group: P C C A
;
_chemical_formula_sum "Si O2"
_cell_formula_units_Z 60
_cell_length_a 27.544133
_cell_length_b 11.502434
_cell_length_c 8.016447
_cell_angle_alpha 90.000000
_cell_angle_beta 90.000000
_cell_angle_gamma 90.000000
_cell_volume 2539.807389
_symmetry_space_group_name_H-M "P C C A"
_symmetry_group_IT_number 54
_symmetry_cell_setting 'orthorhombic'
loop_
_space_group_symop_operation_xyz
x,y,z
1/2-x,-y,z
1/2+x,-y,1/2-z
-x,y,1/2-z
-x,-y,-z
1/2+x,y,-z
1/2-x,y,1/2+z
x,-y,1/2+z
loop_
_atom_site_type_symbol
_atom_site_label
_atom_site_fract_x
_atom_site_fract_y
_atom_site_fract_z
Si Si1 0.000000 0.285098 0.250000
Si Si2 0.206942 0.083898 0.313527
Si Si3 0.958807 0.098199 0.505121
Si Si4 0.837480 0.616788 0.900108
Si Si5 0.349882 0.353988 0.224724
Si Si6 0.242604 0.753952 0.086811
Si Si7 0.398825 0.980334 0.280578
Si Si8 0.403061 0.279201 0.893574
O O1 0.978436 0.207260 0.403393
O O2 0.952823 0.342961 0.166090
O O3 0.221547 0.142753 0.140681
O O4 0.210742 0.193158 0.437815
O O5 0.158084 0.010963 0.305033
O O6 0.250000 0.000000 0.357009
O O7 0.910791 0.055501 0.407603
O O8 0.934919 0.088793 0.686580
O O9 0.000000 0.000000 0.500000
O O10 0.839665 0.483861 0.841750
O O11 0.780893 0.649693 0.928281
O O12 0.863866 0.686754 0.750016
O O13 0.863543 0.639322 0.079399
O O14 0.299495 0.281791 0.215539
O O15 0.386079 0.306018 0.081387
O O16 0.412311 0.859318 0.375868
#
# Coordination Sequence:
#
# PCOD9423804 Si02
#       8
#     4   8   8   8   8   8   8   8
#     4  10  24  46  72  98 146 186 228 312 350 420
#     4  12  27  41  61  95 144 194 231 280 340 419
#     4  11  20  41  66  95 124 176 235 271 344 394
#     4  12  25  44  75 106 137 186 239 301 368 424
#     4  12  25  44  76 105 138 186 240 300 366 434
#     4  12  24  44  64  99 143 186 243 284 349 422
#     4  11  24  40  64  93 140 181 221 295 335 407
#     4  11  23  48  68 102 144 177 232 297 366 423
#
# _framework density 23.623840000000001
#
# number of rings (size 3 to 8) (size 9 to 14) (size 15 to 20)
#    0.000    0.533    8.000    0.800    3.733    1.067 
#    4.800    1.333    0.000    0.000    0.000    0.000 
#    0.000    0.000    0.000    0.000    0.000    0.000 
#
# Total GULP energy -334662.972355 kJ/mol
# GULP energy per Si atom -5577.716206 kJ/mol
# Density = 2.357007 g / cm^3
# Si number density = 23.623840 Si / 1000 Ang^3
#
#
#
# Elastic Constant Matrix: (Units=GPa)
#
#
# Indices 1 2 3 4 5 6 
#
# 1 132.4624 7.6184 23.0512 0.0000 0.0000 0.0000
# 2 7.6184 55.3466 8.8163 0.0000 0.0000 0.0000
# 3 23.0512 8.8163 90.8253 0.0000 0.0000 0.0000
# 4 0.0000 0.0000 0.0000 32.1490 0.0000 0.0000
# 5 0.0000 0.0000 0.0000 0.0000 36.8755 0.0000
# 6 0.0000 0.0000 0.0000 0.0000 0.0000 53.3091
#
#
#
# Elastic Compliance Matrix: (Units=1/GPa)
#
#
# Indices 1 2 3 4 5 6 
#
# 1 0.007931 -0.000783 -0.001937 0.000000 0.000000 0.000000
# 2 -0.000783 0.018429 -0.001590 0.000000 0.000000 0.000000
# 3 -0.001937 -0.001590 0.011656 0.000000 0.000000 0.000000
# 4 0.000000 0.000000 0.000000 0.031105 0.000000 0.000000
# 5 0.000000 0.000000 0.000000 0.000000 0.027118 0.000000
# 6 0.000000 0.000000 0.000000 0.000000 0.000000 0.018759
#
#
# Mechanical properties :
#
#
# Convention : Reuss Voigt Hill
#
# Bulk Modulus (GPa) = 34.01816 39.73399 36.87608
# Shear Modulus (GPa) = 37.47627 40.40995 38.94311
#
# Velocity S-wave (km/s) = 3.98725 4.14038 4.06454
# Velocity P-wave (km/s) = 5.96898 6.30182 6.13766
#
# Compressibility (1/GPa) = 0.02939606
#
# Stress axis : x y z
#
# Youngs Moduli (GPa) = 126.08071 54.26211 85.79212
#
# Poissons Ratio (x) = 0.04250 0.16617
# Poissons Ratio (y) = 0.09875 0.13642
# Poissons Ratio (z) = 0.24421 0.08628
#
# Static dielectric constant tensor:
#      x y z
#    x 1.927340 0.000000 0.000000 
#    y 0.000000 2.026450 0.000000 
#    z 0.000000 0.000000 2.052130 
# 
# From -- ./inp_files/5941.got.cif
#   From: 2010.05.17/outbox.cif.g08.bks.cpg/sg54_3_cif.got.tgz:5941.got - 2010.06.03 13:09:01.
