data_PCOD9423542
_publ_section_title
;
Structure prediction by ZEFSAII (Michael W. Deem and Ramdas Pophale) SiO2 
 PCOD9423542
Probable space group: P C C A
;
_chemical_formula_sum "Si O2"
_cell_formula_units_Z 60
_cell_length_a 10.904939
_cell_length_b 11.723447
_cell_length_c 22.617981
_cell_angle_alpha 90.000000
_cell_angle_beta 90.000000
_cell_angle_gamma 90.000000
_cell_volume 2891.561275
_symmetry_space_group_name_H-M "P C C A"
_symmetry_group_IT_number 54
_symmetry_cell_setting 'orthorhombic'
loop_
_space_group_symop_operation_xyz
x,y,z
1/2-x,-y,z
1/2+x,-y,1/2-z
-x,y,1/2-z
-x,-y,-z
1/2+x,y,-z
1/2-x,y,1/2+z
x,-y,1/2+z
loop_
_atom_site_type_symbol
_atom_site_label
_atom_site_fract_x
_atom_site_fract_y
_atom_site_fract_z
Si Si1 0.368511 0.757317 0.409232
Si Si2 0.671423 0.119695 0.158218
Si Si3 0.624104 0.428223 0.487927
Si Si4 0.621207 0.571619 0.849954
Si Si5 0.503933 0.012605 0.569864
Si Si6 0.750000 0.000000 0.870520
Si Si7 0.682834 0.212673 0.290403
Si Si8 0.054376 0.334499 0.186464
O O1 0.243071 0.776142 0.373725
O O2 0.367251 0.673924 0.465023
O O3 0.401668 0.884313 0.426404
O O4 0.477192 0.724533 0.364691
O O5 0.653063 0.166868 0.224835
O O6 0.750000 0.000000 0.165445
O O7 0.560707 0.083132 0.114204
O O8 0.750000 0.500000 0.494460
O O9 0.500000 0.500000 0.500000
O O10 0.616644 0.394618 0.418879
O O11 0.750000 0.500000 0.842791
O O12 0.596388 0.685070 0.812644
O O13 0.536134 0.467868 0.829698
O O14 0.500000 0.000000 0.500000
O O15 0.366282 0.040404 0.591338
O O16 0.803179 0.101006 0.830337
O O17 0.811631 0.279097 0.304581
O O18 0.000000 0.312866 0.250000
#
# Coordination Sequence:
#
# PCOD9423542 Si02
#       8
#     8   8   8   8   8   4   8   8
#     4  11  23  44  73  97 140 189 231 293 363 427
#     4  10  23  45  68 101 139 181 233 294 354 436
#     4  11  24  45  72 102 140 186 247 297 359 443
#     4   9  22  41  65 100 135 180 236 295 350 427
#     4  11  28  46  70 104 142 184 238 290 361 436
#     4  12  26  44  72 104 136 186 234 292 364 432
#     4  11  22  42  69 100 138 180 238 297 355 425
#     4  11  20  41  69  99 136 189 231 281 365 432
#
# _framework density 20.750035
#
# number of rings (size 3 to 8) (size 9 to 14) (size 15 to 20)
#    0.000    1.333    4.667    0.000    4.667    1.600 
#    4.800    0.000    0.000    0.000    0.000    0.000 
#    0.000    0.000    0.000    0.000    0.000    0.000 
#
# Total GULP energy -334172.374520 kJ/mol
# GULP energy per Si atom -5569.539575 kJ/mol
# Density = 2.070281 g / cm^3
# Si number density = 20.750035 Si / 1000 Ang^3
#
#
#
# Elastic Constant Matrix: (Units=GPa)
#
#
# Indices 1 2 3 4 5 6 
#
# 1 71.1572 5.7708 69.7299 0.0000 0.0000 0.0000
# 2 5.7708 94.7308 73.3159 0.0000 0.0000 0.0000
# 3 69.7299 73.3159 335.0531 0.0000 0.0000 0.0000
# 4 0.0000 0.0000 0.0000 80.7233 0.0000 0.0000
# 5 0.0000 0.0000 0.0000 0.0000 42.2151 0.0000
# 6 0.0000 0.0000 0.0000 0.0000 0.0000 19.5452
#
#
#
# Elastic Compliance Matrix: (Units=1/GPa)
#
#
# Indices 1 2 3 4 5 6 
#
# 1 0.018018 0.002172 -0.004225 0.000000 0.000000 0.000000
# 2 0.002172 0.012970 -0.003290 0.000000 0.000000 0.000000
# 3 -0.004225 -0.003290 0.004584 0.000000 0.000000 0.000000
# 4 0.000000 0.000000 0.000000 0.012388 0.000000 0.000000
# 5 0.000000 0.000000 0.000000 0.000000 0.023688 0.000000
# 6 0.000000 0.000000 0.000000 0.000000 0.000000 0.051163
#
#
# Mechanical properties :
#
#
# Convention : Reuss Voigt Hill
#
# Bulk Modulus (GPa) = 40.18352 88.73047 64.45699
# Shear Modulus (GPa) = 35.26276 51.97170 43.61723
#
# Velocity S-wave (km/s) = 4.12686 5.01008 4.58977
# Velocity P-wave (km/s) = 6.48965 8.73627 7.69538
#
# Compressibility (1/GPa) = 0.02488583
#
# Stress axis : x y z
#
# Youngs Moduli (GPa) = 55.50140 77.09891 218.15574
#
# Poissons Ratio (x) = -0.16749 0.92173
# Poissons Ratio (y) = -0.12057 0.71779
# Poissons Ratio (z) = 0.23450 0.25368
#
# Static dielectric constant tensor:
#      x y z
#    x 2.030460 0.000000 0.000000 
#    y 0.000000 1.704210 0.000000 
#    z 0.000000 0.000000 1.838980 
# 
# From -- ./inp_files/21244.got.cif
#   From: 2010.05.17/outbox.cif.g08.bks.cpg/sg54_11_cif.got.tgz:21244.got - 2010.06.03 13:09:01.
