data_PCOD9423514
_publ_section_title
;
Structure prediction by ZEFSAII (Michael W. Deem and Ramdas Pophale) SiO2 
 PCOD9423514
Probable space group: P C C A
;
_chemical_formula_sum "Si O2"
_cell_formula_units_Z 36
_cell_length_a 7.386538
_cell_length_b 9.237312
_cell_length_c 21.232752
_cell_angle_alpha 90.000000
_cell_angle_beta 90.000000
_cell_angle_gamma 90.000000
_cell_volume 1448.747956
_symmetry_space_group_name_H-M "P C C A"
_symmetry_group_IT_number 54
_symmetry_cell_setting 'orthorhombic'
loop_
_space_group_symop_operation_xyz
x,y,z
1/2-x,-y,z
1/2+x,-y,1/2-z
-x,y,1/2-z
-x,-y,-z
1/2+x,y,-z
1/2-x,y,1/2+z
x,-y,1/2+z
loop_
_atom_site_type_symbol
_atom_site_label
_atom_site_fract_x
_atom_site_fract_y
_atom_site_fract_z
Si Si1 0.988707 0.105656 0.113995
Si Si2 0.000000 0.175177 0.250000
Si Si3 0.882502 0.618322 0.539414
Si Si4 0.601560 0.818389 0.918121
Si Si5 0.846791 0.356855 0.800695
O O1 0.200575 0.131560 0.102773
O O2 0.954935 0.083129 0.187771
O O3 0.915589 0.261612 0.092772
O O4 0.961793 0.952985 0.077240
O O5 0.819891 0.266260 0.269396
O O6 0.750000 0.500000 0.568811
O O7 0.857080 0.730359 0.481223
O O8 0.000000 0.500000 0.500000
O O9 0.552133 0.719872 0.858788
O O10 0.750000 0.500000 0.827010
O O11 0.000000 0.392096 0.750000
#
# Coordination Sequence:
#
# PCOD9423514 Si02
#       5
#     8   4   8   8   8
#     4  10  23  45  71  97 143 185 234 296 357 435
#     4  10  24  44  68 106 140 182 240 294 364 436
#     4  12  24  42  70 101 136 178 235 285 352 426
#     4  10  23  44  68  98 141 185 232 288 369 421
#     4  11  23  41  69 100 141 186 236 295 360 429
#
# _framework density 24.849045
#
# number of rings (size 3 to 8) (size 9 to 14) (size 15 to 20)
#    0.000    1.333    3.333    1.333    4.667    2.667 
#    0.000    2.222    0.000    0.000    0.000    0.000 
#    0.000    0.000    0.000    0.000    0.000    0.000 
#
# Total GULP energy -200464.972484 kJ/mol
# GULP energy per Si atom -5568.471458 kJ/mol
# Density = 2.479249 g / cm^3
# Si number density = 24.849045 Si / 1000 Ang^3
#
#
#
# Elastic Constant Matrix: (Units=GPa)
#
#
# Indices 1 2 3 4 5 6 
#
# 1 53.3263 47.5627 4.9017 0.0000 0.0000 0.0000
# 2 47.5627 179.8382 55.4754 0.0000 0.0000 0.0000
# 3 4.9017 55.4754 112.3278 0.0000 0.0000 0.0000
# 4 0.0000 0.0000 0.0000 51.7452 0.0000 0.0000
# 5 0.0000 0.0000 0.0000 0.0000 18.5834 0.0000
# 6 0.0000 0.0000 0.0000 0.0000 0.0000 48.5727
#
#
#
# Elastic Compliance Matrix: (Units=1/GPa)
#
#
# Indices 1 2 3 4 5 6 
#
# 1 0.025161 -0.007451 0.002582 0.000000 0.000000 0.000000
# 2 -0.007451 0.008766 -0.004004 0.000000 0.000000 0.000000
# 3 0.002582 -0.004004 0.010767 0.000000 0.000000 0.000000
# 4 0.000000 0.000000 0.000000 0.019325 0.000000 0.000000
# 5 0.000000 0.000000 0.000000 0.000000 0.053812 0.000000
# 6 0.000000 0.000000 0.000000 0.000000 0.000000 0.020588
#
#
# Mechanical properties :
#
#
# Convention : Reuss Voigt Hill
#
# Bulk Modulus (GPa) = 37.10873 62.37466 49.74169
# Shear Modulus (GPa) = 30.27581 39.61708 34.94645
#
# Velocity S-wave (km/s) = 3.49433 3.99721 3.75420
# Velocity P-wave (km/s) = 5.58986 6.81612 6.23322
#
# Compressibility (1/GPa) = 0.02694784
#
# Stress axis : x y z
#
# Youngs Moduli (GPa) = 39.74461 114.07293 92.87244
#
# Poissons Ratio (x) = 0.84993 -0.23978
# Poissons Ratio (y) = 0.29613 0.37189
# Poissons Ratio (z) = -0.10261 0.45678
#
# Static dielectric constant tensor:
#      x y z
#    x 2.121950 0.000000 0.000000 
#    y 0.000000 2.096120 0.000000 
#    z 0.000000 0.000000 1.915920 
# 
# From -- ./inp_files/20136.got.cif
#   From: 2010.05.17/outbox.cif.g08.bks.cpg/sg54_11_cif.got.tgz:20136.got - 2010.06.03 13:09:01.
