data_PCOD9423730
_publ_section_title
;
Structure prediction by ZEFSAII (Michael W. Deem and Ramdas Pophale) SiO2 
 PCOD9423730
Probable space group: P C C A
;
_chemical_formula_sum "Si O2"
_cell_formula_units_Z 40
_cell_length_a 8.206074
_cell_length_b 8.889740
_cell_length_c 23.163822
_cell_angle_alpha 90.000000
_cell_angle_beta 90.000000
_cell_angle_gamma 90.000000
_cell_volume 1689.797671
_symmetry_space_group_name_H-M "P C C A"
_symmetry_group_IT_number 54
_symmetry_cell_setting 'orthorhombic'
loop_
_space_group_symop_operation_xyz
x,y,z
1/2-x,-y,z
1/2+x,-y,1/2-z
-x,y,1/2-z
-x,-y,-z
1/2+x,y,-z
1/2-x,y,1/2+z
x,-y,1/2+z
loop_
_atom_site_type_symbol
_atom_site_label
_atom_site_fract_x
_atom_site_fract_y
_atom_site_fract_z
Si Si1 0.886071 0.387767 0.796632
Si Si2 0.911460 0.596573 0.096943
Si Si3 0.722015 0.822402 0.014959
Si Si4 0.646559 0.853169 0.294592
Si Si5 0.412184 0.709146 0.081140
O O1 0.750000 0.500000 0.819931
O O2 0.783096 0.256672 0.767247
O O3 0.000000 0.467623 0.750000
O O4 0.000163 0.333505 0.847864
O O5 0.750000 0.500000 0.114405
O O6 0.847091 0.722961 0.053659
O O7 0.033172 0.464580 0.075189
O O8 0.549494 0.797867 0.045306
O O9 0.750000 0.000000 0.012880
O O10 0.744916 0.750996 0.951338
O O11 0.500000 0.880068 0.250000
O O12 0.587890 0.771130 0.353509
O O13 0.750000 0.000000 0.310221
#
# Coordination Sequence:
#
# PCOD9423730 Si02
#       5
#     8   8   8   8   8
#     4  12  25  43  75 102 145 190 252 304 376 441
#     4  10  24  44  69 108 144 195 249 312 371 446
#     4  11  25  42  73 103 146 192 247 302 378 440
#     4  12  29  50  73 109 148 194 247 308 382 453
#     4  11  25  46  70 105 148 192 250 305 370 456
#
# _framework density 23.671474
#
# number of rings (size 3 to 8) (size 9 to 14) (size 15 to 20)
#    0.000    0.800    2.000    3.600   11.200    0.800 
#    0.000    0.000    0.000    0.000    0.000    0.000 
#    0.000    0.000    0.000    0.000    0.000    0.000 
#
# Total GULP energy -223725.638263 kJ/mol
# GULP energy per Si atom -5593.140957 kJ/mol
# Density = 2.361760 g / cm^3
# Si number density = 23.671474 Si / 1000 Ang^3
#
#
#
# Elastic Constant Matrix: (Units=GPa)
#
#
# Indices 1 2 3 4 5 6 
#
# 1 103.9709 44.8358 59.5919 0.0000 0.0000 0.0000
# 2 44.8358 123.9613 13.2761 0.0000 0.0000 0.0000
# 3 59.5919 13.2761 124.9022 0.0000 0.0000 0.0000
# 4 0.0000 0.0000 0.0000 23.4500 0.0000 0.0000
# 5 0.0000 0.0000 0.0000 0.0000 48.2294 0.0000
# 6 0.0000 0.0000 0.0000 0.0000 0.0000 34.2103
#
#
#
# Elastic Compliance Matrix: (Units=1/GPa)
#
#
# Indices 1 2 3 4 5 6 
#
# 1 0.015762 -0.004952 -0.006994 0.000000 0.000000 0.000000
# 2 -0.004952 0.009716 0.001330 0.000000 0.000000 0.000000
# 3 -0.006994 0.001330 0.011202 0.000000 0.000000 0.000000
# 4 0.000000 0.000000 0.000000 0.042644 0.000000 0.000000
# 5 0.000000 0.000000 0.000000 0.000000 0.020734 0.000000
# 6 0.000000 0.000000 0.000000 0.000000 0.000000 0.029231
#
#
# Mechanical properties :
#
#
# Convention : Reuss Voigt Hill
#
# Bulk Modulus (GPa) = 64.73463 65.36022 65.04743
# Shear Modulus (GPa) = 32.11925 36.85331 34.48628
#
# Velocity S-wave (km/s) = 3.68758 3.94999 3.82104
# Velocity P-wave (km/s) = 6.74814 6.96237 6.85609
#
# Compressibility (1/GPa) = 0.01544768
#
# Stress axis : x y z
#
# Youngs Moduli (GPa) = 63.44305 102.92616 89.27174
#
# Poissons Ratio (x) = 0.50969 0.62436
# Poissons Ratio (y) = 0.31417 -0.11873
# Poissons Ratio (z) = 0.44371 -0.13689
#
# Static dielectric constant tensor:
#      x y z
#    x 1.965040 0.000000 0.000000 
#    y 0.000000 1.916790 0.000000 
#    z 0.000000 0.000000 1.865180 
# 
# From -- ./inp_files/23237.got.cif
#   From: 2010.05.17/outbox.cif.g08.bks.cpg/sg54_12_cif.got.tgz:23237.got - 2010.06.03 13:09:01.
