data_PCOD9423290
_publ_section_title
;
Structure prediction by ZEFSAII (Michael W. Deem and Ramdas Pophale) SiO2 
 PCOD9423290
Probable space group: P C C A
;
_chemical_formula_sum "Si O2"
_cell_formula_units_Z 60
_cell_length_a 25.411631
_cell_length_b 9.456343
_cell_length_c 11.389365
_cell_angle_alpha 90.000000
_cell_angle_beta 90.000000
_cell_angle_gamma 90.000000
_cell_volume 2736.876926
_symmetry_space_group_name_H-M "P C C A"
_symmetry_group_IT_number 54
_symmetry_cell_setting 'orthorhombic'
loop_
_space_group_symop_operation_xyz
x,y,z
1/2-x,-y,z
1/2+x,-y,1/2-z
-x,y,1/2-z
-x,-y,-z
1/2+x,y,-z
1/2-x,y,1/2+z
x,-y,1/2+z
loop_
_atom_site_type_symbol
_atom_site_label
_atom_site_fract_x
_atom_site_fract_y
_atom_site_fract_z
Si Si1 0.555873 0.050504 0.050985
Si Si2 0.401719 0.328238 0.571276
Si Si3 0.277529 0.146604 0.210921
Si Si4 0.500000 0.825140 0.750000
Si Si5 0.852676 0.825172 0.505434
Si Si6 0.426922 0.621436 0.634680
Si Si7 0.316808 0.321508 0.763960
Si Si8 0.843956 0.372568 0.661789
O O1 0.544883 0.083270 0.188034
O O2 0.603474 0.941473 0.035876
O O3 0.571176 0.191353 0.980854
O O4 0.500000 0.000000 0.000000
O O5 0.438763 0.462878 0.595343
O O6 0.370024 0.299919 0.690258
O O7 0.359234 0.375452 0.473458
O O8 0.231345 0.260451 0.189328
O O9 0.314077 0.227686 0.305488
O O10 0.250000 0.000000 0.246365
O O11 0.313226 0.123142 0.096097
O O12 0.475871 0.723985 0.650994
O O13 0.885294 0.692799 0.452866
O O14 0.821291 0.770509 0.618030
O O15 0.397272 0.620823 0.760538
O O16 0.313215 0.486541 0.798153
#
# Coordination Sequence:
#
# PCOD9423290 Si02
#       8
#     8   8   8   4   8   8   8   8
#     4  12  27  45  71 103 146 194 234 300 368 439
#     4  11  24  45  73 102 140 186 241 301 365 424
#     4  11  26  44  71 104 138 184 238 291 362 437
#     4  12  24  44  72 100 144 192 246 288 378 428
#     4  11  25  46  70 105 150 182 241 305 359 435
#     4  10  22  46  70 100 138 185 240 304 355 423
#     4  11  25  44  72 103 138 191 237 293 361 435
#     4  10  22  45  69 101 140 182 233 301 361 420
#
# _framework density 21.922798
#
# number of rings (size 3 to 8) (size 9 to 14) (size 15 to 20)
#    0.000    1.067    4.000    1.200    5.600    1.067 
#    4.800    0.000    0.000    0.000    0.000    0.000 
#    0.000    0.000    0.000    0.000    0.000    0.000 
#
# Total GULP energy -335521.796200 kJ/mol
# GULP energy per Si atom -5592.029937 kJ/mol
# Density = 2.187290 g / cm^3
# Si number density = 21.922798 Si / 1000 Ang^3
#
#
#
# Elastic Constant Matrix: (Units=GPa)
#
#
# Indices 1 2 3 4 5 6 
#
# 1 68.2480 28.7422 9.7725 0.0000 0.0000 0.0000
# 2 28.7422 107.4039 24.5443 0.0000 0.0000 0.0000
# 3 9.7725 24.5443 65.3769 0.0000 0.0000 0.0000
# 4 0.0000 0.0000 0.0000 18.0250 0.0000 0.0000
# 5 0.0000 0.0000 0.0000 0.0000 19.4248 0.0000
# 6 0.0000 0.0000 0.0000 0.0000 0.0000 46.0316
#
#
#
# Elastic Compliance Matrix: (Units=1/GPa)
#
#
# Indices 1 2 3 4 5 6 
#
# 1 0.016561 -0.004229 -0.000888 0.000000 0.000000 0.000000
# 2 -0.004229 0.011264 -0.003597 0.000000 0.000000 0.000000
# 3 -0.000888 -0.003597 0.016779 0.000000 0.000000 0.000000
# 4 0.000000 0.000000 0.000000 0.055478 0.000000 0.000000
# 5 0.000000 0.000000 0.000000 0.000000 0.051480 0.000000
# 6 0.000000 0.000000 0.000000 0.000000 0.000000 0.021724
#
#
# Mechanical properties :
#
#
# Convention : Reuss Voigt Hill
#
# Bulk Modulus (GPa) = 36.79606 40.79409 38.79507
# Shear Modulus (GPa) = 25.02844 28.56095 26.79469
#
# Velocity S-wave (km/s) = 3.38252 3.61334 3.49983
# Velocity P-wave (km/s) = 5.66357 6.00473 5.83664
#
# Compressibility (1/GPa) = 0.02717683
#
# Stress axis : x y z
#
# Youngs Moduli (GPa) = 60.38453 88.77627 59.59842
#
# Poissons Ratio (x) = 0.37542 0.05291
# Poissons Ratio (y) = 0.25536 0.21436
# Poissons Ratio (z) = 0.05361 0.31931
#
# Static dielectric constant tensor:
#      x y z
#    x 1.811050 0.000000 0.000000 
#    y 0.000000 1.804630 0.000000 
#    z 0.000000 0.000000 1.808410 
# 
# From -- ./inp_files/10356.got.cif
#   From: 2010.05.17/outbox.cif.g08.bks.cpg/sg54_6_cif.got.tgz:10356.got - 2010.06.03 13:09:01.
