data_PCOD9423378
_publ_section_title
;
Structure prediction by ZEFSAII (Michael W. Deem and Ramdas Pophale) SiO2 
 PCOD9423378
Probable space group: P C C A
;
_chemical_formula_sum "Si O2"
_cell_formula_units_Z 40
_cell_length_a 8.476889
_cell_length_b 16.182636
_cell_length_c 12.874483
_cell_angle_alpha 90.000000
_cell_angle_beta 90.000000
_cell_angle_gamma 90.000000
_cell_volume 1766.101096
_symmetry_space_group_name_H-M "P C C A"
_symmetry_group_IT_number 54
_symmetry_cell_setting 'orthorhombic'
loop_
_space_group_symop_operation_xyz
x,y,z
1/2-x,-y,z
1/2+x,-y,1/2-z
-x,y,1/2-z
-x,-y,-z
1/2+x,y,-z
1/2-x,y,1/2+z
x,-y,1/2+z
loop_
_atom_site_type_symbol
_atom_site_label
_atom_site_fract_x
_atom_site_fract_y
_atom_site_fract_z
Si Si1 0.905585 0.834562 0.647811
Si Si2 0.841963 0.388009 0.447373
Si Si3 0.826679 0.080146 0.797027
Si Si4 0.700668 0.199465 0.956557
Si Si5 0.490114 0.454348 0.130736
O O1 0.798662 0.902720 0.704303
O O2 0.778630 0.792938 0.570017
O O3 0.000000 0.797943 0.750000
O O4 0.046068 0.856117 0.567428
O O5 0.860673 0.291404 0.431457
O O6 0.964546 0.447934 0.388080
O O7 0.668204 0.412514 0.412365
O O8 0.868326 0.415780 0.565914
O O9 0.822101 0.159654 0.873688
O O10 0.000000 0.068467 0.750000
O O11 0.750000 0.000000 0.851443
O O12 0.500000 0.436588 0.250000
#
# Coordination Sequence:
#
# PCOD9423378 Si02
#       5
#     8   8   8   8   8
#     4  10  23  40  63  99 133 175 226 276 343 411
#     4  10  23  41  63  96 132 174 237 278 332 420
#     4  11  24  44  68 100 138 178 230 284 345 420
#     4  11  22  41  67  96 135 179 226 290 346 406
#     4  10  23  41  64  94 135 181 223 285 345 397
#
# _framework density 22.648761
#
# number of rings (size 3 to 8) (size 9 to 14) (size 15 to 20)
#    0.000    1.600    0.000    4.200    0.000   13.600 
#    0.000    7.000    0.000    0.000    0.000    0.000 
#    0.000    0.000    0.000    0.000    0.000    0.000 
#
# Total GULP energy -222857.946895 kJ/mol
# GULP energy per Si atom -5571.448672 kJ/mol
# Density = 2.259721 g / cm^3
# Si number density = 22.648761 Si / 1000 Ang^3
#
#
#
# Elastic Constant Matrix: (Units=GPa)
#
#
# Indices 1 2 3 4 5 6 
#
# 1 114.2661 33.9286 72.9503 0.0000 0.0000 0.0000
# 2 33.9286 110.7156 35.7039 0.0000 0.0000 0.0000
# 3 72.9503 35.7039 151.3532 0.0000 0.0000 0.0000
# 4 0.0000 0.0000 0.0000 -25.4778 0.0000 0.0000
# 5 0.0000 0.0000 0.0000 0.0000 47.0860 0.0000
# 6 0.0000 0.0000 0.0000 0.0000 0.0000 -7.4848
#
#
#
# Elastic Compliance Matrix: (Units=1/GPa)
#
#
# Indices 1 2 3 4 5 6 
#
# 1 0.013094 -0.002140 -0.005806 0.000000 0.000000 0.000000
# 2 -0.002140 0.010126 -0.001357 0.000000 0.000000 0.000000
# 3 -0.005806 -0.001357 0.009726 0.000000 0.000000 0.000000
# 4 0.000000 0.000000 0.000000 -0.039250 0.000000 0.000000
# 5 0.000000 0.000000 0.000000 0.000000 0.021238 0.000000
# 6 0.000000 0.000000 0.000000 0.000000 0.000000 -0.133603
#
#
# Mechanical properties :
#
#
# Convention : Reuss Voigt Hill
#
# Bulk Modulus (GPa) = 69.74349 73.50007 71.62178
# Shear Modulus (GPa) = -52.47463 18.40814 -17.03324
#
# Velocity S-wave (km/s) = -4.81863 2.85400 -2.74535
# Velocity P-wave (km/s) = 0.31390 6.58658 4.65212
#
# Compressibility (1/GPa) = 0.01433826
#
# Stress axis : x y z
#
# Youngs Moduli (GPa) = 76.37221 98.75921 102.82049
#
# Poissons Ratio (x) = 0.21136 0.59699
# Poissons Ratio (y) = 0.16345 0.13954
# Poissons Ratio (z) = 0.44343 0.13402
#
# Static dielectric constant tensor:
#      x y z
#    x 1.897810 0.000000 0.000000 
#    y 0.000000 1.910520 0.000000 
#    z 0.000000 0.000000 1.876360 
# 
# From -- ./inp_files/6868.got.cif
#   From: 2010.05.17/outbox.cif.g08.bks.cpg/sg54_4_cif.got.tgz:6868.got - 2010.06.03 13:09:01.
