data_PCOD9423679
_publ_section_title
;
Structure prediction by ZEFSAII (Michael W. Deem and Ramdas Pophale) SiO2 
 PCOD9423679
Probable space group: P C C A
;
_chemical_formula_sum "Si O2"
_cell_formula_units_Z 28
_cell_length_a 26.538930
_cell_length_b 5.020714
_cell_length_c 9.017231
_cell_angle_alpha 90.000000
_cell_angle_beta 90.000000
_cell_angle_gamma 90.000000
_cell_volume 1201.495330
_symmetry_space_group_name_H-M "P C C A"
_symmetry_group_IT_number 54
_symmetry_cell_setting 'orthorhombic'
loop_
_space_group_symop_operation_xyz
x,y,z
1/2-x,-y,z
1/2+x,-y,1/2-z
-x,y,1/2-z
-x,-y,-z
1/2+x,y,-z
1/2-x,y,1/2+z
x,-y,1/2+z
loop_
_atom_site_type_symbol
_atom_site_label
_atom_site_fract_x
_atom_site_fract_y
_atom_site_fract_z
Si Si1 0.588296 0.642623 0.806726
Si Si2 0.200840 0.323318 0.701954
Si Si3 0.250000 0.000000 0.453415
Si Si4 0.945919 0.857967 0.984639
O O1 0.556470 0.396990 0.874177
O O2 0.570388 0.746348 0.645726
O O3 0.586725 0.900349 0.915035
O O4 0.646278 0.548048 0.796175
O O5 0.250000 0.500000 0.696864
O O6 0.210661 0.150822 0.557245
O O7 0.211957 0.160688 0.849581
O O8 0.000000 0.000000 0.000000
#
# Coordination Sequence:
#
# PCOD9423679 Si02
#       4
#     8   8   4   8
#     4  12  28  48  82 111 155 204 254 314 399 457
#     4  11  25  42  72 106 154 193 249 298 374 458
#     4  10  24  42  68 104 156 192 246 302 362 438
#     4  12  28  52  79 115 151 199 264 328 387 456
#
# _framework density 23.304292
#
# number of rings (size 3 to 8) (size 9 to 14) (size 15 to 20)
#    0.000    0.571    0.000    6.000   16.000    2.286 
#    0.000    0.000    0.000    0.000    0.000    0.000 
#    0.000    0.000    0.000    0.000    0.000    0.000 
#
# Total GULP energy -156598.882118 kJ/mol
# GULP energy per Si atom -5592.817219 kJ/mol
# Density = 2.325125 g / cm^3
# Si number density = 23.304292 Si / 1000 Ang^3
#
#
#
# Elastic Constant Matrix: (Units=GPa)
#
#
# Indices 1 2 3 4 5 6 
#
# 1 139.8310 39.5706 62.8027 0.0000 0.0000 0.0000
# 2 39.5706 133.2266 70.2147 0.0000 0.0000 0.0000
# 3 62.8027 70.2147 154.0894 0.0000 0.0000 0.0000
# 4 0.0000 0.0000 0.0000 46.0750 0.0000 0.0000
# 5 0.0000 0.0000 0.0000 0.0000 -143.7061 0.0000
# 6 0.0000 0.0000 0.0000 0.0000 0.0000 36.4561
#
#
#
# Elastic Compliance Matrix: (Units=1/GPa)
#
#
# Indices 1 2 3 4 5 6 
#
# 1 0.008846 -0.000957 -0.003169 0.000000 0.000000 0.000000
# 2 -0.000957 0.009982 -0.004158 0.000000 0.000000 0.000000
# 3 -0.003169 -0.004158 0.009676 0.000000 0.000000 0.000000
# 4 0.000000 0.000000 0.000000 0.021704 0.000000 0.000000
# 5 0.000000 0.000000 0.000000 0.000000 -0.006959 0.000000
# 6 0.000000 0.000000 0.000000 0.000000 0.000000 0.027430
#
#
# Mechanical properties :
#
#
# Convention : Reuss Voigt Hill
#
# Bulk Modulus (GPa) = 83.79012 85.81367 84.80190
# Shear Modulus (GPa) = 54.80850 4.73559 29.77205
#
# Velocity S-wave (km/s) = 4.85486 1.42705 3.57814
# Velocity P-wave (km/s) = 8.21335 6.29431 7.31702
#
# Compressibility (1/GPa) = 0.01193458
#
# Stress axis : x y z
#
# Youngs Moduli (GPa) = 113.04922 100.18126 103.34543
#
# Poissons Ratio (x) = 0.09588 0.32752
# Poissons Ratio (y) = 0.10820 0.42975
# Poissons Ratio (z) = 0.35827 0.41660
#
# Static dielectric constant tensor:
#      x y z
#    x 1.347050 0.000000 0.000000 
#    y 0.000000 1.897680 0.000000 
#    z 0.000000 0.000000 1.834660 
# 
# From -- ./inp_files/5353.got.cif
#   From: 2010.05.17/outbox.cif.g08.bks.cpg/sg54_3_cif.got.tgz:5353.got - 2010.06.03 13:09:01.
