data_PCOD9423997
_publ_section_title
;
Structure prediction by ZEFSAII (Michael W. Deem and Ramdas Pophale) SiO2 
 PCOD9423997
Probable space group: P C C A
;
_chemical_formula_sum "Si O2"
_cell_formula_units_Z 32
_cell_length_a 7.986805
_cell_length_b 9.264830
_cell_length_c 19.828781
_cell_angle_alpha 90.000000
_cell_angle_beta 90.000000
_cell_angle_gamma 90.000000
_cell_volume 1467.258223
_symmetry_space_group_name_H-M "P C C A"
_symmetry_group_IT_number 54
_symmetry_cell_setting 'orthorhombic'
loop_
_space_group_symop_operation_xyz
x,y,z
1/2-x,-y,z
1/2+x,-y,1/2-z
-x,y,1/2-z
-x,-y,-z
1/2+x,y,-z
1/2-x,y,1/2+z
x,-y,1/2+z
loop_
_atom_site_type_symbol
_atom_site_label
_atom_site_fract_x
_atom_site_fract_y
_atom_site_fract_z
Si Si1 0.437300 0.833197 0.866256
Si Si2 0.931679 0.143305 0.177468
Si Si3 0.768953 0.334060 0.367900
Si Si4 0.358530 0.614224 0.979849
O O1 0.264673 0.816123 0.823557
O O2 0.610783 0.759900 0.842754
O O3 0.456764 0.005391 0.871134
O O4 0.402008 0.751466 0.936173
O O5 0.000000 0.093876 0.250000
O O6 0.054986 0.270088 0.155675
O O7 0.750000 0.500000 0.346861
O O8 0.776262 0.335156 0.449920
O O9 0.250000 0.500000 0.936503
O O10 0.500000 0.500000 0.000000
#
# Coordination Sequence:
#
# PCOD9423997 Si02
#       4
#     8   8   8   8
#     4  11  25  44  76  99 141 197 233 296 369 422
#     4  11  28  49  68 100 145 194 253 299 345 432
#     4  11  24  44  73 108 144 186 234 300 366 431
#     4  11  20  41  70 108 148 175 226 297 365 437
#
# _framework density 21.809386
#
# number of rings (size 3 to 8) (size 9 to 14) (size 15 to 20)
#    0.000    1.000    5.000    2.250    7.000    1.000 
#    9.000    0.000    0.000    0.000    0.000    0.000 
#    0.000    0.000    0.000    0.000    0.000    0.000 
#
# Total GULP energy -178425.625702 kJ/mol
# GULP energy per Si atom -5575.800803 kJ/mol
# Density = 2.175975 g / cm^3
# Si number density = 21.809386 Si / 1000 Ang^3
#
#
#
# Elastic Constant Matrix: (Units=GPa)
#
#
# Indices 1 2 3 4 5 6 
#
# 1 142.2075 43.3112 14.9691 0.0000 0.0000 0.0000
# 2 43.3112 123.4642 34.2079 0.0000 0.0000 0.0000
# 3 14.9691 34.2079 45.1505 0.0000 0.0000 0.0000
# 4 0.0000 0.0000 0.0000 -28.4881 0.0000 0.0000
# 5 0.0000 0.0000 0.0000 0.0000 23.8901 0.0000
# 6 0.0000 0.0000 0.0000 0.0000 0.0000 46.6839
#
#
#
# Elastic Compliance Matrix: (Units=1/GPa)
#
#
# Indices 1 2 3 4 5 6 
#
# 1 0.007888 -0.002585 -0.000657 0.000000 0.000000 0.000000
# 2 -0.002585 0.011099 -0.007552 0.000000 0.000000 0.000000
# 3 -0.000657 -0.007552 0.028087 0.000000 0.000000 0.000000
# 4 0.000000 0.000000 0.000000 -0.035102 0.000000 0.000000
# 5 0.000000 0.000000 0.000000 0.000000 0.041858 0.000000
# 6 0.000000 0.000000 0.000000 0.000000 0.000000 0.021421
#
#
# Mechanical properties :
#
#
# Convention : Reuss Voigt Hill
#
# Bulk Modulus (GPa) = 39.23527 55.08874 47.16200
# Shear Modulus (GPa) = 47.46785 22.97278 35.22031
#
# Velocity S-wave (km/s) = 4.67034 3.24905 4.02296
# Velocity P-wave (km/s) = 6.86382 6.27607 6.57651
#
# Compressibility (1/GPa) = 0.02548727
#
# Stress axis : x y z
#
# Youngs Moduli (GPa) = 126.76686 90.09970 35.60319
#
# Poissons Ratio (x) = 0.23294 0.02338
# Poissons Ratio (y) = 0.32774 0.26887
# Poissons Ratio (z) = 0.08323 0.68041
#
# Static dielectric constant tensor:
#      x y z
#    x 1.798160 0.000000 0.000000 
#    y 0.000000 1.783170 0.000000 
#    z 0.000000 0.000000 1.813550 
# 
# From -- ./inp_files/20013.got.cif
#   From: 2010.05.17/outbox.cif.g08.bks.cpg/sg54_11_cif.got.tgz:20013.got - 2010.06.03 13:09:01.
