data_PCOD9423798
_publ_section_title
;
Structure prediction by ZEFSAII (Michael W. Deem and Ramdas Pophale) SiO2 
 PCOD9423798
Probable space group: P C C A
;
_chemical_formula_sum "Si O2"
_cell_formula_units_Z 36
_cell_length_a 5.395237
_cell_length_b 9.753751
_cell_length_c 27.530706
_cell_angle_alpha 90.000000
_cell_angle_beta 90.000000
_cell_angle_gamma 90.000000
_cell_volume 1448.770319
_symmetry_space_group_name_H-M "P C C A"
_symmetry_group_IT_number 54
_symmetry_cell_setting 'orthorhombic'
loop_
_space_group_symop_operation_xyz
x,y,z
1/2-x,-y,z
1/2+x,-y,1/2-z
-x,y,1/2-z
-x,-y,-z
1/2+x,y,-z
1/2-x,y,1/2+z
x,-y,1/2+z
loop_
_atom_site_type_symbol
_atom_site_label
_atom_site_fract_x
_atom_site_fract_y
_atom_site_fract_z
Si Si1 0.832025 0.145319 0.632342
Si Si2 0.471018 0.276605 0.696105
Si Si3 0.839838 0.796951 0.526016
Si Si4 0.750000 0.500000 0.874575
Si Si5 0.750000 0.000000 0.335124
Si Si6 0.750000 0.500000 0.061100
O O1 0.736901 0.258479 0.669253
O O2 0.697098 0.160720 0.581684
O O3 0.114904 0.106257 0.627558
O O4 0.750000 0.000000 0.655385
O O5 0.500000 0.332590 0.750000
O O6 0.315858 0.373900 0.660648
O O7 0.356797 0.122424 0.698754
O O8 0.600069 0.842288 0.495729
O O9 0.818109 0.631830 0.529300
O O10 0.500883 0.528076 0.906853
#
# Coordination Sequence:
#
# PCOD9423798 Si02
#       6
#     8   8   8   4   4   4
#     4  10  24  46  71 104 144 195 243 305 374 447
#     4  11  26  46  74 111 146 198 252 310 379 456
#     4  12  26  43  73 107 144 190 248 306 370 445
#     4  12  26  48  80 104 156 194 244 314 388 436
#     4  10  24  46  78 100 154 196 250 304 378 454
#     4  12  24  48  74 102 146 200 244 306 376 456
#
# _framework density 24.848658
#
# number of rings (size 3 to 8) (size 9 to 14) (size 15 to 20)
#    0.000    0.889    2.222    3.333   10.889    1.778 
#    0.000    0.000    0.000    0.000    0.000    0.000 
#    0.000    0.000    0.000    0.000    0.000    0.000 
#
# Total GULP energy -200890.499703 kJ/mol
# GULP energy per Si atom -5580.291658 kJ/mol
# Density = 2.479210 g / cm^3
# Si number density = 24.848658 Si / 1000 Ang^3
#
#
#
# Elastic Constant Matrix: (Units=GPa)
#
#
# Indices 1 2 3 4 5 6 
#
# 1 130.0861 18.0963 66.5934 0.0000 0.0000 0.0000
# 2 18.0963 86.5885 -15.1298 0.0000 0.0000 0.0000
# 3 66.5934 -15.1298 109.5164 0.0000 0.0000 0.0000
# 4 0.0000 0.0000 0.0000 44.1153 0.0000 0.0000
# 5 0.0000 0.0000 0.0000 0.0000 40.3325 0.0000
# 6 0.0000 0.0000 0.0000 0.0000 0.0000 31.3040
#
#
#
# Elastic Compliance Matrix: (Units=1/GPa)
#
#
# Indices 1 2 3 4 5 6 
#
# 1 0.012380 -0.003999 -0.008080 0.000000 0.000000 0.000000
# 2 -0.003999 0.013126 0.004245 0.000000 0.000000 0.000000
# 3 -0.008080 0.004245 0.014631 0.000000 0.000000 0.000000
# 4 0.000000 0.000000 0.000000 0.022668 0.000000 0.000000
# 5 0.000000 0.000000 0.000000 0.000000 0.024794 0.000000
# 6 0.000000 0.000000 0.000000 0.000000 0.000000 0.031945
#
#
# Mechanical properties :
#
#
# Convention : Reuss Voigt Hill
#
# Bulk Modulus (GPa) = 40.86855 51.70120 46.28488
# Shear Modulus (GPa) = 34.87500 40.25910 37.56705
#
# Velocity S-wave (km/s) = 3.75039 4.02950 3.89245
# Velocity P-wave (km/s) = 5.93604 6.51926 6.23448
#
# Compressibility (1/GPa) = 0.02446869
#
# Stress axis : x y z
#
# Youngs Moduli (GPa) = 80.77507 76.18191 68.34812
#
# Poissons Ratio (x) = 0.30467 0.55228
# Poissons Ratio (y) = 0.32304 -0.29015
# Poissons Ratio (z) = 0.65270 -0.32341
#
# Static dielectric constant tensor:
#      x y z
#    x 2.910640 0.000000 0.000000 
#    y 0.000000 2.001700 0.000000 
#    z 0.000000 0.000000 1.941990 
# 
# From -- ./inp_files/22726.got.cif
#   From: 2010.05.17/outbox.cif.g08.bks.cpg/sg54_12_cif.got.tgz:22726.got - 2010.06.03 13:09:01.
