data_PCOD9423441
_publ_section_title
;
Structure prediction by ZEFSAII (Michael W. Deem and Ramdas Pophale) SiO2 
 PCOD9423441
Probable space group: P C C A
;
_chemical_formula_sum "Si O2"
_cell_formula_units_Z 32
_cell_length_a 7.704768
_cell_length_b 6.705089
_cell_length_c 29.448595
_cell_angle_alpha 90.000000
_cell_angle_beta 90.000000
_cell_angle_gamma 90.000000
_cell_volume 1521.348436
_symmetry_space_group_name_H-M "P C C A"
_symmetry_group_IT_number 54
_symmetry_cell_setting 'orthorhombic'
loop_
_space_group_symop_operation_xyz
x,y,z
1/2-x,-y,z
1/2+x,-y,1/2-z
-x,y,1/2-z
-x,-y,-z
1/2+x,y,-z
1/2-x,y,1/2+z
x,-y,1/2+z
loop_
_atom_site_type_symbol
_atom_site_label
_atom_site_fract_x
_atom_site_fract_y
_atom_site_fract_z
Si Si1 0.487274 0.682881 0.036304
Si Si2 0.585692 0.627111 0.362289
Si Si3 0.500000 0.785811 0.750000
Si Si4 0.250000 0.500000 0.806019
Si Si5 0.750000 0.000000 0.820693
Si Si6 0.250000 0.000000 0.984339
O O1 0.436081 0.591191 0.084276
O O2 0.652706 0.828319 0.044144
O O3 0.500000 0.500000 0.000000
O O4 0.359875 0.852583 0.016604
O O5 0.750000 0.500000 0.344363
O O6 0.405645 0.586345 0.336803
O O7 0.649196 0.848309 0.352763
O O8 0.350655 0.656346 0.774317
O O9 0.397378 0.909254 0.712030
#
# Coordination Sequence:
#
# PCOD9423441 Si02
#       6
#     8   8   4   4   4   4
#     4  11  24  43  71  99 147 192 237 300 364 426
#     4  12  26  47  70 110 145 185 246 298 359 425
#     4  12  24  48  74 106 142 186 240 284 394 424
#     4  12  26  46  76 104 146 186 232 306 354 456
#     4  12  25  46  75 104 140 188 234 309 350 447
#     4  10  23  42  65 104 130 198 240 287 356 439
#
# _framework density 21.033973
#
# number of rings (size 3 to 8) (size 9 to 14) (size 15 to 20)
#    0.000    0.500    2.500    6.000    3.500    4.000 
#    0.000    0.000    0.000    0.000    0.000    0.000 
#    0.000    0.000    0.000    0.000    0.000    0.000 
#
# Total GULP energy -178578.217653 kJ/mol
# GULP energy per Si atom -5580.569302 kJ/mol
# Density = 2.098610 g / cm^3
# Si number density = 21.033973 Si / 1000 Ang^3
#
#
#
# Elastic Constant Matrix: (Units=GPa)
#
#
# Indices 1 2 3 4 5 6 
#
# 1 127.2800 45.5142 29.0156 0.0000 0.0000 0.0000
# 2 45.5142 112.9446 40.7112 0.0000 0.0000 0.0000
# 3 29.0156 40.7112 99.8319 0.0000 0.0000 0.0000
# 4 0.0000 0.0000 0.0000 38.4208 0.0000 0.0000
# 5 0.0000 0.0000 0.0000 0.0000 15.5988 0.0000
# 6 0.0000 0.0000 0.0000 0.0000 0.0000 57.6490
#
#
#
# Elastic Compliance Matrix: (Units=1/GPa)
#
#
# Indices 1 2 3 4 5 6 
#
# 1 0.009340 -0.003265 -0.001383 0.000000 0.000000 0.000000
# 2 -0.003265 0.011521 -0.003749 0.000000 0.000000 0.000000
# 3 -0.001383 -0.003749 0.011948 0.000000 0.000000 0.000000
# 4 0.000000 0.000000 0.000000 0.026028 0.000000 0.000000
# 5 0.000000 0.000000 0.000000 0.000000 0.064107 0.000000
# 6 0.000000 0.000000 0.000000 0.000000 0.000000 0.017346
#
#
# Mechanical properties :
#
#
# Convention : Reuss Voigt Hill
#
# Bulk Modulus (GPa) = 62.44689 63.39318 62.92003
# Shear Modulus (GPa) = 30.78394 37.32144 34.05269
#
# Velocity S-wave (km/s) = 3.82977 4.21686 4.02797
# Velocity P-wave (km/s) = 7.02205 7.34256 7.18409
#
# Compressibility (1/GPa) = 0.01601361
#
# Stress axis : x y z
#
# Youngs Moduli (GPa) = 107.07157 86.79718 83.69783
#
# Poissons Ratio (x) = 0.28340 0.11575
# Poissons Ratio (y) = 0.34960 0.31381
# Poissons Ratio (z) = 0.14808 0.32543
#
# Static dielectric constant tensor:
#      x y z
#    x 1.875620 0.000000 0.000000 
#    y 0.000000 1.735630 0.000000 
#    z 0.000000 0.000000 1.738570 
# 
# From -- ./inp_files/27451.got.cif
#   From: 2010.05.17/outbox.cif.g08.bks.cpg/sg54_14_cif.got.tgz:27451.got - 2010.06.03 13:09:01.
