data_PCOD9423654
_publ_section_title
;
Structure prediction by ZEFSAII (Michael W. Deem and Ramdas Pophale) SiO2 
 PCOD9423654
Probable space group: P C C A
;
_chemical_formula_sum "Si O2"
_cell_formula_units_Z 40
_cell_length_a 14.605160
_cell_length_b 13.374874
_cell_length_c 9.074561
_cell_angle_alpha 90.000000
_cell_angle_beta 90.000000
_cell_angle_gamma 90.000000
_cell_volume 1772.644481
_symmetry_space_group_name_H-M "P C C A"
_symmetry_group_IT_number 54
_symmetry_cell_setting 'orthorhombic'
loop_
_space_group_symop_operation_xyz
x,y,z
1/2-x,-y,z
1/2+x,-y,1/2-z
-x,y,1/2-z
-x,-y,-z
1/2+x,y,-z
1/2-x,y,1/2+z
x,-y,1/2+z
loop_
_atom_site_type_symbol
_atom_site_label
_atom_site_fract_x
_atom_site_fract_y
_atom_site_fract_z
Si Si1 0.800677 0.216497 0.624187
Si Si2 0.500000 0.519712 0.250000
Si Si3 0.250000 0.000000 0.519024
Si Si4 0.558855 0.069011 0.397535
Si Si5 0.050178 0.632789 0.473048
Si Si6 0.135991 0.733279 0.048065
O O1 0.777039 0.101948 0.572975
O O2 0.889361 0.268418 0.550069
O O3 0.714583 0.280978 0.569391
O O4 0.818389 0.234444 0.796693
O O5 0.432241 0.451757 0.349985
O O6 0.555635 0.588475 0.364208
O O7 0.340234 0.979130 0.617315
O O8 0.500000 0.088836 0.250000
O O9 0.577744 0.168449 0.489632
O O10 0.500000 0.000000 0.500000
O O11 0.942119 0.651878 0.442776
#
# Coordination Sequence:
#
# PCOD9423654 Si02
#       6
#     8   4   4   8   8   8
#     4  11  24  43  68  98 142 183 234 293 350 427
#     4  10  24  42  80  98 138 186 236 296 372 424
#     4  10  24  42  64 102 138 190 244 294 352 444
#     4  11  23  40  63  93 131 185 230 291 352 421
#     4  11  22  48  69 103 139 180 233 296 360 430
#     4  11  24  42  66  97 136 181 226 287 354 419
#
# _framework density 22.565155000000001
#
# number of rings (size 3 to 8) (size 9 to 14) (size 15 to 20)
#    0.000    1.200    2.000    3.600    2.800   10.400 
#    3.600    6.000    0.000    0.000    0.000    0.000 
#    0.000    0.000    0.000    0.000    0.000    0.000 
#
# Total GULP energy -223229.284275 kJ/mol
# GULP energy per Si atom -5580.732107 kJ/mol
# Density = 2.251380 g / cm^3
# Si number density = 22.565155 Si / 1000 Ang^3
#
#
#
# Elastic Constant Matrix: (Units=GPa)
#
#
# Indices 1 2 3 4 5 6 
#
# 1 137.4839 29.8610 39.2952 0.0000 0.0000 0.0000
# 2 29.8610 73.6802 45.4005 0.0000 0.0000 0.0000
# 3 39.2952 45.4005 86.6418 0.0000 0.0000 0.0000
# 4 0.0000 0.0000 0.0000 39.0239 0.0000 0.0000
# 5 0.0000 0.0000 0.0000 0.0000 32.9688 0.0000
# 6 0.0000 0.0000 0.0000 0.0000 0.0000 22.0340
#
#
#
# Elastic Compliance Matrix: (Units=1/GPa)
#
#
# Indices 1 2 3 4 5 6 
#
# 1 0.008479 -0.001575 -0.003020 0.000000 0.000000 0.000000
# 2 -0.001575 0.020337 -0.009942 0.000000 0.000000 0.000000
# 3 -0.003020 -0.009942 0.018121 0.000000 0.000000 0.000000
# 4 0.000000 0.000000 0.000000 0.025625 0.000000 0.000000
# 5 0.000000 0.000000 0.000000 0.000000 0.030332 0.000000
# 6 0.000000 0.000000 0.000000 0.000000 0.000000 0.045384
#
#
# Mechanical properties :
#
#
# Convention : Reuss Voigt Hill
#
# Bulk Modulus (GPa) = 55.98501 58.54660 57.26581
# Shear Modulus (GPa) = 27.27665 31.02195 29.14930
#
# Velocity S-wave (km/s) = 3.48054 3.71181 3.59804
# Velocity P-wave (km/s) = 6.40441 6.66123 6.53408
#
# Compressibility (1/GPa) = 0.01786192
#
# Stress axis : x y z
#
# Youngs Moduli (GPa) = 117.93957 49.17200 55.18445
#
# Poissons Ratio (x) = 0.07747 0.16665
# Poissons Ratio (y) = 0.18581 0.54864
# Poissons Ratio (z) = 0.35617 0.48887
#
# Static dielectric constant tensor:
#      x y z
#    x 1.880530 0.000000 0.000000 
#    y 0.000000 1.936280 0.000000 
#    z 0.000000 0.000000 1.849380 
# 
# From -- ./inp_files/3460.got.cif
#   From: 2010.05.17/outbox.cif.g08.bks.cpg/sg54_2_cif.got.tgz:3460.got - 2010.06.03 13:09:01.
