data_PCOD9423402
_publ_section_title
;
Structure prediction by ZEFSAII (Michael W. Deem and Ramdas Pophale) SiO2 
 PCOD9423402
Probable space group: P C C A
;
_chemical_formula_sum "Si O2"
_cell_formula_units_Z 32
_cell_length_a 5.536593
_cell_length_b 9.079499
_cell_length_c 28.061265
_cell_angle_alpha 90.000000
_cell_angle_beta 90.000000
_cell_angle_gamma 90.000000
_cell_volume 1410.625497
_symmetry_space_group_name_H-M "P C C A"
_symmetry_group_IT_number 54
_symmetry_cell_setting 'orthorhombic'
loop_
_space_group_symop_operation_xyz
x,y,z
1/2-x,-y,z
1/2+x,-y,1/2-z
-x,y,1/2-z
-x,-y,-z
1/2+x,y,-z
1/2-x,y,1/2+z
x,-y,1/2+z
loop_
_atom_site_type_symbol
_atom_site_label
_atom_site_fract_x
_atom_site_fract_y
_atom_site_fract_z
Si Si1 0.250000 0.000000 0.341807
Si Si2 0.068643 0.750030 0.116120
Si Si3 0.425767 0.167560 0.015498
Si Si4 0.031291 0.739830 0.694876
Si Si5 0.250000 0.500000 0.366687
O O1 0.121802 0.878794 0.373731
O O2 0.435781 0.906279 0.310746
O O3 0.953505 0.590822 0.105883
O O4 0.190482 0.809653 0.068141
O O5 0.219760 0.735349 0.165162
O O6 0.702710 0.230476 0.015969
O O7 0.500000 0.000000 0.000000
O O8 0.000000 0.700095 0.750000
O O9 0.869215 0.623896 0.666222
#
# Coordination Sequence:
#
# PCOD9423402 Si02
#       5
#     4   8   8   8   4
#     4  10  24  38  68 102 140 178 230 300 378 434
#     4  11  24  45  71 104 147 190 244 308 369 450
#     4  10  23  40  72 107 144 186 246 301 379 450
#     4  11  26  42  71 100 142 188 245 305 375 447
#     4  10  26  44  70  98 142 196 250 290 380 434
#
# _framework density 22.684972999999999
#
# number of rings (size 3 to 8) (size 9 to 14) (size 15 to 20)
#    0.000    1.500    0.000    3.000   21.000    2.000 
#    0.000    1.250    0.000    0.000    0.000    0.000 
#    0.000    0.000    0.000    0.000    0.000    0.000 
#
# Total GULP energy -178202.814619 kJ/mol
# GULP energy per Si atom -5568.837957 kJ/mol
# Density = 2.263334 g / cm^3
# Si number density = 22.684973 Si / 1000 Ang^3
#
#
#
# Elastic Constant Matrix: (Units=GPa)
#
#
# Indices 1 2 3 4 5 6 
#
# 1 96.3808 15.4382 4.6253 0.0000 0.0000 0.0000
# 2 15.4382 105.1218 13.6035 0.0000 0.0000 0.0000
# 3 4.6253 13.6035 105.3476 0.0000 0.0000 0.0000
# 4 0.0000 0.0000 0.0000 -66.6919 0.0000 0.0000
# 5 0.0000 0.0000 0.0000 0.0000 40.1446 0.0000
# 6 0.0000 0.0000 0.0000 0.0000 0.0000 39.0096
#
#
#
# Elastic Compliance Matrix: (Units=1/GPa)
#
#
# Indices 1 2 3 4 5 6 
#
# 1 0.010633 -0.001527 -0.000270 0.000000 0.000000 0.000000
# 2 -0.001527 0.009894 -0.001211 0.000000 0.000000 0.000000
# 3 -0.000270 -0.001211 0.009661 0.000000 0.000000 0.000000
# 4 0.000000 0.000000 0.000000 -0.014994 0.000000 0.000000
# 5 0.000000 0.000000 0.000000 0.000000 0.024910 0.000000
# 6 0.000000 0.000000 0.000000 0.000000 0.000000 0.025635
#
#
# Mechanical properties :
#
#
# Convention : Reuss Voigt Hill
#
# Bulk Modulus (GPa) = 41.36785 41.57603 41.47194
# Shear Modulus (GPa) = 62.64951 20.70468 41.67709
#
# Velocity S-wave (km/s) = 5.26091 3.02438 4.29092
# Velocity P-wave (km/s) = 7.42821 5.52840 6.54757
#
# Compressibility (1/GPa) = 0.02417336
#
# Stress axis : x y z
#
# Youngs Moduli (GPa) = 94.04692 101.07507 103.51388
#
# Poissons Ratio (x) = 0.15431 0.02792
# Poissons Ratio (y) = 0.14358 0.12531
# Poissons Ratio (z) = 0.02536 0.12236
#
# Static dielectric constant tensor:
#      x y z
#    x 2.131430 0.000000 0.000000 
#    y 0.000000 1.895160 0.000000 
#    z 0.000000 0.000000 1.920770 
# 
# From -- ./inp_files/26894.got.cif
#   From: 2010.05.17/outbox.cif.g08.bks.cpg/sg54_14_cif.got.tgz:26894.got - 2010.06.03 13:09:01.
