data_PCOD9423689
_publ_section_title
;
Structure prediction by ZEFSAII (Michael W. Deem and Ramdas Pophale) SiO2 
 PCOD9423689
Probable space group: P C C A
;
_chemical_formula_sum "Si O2"
_cell_formula_units_Z 40
_cell_length_a 8.518147
_cell_length_b 13.594200
_cell_length_c 14.210034
_cell_angle_alpha 90.000000
_cell_angle_beta 90.000000
_cell_angle_gamma 90.000000
_cell_volume 1645.484905
_symmetry_space_group_name_H-M "P C C A"
_symmetry_group_IT_number 54
_symmetry_cell_setting 'orthorhombic'
loop_
_space_group_symop_operation_xyz
x,y,z
1/2-x,-y,z
1/2+x,-y,1/2-z
-x,y,1/2-z
-x,-y,-z
1/2+x,y,-z
1/2-x,y,1/2+z
x,-y,1/2+z
loop_
_atom_site_type_symbol
_atom_site_label
_atom_site_fract_x
_atom_site_fract_y
_atom_site_fract_z
Si Si1 0.888120 0.069890 0.562056
Si Si2 0.582385 0.692412 0.063863
Si Si3 0.765080 0.778196 0.906948
Si Si4 0.250000 0.500000 0.877169
Si Si5 0.701031 0.202465 0.216026
Si Si6 0.500000 0.385761 0.250000
O O1 0.824822 0.145181 0.485134
O O2 0.919174 0.136191 0.655706
O O3 0.750000 0.000000 0.597661
O O4 0.000000 0.000000 0.500000
O O5 0.400793 0.694494 0.091710
O O6 0.670413 0.588577 0.066596
O O7 0.670348 0.759687 0.141814
O O8 0.611362 0.735378 0.959862
O O9 0.769672 0.841232 0.810992
O O10 0.398126 0.544598 0.818378
O O11 0.634703 0.302414 0.267198
#
# Coordination Sequence:
#
# PCOD9423689 Si02
#       6
#     8   8   8   4   8   4
#     4  11  25  46  70 106 139 178 245 303 355 447
#     4  10  24  43  67 103 144 192 246 299 367 435
#     4  11  24  45  71  98 147 191 235 302 378 438
#     4  10  24  44  66 110 146 182 264 300 356 452
#     4  10  24  44  71  96 144 194 234 294 385 423
#     4  10  24  42  72 102 140 190 240 302 362 446
#
# _framework density 24.308944
#
# number of rings (size 3 to 8) (size 9 to 14) (size 15 to 20)
#    0.000    1.600    0.000    3.000   16.800    1.600 
#    0.000    0.000    0.000    0.000    0.000    0.000 
#    0.000    0.000    0.000    0.000    0.000    0.000 
#
# Total GULP energy -222707.910358 kJ/mol
# GULP energy per Si atom -5567.697759 kJ/mol
# Density = 2.425362 g / cm^3
# Si number density = 24.308944 Si / 1000 Ang^3
#
#
#
# Elastic Constant Matrix: (Units=GPa)
#
#
# Indices 1 2 3 4 5 6 
#
# 1 86.5371 13.1314 22.4538 0.0000 0.0000 0.0000
# 2 13.1314 84.9777 43.0107 0.0000 0.0000 0.0000
# 3 22.4538 43.0107 206.2851 0.0000 0.0000 0.0000
# 4 0.0000 0.0000 0.0000 -175.0553 0.0000 0.0000
# 5 0.0000 0.0000 0.0000 0.0000 26.3224 0.0000
# 6 0.0000 0.0000 0.0000 0.0000 0.0000 37.4378
#
#
#
# Elastic Compliance Matrix: (Units=1/GPa)
#
#
# Indices 1 2 3 4 5 6 
#
# 1 0.012026 -0.001337 -0.001030 0.000000 0.000000 0.000000
# 2 -0.001337 0.013305 -0.002629 0.000000 0.000000 0.000000
# 3 -0.001030 -0.002629 0.005508 0.000000 0.000000 0.000000
# 4 0.000000 0.000000 0.000000 -0.005712 0.000000 0.000000
# 5 0.000000 0.000000 0.000000 0.000000 0.037990 0.000000
# 6 0.000000 0.000000 0.000000 0.000000 0.000000 0.026711
#
#
# Mechanical properties :
#
#
# Convention : Reuss Voigt Hill
#
# Bulk Modulus (GPa) = 47.96807 59.44351 53.70579
# Shear Modulus (GPa) = 46.83055 -2.31207 22.25924
#
# Velocity S-wave (km/s) = 4.39392 -0.97631 3.02931
# Velocity P-wave (km/s) = 6.74667 4.82032 5.86315
#
# Compressibility (1/GPa) = 0.02084720
#
# Stress axis : x y z
#
# Youngs Moduli (GPa) = 83.15377 75.16085 181.55879
#
# Poissons Ratio (x) = 0.10048 0.18705
# Poissons Ratio (y) = 0.11117 0.47724
# Poissons Ratio (z) = 0.08567 0.19756
#
# Static dielectric constant tensor:
#      x y z
#    x 5.489780 0.000000 0.000000 
#    y 0.000000 1.662090 0.000000 
#    z 0.000000 0.000000 1.379780 
# 
# From -- ./inp_files/11531.got.cif
#   From: 2010.05.17/outbox.cif.g08.bks.cpg/sg54_6_cif.got.tgz:11531.got - 2010.06.03 13:09:01.
