data_PCOD9423589
_publ_section_title
;
Structure prediction by ZEFSAII (Michael W. Deem and Ramdas Pophale) SiO2 
 PCOD9423589
Probable space group: P C C A
;
_chemical_formula_sum "Si O2"
_cell_formula_units_Z 20
_cell_length_a 8.655024
_cell_length_b 5.679553
_cell_length_c 15.341050
_cell_angle_alpha 90.000000
_cell_angle_beta 90.000000
_cell_angle_gamma 90.000000
_cell_volume 754.114894
_symmetry_space_group_name_H-M "P C C A"
_symmetry_group_IT_number 54
_symmetry_cell_setting 'orthorhombic'
loop_
_space_group_symop_operation_xyz
x,y,z
1/2-x,-y,z
1/2+x,-y,1/2-z
-x,y,1/2-z
-x,-y,-z
1/2+x,y,-z
1/2-x,y,1/2+z
x,-y,1/2+z
loop_
_atom_site_type_symbol
_atom_site_label
_atom_site_fract_x
_atom_site_fract_y
_atom_site_fract_z
Si Si1 0.250000 0.500000 0.755109
Si Si2 0.750000 0.500000 0.970010
Si Si3 0.544248 0.753355 0.608445
Si Si4 0.500000 0.142229 0.750000
O O1 0.115584 0.407263 0.817087
O O2 0.343152 0.276042 0.719956
O O3 0.620992 0.647054 0.918036
O O4 0.842667 0.695776 0.027593
O O5 0.540099 0.998936 0.660451
#
# Coordination Sequence:
#
# PCOD9423589 Si02
#       4
#     4   4   8   4
#     4  11  26  45  70 113 150 195 268 317 368 453
#     4   9  22  49  80 121 162 189 246 309 386 487
#     4  10  23  48  80 113 153 202 246 313 389 451
#     4  12  26  48  76 108 152 204 262 320 374 436
#
# _framework density 26.521159000000001
#
# number of rings (size 3 to 8) (size 9 to 14) (size 15 to 20)
#    0.000    1.600    0.000    2.400    0.000   11.200 
#    0.000   44.000    0.000    4.800    0.000    0.000 
#    0.000    0.000    0.000    0.000    0.000    0.000 
#
# Total GULP energy -111694.893929 kJ/mol
# GULP energy per Si atom -5584.744696 kJ/mol
# Density = 2.646080 g / cm^3
# Si number density = 26.521159 Si / 1000 Ang^3
#
#
#
# Elastic Constant Matrix: (Units=GPa)
#
#
# Indices 1 2 3 4 5 6 
#
# 1 239.5709 81.9922 106.4201 0.0000 0.0000 0.0000
# 2 81.9922 100.1225 72.9239 0.0000 0.0000 0.0000
# 3 106.4201 72.9239 101.0785 0.0000 0.0000 0.0000
# 4 0.0000 0.0000 0.0000 21.1451 0.0000 0.0000
# 5 0.0000 0.0000 0.0000 0.0000 85.8044 0.0000
# 6 0.0000 0.0000 0.0000 0.0000 0.0000 52.0405
#
#
#
# Elastic Compliance Matrix: (Units=1/GPa)
#
#
# Indices 1 2 3 4 5 6 
#
# 1 0.007877 -0.000865 -0.007669 0.000000 0.000000 0.000000
# 2 -0.000865 0.021143 -0.014343 0.000000 0.000000 0.000000
# 3 -0.007669 -0.014343 0.028316 0.000000 0.000000 0.000000
# 4 0.000000 0.000000 0.000000 0.047292 0.000000 0.000000
# 5 0.000000 0.000000 0.000000 0.000000 0.011654 0.000000
# 6 0.000000 0.000000 0.000000 0.000000 0.000000 0.019216
#
#
# Mechanical properties :
#
#
# Convention : Reuss Voigt Hill
#
# Bulk Modulus (GPa) = 86.34745 107.04935 96.69840
# Shear Modulus (GPa) = 27.01054 43.76036 35.38545
#
# Velocity S-wave (km/s) = 3.19478 4.06645 3.65668
# Velocity P-wave (km/s) = 6.79981 7.90565 7.37349
#
# Compressibility (1/GPa) = 0.01158112
#
# Stress axis : x y z
#
# Youngs Moduli (GPa) = 126.95462 47.29778 35.31567
#
# Poissons Ratio (x) = 0.04089 0.27085
# Poissons Ratio (y) = 0.10976 0.50654
# Poissons Ratio (z) = 0.97366 0.67841
#
# Static dielectric constant tensor:
#      x y z
#    x 1.984710 0.000000 0.000000 
#    y 0.000000 2.308610 0.000000 
#    z 0.000000 0.000000 2.206200 
# 
# From -- ./inp_files/16069.got.cif
#   From: 2010.05.17/outbox.cif.g08.bks.cpg/sg54_9_cif.got.tgz:16069.got - 2010.06.03 13:09:01.
