data_PCOD9423335
_publ_section_title
;
Structure prediction by ZEFSAII (Michael W. Deem and Ramdas Pophale) SiO2 
 PCOD9423335
Probable space group: P C C A
;
_chemical_formula_sum "Si O2"
_cell_formula_units_Z 28
_cell_length_a 5.358375
_cell_length_b 7.708915
_cell_length_c 29.993141
_cell_angle_alpha 90.000000
_cell_angle_beta 90.000000
_cell_angle_gamma 90.000000
_cell_volume 1238.934396
_symmetry_space_group_name_H-M "P C C A"
_symmetry_group_IT_number 54
_symmetry_cell_setting 'orthorhombic'
loop_
_space_group_symop_operation_xyz
x,y,z
1/2-x,-y,z
1/2+x,-y,1/2-z
-x,y,1/2-z
-x,-y,-z
1/2+x,y,-z
1/2-x,y,1/2+z
x,-y,1/2+z
loop_
_atom_site_type_symbol
_atom_site_label
_atom_site_fract_x
_atom_site_fract_y
_atom_site_fract_z
Si Si1 0.250000 0.000000 0.587547
Si Si2 0.018536 0.274106 0.029391
Si Si3 0.500000 0.883529 0.750000
Si Si4 0.250000 0.500000 0.904637
Si Si5 0.093238 0.819994 0.347563
O O1 0.044175 0.904518 0.557430
O O2 0.359708 0.857704 0.620686
O O3 0.971042 0.436402 0.062399
O O4 0.273864 0.275962 0.001556
O O5 0.527358 0.781809 0.703656
O O6 0.750000 0.000000 0.754993
O O7 0.279016 0.662744 0.872343
O O8 0.250000 0.000000 0.347133
#
# Coordination Sequence:
#
# PCOD9423335 Si02
#       5
#     4   8   4   4   8
#     4  12  24  46  74 108 142 200 248 302 366 442
#     4  12  27  47  70 105 149 196 250 310 364 429
#     4  10  22  46  78 110 148 192 236 296 372 440
#     4  12  26  48  76 108 146 196 248 306 368 436
#     4  11  24  48  73 111 147 192 240 301 370 441
#
# _framework density 22.600068
#
# number of rings (size 3 to 8) (size 9 to 14) (size 15 to 20)
#    0.000    0.571    4.286    3.429    0.000    3.429 
#    0.000    8.571    0.000    0.000    0.000    0.000 
#    0.000    0.000    0.000    0.000    0.000    0.000 
#
# Total GULP energy -156581.168033 kJ/mol
# GULP energy per Si atom -5592.184573 kJ/mol
# Density = 2.254863 g / cm^3
# Si number density = 22.600068 Si / 1000 Ang^3
#
#
#
# Elastic Constant Matrix: (Units=GPa)
#
#
# Indices 1 2 3 4 5 6 
#
# 1 133.1223 34.3569 81.3722 0.0000 0.0000 0.0000
# 2 34.3569 88.3862 62.5234 0.0000 0.0000 0.0000
# 3 81.3722 62.5234 206.9406 0.0000 0.0000 0.0000
# 4 0.0000 0.0000 0.0000 30.5363 0.0000 0.0000
# 5 0.0000 0.0000 0.0000 0.0000 37.6382 0.0000
# 6 0.0000 0.0000 0.0000 0.0000 0.0000 33.6238
#
#
#
# Elastic Compliance Matrix: (Units=1/GPa)
#
#
# Indices 1 2 3 4 5 6 
#
# 1 0.010025 -0.001410 -0.003516 0.000000 0.000000 0.000000
# 2 -0.001410 0.014588 -0.003853 0.000000 0.000000 0.000000
# 3 -0.003516 -0.003853 0.007379 0.000000 0.000000 0.000000
# 4 0.000000 0.000000 0.000000 0.032748 0.000000 0.000000
# 5 0.000000 0.000000 0.000000 0.000000 0.026569 0.000000
# 6 0.000000 0.000000 0.000000 0.000000 0.000000 0.029741
#
#
# Mechanical properties :
#
#
# Convention : Reuss Voigt Hill
#
# Bulk Modulus (GPa) = 69.28097 87.21712 78.24904
# Shear Modulus (GPa) = 34.86318 37.03944 35.95131
#
# Velocity S-wave (km/s) = 3.93187 4.05274 3.99276
# Velocity P-wave (km/s) = 7.16482 7.78299 7.48029
#
# Compressibility (1/GPa) = 0.01443398
#
# Stress axis : x y z
#
# Youngs Moduli (GPa) = 99.75154 68.55161 135.51944
#
# Poissons Ratio (x) = 0.09663 0.47649
# Poissons Ratio (y) = 0.14061 0.52217
# Poissons Ratio (z) = 0.35073 0.26414
#
# Static dielectric constant tensor:
#      x y z
#    x 1.856280 0.000000 0.000000 
#    y 0.000000 1.813410 0.000000 
#    z 0.000000 0.000000 1.849010 
# 
# From -- ./inp_files/25072.got.cif
#   From: 2010.05.17/outbox.cif.g08.bks.cpg/sg54_13_cif.got.tgz:25072.got - 2010.06.03 13:09:01.
