data_PCOD9423240
_publ_section_title
;
Structure prediction by ZEFSAII (Michael W. Deem and Ramdas Pophale) SiO2 
 PCOD9423240
Probable space group: P C C A
;
_chemical_formula_sum "Si O2"
_cell_formula_units_Z 56
_cell_length_a 10.550987
_cell_length_b 21.751219
_cell_length_c 11.057164
_cell_angle_alpha 90.000000
_cell_angle_beta 90.000000
_cell_angle_gamma 90.000000
_cell_volume 2537.584075
_symmetry_space_group_name_H-M "P C C A"
_symmetry_group_IT_number 54
_symmetry_cell_setting 'orthorhombic'
loop_
_space_group_symop_operation_xyz
x,y,z
1/2-x,-y,z
1/2+x,-y,1/2-z
-x,y,1/2-z
-x,-y,-z
1/2+x,y,-z
1/2-x,y,1/2+z
x,-y,1/2+z
loop_
_atom_site_type_symbol
_atom_site_label
_atom_site_fract_x
_atom_site_fract_y
_atom_site_fract_z
Si Si1 0.205734 0.213259 0.583704
Si Si2 0.750000 0.000000 0.755462
Si Si3 0.354285 0.876955 0.769337
Si Si4 0.946634 0.849993 0.986798
Si Si5 0.000000 0.929727 0.750000
Si Si6 0.205136 0.569959 0.745834
Si Si7 0.590000 0.337553 0.349552
Si Si8 0.511526 0.569790 0.047909
O O1 0.216954 0.182238 0.717992
O O2 0.345183 0.204789 0.529024
O O3 0.165766 0.283491 0.586413
O O4 0.087038 0.175417 0.522882
O O5 0.690592 0.936433 0.805866
O O6 0.880606 0.970476 0.704684
O O7 0.500000 0.862882 0.750000
O O8 0.365219 0.889358 0.912780
O O9 0.961627 0.888668 0.864597
O O10 0.250000 0.500000 0.733274
O O11 0.317423 0.616558 0.721281
O O12 0.141405 0.576358 0.876616
O O13 0.100244 0.580832 0.642870
O O14 0.500000 0.307049 0.250000
O O15 0.514234 0.380614 0.442130
O O16 0.500000 0.500000 0.000000
#
# Coordination Sequence:
#
# PCOD9423240 Si02
#       8
#     8   4   8   8   4   8   8   8
#     4  11  26  47  74  99 144 187 243 289 361 421
#     4  12  22  42  70 108 138 182 236 298 358 438
#     4  10  22  44  67  95 140 180 225 287 352 417
#     4  11  25  48  70 103 140 193 233 302 352 431
#     4  12  26  44  70 108 144 182 246 290 372 424
#     4  11  25  44  68 102 141 185 229 292 358 428
#     4  12  27  44  74 102 139 188 238 292 356 429
#     4  11  25  44  67 102 140 180 234 291 356 421
#
# _framework density 22.068235000000001
#
# number of rings (size 3 to 8) (size 9 to 14) (size 15 to 20)
#    0.000    0.857    3.571    3.000    6.000    2.286 
#    0.000    0.000    0.000    0.000    0.000    0.000 
#    0.000    0.000    0.000    0.000    0.000    0.000 
#
# Total GULP energy -312130.531095 kJ/mol
# GULP energy per Si atom -5573.759484 kJ/mol
# Density = 2.201801 g / cm^3
# Si number density = 22.068235 Si / 1000 Ang^3
#
#
#
# Elastic Constant Matrix: (Units=GPa)
#
#
# Indices 1 2 3 4 5 6 
#
# 1 91.4319 -0.8175 12.8545 0.0000 0.0000 0.0000
# 2 -0.8175 84.3973 14.1535 0.0000 0.0000 0.0000
# 3 12.8545 14.1535 88.9471 0.0000 0.0000 0.0000
# 4 0.0000 0.0000 0.0000 15.9464 0.0000 0.0000
# 5 0.0000 0.0000 0.0000 0.0000 3.6428 0.0000
# 6 0.0000 0.0000 0.0000 0.0000 0.0000 31.0438
#
#
#
# Elastic Compliance Matrix: (Units=1/GPa)
#
#
# Indices 1 2 3 4 5 6 
#
# 1 0.011176 0.000390 -0.001677 0.000000 0.000000 0.000000
# 2 0.000390 0.012187 -0.001996 0.000000 0.000000 0.000000
# 3 -0.001677 -0.001996 0.011803 0.000000 0.000000 0.000000
# 4 0.000000 0.000000 0.000000 0.062710 0.000000 0.000000
# 5 0.000000 0.000000 0.000000 0.000000 0.274514 0.000000
# 6 0.000000 0.000000 0.000000 0.000000 0.000000 0.032213
#
#
# Mechanical properties :
#
#
# Convention : Reuss Voigt Hill
#
# Bulk Modulus (GPa) = 34.96542 35.23970 35.10256
# Shear Modulus (GPa) = 11.88488 26.03231 18.95859
#
# Velocity S-wave (km/s) = 2.32319 3.43830 2.93420
# Velocity P-wave (km/s) = 4.80363 5.63611 5.23644
#
# Compressibility (1/GPa) = 0.02859969
#
# Stress axis : x y z
#
# Youngs Moduli (GPa) = 89.47442 82.05364 84.72739
#
# Poissons Ratio (x) = -0.03196 0.14210
# Poissons Ratio (y) = -0.03485 0.16908
# Poissons Ratio (z) = 0.15006 0.16374
#
# Static dielectric constant tensor:
#      x y z
#    x 1.830060 0.000000 0.000000 
#    y 0.000000 1.760590 0.000000 
#    z 0.000000 0.000000 1.956860 
# 
# From -- ./inp_files/7621.got.cif
#   From: 2010.05.17/outbox.cif.g08.bks.cpg/sg54_4_cif.got.tgz:7621.got - 2010.06.03 13:09:01.
