data_PCOD9423722
_publ_section_title
;
Structure prediction by ZEFSAII (Michael W. Deem and Ramdas Pophale) SiO2 
 PCOD9423722
Probable space group: P C C A
;
_chemical_formula_sum "Si O2"
_cell_formula_units_Z 36
_cell_length_a 10.981069
_cell_length_b 6.243825
_cell_length_c 23.567713
_cell_angle_alpha 90.000000
_cell_angle_beta 90.000000
_cell_angle_gamma 90.000000
_cell_volume 1615.893685
_symmetry_space_group_name_H-M "P C C A"
_symmetry_group_IT_number 54
_symmetry_cell_setting 'orthorhombic'
loop_
_space_group_symop_operation_xyz
x,y,z
1/2-x,-y,z
1/2+x,-y,1/2-z
-x,y,1/2-z
-x,-y,-z
1/2+x,y,-z
1/2-x,y,1/2+z
x,-y,1/2+z
loop_
_atom_site_type_symbol
_atom_site_label
_atom_site_fract_x
_atom_site_fract_y
_atom_site_fract_z
Si Si1 0.110259 0.959555 0.885751
Si Si2 0.946345 0.675389 0.805238
Si Si3 0.408334 0.289802 0.111920
Si Si4 0.372342 0.627977 0.488130
Si Si5 0.750000 0.000000 0.307179
O O1 0.103041 0.813749 0.942512
O O2 0.043129 0.830618 0.835751
O O3 0.250000 0.000000 0.872115
O O4 0.041822 0.185498 0.895213
O O5 0.908838 0.515194 0.855522
O O6 0.000000 0.557326 0.750000
O O7 0.835931 0.819503 0.780552
O O8 0.339163 0.131822 0.153059
O O9 0.343935 0.288816 0.051280
O O10 0.250000 0.500000 0.469776
O O11 0.500000 0.500000 0.500000
#
# Coordination Sequence:
#
# PCOD9423722 Si02
#       5
#     8   8   8   8   4
#     4  11  26  44  69 106 142 182 235 291 356 423
#     4  11  25  46  71  98 138 185 235 295 350 418
#     4  11  24  45  69 100 141 185 233 282 356 431
#     4  12  24  42  72 103 144 184 230 294 363 428
#     4  10  24  44  68 100 130 178 238 284 350 426
#
# _framework density 22.278691999999999
#
# number of rings (size 3 to 8) (size 9 to 14) (size 15 to 20)
#    0.000    0.889    2.222    4.000    6.222    3.556 
#    4.000    0.000    0.000    0.000    0.000    0.000 
#    0.000    0.000    0.000    0.000    0.000    0.000 
#
# Total GULP energy -201046.052209 kJ/mol
# GULP energy per Si atom -5584.612561 kJ/mol
# Density = 2.222798 g / cm^3
# Si number density = 22.278692 Si / 1000 Ang^3
#
#
#
# Elastic Constant Matrix: (Units=GPa)
#
#
# Indices 1 2 3 4 5 6 
#
# 1 116.3173 40.8203 5.7862 0.0000 0.0000 0.0000
# 2 40.8203 71.5516 11.5533 0.0000 0.0000 0.0000
# 3 5.7862 11.5533 99.7902 0.0000 0.0000 0.0000
# 4 0.0000 0.0000 0.0000 438.3716 0.0000 0.0000
# 5 0.0000 0.0000 0.0000 0.0000 15.3481 0.0000
# 6 0.0000 0.0000 0.0000 0.0000 0.0000 36.0813
#
#
#
# Elastic Compliance Matrix: (Units=1/GPa)
#
#
# Indices 1 2 3 4 5 6 
#
# 1 0.010750 -0.006147 0.000088 0.000000 0.000000 0.000000
# 2 -0.006147 0.017757 -0.001699 0.000000 0.000000 0.000000
# 3 0.000088 -0.001699 0.010213 0.000000 0.000000 0.000000
# 4 0.000000 0.000000 0.000000 0.002281 0.000000 0.000000
# 5 0.000000 0.000000 0.000000 0.000000 0.065155 0.000000
# 6 0.000000 0.000000 0.000000 0.000000 0.000000 0.027715
#
#
# Mechanical properties :
#
#
# Convention : Reuss Voigt Hill
#
# Bulk Modulus (GPa) = 43.09688 44.88649 43.99169
# Shear Modulus (GPa) = 31.82239 113.26016 72.54127
#
# Velocity S-wave (km/s) = 3.78349 7.13780 5.71240
# Velocity P-wave (km/s) = 6.20265 9.38736 7.95598
#
# Compressibility (1/GPa) = 0.02320353
#
# Stress axis : x y z
#
# Youngs Moduli (GPa) = 93.02266 56.31481 97.91772
#
# Poissons Ratio (x) = 0.34618 -0.00865
# Poissons Ratio (y) = 0.57183 0.16640
# Poissons Ratio (z) = -0.00822 0.09570
#
# Static dielectric constant tensor:
#      x y z
#    x 1.900160 0.000000 0.000000 
#    y 0.000000 1.766560 0.000000 
#    z 0.000000 0.000000 1.801660 
# 
# From -- ./inp_files/23810.got.cif
#   From: 2010.05.17/outbox.cif.g08.bks.cpg/sg54_12_cif.got.tgz:23810.got - 2010.06.03 13:09:01.
