data_PCOD9423662
_publ_section_title
;
Structure prediction by ZEFSAII (Michael W. Deem and Ramdas Pophale) SiO2 
 PCOD9423662
Probable space group: P C C A
;
_chemical_formula_sum "Si O2"
_cell_formula_units_Z 40
_cell_length_a 18.416456
_cell_length_b 5.822999
_cell_length_c 15.927974
_cell_angle_alpha 90.000000
_cell_angle_beta 90.000000
_cell_angle_gamma 90.000000
_cell_volume 1708.100081
_symmetry_space_group_name_H-M "P C C A"
_symmetry_group_IT_number 54
_symmetry_cell_setting 'orthorhombic'
loop_
_space_group_symop_operation_xyz
x,y,z
1/2-x,-y,z
1/2+x,-y,1/2-z
-x,y,1/2-z
-x,-y,-z
1/2+x,y,-z
1/2-x,y,1/2+z
x,-y,1/2+z
loop_
_atom_site_type_symbol
_atom_site_label
_atom_site_fract_x
_atom_site_fract_y
_atom_site_fract_z
Si Si1 0.057105 0.803026 0.967827
Si Si2 0.826157 0.406226 0.144168
Si Si3 0.680679 0.134575 0.815077
Si Si4 0.077808 0.547018 0.606852
Si Si5 0.580175 0.252631 0.236682
O O1 0.127040 0.791080 0.905003
O O2 0.998471 0.647943 0.919899
O O3 0.088363 0.673784 0.049151
O O4 0.000000 0.000000 0.000000
O O5 0.750000 0.500000 0.106129
O O6 0.803510 0.301230 0.235384
O O7 0.880584 0.627923 0.156851
O O8 0.641434 0.268015 0.890624
O O9 0.750000 0.000000 0.846632
O O10 0.630832 0.939097 0.775175
O O11 0.073212 0.468642 0.701849
O O12 0.500000 0.147018 0.250000
#
# Coordination Sequence:
#
# PCOD9423662 Si02
#       5
#     8   8   8   8   8
#     4  11  24  45  68 100 143 199 247 293 368 446
#     4  11  24  45  67 103 141 186 237 311 366 436
#     4  11  24  41  71 104 137 181 242 299 373 432
#     4  10  24  42  65  99 140 185 234 304 353 446
#     4  11  22  41  71  98 133 180 237 294 362 426
#
# _framework density 23.417832000000001
#
# number of rings (size 3 to 8) (size 9 to 14) (size 15 to 20)
#    0.000    1.200    4.000    1.200    5.600    0.000 
#    7.200    0.000    0.000    0.000    0.000    0.000 
#    0.000    0.000    0.000    0.000    0.000    0.000 
#
# Total GULP energy -222763.615751 kJ/mol
# GULP energy per Si atom -5569.090394 kJ/mol
# Density = 2.336453 g / cm^3
# Si number density = 23.417832 Si / 1000 Ang^3
#
#
#
# Elastic Constant Matrix: (Units=GPa)
#
#
# Indices 1 2 3 4 5 6 
#
# 1 162.3014 57.7651 39.8840 0.0000 0.0000 0.0000
# 2 57.7651 91.4462 17.4081 0.0000 0.0000 0.0000
# 3 39.8840 17.4081 51.1205 0.0000 0.0000 0.0000
# 4 0.0000 0.0000 0.0000 7.0382 0.0000 0.0000
# 5 0.0000 0.0000 0.0000 0.0000 23.3670 0.0000
# 6 0.0000 0.0000 0.0000 0.0000 0.0000 41.1473
#
#
#
# Elastic Compliance Matrix: (Units=1/GPa)
#
#
# Indices 1 2 3 4 5 6 
#
# 1 0.009229 -0.004768 -0.005577 0.000000 0.000000 0.000000
# 2 -0.004768 0.014157 -0.001101 0.000000 0.000000 0.000000
# 3 -0.005577 -0.001101 0.024287 0.000000 0.000000 0.000000
# 4 0.000000 0.000000 0.000000 0.142082 0.000000 0.000000
# 5 0.000000 0.000000 0.000000 0.000000 0.042795 0.000000
# 6 0.000000 0.000000 0.000000 0.000000 0.000000 0.024303
#
#
# Mechanical properties :
#
#
# Convention : Reuss Voigt Hill
#
# Bulk Modulus (GPa) = 40.35188 59.44250 49.89719
# Shear Modulus (GPa) = 17.36083 26.96456 22.16270
#
# Velocity S-wave (km/s) = 2.72573 3.39699 3.07970
# Velocity P-wave (km/s) = 5.21295 6.38941 5.83093
#
# Compressibility (1/GPa) = 0.02478199
#
# Stress axis : x y z
#
# Youngs Moduli (GPa) = 108.35668 70.63711 41.17380
#
# Poissons Ratio (x) = 0.33680 0.22961
# Poissons Ratio (y) = 0.51665 0.04533
# Poissons Ratio (z) = 0.60426 0.07776
#
# Static dielectric constant tensor:
#      x y z
#    x 1.649350 0.000000 0.000000 
#    y 0.000000 2.006260 0.000000 
#    z 0.000000 0.000000 1.964500 
# 
# From -- ./inp_files/18333.got.cif
#   From: 2010.05.17/outbox.cif.g08.bks.cpg/sg54_10_cif.got.tgz:18333.got - 2010.06.03 13:09:01.
