data_PCOD9423112
_publ_section_title
;
Structure prediction by ZEFSAII (Michael W. Deem and Ramdas Pophale) SiO2 
 PCOD9423112
Probable space group: P C C A
;
_chemical_formula_sum "Si O2"
_cell_formula_units_Z 60
_cell_length_a 21.127741
_cell_length_b 5.135130
_cell_length_c 24.571011
_cell_angle_alpha 90.000000
_cell_angle_beta 90.000000
_cell_angle_gamma 90.000000
_cell_volume 2665.799814
_symmetry_space_group_name_H-M "P C C A"
_symmetry_group_IT_number 54
_symmetry_cell_setting 'orthorhombic'
loop_
_space_group_symop_operation_xyz
x,y,z
1/2-x,-y,z
1/2+x,-y,1/2-z
-x,y,1/2-z
-x,-y,-z
1/2+x,y,-z
1/2-x,y,1/2+z
x,-y,1/2+z
loop_
_atom_site_type_symbol
_atom_site_label
_atom_site_fract_x
_atom_site_fract_y
_atom_site_fract_z
Si Si1 0.826788 0.989518 0.895461
Si Si2 0.681092 0.603620 0.099922
Si Si3 0.552110 0.796175 0.704052
Si Si4 0.107974 0.100148 0.492002
Si Si5 0.631747 0.294656 0.714088
Si Si6 0.500000 0.500000 0.000000
Si Si7 0.674169 0.495300 0.330357
Si Si8 0.056517 0.286237 0.912107
O O1 0.847290 0.218624 0.853933
O O2 0.750000 0.000000 0.897794
O O3 0.849027 0.718935 0.870542
O O4 0.852976 0.014168 0.956006
O O5 0.750000 0.500000 0.085171
O O6 0.654047 0.814762 0.057447
O O7 0.678670 0.698963 0.162381
O O8 0.628452 0.376074 0.097497
O O9 0.500000 0.822465 0.750000
O O10 0.574586 0.495664 0.700937
O O11 0.533064 0.856612 0.641538
O O12 0.607055 0.000835 0.718935
O O13 0.066053 0.342469 0.509874
O O14 0.060166 0.876774 0.468877
O O15 0.657701 0.416333 0.769526
O O16 0.486327 0.478488 0.932366
O O17 0.750000 0.500000 0.333087
#
# Coordination Sequence:
#
# PCOD9423112 Si02
#       8
#     8   8   8   8   8   4   8   8
#     4  10  24  40  65  95 136 174 223 273 337 403
#     4  10  23  39  67 101 134 179 217 284 354 421
#     4  11  24  44  66  97 131 176 222 289 335 404
#     4  11  23  43  64  96 135 174 230 282 344 413
#     4  11  22  44  67  97 134 171 227 275 344 409
#     4  10  24  42  64  88 128 180 224 284 332 400
#     4  10  22  42  64  96 133 174 216 274 325 410
#     4  10  23  43  64  95 137 170 237 282 346 414
#
# _framework density 22.507315999999999
#
# number of rings (size 3 to 8) (size 9 to 14) (size 15 to 20)
#    0.000    1.600    1.333    2.000    5.600    2.667 
#    2.400    1.333    0.000    0.000    0.000    0.000 
#    0.000    0.000    0.000    0.000    0.000    0.000 
#
# Total GULP energy -334225.891885 kJ/mol
# GULP energy per Si atom -5570.431531 kJ/mol
# Density = 2.245609 g / cm^3
# Si number density = 22.507316 Si / 1000 Ang^3
#
#
#
# Elastic Constant Matrix: (Units=GPa)
#
#
# Indices 1 2 3 4 5 6 
#
# 1 27.3376 4.6268 32.8324 0.0000 0.0000 0.0000
# 2 4.6268 44.6217 17.4870 0.0000 0.0000 0.0000
# 3 32.8324 17.4870 157.4297 0.0000 0.0000 0.0000
# 4 0.0000 0.0000 0.0000 8.5214 0.0000 0.0000
# 5 0.0000 0.0000 0.0000 0.0000 20.8898 0.0000
# 6 0.0000 0.0000 0.0000 0.0000 0.0000 7.0712
#
#
#
# Elastic Compliance Matrix: (Units=1/GPa)
#
#
# Indices 1 2 3 4 5 6 
#
# 1 0.048857 -0.001122 -0.010065 0.000000 0.000000 0.000000
# 2 -0.001122 0.023456 -0.002372 0.000000 0.000000 0.000000
# 3 -0.010065 -0.002372 0.008714 0.000000 0.000000 0.000000
# 4 0.000000 0.000000 0.000000 0.117352 0.000000 0.000000
# 5 0.000000 0.000000 0.000000 0.000000 0.047870 0.000000
# 6 0.000000 0.000000 0.000000 0.000000 0.000000 0.141418
#
#
# Mechanical properties :
#
#
# Convention : Reuss Voigt Hill
#
# Bulk Modulus (GPa) = 18.54869 37.69792 28.12330
# Shear Modulus (GPa) = 11.55388 18.92600 15.23994
#
# Velocity S-wave (km/s) = 2.26816 2.90294 2.60496
# Velocity P-wave (km/s) = 3.88824 5.29355 4.64436
#
# Compressibility (1/GPa) = 0.05391217
#
# Stress axis : x y z
#
# Youngs Moduli (GPa) = 20.46778 42.63239 114.75141
#
# Poissons Ratio (x) = 0.04782 1.15494
# Poissons Ratio (y) = 0.02296 0.27214
# Poissons Ratio (z) = 0.20600 0.10110
#
# Static dielectric constant tensor:
#      x y z
#    x 1.651920 0.000000 0.000000 
#    y 0.000000 1.700010 0.000000 
#    z 0.000000 0.000000 1.746260 
# 
# From -- ./inp_files/24784.got.cif
#   From: 2010.05.17/outbox.cif.g08.bks.cpg/sg54_13_cif.got.tgz:24784.got - 2010.06.03 13:09:01.
