data_PCOD9423516
_publ_section_title
;
Structure prediction by ZEFSAII (Michael W. Deem and Ramdas Pophale) SiO2 
 PCOD9423516
Probable space group: P C C A
;
_chemical_formula_sum "Si O2"
_cell_formula_units_Z 56
_cell_length_a 10.353240
_cell_length_b 14.864905
_cell_length_c 16.185038
_cell_angle_alpha 90.000000
_cell_angle_beta 90.000000
_cell_angle_gamma 90.000000
_cell_volume 2490.876200
_symmetry_space_group_name_H-M "P C C A"
_symmetry_group_IT_number 54
_symmetry_cell_setting 'orthorhombic'
loop_
_space_group_symop_operation_xyz
x,y,z
1/2-x,-y,z
1/2+x,-y,1/2-z
-x,y,1/2-z
-x,-y,-z
1/2+x,y,-z
1/2-x,y,1/2+z
x,-y,1/2+z
loop_
_atom_site_type_symbol
_atom_site_label
_atom_site_fract_x
_atom_site_fract_y
_atom_site_fract_z
Si Si1 0.043134 0.336279 0.368023
Si Si2 0.611027 0.151897 0.057439
Si Si3 0.408925 0.998392 0.325417
Si Si4 0.316512 0.192933 0.615799
Si Si5 0.911281 0.316027 0.948632
Si Si6 0.322430 0.816718 0.301555
Si Si7 0.904267 0.521256 0.322339
O O1 0.112456 0.342880 0.456376
O O2 0.135958 0.288015 0.301797
O O3 0.936122 0.260050 0.377482
O O4 0.974135 0.428126 0.346298
O O5 0.526685 0.242700 0.053129
O O6 0.716933 0.175887 0.126952
O O7 0.553897 0.060507 0.097131
O O8 0.662711 0.131699 0.965352
O O9 0.500000 0.029146 0.250000
O O10 0.428069 0.890888 0.331381
O O11 0.250000 0.000000 0.314952
O O12 0.202054 0.258159 0.589525
O O13 0.287401 0.156742 0.707693
O O14 0.919297 0.406350 0.895336
O O15 0.750000 0.500000 0.305076
O O16 0.000000 0.556785 0.250000
#
# Coordination Sequence:
#
# PCOD9423516 Si02
#       7
#     8   8   8   8   8   8   8
#     4  11  23  46  70 101 137 189 235 294 356 432
#     4  10  25  44  68 104 143 181 239 300 355 417
#     4  10  23  44  69 102 142 185 235 294 353 423
#     4  11  22  42  71 100 138 191 231 292 359 425
#     4  11  25  43  70 102 145 181 240 292 363 427
#     4  11  23  44  76 100 141 189 242 289 362 430
#     4  12  27  46  70 109 143 189 243 293 361 432
#
# _framework density 22.482049
#
# number of rings (size 3 to 8) (size 9 to 14) (size 15 to 20)
#    0.000    1.143    2.857    2.571    6.000    0.000 
#    0.000   12.857    0.000    0.000    0.000    0.000 
#    0.000    0.000    0.000    0.000    0.000    0.000 
#
# Total GULP energy -312146.105860 kJ/mol
# GULP energy per Si atom -5574.037605 kJ/mol
# Density = 2.243088 g / cm^3
# Si number density = 22.482049 Si / 1000 Ang^3
#
#
#
# Elastic Constant Matrix: (Units=GPa)
#
#
# Indices 1 2 3 4 5 6 
#
# 1 41.9380 14.7719 28.3912 0.0000 0.0000 0.0000
# 2 14.7719 118.9836 57.9561 0.0000 0.0000 0.0000
# 3 28.3912 57.9561 180.3198 0.0000 0.0000 0.0000
# 4 0.0000 0.0000 0.0000 -3.2809 0.0000 0.0000
# 5 0.0000 0.0000 0.0000 0.0000 16.7302 0.0000
# 6 0.0000 0.0000 0.0000 0.0000 0.0000 44.7203
#
#
#
# Elastic Compliance Matrix: (Units=1/GPa)
#
#
# Indices 1 2 3 4 5 6 
#
# 1 0.026918 -0.001515 -0.003751 0.000000 0.000000 0.000000
# 2 -0.001515 0.010050 -0.002992 0.000000 0.000000 0.000000
# 3 -0.003751 -0.002992 0.007098 0.000000 0.000000 0.000000
# 4 0.000000 0.000000 0.000000 -0.304798 0.000000 0.000000
# 5 0.000000 0.000000 0.000000 0.000000 0.059772 0.000000
# 6 0.000000 0.000000 0.000000 0.000000 0.000000 0.022361
#
#
# Mechanical properties :
#
#
# Convention : Reuss Voigt Hill
#
# Bulk Modulus (GPa) = 36.29722 60.38663 48.34193
# Shear Modulus (GPa) = -32.70100 27.64208 -2.52946
#
# Velocity S-wave (km/s) = -3.81798 3.51025 -1.06186
# Velocity P-wave (km/s) = 1.80442 6.58387 4.47725
#
# Compressibility (1/GPa) = 0.02755032
#
# Stress axis : x y z
#
# Youngs Moduli (GPa) = 37.15009 99.50512 140.88728
#
# Poissons Ratio (x) = 0.15071 0.52852
# Poissons Ratio (y) = 0.05627 0.42148
# Poissons Ratio (z) = 0.13936 0.29768
#
# Static dielectric constant tensor:
#      x y z
#    x 2.041570 0.000000 0.000000 
#    y 0.000000 1.861500 0.000000 
#    z 0.000000 0.000000 1.975760 
# 
# From -- ./inp_files/12713.got.cif
#   From: 2010.05.17/outbox.cif.g08.bks.cpg/sg54_7_cif.got.tgz:12713.got - 2010.06.03 13:09:01.
