data_PCOD9423956
_publ_section_title
;
Structure prediction by ZEFSAII (Michael W. Deem and Ramdas Pophale) SiO2 
 PCOD9423956
Probable space group: P C C A
;
_chemical_formula_sum "Si O2"
_cell_formula_units_Z 32
_cell_length_a 7.832302
_cell_length_b 12.892716
_cell_length_c 17.071587
_cell_angle_alpha 90.000000
_cell_angle_beta 90.000000
_cell_angle_gamma 90.000000
_cell_volume 1723.882800
_symmetry_space_group_name_H-M "P C C A"
_symmetry_group_IT_number 54
_symmetry_cell_setting 'orthorhombic'
loop_
_space_group_symop_operation_xyz
x,y,z
1/2-x,-y,z
1/2+x,-y,1/2-z
-x,y,1/2-z
-x,-y,-z
1/2+x,y,-z
1/2-x,y,1/2+z
x,-y,1/2+z
loop_
_atom_site_type_symbol
_atom_site_label
_atom_site_fract_x
_atom_site_fract_y
_atom_site_fract_z
Si Si1 0.250000 0.500000 0.546615
Si Si2 0.981626 0.849836 0.553243
Si Si3 0.442465 0.543252 0.838895
Si Si4 0.250000 0.000000 0.054312
Si Si5 0.803040 0.297047 0.560932
O O1 0.417507 0.494865 0.601998
O O2 0.252056 0.603686 0.492823
O O3 0.855967 0.768326 0.594310
O O4 0.117015 0.923617 0.597590
O O5 0.089478 0.778322 0.494312
O O6 0.863521 0.926400 0.501700
O O7 0.250000 0.500000 0.843876
O O8 0.500000 0.534081 0.750000
O O9 0.420999 0.659939 0.870180
#
# Coordination Sequence:
#
# PCOD9423956 Si02
#       5
#     4   8   8   4   8
#     4  12  22  38  58  84 118 156 194 238 272 338
#     4   9  17  29  53  80 115 136 181 233 291 329
#     4  12  24  38  53  79 120 161 195 233 281 335
#     4   8  16  30  46  84 116 130 170 246 294 324
#     4  11  19  34  56  83 111 151 192 227 280 342
#
# _framework density 18.562746000000001
#
# number of rings (size 3 to 8) (size 9 to 14) (size 15 to 20)
#    0.000    1.500    5.000    2.250    0.000    0.000 
#    0.000    0.000    0.000    0.000    0.000   10.500 
#    0.000    0.000    0.000    0.000    0.000    0.000 
#
# Total GULP energy -178136.642765 kJ/mol
# GULP energy per Si atom -5566.770086 kJ/mol
# Density = 1.852050 g / cm^3
# Si number density = 18.562746 Si / 1000 Ang^3
#
#
#
# Elastic Constant Matrix: (Units=GPa)
#
#
# Indices 1 2 3 4 5 6 
#
# 1 116.2518 44.2715 28.4675 0.0000 0.0000 0.0000
# 2 44.2715 101.5714 21.4155 0.0000 0.0000 0.0000
# 3 28.4675 21.4155 65.7101 0.0000 0.0000 0.0000
# 4 0.0000 0.0000 0.0000 2.1781 0.0000 0.0000
# 5 0.0000 0.0000 0.0000 0.0000 24.4255 0.0000
# 6 0.0000 0.0000 0.0000 0.0000 0.0000 67.1684
#
#
#
# Elastic Compliance Matrix: (Units=1/GPa)
#
#
# Indices 1 2 3 4 5 6 
#
# 1 0.010992 -0.004067 -0.003437 0.000000 0.000000 0.000000
# 2 -0.004067 0.012076 -0.002174 0.000000 0.000000 0.000000
# 3 -0.003437 -0.002174 0.017416 0.000000 0.000000 0.000000
# 4 0.000000 0.000000 0.000000 0.459115 0.000000 0.000000
# 5 0.000000 0.000000 0.000000 0.000000 0.040941 0.000000
# 6 0.000000 0.000000 0.000000 0.000000 0.000000 0.014888
#
#
# Mechanical properties :
#
#
# Convention : Reuss Voigt Hill
#
# Bulk Modulus (GPa) = 47.32720 52.42691 49.87705
# Shear Modulus (GPa) = 8.59364 31.37964 19.98664
#
# Velocity S-wave (km/s) = 2.15396 4.11599 3.28488
# Velocity P-wave (km/s) = 5.63358 7.13392 6.42768
#
# Compressibility (1/GPa) = 0.02112950
#
# Stress axis : x y z
#
# Youngs Moduli (GPa) = 90.97321 82.80808 57.41908
#
# Poissons Ratio (x) = 0.33674 0.19734
# Poissons Ratio (y) = 0.36994 0.12483
# Poissons Ratio (z) = 0.31266 0.18002
#
# Static dielectric constant tensor:
#      x y z
#    x 1.741050 0.000000 0.000000 
#    y 0.000000 1.708070 0.000000 
#    z 0.000000 0.000000 1.588830 
# 
# From -- ./inp_files/11341.got.cif
#   From: 2010.05.17/outbox.cif.g08.bks.cpg/sg54_6_cif.got.tgz:11341.got - 2010.06.03 13:09:01.
