data_PCOD9423808
_publ_section_title
;
Structure prediction by ZEFSAII (Michael W. Deem and Ramdas Pophale) SiO2 
 PCOD9423808
Probable space group: P C C A
;
_chemical_formula_sum "Si O2"
_cell_formula_units_Z 40
_cell_length_a 9.836222
_cell_length_b 17.270392
_cell_length_c 10.290443
_cell_angle_alpha 90.000000
_cell_angle_beta 90.000000
_cell_angle_gamma 90.000000
_cell_volume 1748.093221
_symmetry_space_group_name_H-M "P C C A"
_symmetry_group_IT_number 54
_symmetry_cell_setting 'orthorhombic'
loop_
_space_group_symop_operation_xyz
x,y,z
1/2-x,-y,z
1/2+x,-y,1/2-z
-x,y,1/2-z
-x,-y,-z
1/2+x,y,-z
1/2-x,y,1/2+z
x,-y,1/2+z
loop_
_atom_site_type_symbol
_atom_site_label
_atom_site_fract_x
_atom_site_fract_y
_atom_site_fract_z
Si Si1 0.376193 0.946071 0.956338
Si Si2 0.000000 0.686112 0.750000
Si Si3 0.584200 0.780611 0.501016
Si Si4 0.000000 0.149038 0.750000
Si Si5 0.763537 0.359893 0.608193
Si Si6 0.250000 0.500000 0.088709
Si Si7 0.000000 0.551255 0.250000
O O1 0.369294 0.866682 0.037884
O O2 0.389735 0.909823 0.810536
O O3 0.250000 0.000000 0.968125
O O4 0.500000 0.000000 0.000000
O O5 0.027868 0.736641 0.622241
O O6 0.139481 0.643323 0.790840
O O7 0.480070 0.797600 0.622296
O O8 0.702234 0.725903 0.558098
O O9 0.733688 0.422799 0.497355
O O10 0.902727 0.393507 0.666930
O O11 0.391208 0.498468 0.168428
#
# Coordination Sequence:
#
# PCOD9423808 Si02
#       7
#     8   4   8   4   8   4   4
#     4  10  24  46  75 111 155 206 265 332 406 479
#     4  12  28  50  83 117 162 212 272 327 411 483
#     4  10  25  47  77 112 161 204 272 327 409 476
#     4   8  23  47  71 107 154 198 268 319 409 463
#     4  12  27  49  76 118 158 208 264 335 402 484
#     4  12  28  50  80 114 160 210 276 334 400 478
#     4  12  27  49  80 108 158 206 270 324 404 470
#
# _framework density 22.882075
#
# number of rings (size 3 to 8) (size 9 to 14) (size 15 to 20)
#    1.200    0.000    0.000    4.200    2.800   10.400 
#    0.000    0.000    0.000    0.000    0.000    0.000 
#    0.000    0.000    0.000    0.000    0.000    0.000 
#
# Total GULP energy -223189.070836 kJ/mol
# GULP energy per Si atom -5579.726771 kJ/mol
# Density = 2.282999 g / cm^3
# Si number density = 22.882075 Si / 1000 Ang^3
#
#
#
# Elastic Constant Matrix: (Units=GPa)
#
#
# Indices 1 2 3 4 5 6 
#
# 1 178.3105 79.6394 76.6499 0.0000 0.0000 0.0000
# 2 79.6394 178.3925 56.1046 0.0000 0.0000 0.0000
# 3 76.6499 56.1046 121.5510 0.0000 0.0000 0.0000
# 4 0.0000 0.0000 0.0000 73.7553 0.0000 0.0000
# 5 0.0000 0.0000 0.0000 0.0000 61.4317 0.0000
# 6 0.0000 0.0000 0.0000 0.0000 0.0000 3.5844
#
#
#
# Elastic Compliance Matrix: (Units=1/GPa)
#
#
# Indices 1 2 3 4 5 6 
#
# 1 0.008538 -0.002478 -0.004240 0.000000 0.000000 0.000000
# 2 -0.002478 0.007277 -0.001796 0.000000 0.000000 0.000000
# 3 -0.004240 -0.001796 0.011730 0.000000 0.000000 0.000000
# 4 0.000000 0.000000 0.000000 0.013558 0.000000 0.000000
# 5 0.000000 0.000000 0.000000 0.000000 0.016278 0.000000
# 6 0.000000 0.000000 0.000000 0.000000 0.000000 0.278985
#
#
# Mechanical properties :
#
#
# Convention : Reuss Voigt Hill
#
# Bulk Modulus (GPa) = 95.09433 100.33797 97.71615
# Shear Modulus (GPa) = 14.00956 45.47828 29.74392
#
# Velocity S-wave (km/s) = 2.47705 4.46298 3.60929
# Velocity P-wave (km/s) = 7.05902 8.39660 7.75669
#
# Compressibility (1/GPa) = 0.01051587
#
# Stress axis : x y z
#
# Youngs Moduli (GPa) = 117.12932 137.42445 85.25278
#
# Poissons Ratio (x) = 0.34053 0.36148
# Poissons Ratio (y) = 0.29024 0.15313
# Poissons Ratio (z) = 0.49663 0.24684
#
# Static dielectric constant tensor:
#      x y z
#    x 1.834140 0.000000 0.000000 
#    y 0.000000 1.881060 0.000000 
#    z 0.000000 0.000000 0.847870 
# 
# From -- ./inp_files/6972.got.cif
#   From: 2010.05.17/outbox.cif.g08.bks.cpg/sg54_4_cif.got.tgz:6972.got - 2010.06.03 13:09:01.
