data_PCOD9423533
_publ_section_title
;
Structure prediction by ZEFSAII (Michael W. Deem and Ramdas Pophale) SiO2 
 PCOD9423533
Probable space group: P C C A
;
_chemical_formula_sum "Si O2"
_cell_formula_units_Z 64
_cell_length_a 9.735335
_cell_length_b 14.445460
_cell_length_c 22.040334
_cell_angle_alpha 90.000000
_cell_angle_beta 90.000000
_cell_angle_gamma 90.000000
_cell_volume 3099.562858
_symmetry_space_group_name_H-M "P C C A"
_symmetry_group_IT_number 54
_symmetry_cell_setting 'orthorhombic'
loop_
_space_group_symop_operation_xyz
x,y,z
1/2-x,-y,z
1/2+x,-y,1/2-z
-x,y,1/2-z
-x,-y,-z
1/2+x,y,-z
1/2-x,y,1/2+z
x,-y,1/2+z
loop_
_atom_site_type_symbol
_atom_site_label
_atom_site_fract_x
_atom_site_fract_y
_atom_site_fract_z
Si Si1 0.875357 0.439040 0.522288
Si Si2 0.993904 0.246723 0.825007
Si Si3 0.122285 0.110102 0.041973
Si Si4 0.254406 0.386963 0.651859
Si Si5 0.475845 0.698605 0.061802
Si Si6 0.432338 0.903342 0.573717
Si Si7 0.252481 0.339449 0.882385
Si Si8 0.863370 0.424353 0.227320
O O1 0.750000 0.500000 0.496903
O O2 0.918494 0.335456 0.502981
O O3 0.840548 0.423483 0.592506
O O4 0.000000 0.500000 0.500000
O O5 0.887882 0.328778 0.847401
O O6 0.951152 0.154574 0.863925
O O7 0.000000 0.240820 0.750000
O O8 0.145719 0.271908 0.850204
O O9 0.052151 0.195510 0.075106
O O10 0.286269 0.125447 0.043307
O O11 0.085501 0.014679 0.076157
O O12 0.056673 0.110063 0.974367
O O13 0.250000 0.500000 0.650877
O O14 0.366964 0.358426 0.602578
O O15 0.317506 0.361299 0.717218
O O16 0.639975 0.683862 0.064079
O O17 0.366579 0.366688 0.832965
O O18 0.750000 0.500000 0.217195
O O19 0.000000 0.472856 0.250000
#
# Coordination Sequence:
#
# PCOD9423533 Si02
#       8
#     8   8   8   8   8   8   8   8
#     4  12  27  44  60  97 142 187 234 284 350 410
#     4  12  26  46  72 104 140 187 237 293 354 422
#     4  10  23  44  77 104 134 178 225 294 360 427
#     4  11  25  41  65  97 136 185 233 281 338 407
#     4  12  25  43  67  96 137 179 228 285 348 417
#     4  10  23  46  76 106 138 173 235 291 362 428
#     4  12  27  42  65  94 138 181 231 292 338 418
#     4  11  24  41  64  92 125 178 240 286 330 396
#
# _framework density 20.648073
#
# number of rings (size 3 to 8) (size 9 to 14) (size 15 to 20)
#    0.000    0.750    5.000    1.500   10.500    0.000 
#    0.000    0.000    8.250    0.000    0.000    0.000 
#    0.000    0.000    0.000    0.000    0.000    0.000 
#
# Total GULP energy -356310.809894 kJ/mol
# GULP energy per Si atom -5567.356405 kJ/mol
# Density = 2.060108 g / cm^3
# Si number density = 20.648073 Si / 1000 Ang^3
#
#
#
# Elastic Constant Matrix: (Units=GPa)
#
#
# Indices 1 2 3 4 5 6 
#
# 1 148.5387 35.4830 38.7001 0.0000 0.0000 0.0000
# 2 35.4830 96.8659 33.1291 0.0000 0.0000 0.0000
# 3 38.7001 33.1291 86.5810 0.0000 0.0000 0.0000
# 4 0.0000 0.0000 0.0000 22.9936 0.0000 0.0000
# 5 0.0000 0.0000 0.0000 0.0000 27.2596 0.0000
# 6 0.0000 0.0000 0.0000 0.0000 0.0000 16.9355
#
#
#
# Elastic Compliance Matrix: (Units=1/GPa)
#
#
# Indices 1 2 3 4 5 6 
#
# 1 0.007926 -0.001946 -0.002798 0.000000 0.000000 0.000000
# 2 -0.001946 0.012356 -0.003858 0.000000 0.000000 0.000000
# 3 -0.002798 -0.003858 0.014277 0.000000 0.000000 0.000000
# 4 0.000000 0.000000 0.000000 0.043490 0.000000 0.000000
# 5 0.000000 0.000000 0.000000 0.000000 0.036684 0.000000
# 6 0.000000 0.000000 0.000000 0.000000 0.000000 0.059048
#
#
# Mechanical properties :
#
#
# Convention : Reuss Voigt Hill
#
# Bulk Modulus (GPa) = 57.62308 60.73446 59.17877
# Shear Modulus (GPa) = 25.41027 28.41595 26.91311
#
# Velocity S-wave (km/s) = 3.51185 3.71375 3.61421
# Velocity P-wave (km/s) = 6.66423 6.91861 6.79261
#
# Compressibility (1/GPa) = 0.01735416
#
# Stress axis : x y z
#
# Youngs Moduli (GPa) = 126.16322 80.93241 70.04416
#
# Poissons Ratio (x) = 0.15753 0.19599
# Poissons Ratio (y) = 0.24558 0.27022
# Poissons Ratio (z) = 0.35301 0.31222
#
# Static dielectric constant tensor:
#      x y z
#    x 1.825280 0.000000 0.000000 
#    y 0.000000 1.807430 0.000000 
#    z 0.000000 0.000000 1.808510 
# 
# From -- ./inp_files/23678.got.cif
#   From: 2010.05.17/outbox.cif.g08.bks.cpg/sg54_12_cif.got.tgz:23678.got - 2010.06.03 13:09:01.
