data_PCOD9423510
_publ_section_title
;
Structure prediction by ZEFSAII (Michael W. Deem and Ramdas Pophale) SiO2 
 PCOD9423510
Probable space group: P C C A
;
_chemical_formula_sum "Si O2"
_cell_formula_units_Z 48
_cell_length_a 8.114353
_cell_length_b 16.732170
_cell_length_c 14.390096
_cell_angle_alpha 90.000000
_cell_angle_beta 90.000000
_cell_angle_gamma 90.000000
_cell_volume 1953.753894
_symmetry_space_group_name_H-M "P C C A"
_symmetry_group_IT_number 54
_symmetry_cell_setting 'orthorhombic'
loop_
_space_group_symop_operation_xyz
x,y,z
1/2-x,-y,z
1/2+x,-y,1/2-z
-x,y,1/2-z
-x,-y,-z
1/2+x,y,-z
1/2-x,y,1/2+z
x,-y,1/2+z
loop_
_atom_site_type_symbol
_atom_site_label
_atom_site_fract_x
_atom_site_fract_y
_atom_site_fract_z
Si Si1 0.774562 0.284623 0.453183
Si Si2 0.534996 0.834827 0.005570
Si Si3 0.619523 0.934780 0.830530
Si Si4 0.724620 0.411122 0.323294
Si Si5 0.650274 0.350961 0.144507
Si Si6 0.177792 0.812502 0.796708
O O1 0.591238 0.249509 0.458681
O O2 0.828122 0.339309 0.368499
O O3 0.792378 0.344080 0.539605
O O4 0.861037 0.197832 0.458027
O O5 0.635601 0.850190 0.101095
O O6 0.535017 0.898841 0.923163
O O7 0.500000 0.969868 0.750000
O O8 0.718636 0.868230 0.771965
O O9 0.750000 0.000000 0.862672
O O10 0.750000 0.500000 0.359568
O O11 0.750064 0.408951 0.213123
O O12 0.537656 0.381187 0.344785
O O13 0.703770 0.263456 0.184022
O O14 0.000000 0.795500 0.750000
#
# Coordination Sequence:
#
# PCOD9423510 Si02
#       6
#     8   8   8   8   8   8
#     4  11  22  42  73  99 137 187 255 298 373 436
#     4  11  23  43  72 107 135 194 251 312 361 452
#     4  12  27  46  74 110 159 199 243 308 385 446
#     4  11  24  43  67 100 148 193 240 312 386 445
#     4  10  23  44  68 101 144 190 248 302 368 448
#     4  11  24  45  78 110 144 193 257 311 366 455
#
# _framework density 24.568089000000001
#
# number of rings (size 3 to 8) (size 9 to 14) (size 15 to 20)
#    0.000    1.000    1.667    5.500    4.667    2.000 
#   15.000    5.000    0.000    0.000    0.000    0.000 
#    0.000    0.000    0.000    0.000    0.000    0.000 
#
# Total GULP energy -267898.304431 kJ/mol
# GULP energy per Si atom -5581.214676 kJ/mol
# Density = 2.451217 g / cm^3
# Si number density = 24.568089 Si / 1000 Ang^3
#
#
#
# Elastic Constant Matrix: (Units=GPa)
#
#
# Indices 1 2 3 4 5 6 
#
# 1 47.1244 4.3589 4.3464 0.0000 0.0000 0.0000
# 2 4.3589 45.1444 36.9151 0.0000 0.0000 0.0000
# 3 4.3464 36.9151 137.6124 0.0000 0.0000 0.0000
# 4 0.0000 0.0000 0.0000 29.0901 0.0000 0.0000
# 5 0.0000 0.0000 0.0000 0.0000 29.8210 0.0000
# 6 0.0000 0.0000 0.0000 0.0000 0.0000 20.5506
#
#
#
# Elastic Compliance Matrix: (Units=1/GPa)
#
#
# Indices 1 2 3 4 5 6 
#
# 1 0.021414 -0.001940 -0.000156 0.000000 0.000000 0.000000
# 2 -0.001940 0.028551 -0.007598 0.000000 0.000000 0.000000
# 3 -0.000156 -0.007598 0.009310 0.000000 0.000000 0.000000
# 4 0.000000 0.000000 0.000000 0.034376 0.000000 0.000000
# 5 0.000000 0.000000 0.000000 0.000000 0.033533 0.000000
# 6 0.000000 0.000000 0.000000 0.000000 0.000000 0.048660
#
#
# Mechanical properties :
#
#
# Convention : Reuss Voigt Hill
#
# Bulk Modulus (GPa) = 25.07034 35.68022 30.37528
# Shear Modulus (GPa) = 23.97753 28.17639 26.07696
#
# Velocity S-wave (km/s) = 3.12743 3.39022 3.26147
# Velocity P-wave (km/s) = 4.82366 5.46620 5.15495
#
# Compressibility (1/GPa) = 0.03988777
#
# Stress axis : x y z
#
# Youngs Moduli (GPa) = 46.69787 35.02477 107.41344
#
# Poissons Ratio (x) = 0.06795 0.01675
# Poissons Ratio (y) = 0.09060 0.81609
# Poissons Ratio (z) = 0.00728 0.26611
#
# Static dielectric constant tensor:
#      x y z
#    x 2.167980 0.000000 0.000000 
#    y 0.000000 1.886890 0.000000 
#    z 0.000000 0.000000 2.063670 
# 
# From -- ./inp_files/16622.got.cif
#   From: 2010.05.17/outbox.cif.g08.bks.cpg/sg54_9_cif.got.tgz:16622.got - 2010.06.03 13:09:01.
