data_PCOD9423979
_publ_section_title
;
Structure prediction by ZEFSAII (Michael W. Deem and Ramdas Pophale) SiO2 
 PCOD9423979
Probable space group: P C C A
;
_chemical_formula_sum "Si O2"
_cell_formula_units_Z 64
_cell_length_a 11.843097
_cell_length_b 11.373857
_cell_length_c 25.268746
_cell_angle_alpha 90.000000
_cell_angle_beta 90.000000
_cell_angle_gamma 90.000000
_cell_volume 3403.742834
_symmetry_space_group_name_H-M "P C C A"
_symmetry_group_IT_number 54
_symmetry_cell_setting 'orthorhombic'
loop_
_space_group_symop_operation_xyz
x,y,z
1/2-x,-y,z
1/2+x,-y,1/2-z
-x,y,1/2-z
-x,-y,-z
1/2+x,y,-z
1/2-x,y,1/2+z
x,-y,1/2+z
loop_
_atom_site_type_symbol
_atom_site_label
_atom_site_fract_x
_atom_site_fract_y
_atom_site_fract_z
Si Si1 0.217259 0.636395 0.993111
Si Si2 0.247726 0.357247 0.291516
Si Si3 0.209055 0.634520 0.174355
Si Si4 0.902456 0.628384 0.613221
Si Si5 0.982888 0.201150 0.962057
Si Si6 0.953441 0.645048 0.134168
Si Si7 0.868148 0.030470 0.460885
Si Si8 0.140264 0.257951 0.083613
O O1 0.250000 0.500000 0.003598
O O2 0.196043 0.647335 0.930325
O O3 0.101053 0.697158 0.015015
O O4 0.315090 0.702603 0.025397
O O5 0.250000 0.500000 0.289396
O O6 0.254478 0.314494 0.231372
O O7 0.141424 0.330594 0.329358
O O8 0.359205 0.321309 0.323325
O O9 0.250000 0.500000 0.175121
O O10 0.274686 0.688941 0.125517
O O11 0.076316 0.643328 0.161858
O O12 0.928712 0.488889 0.615250
O O13 0.015691 0.693808 0.595215
O O14 0.048045 0.267108 0.915619
O O15 0.907302 0.095064 0.939686
O O16 0.050609 0.114625 0.003150
O O17 0.851584 0.118567 0.412765
O O18 0.750000 0.000000 0.489842
#
# Coordination Sequence:
#
# PCOD9423979 Si02
#       8
#     8   8   8   8   8   8   8   8
#     4  12  23  36  58  94 130 161 194 246 323 393
#     4   9  22  36  57  89 124 164 202 252 309 378
#     4  11  20  37  59  91 125 159 206 249 313 378
#     4  11  24  37  57  93 131 164 203 251 325 373
#     4  11  24  38  60  90 120 164 209 252 310 370
#     4  11  20  39  60  90 124 161 199 255 313 375
#     4  11  23  41  59  85 118 167 216 255 301 371
#     4  12  23  38  61  87 122 165 203 259 305 378
#
# _framework density 18.802831000000001
#
# number of rings (size 3 to 8) (size 9 to 14) (size 15 to 20)
#    0.000    1.000    5.000    2.625    3.500    1.500 
#    0.000    0.000    0.000    0.000   16.250    0.000 
#    0.000    0.000    0.000    0.000    0.000    0.000 
#
# Total GULP energy -356497.088919 kJ/mol
# GULP energy per Si atom -5570.267014 kJ/mol
# Density = 1.876004 g / cm^3
# Si number density = 18.802831 Si / 1000 Ang^3
#
#
#
# Elastic Constant Matrix: (Units=GPa)
#
#
# Indices 1 2 3 4 5 6 
#
# 1 91.9580 21.1771 23.0574 0.0000 0.0000 0.0000
# 2 21.1771 79.1004 27.8850 0.0000 0.0000 0.0000
# 3 23.0574 27.8850 95.2700 0.0000 0.0000 0.0000
# 4 0.0000 0.0000 0.0000 10.1702 0.0000 0.0000
# 5 0.0000 0.0000 0.0000 0.0000 21.5871 0.0000
# 6 0.0000 0.0000 0.0000 0.0000 0.0000 28.2701
#
#
#
# Elastic Compliance Matrix: (Units=1/GPa)
#
#
# Indices 1 2 3 4 5 6 
#
# 1 0.011984 -0.002437 -0.002187 0.000000 0.000000 0.000000
# 2 -0.002437 0.014592 -0.003681 0.000000 0.000000 0.000000
# 3 -0.002187 -0.003681 0.012103 0.000000 0.000000 0.000000
# 4 0.000000 0.000000 0.000000 0.098327 0.000000 0.000000
# 5 0.000000 0.000000 0.000000 0.000000 0.046324 0.000000
# 6 0.000000 0.000000 0.000000 0.000000 0.000000 0.035373
#
#
# Mechanical properties :
#
#
# Convention : Reuss Voigt Hill
#
# Bulk Modulus (GPa) = 45.31337 45.61860 45.46598
# Shear Modulus (GPa) = 20.60400 24.95274 22.77837
#
# Velocity S-wave (km/s) = 3.31387 3.64685 3.48434
# Velocity P-wave (km/s) = 6.22847 6.48436 6.35770
#
# Compressibility (1/GPa) = 0.02206854
#
# Stress axis : x y z
#
# Youngs Moduli (GPa) = 83.44303 68.52852 82.62246
#
# Poissons Ratio (x) = 0.16704 0.18070
# Poissons Ratio (y) = 0.20339 0.30415
# Poissons Ratio (z) = 0.18249 0.25227
#
# Static dielectric constant tensor:
#      x y z
#    x 1.760450 0.000000 0.000000 
#    y 0.000000 1.722380 0.000000 
#    z 0.000000 0.000000 1.685810 
# 
# From -- ./inp_files/24238.got.cif
#   From: 2010.05.17/outbox.cif.g08.bks.cpg/sg54_13_cif.got.tgz:24238.got - 2010.06.03 13:09:01.
