data_PCOD9423929
_publ_section_title
;
Structure prediction by ZEFSAII (Michael W. Deem and Ramdas Pophale) SiO2 
 PCOD9423929
Probable space group: P C C A
;
_chemical_formula_sum "Si O2"
_cell_formula_units_Z 40
_cell_length_a 18.124883
_cell_length_b 11.352432
_cell_length_c 8.315203
_cell_angle_alpha 90.000000
_cell_angle_beta 90.000000
_cell_angle_gamma 90.000000
_cell_volume 1710.948657
_symmetry_space_group_name_H-M "P C C A"
_symmetry_group_IT_number 54
_symmetry_cell_setting 'orthorhombic'
loop_
_space_group_symop_operation_xyz
x,y,z
1/2-x,-y,z
1/2+x,-y,1/2-z
-x,y,1/2-z
-x,-y,-z
1/2+x,y,-z
1/2-x,y,1/2+z
x,-y,1/2+z
loop_
_atom_site_type_symbol
_atom_site_label
_atom_site_fract_x
_atom_site_fract_y
_atom_site_fract_z
Si Si1 0.317356 0.347248 0.386270
Si Si2 0.750000 0.500000 0.854322
Si Si3 0.186032 0.096520 0.783135
Si Si4 0.000000 0.211458 0.250000
Si Si5 0.485071 0.633874 0.943425
Si Si6 0.581611 0.022919 0.929380
O O1 0.269204 0.391775 0.533117
O O2 0.315455 0.454724 0.258879
O O3 0.286895 0.228832 0.307078
O O4 0.399129 0.333810 0.450126
O O5 0.250000 0.000000 0.754384
O O6 0.121411 0.088363 0.650623
O O7 0.141009 0.065922 0.943466
O O8 0.067122 0.123981 0.203205
O O9 0.018521 0.285877 0.411607
O O10 0.500000 0.649497 0.750000
O O11 0.500000 0.500000 0.000000
O O12 0.500000 0.000000 0.000000
#
# Coordination Sequence:
#
# PCOD9423929 Si02
#       6
#     8   4   8   4   8   8
#     4  11  26  48  74 105 153 197 254 317 389 471
#     4  10  26  50  70 102 146 206 250 300 388 464
#     4  12  28  46  76 115 153 199 266 331 407 483
#     4  12  26  46  76 110 156 200 256 328 392 490
#     4  12  26  46  76 118 150 200 262 326 397 469
#     4  12  26  50  73 110 151 208 257 321 415 479
#
# _framework density 23.378841000000001
#
# number of rings (size 3 to 8) (size 9 to 14) (size 15 to 20)
#    0.000    0.400    5.000    1.800    8.400    0.000 
#    3.600    0.000    0.000    0.000    0.000    0.000 
#    0.000    0.000    0.000    0.000    0.000    0.000 
#
# Total GULP energy -223419.036598 kJ/mol
# GULP energy per Si atom -5585.475915 kJ/mol
# Density = 2.332563 g / cm^3
# Si number density = 23.378841 Si / 1000 Ang^3
#
#
#
# Elastic Constant Matrix: (Units=GPa)
#
#
# Indices 1 2 3 4 5 6 
#
# 1 83.8788 23.7039 30.7379 0.0000 0.0000 0.0000
# 2 23.7039 117.4032 46.1928 0.0000 0.0000 0.0000
# 3 30.7379 46.1928 145.8916 0.0000 0.0000 0.0000
# 4 0.0000 0.0000 0.0000 61.4853 0.0000 0.0000
# 5 0.0000 0.0000 0.0000 0.0000 14.1483 0.0000
# 6 0.0000 0.0000 0.0000 0.0000 0.0000 27.8128
#
#
#
# Elastic Compliance Matrix: (Units=1/GPa)
#
#
# Indices 1 2 3 4 5 6 
#
# 1 0.013244 -0.001800 -0.002220 0.000000 0.000000 0.000000
# 2 -0.001800 0.009975 -0.002779 0.000000 0.000000 0.000000
# 3 -0.002220 -0.002779 0.008202 0.000000 0.000000 0.000000
# 4 0.000000 0.000000 0.000000 0.016264 0.000000 0.000000
# 5 0.000000 0.000000 0.000000 0.000000 0.070680 0.000000
# 6 0.000000 0.000000 0.000000 0.000000 0.000000 0.035955
#
#
# Mechanical properties :
#
#
# Convention : Reuss Voigt Hill
#
# Bulk Modulus (GPa) = 56.11151 60.93807 58.52479
# Shear Modulus (GPa) = 28.75880 37.12520 32.94200
#
# Velocity S-wave (km/s) = 3.51111 3.98927 3.75781
# Velocity P-wave (km/s) = 6.36320 6.88049 6.62689
#
# Compressibility (1/GPa) = 0.01782166
#
# Stress axis : x y z
#
# Youngs Moduli (GPa) = 75.50336 100.25556 121.92052
#
# Poissons Ratio (x) = 0.18050 0.27071
# Poissons Ratio (y) = 0.13594 0.33880
# Poissons Ratio (z) = 0.16765 0.27859
#
# Static dielectric constant tensor:
#      x y z
#    x 1.872170 0.000000 0.000000 
#    y 0.000000 2.043260 0.000000 
#    z 0.000000 0.000000 1.983650 
# 
# From -- ./inp_files/4005.got.cif
#   From: 2010.05.17/outbox.cif.g08.bks.cpg/sg54_3_cif.got.tgz:4005.got - 2010.06.03 13:09:01.
