data_PCOD9423527
_publ_section_title
;
Structure prediction by ZEFSAII (Michael W. Deem and Ramdas Pophale) SiO2 
 PCOD9423527
Probable space group: P C C A
;
_chemical_formula_sum "Si O2"
_cell_formula_units_Z 48
_cell_length_a 21.870708
_cell_length_b 9.268965
_cell_length_c 9.530584
_cell_angle_alpha 90.000000
_cell_angle_beta 90.000000
_cell_angle_gamma 90.000000
_cell_volume 1932.028809
_symmetry_space_group_name_H-M "P C C A"
_symmetry_group_IT_number 54
_symmetry_cell_setting 'orthorhombic'
loop_
_space_group_symop_operation_xyz
x,y,z
1/2-x,-y,z
1/2+x,-y,1/2-z
-x,y,1/2-z
-x,-y,-z
1/2+x,y,-z
1/2-x,y,1/2+z
x,-y,1/2+z
loop_
_atom_site_type_symbol
_atom_site_label
_atom_site_fract_x
_atom_site_fract_y
_atom_site_fract_z
Si Si1 0.436663 0.215482 0.827987
Si Si2 0.301059 0.883740 0.599900
Si Si3 0.640213 0.024501 0.132888
Si Si4 0.371421 0.299560 0.551197
Si Si5 0.059936 0.533292 0.349377
Si Si6 0.188672 0.557332 0.183802
O O1 0.500000 0.203225 0.750000
O O2 0.386297 0.241169 0.705417
O O3 0.435976 0.368764 0.906188
O O4 0.421472 0.063946 0.898686
O O5 0.355217 0.931210 0.705976
O O6 0.294243 0.715459 0.628239
O O7 0.250000 0.000000 0.642247
O O8 0.312548 0.911582 0.436057
O O9 0.650888 0.168763 0.043701
O O10 0.433652 0.358640 0.479294
O O11 0.326728 0.435695 0.566856
O O12 0.123561 0.563062 0.265303
O O13 0.000000 0.547818 0.250000
O O14 0.250000 0.500000 0.260205
#
# Coordination Sequence:
#
# PCOD9423527 Si02
#       6
#     8   8   8   8   8   8
#     4  10  24  43  70 104 140 190 243 303 365 440
#     4  12  26  46  70 104 141 191 235 301 372 441
#     4  12  24  46  70 102 145 185 239 298 367 440
#     4  11  23  45  70 105 143 186 248 298 371 442
#     4  10  23  44  72 105 147 196 247 310 371 447
#     4  11  25  44  71 103 144 189 245 307 370 443
#
# _framework density 24.844351
#
# number of rings (size 3 to 8) (size 9 to 14) (size 15 to 20)
#    0.000    1.000    3.333    2.500    2.333    9.333 
#    3.000    0.000    0.000    0.000    0.000    0.000 
#    0.000    0.000    0.000    0.000    0.000    0.000 
#
# Total GULP energy -267989.787232 kJ/mol
# GULP energy per Si atom -5583.120567 kJ/mol
# Density = 2.478780 g / cm^3
# Si number density = 24.844351 Si / 1000 Ang^3
#
#
#
# Elastic Constant Matrix: (Units=GPa)
#
#
# Indices 1 2 3 4 5 6 
#
# 1 105.9119 45.6857 17.8821 0.0000 0.0000 0.0000
# 2 45.6857 172.3331 17.8631 0.0000 0.0000 0.0000
# 3 17.8821 17.8631 81.1340 0.0000 0.0000 0.0000
# 4 0.0000 0.0000 0.0000 23.8621 0.0000 0.0000
# 5 0.0000 0.0000 0.0000 0.0000 32.2670 0.0000
# 6 0.0000 0.0000 0.0000 0.0000 0.0000 32.6269
#
#
#
# Elastic Compliance Matrix: (Units=1/GPa)
#
#
# Indices 1 2 3 4 5 6 
#
# 1 0.010915 -0.002706 -0.001810 0.000000 0.000000 0.000000
# 2 -0.002706 0.006609 -0.000859 0.000000 0.000000 0.000000
# 3 -0.001810 -0.000859 0.012913 0.000000 0.000000 0.000000
# 4 0.000000 0.000000 0.000000 0.041907 0.000000 0.000000
# 5 0.000000 0.000000 0.000000 0.000000 0.030991 0.000000
# 6 0.000000 0.000000 0.000000 0.000000 0.000000 0.030650
#
#
# Mechanical properties :
#
#
# Convention : Reuss Voigt Hill
#
# Bulk Modulus (GPa) = 50.79235 58.02674 54.40955
# Shear Modulus (GPa) = 33.04764 36.28109 34.66436
#
# Velocity S-wave (km/s) = 3.65113 3.82558 3.73937
# Velocity P-wave (km/s) = 6.18570 6.55135 6.37115
#
# Compressibility (1/GPa) = 0.01968800
#
# Stress axis : x y z
#
# Youngs Moduli (GPa) = 91.62067 151.30761 77.43983
#
# Poissons Ratio (x) = 0.40942 0.14015
# Poissons Ratio (y) = 0.24791 0.06650
# Poissons Ratio (z) = 0.16582 0.12993
#
# Static dielectric constant tensor:
#      x y z
#    x 2.084690 0.000000 0.000000 
#    y 0.000000 1.971070 0.000000 
#    z 0.000000 0.000000 2.020760 
# 
# From -- ./inp_files/9907.got.cif
#   From: 2010.05.17/outbox.cif.g08.bks.cpg/sg54_5_cif.got.tgz:9907.got - 2010.06.03 13:09:01.
