data_PCOD9423772
_publ_section_title
;
Structure prediction by ZEFSAII (Michael W. Deem and Ramdas Pophale) SiO2 
 PCOD9423772
Probable space group: P C C A
;
_chemical_formula_sum "Si O2"
_cell_formula_units_Z 40
_cell_length_a 17.103714
_cell_length_b 8.352612
_cell_length_c 12.597427
_cell_angle_alpha 90.000000
_cell_angle_beta 90.000000
_cell_angle_gamma 90.000000
_cell_volume 1799.677073
_symmetry_space_group_name_H-M "P C C A"
_symmetry_group_IT_number 54
_symmetry_cell_setting 'orthorhombic'
loop_
_space_group_symop_operation_xyz
x,y,z
1/2-x,-y,z
1/2+x,-y,1/2-z
-x,y,1/2-z
-x,-y,-z
1/2+x,y,-z
1/2-x,y,1/2+z
x,-y,1/2+z
loop_
_atom_site_type_symbol
_atom_site_label
_atom_site_fract_x
_atom_site_fract_y
_atom_site_fract_z
Si Si1 0.838249 0.787803 0.189010
Si Si2 0.336213 0.845403 0.259244
Si Si3 0.126340 0.254797 0.053544
Si Si4 0.911760 0.415276 0.878250
Si Si5 0.540608 0.672595 0.102547
O O1 0.745135 0.771464 0.202838
O O2 0.884930 0.692237 0.280467
O O3 0.852208 0.978078 0.197223
O O4 0.858930 0.739158 0.069784
O O5 0.329235 0.862617 0.131877
O O6 0.406786 0.734690 0.301991
O O7 0.142456 0.429347 0.104747
O O8 0.034887 0.220384 0.075991
O O9 0.998531 0.500339 0.874049
O O10 0.911345 0.330975 0.993164
#
# Coordination Sequence:
#
# PCOD9423772 Si02
#       5
#     8   8   8   8   8
#     4  11  27  45  72 108 144 197 238 295 375 436
#     4  11  26  45  72 102 155 186 238 301 366 439
#     4  10  24  45  68 105 136 196 239 291 365 416
#     4   9  23  46  70 101 140 183 244 297 351 421
#     4   9  22  46  71  98 146 187 236 310 341 426
#
# _framework density 22.226210999999999
#
# number of rings (size 3 to 8) (size 9 to 14) (size 15 to 20)
#    1.200    0.800    0.000    0.600    8.400    5.600 
#    3.600    0.000    0.000    0.000    0.000    0.000 
#    0.000    0.000    0.000    0.000    0.000    0.000 
#
# Total GULP energy -223071.146017 kJ/mol
# GULP energy per Si atom -5576.778650 kJ/mol
# Density = 2.217562 g / cm^3
# Si number density = 22.226211 Si / 1000 Ang^3
#
#
#
# Elastic Constant Matrix: (Units=GPa)
#
#
# Indices 1 2 3 4 5 6 
#
# 1 81.8236 45.8124 63.5783 0.0000 0.0000 0.0000
# 2 45.8124 42.4661 53.6834 0.0000 0.0000 0.0000
# 3 63.5783 53.6834 218.5929 0.0000 0.0000 0.0000
# 4 0.0000 0.0000 0.0000 22.2001 0.0000 0.0000
# 5 0.0000 0.0000 0.0000 0.0000 20.3212 0.0000
# 6 0.0000 0.0000 0.0000 0.0000 0.0000 31.4895
#
#
#
# Elastic Compliance Matrix: (Units=1/GPa)
#
#
# Indices 1 2 3 4 5 6 
#
# 1 0.031067 -0.032039 -0.001168 0.000000 0.000000 0.000000
# 2 -0.032039 0.067192 -0.007183 0.000000 0.000000 0.000000
# 3 -0.001168 -0.007183 0.006678 0.000000 0.000000 0.000000
# 4 0.000000 0.000000 0.000000 0.045045 0.000000 0.000000
# 5 0.000000 0.000000 0.000000 0.000000 0.049210 0.000000
# 6 0.000000 0.000000 0.000000 0.000000 0.000000 0.031757
#
#
# Mechanical properties :
#
#
# Convention : Reuss Voigt Hill
#
# Bulk Modulus (GPa) = 41.39340 74.33676 57.86508
# Shear Modulus (GPa) = 15.63574 26.78938 21.21256
#
# Velocity S-wave (km/s) = 2.65520 3.47552 3.09268
# Velocity P-wave (km/s) = 5.29757 7.04441 6.23250
#
# Compressibility (1/GPa) = 0.02415844
#
# Stress axis : x y z
#
# Youngs Moduli (GPa) = 32.18845 14.88273 149.73875
#
# Poissons Ratio (x) = 0.47683 0.17483
# Poissons Ratio (y) = 1.03129 1.07554
# Poissons Ratio (z) = 0.03758 0.10690
#
# Static dielectric constant tensor:
#      x y z
#    x 1.849180 0.000000 0.000000 
#    y 0.000000 1.878010 0.000000 
#    z 0.000000 0.000000 1.836390 
# 
# From -- ./inp_files/8726.got.cif
#   From: 2010.05.17/outbox.cif.g08.bks.cpg/sg54_5_cif.got.tgz:8726.got - 2010.06.03 13:09:01.
