data_PCOD9423950
_publ_section_title
;
Structure prediction by ZEFSAII (Michael W. Deem and Ramdas Pophale) SiO2 
 PCOD9423950
Probable space group: P C C A
;
_chemical_formula_sum "Si O2"
_cell_formula_units_Z 40
_cell_length_a 18.368209
_cell_length_b 11.766019
_cell_length_c 8.690220
_cell_angle_alpha 90.000000
_cell_angle_beta 90.000000
_cell_angle_gamma 90.000000
_cell_volume 1878.136396
_symmetry_space_group_name_H-M "P C C A"
_symmetry_group_IT_number 54
_symmetry_cell_setting 'orthorhombic'
loop_
_space_group_symop_operation_xyz
x,y,z
1/2-x,-y,z
1/2+x,-y,1/2-z
-x,y,1/2-z
-x,-y,-z
1/2+x,y,-z
1/2-x,y,1/2+z
x,-y,1/2+z
loop_
_atom_site_type_symbol
_atom_site_label
_atom_site_fract_x
_atom_site_fract_y
_atom_site_fract_z
Si Si1 0.694130 0.100426 0.165260
Si Si2 0.392199 0.013414 0.067969
Si Si3 0.331342 0.356758 0.275092
Si Si4 0.985681 0.825375 0.584461
Si Si5 0.500000 0.704453 0.750000
Si Si6 0.750000 0.500000 0.978141
O O1 0.625933 0.076799 0.276296
O O2 0.705118 0.233479 0.189063
O O3 0.750000 0.000000 0.204903
O O4 0.670290 0.069395 0.993478
O O5 0.459204 0.930882 0.093585
O O6 0.407856 0.112951 0.942881
O O7 0.418958 0.352121 0.252900
O O8 0.308994 0.437489 0.415715
O O9 0.292077 0.409459 0.126993
O O10 0.000000 0.764530 0.750000
O O11 0.000253 0.765462 0.419870
#
# Coordination Sequence:
#
# PCOD9423950 Si02
#       6
#     8   8   8   8   4   4
#     4  12  25  37  67 105 146 186 229 291 365 452
#     4  11  21  38  56 102 145 187 226 272 362 456
#     4  11  26  51  77 103 144 191 255 309 366 441
#     4  11  21  38  64  99 151 192 221 277 380 447
#     4  12  24  46  78 110 140 190 252 326 352 434
#     4  10  28  56  74  94 140 204 248 312 376 424
#
# _framework density 21.297709000000001
#
# number of rings (size 3 to 8) (size 9 to 14) (size 15 to 20)
#    0.000    0.800    6.000    0.600    8.400    0.800 
#    7.200    0.000    0.000    0.000    0.000    0.000 
#    0.000    0.000    0.000    0.000    0.000    0.000 
#
# Total GULP energy -222743.622655 kJ/mol
# GULP energy per Si atom -5568.590566 kJ/mol
# Density = 2.124923 g / cm^3
# Si number density = 21.297709 Si / 1000 Ang^3
#
#
#
# Elastic Constant Matrix: (Units=GPa)
#
#
# Indices 1 2 3 4 5 6 
#
# 1 76.7928 31.6081 19.9876 0.0000 0.0000 0.0000
# 2 31.6081 91.3861 38.9706 0.0000 0.0000 0.0000
# 3 19.9876 38.9706 139.2724 0.0000 0.0000 0.0000
# 4 0.0000 0.0000 0.0000 10.1314 0.0000 0.0000
# 5 0.0000 0.0000 0.0000 0.0000 11.8147 0.0000
# 6 0.0000 0.0000 0.0000 0.0000 0.0000 27.9301
#
#
#
# Elastic Compliance Matrix: (Units=1/GPa)
#
#
# Indices 1 2 3 4 5 6 
#
# 1 0.015264 -0.004934 -0.000810 0.000000 0.000000 0.000000
# 2 -0.004934 0.014020 -0.003215 0.000000 0.000000 0.000000
# 3 -0.000810 -0.003215 0.008196 0.000000 0.000000 0.000000
# 4 0.000000 0.000000 0.000000 0.098703 0.000000 0.000000
# 5 0.000000 0.000000 0.000000 0.000000 0.084640 0.000000
# 6 0.000000 0.000000 0.000000 0.000000 0.000000 0.035804
#
#
# Mechanical properties :
#
#
# Convention : Reuss Voigt Hill
#
# Bulk Modulus (GPa) = 51.11924 54.28709 52.70317
# Shear Modulus (GPa) = 17.78943 24.43423 21.11183
#
# Velocity S-wave (km/s) = 2.89325 3.39081 3.15186
# Velocity P-wave (km/s) = 5.93427 6.39337 6.16809
#
# Compressibility (1/GPa) = 0.01956211
#
# Stress axis : x y z
#
# Youngs Moduli (GPa) = 65.51498 71.32627 122.01054
#
# Poissons Ratio (x) = 0.35192 0.09883
# Poissons Ratio (y) = 0.32324 0.39226
# Poissons Ratio (z) = 0.05307 0.22931
#
# Static dielectric constant tensor:
#      x y z
#    x 2.908610 0.000000 0.000000 
#    y 0.000000 1.784960 0.000000 
#    z 0.000000 0.000000 1.821240 
# 
# From -- ./inp_files/4015.got.cif
#   From: 2010.05.17/outbox.cif.g08.bks.cpg/sg54_3_cif.got.tgz:4015.got - 2010.06.03 13:09:01.
