data_PCOD9423529
_publ_section_title
;
Structure prediction by ZEFSAII (Michael W. Deem and Ramdas Pophale) SiO2 
 PCOD9423529
Probable space group: P C C A
;
_chemical_formula_sum "Si O2"
_cell_formula_units_Z 48
_cell_length_a 25.900965
_cell_length_b 5.531899
_cell_length_c 14.094773
_cell_angle_alpha 90.000000
_cell_angle_beta 90.000000
_cell_angle_gamma 90.000000
_cell_volume 2019.520533
_symmetry_space_group_name_H-M "P C C A"
_symmetry_group_IT_number 54
_symmetry_cell_setting 'orthorhombic'
loop_
_space_group_symop_operation_xyz
x,y,z
1/2-x,-y,z
1/2+x,-y,1/2-z
-x,y,1/2-z
-x,-y,-z
1/2+x,y,-z
1/2-x,y,1/2+z
x,-y,1/2+z
loop_
_atom_site_type_symbol
_atom_site_label
_atom_site_fract_x
_atom_site_fract_y
_atom_site_fract_z
Si Si1 0.606808 0.464554 0.112216
Si Si2 0.280089 0.748184 0.875212
Si Si3 0.452292 0.532856 0.696847
Si Si4 0.616120 0.186947 0.450829
Si Si5 0.223432 0.249517 0.647165
Si Si6 0.541205 0.196469 0.964587
O O1 0.658895 0.300683 0.102518
O O2 0.590393 0.505971 0.221132
O O3 0.617739 0.714693 0.057502
O O4 0.556886 0.363643 0.053963
O O5 0.250000 0.500000 0.903807
O O6 0.279225 0.754355 0.760862
O O7 0.250000 0.000000 0.904625
O O8 0.500000 0.655473 0.750000
O O9 0.427080 0.678994 0.611608
O O10 0.474200 0.304749 0.637415
O O11 0.668339 0.244025 0.399912
O O12 0.597694 0.915096 0.444683
O O13 0.250000 0.500000 0.619768
O O14 0.250000 0.000000 0.617758
O O15 0.500000 0.000000 0.000000
#
# Coordination Sequence:
#
# PCOD9423529 Si02
#       6
#     8   8   8   8   8   8
#     4  11  25  45  71 104 149 192 250 303 380 456
#     4  10  23  44  73 108 145 193 251 310 372 451
#     4  11  24  45  73 102 143 192 243 311 379 449
#     4  11  25  44  70 104 145 193 243 307 374 452
#     4  10  23  44  74 105 146 192 248 310 374 443
#     4  11  26  46  71 108 144 188 249 310 376 456
#
# _framework density 23.768014999999998
#
# number of rings (size 3 to 8) (size 9 to 14) (size 15 to 20)
#    0.000    1.333    1.667    2.000    7.000    8.000 
#    0.000    0.000    0.000    0.000    0.000    0.000 
#    0.000    0.000    0.000    0.000    0.000    0.000 
#
# Total GULP energy -268060.889273 kJ/mol
# GULP energy per Si atom -5584.601860 kJ/mol
# Density = 2.371392 g / cm^3
# Si number density = 23.768015 Si / 1000 Ang^3
#
#
#
# Elastic Constant Matrix: (Units=GPa)
#
#
# Indices 1 2 3 4 5 6 
#
# 1 132.1880 39.6183 27.6793 0.0000 0.0000 0.0000
# 2 39.6183 86.9490 25.1672 0.0000 0.0000 0.0000
# 3 27.6793 25.1672 146.2700 0.0000 0.0000 0.0000
# 4 0.0000 0.0000 0.0000 17.0222 0.0000 0.0000
# 5 0.0000 0.0000 0.0000 0.0000 14.0225 0.0000
# 6 0.0000 0.0000 0.0000 0.0000 0.0000 45.3945
#
#
#
# Elastic Compliance Matrix: (Units=1/GPa)
#
#
# Indices 1 2 3 4 5 6 
#
# 1 0.008909 -0.003759 -0.001039 0.000000 0.000000 0.000000
# 2 -0.003759 0.013690 -0.001644 0.000000 0.000000 0.000000
# 3 -0.001039 -0.001644 0.007316 0.000000 0.000000 0.000000
# 4 0.000000 0.000000 0.000000 0.058747 0.000000 0.000000
# 5 0.000000 0.000000 0.000000 0.000000 0.071314 0.000000
# 6 0.000000 0.000000 0.000000 0.000000 0.000000 0.022029
#
#
# Mechanical properties :
#
#
# Convention : Reuss Voigt Hill
#
# Bulk Modulus (GPa) = 58.71696 61.14850 59.93273
# Shear Modulus (GPa) = 24.92952 33.48401 29.20677
#
# Velocity S-wave (km/s) = 3.24214 3.75745 3.50927
# Velocity P-wave (km/s) = 6.22680 6.67890 6.45681
#
# Compressibility (1/GPa) = 0.01703086
#
# Stress axis : x y z
#
# Youngs Moduli (GPa) = 112.24496 73.04867 136.68270
#
# Poissons Ratio (x) = 0.27456 0.14204
# Poissons Ratio (y) = 0.42189 0.22473
# Poissons Ratio (z) = 0.11664 0.12010
#
# Static dielectric constant tensor:
#      x y z
#    x 1.667200 0.000000 0.000000 
#    y 0.000000 2.024660 0.000000 
#    z 0.000000 0.000000 1.841820 
# 
# From -- ./inp_files/15177.got.cif
#   From: 2010.05.17/outbox.cif.g08.bks.cpg/sg54_8_cif.got.tgz:15177.got - 2010.06.03 13:09:01.
