data_PCOD9423241
_publ_section_title
;
Structure prediction by ZEFSAII (Michael W. Deem and Ramdas Pophale) SiO2 
 PCOD9423241
Probable space group: P C C A
;
_chemical_formula_sum "Si O2"
_cell_formula_units_Z 40
_cell_length_a 28.194942
_cell_length_b 6.597785
_cell_length_c 9.679380
_cell_angle_alpha 90.000000
_cell_angle_beta 90.000000
_cell_angle_gamma 90.000000
_cell_volume 1800.598586
_symmetry_space_group_name_H-M "P C C A"
_symmetry_group_IT_number 54
_symmetry_cell_setting 'orthorhombic'
loop_
_space_group_symop_operation_xyz
x,y,z
1/2-x,-y,z
1/2+x,-y,1/2-z
-x,y,1/2-z
-x,-y,-z
1/2+x,y,-z
1/2-x,y,1/2+z
x,-y,1/2+z
loop_
_atom_site_type_symbol
_atom_site_label
_atom_site_fract_x
_atom_site_fract_y
_atom_site_fract_z
Si Si1 0.703973 0.124741 0.865418
Si Si2 0.750000 0.500000 0.228241
Si Si3 0.328320 0.809184 0.856446
Si Si4 0.078915 0.322219 0.695356
Si Si5 0.959749 0.625563 0.581728
Si Si6 0.500000 0.013099 0.750000
O O1 0.719545 0.347238 0.821007
O O2 0.664714 0.131991 0.984559
O O3 0.750000 0.000000 0.920165
O O4 0.688017 0.003740 0.730505
O O5 0.713975 0.356197 0.145663
O O6 0.372853 0.724828 0.774070
O O7 0.056155 0.508077 0.780929
O O8 0.082151 0.361836 0.531663
O O9 0.042997 0.133136 0.707901
O O10 0.000000 0.500000 0.500000
O O11 0.980901 0.839720 0.629421
#
# Coordination Sequence:
#
# PCOD9423241 Si02
#       6
#     8   4   8   8   8   4
#     4  10  22  44  67  96 132 173 225 277 338 403
#     4  10  22  44  72  92 136 178 222 278 350 394
#     4  11  26  42  68 102 134 175 226 281 335 409
#     4  12  28  43  71 102 136 180 231 285 340 414
#     4  12  24  48  68 101 139 180 229 280 342 414
#     4  12  24  44  74  92 142 182 224 278 352 396
#
# _framework density 22.214835999999998
#
# number of rings (size 3 to 8) (size 9 to 14) (size 15 to 20)
#    0.000    0.800    4.000    3.000    5.600    3.200 
#    0.000    0.000    0.000    0.000    0.000    0.000 
#    0.000    0.000    0.000    0.000    0.000    0.000 
#
# Total GULP energy -223806.029039 kJ/mol
# GULP energy per Si atom -5595.150726 kJ/mol
# Density = 2.216427 g / cm^3
# Si number density = 22.214836 Si / 1000 Ang^3
#
#
#
# Elastic Constant Matrix: (Units=GPa)
#
#
# Indices 1 2 3 4 5 6 
#
# 1 28.8692 7.7345 -8.6266 0.0000 0.0000 0.0000
# 2 7.7345 119.3291 41.1991 0.0000 0.0000 0.0000
# 3 -8.6266 41.1991 93.3225 0.0000 0.0000 0.0000
# 4 0.0000 0.0000 0.0000 9.3588 0.0000 0.0000
# 5 0.0000 0.0000 0.0000 0.0000 13.6657 0.0000
# 6 0.0000 0.0000 0.0000 0.0000 0.0000 22.2984
#
#
#
# Elastic Compliance Matrix: (Units=1/GPa)
#
#
# Indices 1 2 3 4 5 6 
#
# 1 0.037377 -0.004266 0.005338 0.000000 0.000000 0.000000
# 2 -0.004266 0.010374 -0.004974 0.000000 0.000000 0.000000
# 3 0.005338 -0.004974 0.013405 0.000000 0.000000 0.000000
# 4 0.000000 0.000000 0.000000 0.106851 0.000000 0.000000
# 5 0.000000 0.000000 0.000000 0.000000 0.073176 0.000000
# 6 0.000000 0.000000 0.000000 0.000000 0.000000 0.044846
#
#
# Mechanical properties :
#
#
# Convention : Reuss Voigt Hill
#
# Bulk Modulus (GPa) = 18.74318 35.79276 27.26797
# Shear Modulus (GPa) = 16.04537 22.47884 19.26211
#
# Velocity S-wave (km/s) = 2.69045 3.18446 2.94782
# Velocity P-wave (km/s) = 4.25522 5.44685 4.88749
#
# Compressibility (1/GPa) = 0.05335274
#
# Stress axis : x y z
#
# Youngs Moduli (GPa) = 26.75444 96.39456 74.59940
#
# Poissons Ratio (x) = 0.41119 -0.39823
# Poissons Ratio (y) = 0.11413 0.37107
# Poissons Ratio (z) = -0.14282 0.47948
#
# Static dielectric constant tensor:
#      x y z
#    x 1.857270 0.000000 0.000000 
#    y 0.000000 1.793580 0.000000 
#    z 0.000000 0.000000 1.817730 
# 
# From -- ./inp_files/10456.got.cif
#   From: 2010.05.17/outbox.cif.g08.bks.cpg/sg54_6_cif.got.tgz:10456.got - 2010.06.03 13:09:01.
