data_PCOD9423903
_publ_section_title
;
Structure prediction by ZEFSAII (Michael W. Deem and Ramdas Pophale) SiO2 
 PCOD9423903
Probable space group: P C C A
;
_chemical_formula_sum "Si O2"
_cell_formula_units_Z 36
_cell_length_a 11.198091
_cell_length_b 6.406186
_cell_length_c 22.497470
_cell_angle_alpha 90.000000
_cell_angle_beta 90.000000
_cell_angle_gamma 90.000000
_cell_volume 1613.902216
_symmetry_space_group_name_H-M "P C C A"
_symmetry_group_IT_number 54
_symmetry_cell_setting 'orthorhombic'
loop_
_space_group_symop_operation_xyz
x,y,z
1/2-x,-y,z
1/2+x,-y,1/2-z
-x,y,1/2-z
-x,-y,-z
1/2+x,y,-z
1/2-x,y,1/2+z
x,-y,1/2+z
loop_
_atom_site_type_symbol
_atom_site_label
_atom_site_fract_x
_atom_site_fract_y
_atom_site_fract_z
Si Si1 0.876774 0.614637 0.475652
Si Si2 0.500000 0.944643 0.250000
Si Si3 0.622668 0.906000 0.076043
Si Si4 0.546305 0.224764 0.355044
Si Si5 0.622123 0.407189 0.676169
O O1 0.750000 0.500000 0.491092
O O2 0.880977 0.839967 0.507847
O O3 0.874652 0.656688 0.404452
O O4 0.000000 0.500000 0.500000
O O5 0.410913 0.789387 0.283796
O O6 0.574927 0.077679 0.298549
O O7 0.615952 0.686321 0.110053
O O8 0.750000 0.000000 0.090657
O O9 0.530335 0.069854 0.102648
O O10 0.470539 0.405628 0.323542
O O11 0.750000 0.500000 0.690383
#
# Coordination Sequence:
#
# PCOD9423903 Si02
#       5
#     8   4   8   8   8
#     4  12  25  45  76 109 151 192 237 306 374 444
#     4  10  26  42  70 100 140 188 248 302 366 442
#     4  11  21  40  75 106 134 187 242 293 364 447
#     4  11  23  44  70 101 142 188 238 300 365 437
#     4  11  21  43  73  98 134 188 248 301 363 438
#
# _framework density 22.306182
#
# number of rings (size 3 to 8) (size 9 to 14) (size 15 to 20)
#    0.000    0.889    4.444    3.333    0.000    0.000 
#    0.000    6.667    4.889    0.000    0.000    0.000 
#    0.000    0.000    0.000    0.000    0.000    0.000 
#
# Total GULP energy -200751.792364 kJ/mol
# GULP energy per Si atom -5576.438677 kJ/mol
# Density = 2.225541 g / cm^3
# Si number density = 22.306182 Si / 1000 Ang^3
#
#
#
# Elastic Constant Matrix: (Units=GPa)
#
#
# Indices 1 2 3 4 5 6 
#
# 1 67.6511 29.7025 25.2159 0.0000 0.0000 0.0000
# 2 29.7025 102.3433 36.4768 0.0000 0.0000 0.0000
# 3 25.2159 36.4768 128.3881 0.0000 0.0000 0.0000
# 4 0.0000 0.0000 0.0000 94.6270 0.0000 0.0000
# 5 0.0000 0.0000 0.0000 0.0000 27.9194 0.0000
# 6 0.0000 0.0000 0.0000 0.0000 0.0000 1.0106
#
#
#
# Elastic Compliance Matrix: (Units=1/GPa)
#
#
# Indices 1 2 3 4 5 6 
#
# 1 0.017490 -0.004286 -0.002217 0.000000 0.000000 0.000000
# 2 -0.004286 0.011922 -0.002546 0.000000 0.000000 0.000000
# 3 -0.002217 -0.002546 0.008948 0.000000 0.000000 0.000000
# 4 0.000000 0.000000 0.000000 0.010568 0.000000 0.000000
# 5 0.000000 0.000000 0.000000 0.000000 0.035817 0.000000
# 6 0.000000 0.000000 0.000000 0.000000 0.000000 0.989547
#
#
# Mechanical properties :
#
#
# Convention : Reuss Voigt Hill
#
# Bulk Modulus (GPa) = 49.35261 53.46364 51.40812
# Shear Modulus (GPa) = 4.54900 38.51054 21.52977
#
# Velocity S-wave (km/s) = 1.42961 4.15957 3.11013
# Velocity P-wave (km/s) = 4.98980 6.86217 5.99948
#
# Compressibility (1/GPa) = 0.02026235
#
# Stress axis : x y z
#
# Youngs Moduli (GPa) = 57.17591 83.87790 111.76167
#
# Poissons Ratio (x) = 0.35947 0.24783
# Poissons Ratio (y) = 0.24504 0.28449
# Poissons Ratio (z) = 0.12679 0.21351
#
# Static dielectric constant tensor:
#      x y z
#    x 1.837310 0.000000 0.000000 
#    y 0.000000 1.681980 0.000000 
#    z 0.000000 0.000000 2.088660 
# 
# From -- ./inp_files/23831.got.cif
#   From: 2010.05.17/outbox.cif.g08.bks.cpg/sg54_12_cif.got.tgz:23831.got - 2010.06.03 13:09:01.
