data_PCOD9423709
_publ_section_title
;
Structure prediction by ZEFSAII (Michael W. Deem and Ramdas Pophale) SiO2 
 PCOD9423709
Probable space group: P C C A
;
_chemical_formula_sum "Si O2"
_cell_formula_units_Z 56
_cell_length_a 12.950163
_cell_length_b 14.435944
_cell_length_c 12.957344
_cell_angle_alpha 90.000000
_cell_angle_beta 90.000000
_cell_angle_gamma 90.000000
_cell_volume 2422.347316
_symmetry_space_group_name_H-M "P C C A"
_symmetry_group_IT_number 54
_symmetry_cell_setting 'orthorhombic'
loop_
_space_group_symop_operation_xyz
x,y,z
1/2-x,-y,z
1/2+x,-y,1/2-z
-x,y,1/2-z
-x,-y,-z
1/2+x,y,-z
1/2-x,y,1/2+z
x,-y,1/2+z
loop_
_atom_site_type_symbol
_atom_site_label
_atom_site_fract_x
_atom_site_fract_y
_atom_site_fract_z
Si Si1 0.612317 0.183440 0.591245
Si Si2 0.188484 0.408337 0.112770
Si Si3 0.665365 0.070404 0.387811
Si Si4 0.084417 0.537891 0.418940
Si Si5 0.000000 0.322661 0.750000
Si Si6 0.465558 0.641621 0.348846
Si Si7 0.500000 0.956329 0.250000
Si Si8 0.722804 0.763523 0.759145
O O1 0.627716 0.131712 0.483710
O O2 0.548647 0.278321 0.568029
O O3 0.560721 0.109429 0.668902
O O4 0.711412 0.226868 0.653537
O O5 0.250000 0.500000 0.141065
O O6 0.072861 0.413768 0.154939
O O7 0.234116 0.317276 0.165647
O O8 0.170890 0.411802 0.988873
O O9 0.728997 0.137659 0.312719
O O10 0.750000 0.000000 0.431381
O O11 0.576999 0.019515 0.320238
O O12 0.116728 0.440957 0.363931
O O13 0.000000 0.500000 0.500000
O O14 0.027705 0.608731 0.344119
O O15 0.101891 0.260057 0.746855
O O16 0.500000 0.703533 0.250000
#
# Coordination Sequence:
#
# PCOD9423709 Si02
#       8
#     8   8   8   8   4   8   4   8
#     4  12  27  49  85 114 154 210 265 333 406 478
#     4  11  25  44  72 110 163 205 260 317 383 469
#     4  12  30  51  83 115 159 203 263 330 411 478
#     4  10  24  43  70 105 156 202 256 306 384 452
#     4  12  27  47  78 114 158 212 261 330 383 478
#     4  11  21  45  72 111 152 206 262 320 387 464
#     4  12  25  59  78 118 150 204 263 334 401 482
#     4  12  27  50  74 118 158 203 267 326 399 473
#
# _framework density 23.118072999999999
#
# number of rings (size 3 to 8) (size 9 to 14) (size 15 to 20)
#    0.000    0.571    4.286    2.571   10.000    0.000 
#    2.571    0.000    0.000    0.000    0.000    0.000 
#    0.000    0.000    0.000    0.000    0.000    0.000 
#
# Total GULP energy -312093.914801 kJ/mol
# GULP energy per Si atom -5573.105621 kJ/mol
# Density = 2.306545 g / cm^3
# Si number density = 23.118073 Si / 1000 Ang^3
#
#
#
# Elastic Constant Matrix: (Units=GPa)
#
#
# Indices 1 2 3 4 5 6 
#
# 1 71.4491 15.9841 15.6352 0.0000 0.0000 0.0000
# 2 15.9841 99.3271 26.0383 0.0000 0.0000 0.0000
# 3 15.6352 26.0383 93.7621 0.0000 0.0000 0.0000
# 4 0.0000 0.0000 0.0000 40.4913 0.0000 0.0000
# 5 0.0000 0.0000 0.0000 0.0000 27.2810 0.0000
# 6 0.0000 0.0000 0.0000 0.0000 0.0000 43.3741
#
#
#
# Elastic Compliance Matrix: (Units=1/GPa)
#
#
# Indices 1 2 3 4 5 6 
#
# 1 0.014843 -0.001876 -0.001954 0.000000 0.000000 0.000000
# 2 -0.001876 0.011095 -0.002768 0.000000 0.000000 0.000000
# 3 -0.001954 -0.002768 0.011760 0.000000 0.000000 0.000000
# 4 0.000000 0.000000 0.000000 0.024697 0.000000 0.000000
# 5 0.000000 0.000000 0.000000 0.000000 0.036656 0.000000
# 6 0.000000 0.000000 0.000000 0.000000 0.000000 0.023055
#
#
# Mechanical properties :
#
#
# Convention : Reuss Voigt Hill
#
# Bulk Modulus (GPa) = 40.81468 42.20596 41.51032
# Shear Modulus (GPa) = 34.85026 36.02132 35.43579
#
# Velocity S-wave (km/s) = 3.88685 3.95162 3.91937
# Velocity P-wave (km/s) = 6.15116 6.25433 6.20296
#
# Compressibility (1/GPa) = 0.02450099
#
# Stress axis : x y z
#
# Youngs Moduli (GPa) = 67.37011 90.12726 85.03444
#
# Poissons Ratio (x) = 0.16911 0.16617
# Poissons Ratio (y) = 0.12641 0.23541
# Poissons Ratio (z) = 0.13165 0.24951
#
# Static dielectric constant tensor:
#      x y z
#    x 2.052560 0.000000 0.000000 
#    y 0.000000 1.950490 0.000000 
#    z 0.000000 0.000000 2.209850 
# 
# From -- ./inp_files/8481.got.cif
#   From: 2010.05.17/outbox.cif.g08.bks.cpg/sg54_5_cif.got.tgz:8481.got - 2010.06.03 13:09:01.
