data_PCOD9423990
_publ_section_title
;
Structure prediction by ZEFSAII (Michael W. Deem and Ramdas Pophale) SiO2 
 PCOD9423990
Probable space group: P C C A
;
_chemical_formula_sum "Si O2"
_cell_formula_units_Z 36
_cell_length_a 13.808633
_cell_length_b 5.777833
_cell_length_c 17.414922
_cell_angle_alpha 90.000000
_cell_angle_beta 90.000000
_cell_angle_gamma 90.000000
_cell_volume 1389.431709
_symmetry_space_group_name_H-M "P C C A"
_symmetry_group_IT_number 54
_symmetry_cell_setting 'orthorhombic'
loop_
_space_group_symop_operation_xyz
x,y,z
1/2-x,-y,z
1/2+x,-y,1/2-z
-x,y,1/2-z
-x,-y,-z
1/2+x,y,-z
1/2-x,y,1/2+z
x,-y,1/2+z
loop_
_atom_site_type_symbol
_atom_site_label
_atom_site_fract_x
_atom_site_fract_y
_atom_site_fract_z
Si Si1 0.500000 0.892455 0.250000
Si Si2 0.206062 0.747168 0.718980
Si Si3 0.636800 0.028946 0.482527
Si Si4 0.032225 0.787823 0.392013
Si Si5 0.161837 0.624326 0.885690
O O1 0.452989 0.050664 0.316846
O O2 0.589419 0.757393 0.289386
O O3 0.250000 0.500000 0.688771
O O4 0.215538 0.726731 0.811437
O O5 0.250000 0.000000 0.697485
O O6 0.577679 0.151111 0.415102
O O7 0.624932 0.187686 0.556970
O O8 0.750000 0.000000 0.467464
O O9 0.584465 0.809527 0.522804
O O10 0.074203 0.543303 0.364617
O O11 0.250000 0.500000 0.928636
#
# Coordination Sequence:
#
# PCOD9423990 Si02
#       5
#     4   8   8   8   8
#     4  12  24  48  70 108 150 190 240 312 366 448
#     4  11  25  43  72 106 144 198 246 293 369 444
#     4  11  22  44  68  98 138 188 246 300 363 429
#     4  11  25  41  70 101 141 190 242 294 371 433
#     4  11  20  39  71  99 135 190 241 301 358 438
#
# _framework density 25.909873999999999
#
# number of rings (size 3 to 8) (size 9 to 14) (size 15 to 20)
#    0.000    0.889    4.444    4.000    0.000    4.444 
#    0.000    0.000    0.000    1.333    0.000    0.000 
#    0.000    0.000    0.000    0.000    0.000    0.000 
#
# Total GULP energy -200771.332059 kJ/mol
# GULP energy per Si atom -5576.981446 kJ/mol
# Density = 2.585090 g / cm^3
# Si number density = 25.909874 Si / 1000 Ang^3
#
#
#
# Elastic Constant Matrix: (Units=GPa)
#
#
# Indices 1 2 3 4 5 6 
#
# 1 198.3211 70.5798 20.1020 0.0000 0.0000 0.0000
# 2 70.5798 104.8046 26.4833 0.0000 0.0000 0.0000
# 3 20.1020 26.4833 83.7904 0.0000 0.0000 0.0000
# 4 0.0000 0.0000 0.0000 70.6329 0.0000 0.0000
# 5 0.0000 0.0000 0.0000 0.0000 80.5420 0.0000
# 6 0.0000 0.0000 0.0000 0.0000 0.0000 42.0765
#
#
#
# Elastic Compliance Matrix: (Units=1/GPa)
#
#
# Indices 1 2 3 4 5 6 
#
# 1 0.006635 -0.004419 -0.000195 0.000000 0.000000 0.000000
# 2 -0.004419 0.013313 -0.003148 0.000000 0.000000 0.000000
# 3 -0.000195 -0.003148 0.012976 0.000000 0.000000 0.000000
# 4 0.000000 0.000000 0.000000 0.014158 0.000000 0.000000
# 5 0.000000 0.000000 0.000000 0.000000 0.012416 0.000000
# 6 0.000000 0.000000 0.000000 0.000000 0.000000 0.023766
#
#
# Mechanical properties :
#
#
# Convention : Reuss Voigt Hill
#
# Bulk Modulus (GPa) = 57.46904 69.02737 63.24820
# Shear Modulus (GPa) = 47.80727 56.63369 52.22048
#
# Velocity S-wave (km/s) = 4.30017 4.68032 4.49426
# Velocity P-wave (km/s) = 6.84717 7.47706 7.16904
#
# Compressibility (1/GPa) = 0.01740067
#
# Stress axis : x y z
#
# Youngs Moduli (GPa) = 150.72297 75.11601 77.06418
#
# Poissons Ratio (x) = 0.33192 0.01503
# Poissons Ratio (y) = 0.66601 0.24257
# Poissons Ratio (z) = 0.02940 0.23644
#
# Static dielectric constant tensor:
#      x y z
#    x 2.161850 0.000000 0.000000 
#    y 0.000000 2.248190 0.000000 
#    z 0.000000 0.000000 2.030630 
# 
# From -- ./inp_files/21357.got.cif
#   From: 2010.05.17/outbox.cif.g08.bks.cpg/sg54_11_cif.got.tgz:21357.got - 2010.06.03 13:09:01.
