data_PCOD9423496
_publ_section_title
;
Structure prediction by ZEFSAII (Michael W. Deem and Ramdas Pophale) SiO2 
 PCOD9423496
Probable space group: P C C A
;
_chemical_formula_sum "Si O2"
_cell_formula_units_Z 24
_cell_length_a 5.482798
_cell_length_b 14.313148
_cell_length_c 13.029339
_cell_angle_alpha 90.000000
_cell_angle_beta 90.000000
_cell_angle_gamma 90.000000
_cell_volume 1022.491700
_symmetry_space_group_name_H-M "P C C A"
_symmetry_group_IT_number 54
_symmetry_cell_setting 'orthorhombic'
loop_
_space_group_symop_operation_xyz
x,y,z
1/2-x,-y,z
1/2+x,-y,1/2-z
-x,y,1/2-z
-x,-y,-z
1/2+x,y,-z
1/2-x,y,1/2+z
x,-y,1/2+z
loop_
_atom_site_type_symbol
_atom_site_label
_atom_site_fract_x
_atom_site_fract_y
_atom_site_fract_z
Si Si1 0.622093 0.775782 0.123625
Si Si2 0.250000 0.500000 0.182216
Si Si3 0.625611 0.698317 0.891821
Si Si4 0.000000 0.947643 0.750000
O O1 0.360043 0.741760 0.161590
O O2 0.612038 0.883135 0.158127
O O3 0.865041 0.721330 0.155534
O O4 0.612237 0.748293 0.002853
O O5 0.500000 0.516639 0.250000
O O6 0.318561 0.411496 0.111449
O O7 0.250000 0.000000 0.713886
#
# Coordination Sequence:
#
# PCOD9423496 Si02
#       4
#     8   4   8   4
#     4  10  23  43  72  97 138 191 222 287 367 419
#     4  12  26  40  68 112 146 188 246 288 326 408
#     4  10  23  44  66 104 142 189 229 279 352 421
#     4  12  26  46  72 108 136 174 242 308 354 428
#
# _framework density 23.472073000000002
#
# number of rings (size 3 to 8) (size 9 to 14) (size 15 to 20)
#    0.000    1.333    0.000    4.000    7.000    5.333 
#    0.000   20.000    0.000    0.000    0.000    0.000 
#    0.000    0.000    0.000    0.000    0.000    0.000 
#
# Total GULP energy -133733.081973 kJ/mol
# GULP energy per Si atom -5572.211749 kJ/mol
# Density = 2.341865 g / cm^3
# Si number density = 23.472073 Si / 1000 Ang^3
#
#
#
# Elastic Constant Matrix: (Units=GPa)
#
#
# Indices 1 2 3 4 5 6 
#
# 1 218.5052 35.8608 32.5120 0.0000 0.0000 0.0000
# 2 35.8608 126.3577 28.9993 0.0000 0.0000 0.0000
# 3 32.5120 28.9993 108.9619 0.0000 0.0000 0.0000
# 4 0.0000 0.0000 0.0000 24.9991 0.0000 0.0000
# 5 0.0000 0.0000 0.0000 0.0000 13.8627 0.0000
# 6 0.0000 0.0000 0.0000 0.0000 0.0000 69.3899
#
#
#
# Elastic Compliance Matrix: (Units=1/GPa)
#
#
# Indices 1 2 3 4 5 6 
#
# 1 0.004937 -0.001132 -0.001172 0.000000 0.000000 0.000000
# 2 -0.001132 0.008689 -0.001975 0.000000 0.000000 0.000000
# 3 -0.001172 -0.001975 0.010053 0.000000 0.000000 0.000000
# 4 0.000000 0.000000 0.000000 0.040001 0.000000 0.000000
# 5 0.000000 0.000000 0.000000 0.000000 0.072136 0.000000
# 6 0.000000 0.000000 0.000000 0.000000 0.000000 0.014411
#
#
# Mechanical properties :
#
#
# Convention : Reuss Voigt Hill
#
# Bulk Modulus (GPa) = 66.13304 72.06323 69.09813
# Shear Modulus (GPa) = 30.52064 45.41385 37.96725
#
# Velocity S-wave (km/s) = 3.60987 4.40341 4.02624
# Velocity P-wave (km/s) = 6.75361 7.52474 7.14958
#
# Compressibility (1/GPa) = 0.01512104
#
# Stress axis : x y z
#
# Youngs Moduli (GPa) = 202.56457 115.09445 99.47627
#
# Poissons Ratio (x) = 0.13030 0.11656
# Poissons Ratio (y) = 0.22933 0.19642
# Poissons Ratio (z) = 0.23734 0.22726
#
# Static dielectric constant tensor:
#      x y z
#    x 1.932200 0.000000 0.000000 
#    y 0.000000 1.931040 0.000000 
#    z 0.000000 0.000000 1.940960 
# 
# From -- ./inp_files/10649.got.cif
#   From: 2010.05.17/outbox.cif.g08.bks.cpg/sg54_6_cif.got.tgz:10649.got - 2010.06.03 13:09:01.
