data_PCOD9423899
_publ_section_title
;
Structure prediction by ZEFSAII (Michael W. Deem and Ramdas Pophale) SiO2 
 PCOD9423899
Probable space group: P C C A
;
_chemical_formula_sum "Si O2"
_cell_formula_units_Z 64
_cell_length_a 21.504508
_cell_length_b 8.496497
_cell_length_c 13.368015
_cell_angle_alpha 90.000000
_cell_angle_beta 90.000000
_cell_angle_gamma 90.000000
_cell_volume 2442.509960
_symmetry_space_group_name_H-M "P C C A"
_symmetry_group_IT_number 54
_symmetry_cell_setting 'orthorhombic'
loop_
_space_group_symop_operation_xyz
x,y,z
1/2-x,-y,z
1/2+x,-y,1/2-z
-x,y,1/2-z
-x,-y,-z
1/2+x,y,-z
1/2-x,y,1/2+z
x,-y,1/2+z
loop_
_atom_site_type_symbol
_atom_site_label
_atom_site_fract_x
_atom_site_fract_y
_atom_site_fract_z
Si Si1 0.896318 0.746128 0.739073
Si Si2 0.731624 0.819334 0.169562
Si Si3 0.941626 0.536849 0.134054
Si Si4 0.542791 0.807899 0.891865
Si Si5 0.259608 0.669481 0.526852
Si Si6 0.883385 0.725779 0.965238
Si Si7 0.066574 0.978755 0.909041
Si Si8 0.154878 0.306553 0.717513
O O1 0.942691 0.642203 0.670529
O O2 0.821918 0.720844 0.726770
O O3 0.896888 0.915030 0.684897
O O4 0.912229 0.734511 0.855054
O O5 0.714638 0.793793 0.053121
O O6 0.796545 0.739719 0.198206
O O7 0.750000 0.000000 0.193226
O O8 0.907904 0.574647 0.028181
O O9 0.894641 0.590832 0.222050
O O10 0.003474 0.646212 0.128202
O O11 0.607378 0.814427 0.834516
O O12 0.496806 0.949461 0.866422
O O13 0.555555 0.845217 0.007824
O O14 0.250000 0.500000 0.475738
O O15 0.190309 0.726403 0.550506
O O16 0.303507 0.641020 0.622442
O O17 0.902224 0.875081 0.032792
#
# Coordination Sequence:
#
# PCOD9423899 Si02
#       8
#     8   8   8   8   8   8   8   8
#     4  12  26  48  82 120 153 207 268 328 409 468
#     4  12  28  45  74 116 160 201 258 331 393 486
#     4  11  26  50  80 112 160 202 266 326 389 477
#     4  10  25  51  78 111 156 218 267 327 401 473
#     4  12  25  47  79 110 157 206 260 332 403 477
#     4  11  24  47  78 118 159 205 265 329 403 477
#     4  10  25  50  82 113 160 211 271 338 392 487
#     4  12  26  46  81 110 154 210 260 321 405 481
#
# _framework density 26.202555
#
# number of rings (size 3 to 8) (size 9 to 14) (size 15 to 20)
#    0.000    0.750    2.500    3.375    3.500    3.000 
#    0.000   13.750    0.000    0.000    0.000    0.000 
#    0.000    0.000    0.000    0.000    0.000    0.000 
#
# Total GULP energy -357920.533231 kJ/mol
# GULP energy per Si atom -5592.508332 kJ/mol
# Density = 2.614292 g / cm^3
# Si number density = 26.202555 Si / 1000 Ang^3
#
#
#
# Elastic Constant Matrix: (Units=GPa)
#
#
# Indices 1 2 3 4 5 6 
#
# 1 126.9706 25.5074 35.3110 0.0000 0.0000 0.0000
# 2 25.5074 69.2389 47.8210 0.0000 0.0000 0.0000
# 3 35.3110 47.8210 170.9868 0.0000 0.0000 0.0000
# 4 0.0000 0.0000 0.0000 24.4617 0.0000 0.0000
# 5 0.0000 0.0000 0.0000 0.0000 43.3005 0.0000
# 6 0.0000 0.0000 0.0000 0.0000 0.0000 27.7731
#
#
#
# Elastic Compliance Matrix: (Units=1/GPa)
#
#
# Indices 1 2 3 4 5 6 
#
# 1 0.008673 -0.002427 -0.001112 0.000000 0.000000 0.000000
# 2 -0.002427 0.018580 -0.004695 0.000000 0.000000 0.000000
# 3 -0.001112 -0.004695 0.007391 0.000000 0.000000 0.000000
# 4 0.000000 0.000000 0.000000 0.040880 0.000000 0.000000
# 5 0.000000 0.000000 0.000000 0.000000 0.023094 0.000000
# 6 0.000000 0.000000 0.000000 0.000000 0.000000 0.036006
#
#
# Mechanical properties :
#
#
# Convention : Reuss Voigt Hill
#
# Bulk Modulus (GPa) = 55.02038 64.94168 59.98103
# Shear Modulus (GPa) = 31.81655 36.34417 34.08036
#
# Velocity S-wave (km/s) = 3.48839 3.72835 3.61037
# Velocity P-wave (km/s) = 6.10482 6.58577 6.34985
#
# Compressibility (1/GPa) = 0.01817508
#
# Stress axis : x y z
#
# Youngs Moduli (GPa) = 115.30438 53.82273 135.29572
#
# Poissons Ratio (x) = 0.13061 0.15049
# Poissons Ratio (y) = 0.27982 0.63523
# Poissons Ratio (z) = 0.12826 0.25270
#
# Static dielectric constant tensor:
#      x y z
#    x 2.094900 0.000000 0.000000 
#    y 0.000000 2.242770 0.000000 
#    z 0.000000 0.000000 2.048380 
# 
# From -- ./inp_files/14998.got.cif
#   From: 2010.05.17/outbox.cif.g08.bks.cpg/sg54_8_cif.got.tgz:14998.got - 2010.06.03 13:09:01.
