data_PCOD9423376
_publ_section_title
;
Structure prediction by ZEFSAII (Michael W. Deem and Ramdas Pophale) SiO2 
 PCOD9423376
Probable space group: P C C A
;
_chemical_formula_sum "Si O2"
_cell_formula_units_Z 40
_cell_length_a 5.192908
_cell_length_b 26.536117
_cell_length_c 12.647002
_cell_angle_alpha 90.000000
_cell_angle_beta 90.000000
_cell_angle_gamma 90.000000
_cell_volume 1742.751997
_symmetry_space_group_name_H-M "P C C A"
_symmetry_group_IT_number 54
_symmetry_cell_setting 'orthorhombic'
loop_
_space_group_symop_operation_xyz
x,y,z
1/2-x,-y,z
1/2+x,-y,1/2-z
-x,y,1/2-z
-x,-y,-z
1/2+x,y,-z
1/2-x,y,1/2+z
x,-y,1/2+z
loop_
_atom_site_type_symbol
_atom_site_label
_atom_site_fract_x
_atom_site_fract_y
_atom_site_fract_z
Si Si1 0.635871 0.251629 0.075043
Si Si2 0.750000 0.000000 0.325427
Si Si3 0.000000 0.828746 0.250000
Si Si4 0.500000 0.400523 0.750000
Si Si5 0.000000 0.333767 0.750000
Si Si6 0.243024 0.108357 0.070419
Si Si7 0.466341 0.442948 0.960411
O O1 0.630722 0.206646 0.161366
O O2 0.585653 0.300173 0.149393
O O3 0.399223 0.249805 0.991716
O O4 0.749883 0.950299 0.397406
O O5 0.500000 0.999974 0.250000
O O6 0.804471 0.862042 0.320594
O O7 0.745757 0.366162 0.775520
O O8 0.401970 0.437941 0.840049
O O9 0.472915 0.119475 0.986961
O O10 0.500000 0.500000 0.000000
O O11 0.237833 0.417399 0.021886
#
# Coordination Sequence:
#
# PCOD9423376 Si02
#       7
#     8   4   4   4   4   8   8
#     4  11  25  47  72 100 137 175 219 280 350 413
#     4  12  24  46  70  98 140 192 232 296 344 404
#     4  11  26  46  72 104 138 178 230 280 346 419
#     4  12  24  42  67 100 134 174 227 276 332 394
#     4  11  26  42  69 102 132 174 223 282 336 407
#     4  12  26  44  70 101 138 183 233 284 344 409
#     4  10  23  40  62  92 130 177 222 271 323 385
#
# _framework density 22.952203000000001
#
# number of rings (size 3 to 8) (size 9 to 14) (size 15 to 20)
#    0.000    0.800    1.000    5.400    0.000   12.000 
#    0.000    0.000    0.000    0.000    0.000    0.000 
#    0.000    0.000    0.000    0.000    0.000    0.000 
#
# Total GULP energy -223653.203294 kJ/mol
# GULP energy per Si atom -5591.330082 kJ/mol
# Density = 2.289996 g / cm^3
# Si number density = 22.952203 Si / 1000 Ang^3
#
#
#
# Elastic Constant Matrix: (Units=GPa)
#
#
# Indices 1 2 3 4 5 6 
#
# 1 147.6557 18.3715 15.1684 0.0000 0.0000 0.0000
# 2 18.3715 94.8740 59.2401 0.0000 0.0000 0.0000
# 3 15.1684 59.2401 118.9104 0.0000 0.0000 0.0000
# 4 0.0000 0.0000 0.0000 70.4694 0.0000 0.0000
# 5 0.0000 0.0000 0.0000 0.0000 28.3757 0.0000
# 6 0.0000 0.0000 0.0000 0.0000 0.0000 23.8791
#
#
#
# Elastic Compliance Matrix: (Units=1/GPa)
#
#
# Indices 1 2 3 4 5 6 
#
# 1 0.006948 -0.001150 -0.000314 0.000000 0.000000 0.000000
# 2 -0.001150 0.015490 -0.007570 0.000000 0.000000 0.000000
# 3 -0.000314 -0.007570 0.012221 0.000000 0.000000 0.000000
# 4 0.000000 0.000000 0.000000 0.014191 0.000000 0.000000
# 5 0.000000 0.000000 0.000000 0.000000 0.035241 0.000000
# 6 0.000000 0.000000 0.000000 0.000000 0.000000 0.041878
#
#
# Mechanical properties :
#
#
# Convention : Reuss Voigt Hill
#
# Bulk Modulus (GPa) = 60.27028 60.77779 60.52404
# Shear Modulus (GPa) = 33.43012 42.45551 37.94282
#
# Velocity S-wave (km/s) = 3.82057 4.30552 4.07027
# Velocity P-wave (km/s) = 6.76597 7.15921 6.96537
#
# Compressibility (1/GPa) = 0.01659193
#
# Stress axis : x y z
#
# Youngs Moduli (GPa) = 143.93137 64.55853 81.82554
#
# Poissons Ratio (x) = 0.07422 0.02566
# Poissons Ratio (y) = 0.16546 0.61944
# Poissons Ratio (z) = 0.04513 0.48872
#
# Static dielectric constant tensor:
#      x y z
#    x 1.845630 0.000000 0.000000 
#    y 0.000000 1.862540 0.000000 
#    z 0.000000 0.000000 1.912440 
# 
# From -- ./inp_files/6476.got.cif
#   From: 2010.05.17/outbox.cif.g08.bks.cpg/sg54_4_cif.got.tgz:6476.got - 2010.06.03 13:09:01.
