data_PCOD9423637
_publ_section_title
;
Structure prediction by ZEFSAII (Michael W. Deem and Ramdas Pophale) SiO2 
 PCOD9423637
Probable space group: P C C A
;
_chemical_formula_sum "Si O2"
_cell_formula_units_Z 40
_cell_length_a 14.395250
_cell_length_b 14.466866
_cell_length_c 8.466587
_cell_angle_alpha 90.000000
_cell_angle_beta 90.000000
_cell_angle_gamma 90.000000
_cell_volume 1763.201903
_symmetry_space_group_name_H-M "P C C A"
_symmetry_group_IT_number 54
_symmetry_cell_setting 'orthorhombic'
loop_
_space_group_symop_operation_xyz
x,y,z
1/2-x,-y,z
1/2+x,-y,1/2-z
-x,y,1/2-z
-x,-y,-z
1/2+x,y,-z
1/2-x,y,1/2+z
x,-y,1/2+z
loop_
_atom_site_type_symbol
_atom_site_label
_atom_site_fract_x
_atom_site_fract_y
_atom_site_fract_z
Si Si1 0.250000 0.000000 0.763438
Si Si2 0.770930 0.278319 0.506022
Si Si3 0.362400 0.885099 0.510242
Si Si4 0.472612 0.231705 0.430358
Si Si5 0.500000 0.356859 0.750000
Si Si6 0.202439 0.592072 0.760652
O O1 0.192695 0.071198 0.656501
O O2 0.327911 0.052274 0.866269
O O3 0.681083 0.215948 0.516413
O O4 0.861126 0.224989 0.567577
O O5 0.756293 0.378920 0.581702
O O6 0.785864 0.309404 0.327184
O O7 0.470398 0.863099 0.539082
O O8 0.500000 0.263306 0.250000
O O9 0.491695 0.297146 0.585638
O O10 0.407813 0.418022 0.770257
O O11 0.250000 0.500000 0.700205
#
# Coordination Sequence:
#
# PCOD9423637 Si02
#       6
#     4   8   8   8   4   8
#     4  10  24  40  72 100 140 184 224 310 360 414
#     4  11  23  42  71  97 136 192 229 287 360 418
#     4  11  22  46  65 101 141 180 238 290 357 435
#     4  11  23  42  71 101 131 186 245 281 347 434
#     4  10  24  44  72 104 140 190 236 290 354 416
#     4  11  23  44  67 106 142 180 236 296 345 409
#
# _framework density 22.686001999999998
#
# number of rings (size 3 to 8) (size 9 to 14) (size 15 to 20)
#    0.000    1.200    2.000    4.200    2.800    0.000 
#    5.400   14.000    0.000    0.000    0.000    0.000 
#    0.000    0.000    0.000    0.000    0.000    0.000 
#
# Total GULP energy -223077.694619 kJ/mol
# GULP energy per Si atom -5576.942365 kJ/mol
# Density = 2.263437 g / cm^3
# Si number density = 22.686002 Si / 1000 Ang^3
#
#
#
# Elastic Constant Matrix: (Units=GPa)
#
#
# Indices 1 2 3 4 5 6 
#
# 1 115.4434 26.3043 6.7728 0.0000 0.0000 0.0000
# 2 26.3043 70.7310 31.5643 0.0000 0.0000 0.0000
# 3 6.7728 31.5643 110.2509 0.0000 0.0000 0.0000
# 4 0.0000 0.0000 0.0000 44.4652 0.0000 0.0000
# 5 0.0000 0.0000 0.0000 0.0000 10.1963 0.0000
# 6 0.0000 0.0000 0.0000 0.0000 0.0000 29.7066
#
#
#
# Elastic Compliance Matrix: (Units=1/GPa)
#
#
# Indices 1 2 3 4 5 6 
#
# 1 0.009487 -0.003747 0.000490 0.000000 0.000000 0.000000
# 2 -0.003747 0.017689 -0.004834 0.000000 0.000000 0.000000
# 3 0.000490 -0.004834 0.010424 0.000000 0.000000 0.000000
# 4 0.000000 0.000000 0.000000 0.022489 0.000000 0.000000
# 5 0.000000 0.000000 0.000000 0.000000 0.098075 0.000000
# 6 0.000000 0.000000 0.000000 0.000000 0.000000 0.033663
#
#
# Mechanical properties :
#
#
# Convention : Reuss Voigt Hill
#
# Bulk Modulus (GPa) = 46.68952 47.30092 46.99522
# Shear Modulus (GPa) = 23.23978 32.32588 27.78283
#
# Velocity S-wave (km/s) = 3.20411 3.77891 3.50332
# Velocity P-wave (km/s) = 5.85781 6.31948 6.09302
#
# Compressibility (1/GPa) = 0.02141808
#
# Stress axis : x y z
#
# Youngs Moduli (GPa) = 105.40464 56.53318 95.93162
#
# Poissons Ratio (x) = 0.21182 -0.04700
# Poissons Ratio (y) = 0.39494 0.46374
# Poissons Ratio (z) = -0.05164 0.27328
#
# Static dielectric constant tensor:
#      x y z
#    x 1.941590 0.000000 0.000000 
#    y 0.000000 1.101730 0.000000 
#    z 0.000000 0.000000 1.945550 
# 
# From -- ./inp_files/3464.got.cif
#   From: 2010.05.17/outbox.cif.g08.bks.cpg/sg54_2_cif.got.tgz:3464.got - 2010.06.03 13:09:01.
