data_PCOD9423667
_publ_section_title
;
Structure prediction by ZEFSAII (Michael W. Deem and Ramdas Pophale) SiO2 
 PCOD9423667
Probable space group: P C C A
;
_chemical_formula_sum "Si O2"
_cell_formula_units_Z 48
_cell_length_a 14.097307
_cell_length_b 15.896840
_cell_length_c 9.305529
_cell_angle_alpha 90.000000
_cell_angle_beta 90.000000
_cell_angle_gamma 90.000000
_cell_volume 2085.393558
_symmetry_space_group_name_H-M "P C C A"
_symmetry_group_IT_number 54
_symmetry_cell_setting 'orthorhombic'
loop_
_space_group_symop_operation_xyz
x,y,z
1/2-x,-y,z
1/2+x,-y,1/2-z
-x,y,1/2-z
-x,-y,-z
1/2+x,y,-z
1/2-x,y,1/2+z
x,-y,1/2+z
loop_
_atom_site_type_symbol
_atom_site_label
_atom_site_fract_x
_atom_site_fract_y
_atom_site_fract_z
Si Si1 0.858196 0.404572 0.377264
Si Si2 0.103164 0.549481 0.318456
Si Si3 0.750000 0.000000 0.267246
Si Si4 0.157349 0.190539 0.436191
Si Si5 0.299757 0.283753 0.219023
Si Si6 0.116027 0.994670 0.478742
Si Si7 0.500000 0.277697 0.750000
O O1 0.844481 0.469614 0.248934
O O2 0.882605 0.459956 0.513277
O O3 0.769330 0.343267 0.376435
O O4 0.943365 0.340668 0.351761
O O5 0.134842 0.645386 0.289818
O O6 0.000000 0.541353 0.250000
O O7 0.670568 0.044724 0.161840
O O8 0.826445 0.040864 0.381606
O O9 0.243337 0.230034 0.339901
O O10 0.154815 0.225537 0.598118
O O11 0.148350 0.090986 0.453271
O O12 0.067592 0.221936 0.346286
O O13 0.000000 0.000000 0.500000
#
# Coordination Sequence:
#
# PCOD9423667 Si02
#       7
#     8   8   4   8   8   8   4
#     4  11  24  41  61  95 131 188 229 297 342 414
#     4  12  24  39  65  94 140 181 244 291 350 414
#     4  10  24  46  72 114 152 176 244 302 350 458
#     4  11  24  45  69  98 139 179 231 292 352 434
#     4  11  24  43  66  98 137 185 236 285 363 416
#     4  11  24  46  78 109 147 194 241 295 381 446
#     4  10  24  42  66  94 138 176 234 284 360 394
#
# _framework density 23.017239
#
# number of rings (size 3 to 8) (size 9 to 14) (size 15 to 20)
#    0.000    1.000    2.500    3.500    7.000    1.333 
#    3.000    3.333    0.000    0.000    0.000    0.000 
#    0.000    0.000    0.000    0.000    0.000    0.000 
#
# Total GULP energy -267606.025187 kJ/mol
# GULP energy per Si atom -5575.125525 kJ/mol
# Density = 2.296485 g / cm^3
# Si number density = 23.017239 Si / 1000 Ang^3
#
#
#
# Elastic Constant Matrix: (Units=GPa)
#
#
# Indices 1 2 3 4 5 6 
#
# 1 109.3830 -6.1080 -6.1758 0.0000 0.0000 0.0000
# 2 -6.1080 114.9157 -3.4267 0.0000 0.0000 0.0000
# 3 -6.1758 -3.4267 106.4069 0.0000 0.0000 0.0000
# 4 0.0000 0.0000 0.0000 24.5205 0.0000 0.0000
# 5 0.0000 0.0000 0.0000 0.0000 4.5102 0.0000
# 6 0.0000 0.0000 0.0000 0.0000 0.0000 59.5071
#
#
#
# Elastic Compliance Matrix: (Units=1/GPa)
#
#
# Indices 1 2 3 4 5 6 
#
# 1 0.009201 0.000505 0.000550 0.000000 0.000000 0.000000
# 2 0.000505 0.008738 0.000311 0.000000 0.000000 0.000000
# 3 0.000550 0.000311 0.009440 0.000000 0.000000 0.000000
# 4 0.000000 0.000000 0.000000 0.040782 0.000000 0.000000
# 5 0.000000 0.000000 0.000000 0.000000 0.221721 0.000000
# 6 0.000000 0.000000 0.000000 0.000000 0.000000 0.016805
#
#
# Mechanical properties :
#
#
# Convention : Reuss Voigt Hill
#
# Bulk Modulus (GPa) = 33.20870 33.25385 33.23127
# Shear Modulus (GPa) = 15.92397 40.80196 28.36296
#
# Velocity S-wave (km/s) = 2.63312 4.21488 3.51415
# Velocity P-wave (km/s) = 4.86862 6.17783 5.56188
#
# Compressibility (1/GPa) = 0.03011259
#
# Stress axis : x y z
#
# Youngs Moduli (GPa) = 108.67807 114.44053 105.93407
#
# Poissons Ratio (x) = -0.05785 -0.05830
# Poissons Ratio (y) = -0.05494 -0.03292
# Poissons Ratio (z) = -0.05981 -0.03556
#
# Static dielectric constant tensor:
#      x y z
#    x 1.893760 0.000000 0.000000 
#    y 0.000000 2.264850 0.000000 
#    z 0.000000 0.000000 1.894550 
# 
# From -- ./inp_files/3609.got.cif
#   From: 2010.05.17/outbox.cif.g08.bks.cpg/sg54_2_cif.got.tgz:3609.got - 2010.06.03 13:09:01.
