data_PCOD9423702
_publ_section_title
;
Structure prediction by ZEFSAII (Michael W. Deem and Ramdas Pophale) SiO2 
 PCOD9423702
Probable space group: P C C A
;
_chemical_formula_sum "Si O2"
_cell_formula_units_Z 40
_cell_length_a 9.482472
_cell_length_b 13.434363
_cell_length_c 14.599733
_cell_angle_alpha 90.000000
_cell_angle_beta 90.000000
_cell_angle_gamma 90.000000
_cell_volume 1859.874163
_symmetry_space_group_name_H-M "P C C A"
_symmetry_group_IT_number 54
_symmetry_cell_setting 'orthorhombic'
loop_
_space_group_symop_operation_xyz
x,y,z
1/2-x,-y,z
1/2+x,-y,1/2-z
-x,y,1/2-z
-x,-y,-z
1/2+x,y,-z
1/2-x,y,1/2+z
x,-y,1/2+z
loop_
_atom_site_type_symbol
_atom_site_label
_atom_site_fract_x
_atom_site_fract_y
_atom_site_fract_z
Si Si1 0.130179 0.927435 0.504326
Si Si2 0.337653 0.710087 0.775933
Si Si3 0.836938 0.098172 0.279661
Si Si4 0.738837 0.384381 0.406093
Si Si5 0.556177 0.707202 0.537067
O O1 0.169529 0.898428 0.609065
O O2 0.083374 0.825351 0.456826
O O3 0.250000 0.000000 0.464977
O O4 0.000000 0.000000 0.500000
O O5 0.500000 0.738231 0.750000
O O6 0.238341 0.805884 0.764054
O O7 0.283714 0.631585 0.701647
O O8 0.351588 0.666937 0.877659
O O9 0.000000 0.092053 0.250000
O O10 0.750000 0.000000 0.253020
O O11 0.750000 0.500000 0.429349
O O12 0.878665 0.331943 0.443376
O O13 0.603943 0.328054 0.450680
#
# Coordination Sequence:
#
# PCOD9423702 Si02
#       5
#     8   8   8   8   8
#     4  11  25  40  64  99 137 179 223 270 332 410
#     4  10  24  43  66  94 133 178 219 279 339 409
#     4  11  25  40  63  96 134 176 224 272 328 407
#     4  11  24  46  69  99 131 170 227 283 343 404
#     4  11  24  43  71  97 138 177 220 280 343 400
#
# _framework density 21.506833
#
# number of rings (size 3 to 8) (size 9 to 14) (size 15 to 20)
#    0.000    1.200    2.000    2.400   16.800    0.800 
#    0.000    5.000    0.000    0.000    0.000    0.000 
#    0.000    0.000    0.000    0.000    0.000    0.000 
#
# Total GULP energy -223531.360803 kJ/mol
# GULP energy per Si atom -5588.284020 kJ/mol
# Density = 2.145788 g / cm^3
# Si number density = 21.506833 Si / 1000 Ang^3
#
#
#
# Elastic Constant Matrix: (Units=GPa)
#
#
# Indices 1 2 3 4 5 6 
#
# 1 82.2515 27.4808 -5.9472 0.0000 0.0000 0.0000
# 2 27.4808 107.6935 -21.9749 0.0000 0.0000 0.0000
# 3 -5.9472 -21.9749 51.5985 0.0000 0.0000 0.0000
# 4 0.0000 0.0000 0.0000 17.2160 0.0000 0.0000
# 5 0.0000 0.0000 0.0000 0.0000 30.4312 0.0000
# 6 0.0000 0.0000 0.0000 0.0000 0.0000 19.0798
#
#
#
# Elastic Compliance Matrix: (Units=1/GPa)
#
#
# Indices 1 2 3 4 5 6 
#
# 1 0.013291 -0.003372 0.000096 0.000000 0.000000 0.000000
# 2 -0.003372 0.011025 0.004307 0.000000 0.000000 0.000000
# 3 0.000096 0.004307 0.021226 0.000000 0.000000 0.000000
# 4 0.000000 0.000000 0.000000 0.058085 0.000000 0.000000
# 5 0.000000 0.000000 0.000000 0.000000 0.032861 0.000000
# 6 0.000000 0.000000 0.000000 0.000000 0.000000 0.052411
#
#
# Mechanical properties :
#
#
# Convention : Reuss Voigt Hill
#
# Bulk Modulus (GPa) = 21.00723 26.74008 23.87366
# Shear Modulus (GPa) = 24.66621 29.47773 27.07197
#
# Velocity S-wave (km/s) = 3.39027 3.70621 3.55175
# Velocity P-wave (km/s) = 5.01140 5.54751 5.28626
#
# Compressibility (1/GPa) = 0.04760265
#
# Stress axis : x y z
#
# Youngs Moduli (GPa) = 75.23658 90.70411 47.11294
#
# Poissons Ratio (x) = 0.30586 -0.00452
# Poissons Ratio (y) = 0.25370 -0.20290
# Poissons Ratio (z) = -0.00721 -0.39063
#
# Static dielectric constant tensor:
#      x y z
#    x 1.745440 0.000000 0.000000 
#    y 0.000000 1.718960 0.000000 
#    z 0.000000 0.000000 1.817710 
# 
# From -- ./inp_files/11488.got.cif
#   From: 2010.05.17/outbox.cif.g08.bks.cpg/sg54_6_cif.got.tgz:11488.got - 2010.06.03 13:09:01.
