data_PCOD9423715
_publ_section_title
;
Structure prediction by ZEFSAII (Michael W. Deem and Ramdas Pophale) SiO2 
 PCOD9423715
Probable space group: P C C A
;
_chemical_formula_sum "Si O2"
_cell_formula_units_Z 32
_cell_length_a 5.387018
_cell_length_b 11.847964
_cell_length_c 23.425288
_cell_angle_alpha 90.000000
_cell_angle_beta 90.000000
_cell_angle_gamma 90.000000
_cell_volume 1495.123582
_symmetry_space_group_name_H-M "P C C A"
_symmetry_group_IT_number 54
_symmetry_cell_setting 'orthorhombic'
loop_
_space_group_symop_operation_xyz
x,y,z
1/2-x,-y,z
1/2+x,-y,1/2-z
-x,y,1/2-z
-x,-y,-z
1/2+x,y,-z
1/2-x,y,1/2+z
x,-y,1/2+z
loop_
_atom_site_type_symbol
_atom_site_label
_atom_site_fract_x
_atom_site_fract_y
_atom_site_fract_z
Si Si1 0.000000 0.666053 0.750000
Si Si2 0.774029 0.363319 0.467992
Si Si3 0.750000 0.500000 0.662785
Si Si4 0.634117 0.696543 0.850739
Si Si5 0.497587 0.067991 0.319108
O O1 0.120361 0.587977 0.796666
O O2 0.219515 0.714421 0.709921
O O3 0.750000 0.500000 0.467089
O O4 0.508176 0.328081 0.493662
O O5 0.815076 0.314302 0.404683
O O6 0.534091 0.583030 0.638951
O O7 0.480450 0.811551 0.850486
O O8 0.500000 0.080060 0.250000
O O9 0.250000 0.000000 0.333256
O O10 0.750000 0.000000 0.334207
#
# Coordination Sequence:
#
# PCOD9423715 Si02
#       5
#     4   8   4   8   8
#     4  12  22  38  58 104 136 174 204 270 354 430
#     4  10  24  44  65  96 137 183 233 278 335 411
#     4  12  22  38  56 102 142 168 206 272 358 424
#     4  12  26  40  71  96 141 179 226 282 349 415
#     4  10  24  44  65  95 134 180 227 275 335 411
#
# _framework density 21.402913999999999
#
# number of rings (size 3 to 8) (size 9 to 14) (size 15 to 20)
#    0.000    1.000    2.500    3.000   17.500    0.000 
#    0.000    0.000    0.000    4.500    0.000    0.000 
#    0.000    0.000    0.000    0.000    0.000    0.000 
#
# Total GULP energy -178213.360382 kJ/mol
# GULP energy per Si atom -5569.167512 kJ/mol
# Density = 2.135420 g / cm^3
# Si number density = 21.402914 Si / 1000 Ang^3
#
#
#
# Elastic Constant Matrix: (Units=GPa)
#
#
# Indices 1 2 3 4 5 6 
#
# 1 130.6697 37.3474 39.1267 0.0000 0.0000 0.0000
# 2 37.3474 54.1262 44.3549 0.0000 0.0000 0.0000
# 3 39.1267 44.3549 72.3484 0.0000 0.0000 0.0000
# 4 0.0000 0.0000 0.0000 17.7527 0.0000 0.0000
# 5 0.0000 0.0000 0.0000 0.0000 39.3061 0.0000
# 6 0.0000 0.0000 0.0000 0.0000 0.0000 56.9129
#
#
#
# Elastic Compliance Matrix: (Units=1/GPa)
#
#
# Indices 1 2 3 4 5 6 
#
# 1 0.009720 -0.004821 -0.002301 0.000000 0.000000 0.000000
# 2 -0.004821 0.039520 -0.021621 0.000000 0.000000 0.000000
# 3 -0.002301 -0.021621 0.028322 0.000000 0.000000 0.000000
# 4 0.000000 0.000000 0.000000 0.056329 0.000000 0.000000
# 5 0.000000 0.000000 0.000000 0.000000 0.025441 0.000000
# 6 0.000000 0.000000 0.000000 0.000000 0.000000 0.017571
#
#
# Mechanical properties :
#
#
# Convention : Reuss Voigt Hill
#
# Bulk Modulus (GPa) = 49.81351 55.42250 52.61800
# Shear Modulus (GPa) = 20.73986 31.88202 26.31094
#
# Velocity S-wave (km/s) = 3.11629 3.86374 3.50996
# Velocity P-wave (km/s) = 6.02271 6.77168 6.40815
#
# Compressibility (1/GPa) = 0.02007488
#
# Stress axis : x y z
#
# Youngs Moduli (GPa) = 102.88260 25.30350 35.30855
#
# Poissons Ratio (x) = 0.12200 0.08123
# Poissons Ratio (y) = 0.49603 0.76342
# Poissons Ratio (z) = 0.23670 0.54710
#
# Static dielectric constant tensor:
#      x y z
#    x 1.692730 0.000000 0.000000 
#    y 0.000000 1.565770 0.000000 
#    z 0.000000 0.000000 1.713890 
# 
# From -- ./inp_files/19525.got.cif
#   From: 2010.05.17/outbox.cif.g08.bks.cpg/sg54_10_cif.got.tgz:19525.got - 2010.06.03 13:09:01.
