data_PCOD9423782
_publ_section_title
;
Structure prediction by ZEFSAII (Michael W. Deem and Ramdas Pophale) SiO2 
 PCOD9423782
Probable space group: P C C A
;
_chemical_formula_sum "Si O2"
_cell_formula_units_Z 52
_cell_length_a 20.310185
_cell_length_b 6.071212
_cell_length_c 19.584843
_cell_angle_alpha 90.000000
_cell_angle_beta 90.000000
_cell_angle_gamma 90.000000
_cell_volume 2414.956831
_symmetry_space_group_name_H-M "P C C A"
_symmetry_group_IT_number 54
_symmetry_cell_setting 'orthorhombic'
loop_
_space_group_symop_operation_xyz
x,y,z
1/2-x,-y,z
1/2+x,-y,1/2-z
-x,y,1/2-z
-x,-y,-z
1/2+x,y,-z
1/2-x,y,1/2+z
x,-y,1/2+z
loop_
_atom_site_type_symbol
_atom_site_label
_atom_site_fract_x
_atom_site_fract_y
_atom_site_fract_z
Si Si1 0.663134 0.846757 0.982243
Si Si2 0.481675 0.655214 0.323309
Si Si3 0.531141 0.617293 0.934604
Si Si4 0.750000 0.000000 0.365998
Si Si5 0.351718 0.621393 0.817458
Si Si6 0.250000 0.500000 0.702374
Si Si7 0.250000 0.500000 0.437276
Si Si8 0.585450 0.044749 0.102899
O O1 0.720957 0.696030 0.015505
O O2 0.633723 0.006206 0.039802
O O3 0.601706 0.702474 0.957322
O O4 0.688419 0.974171 0.916475
O O5 0.500000 0.752369 0.250000
O O6 0.537390 0.532673 0.366903
O O7 0.422781 0.486359 0.310015
O O8 0.449617 0.824226 0.375092
O O9 0.475162 0.796924 0.916194
O O10 0.500000 0.500000 0.000000
O O11 0.743045 0.749202 0.332281
O O12 0.310856 0.548444 0.752663
O O13 0.310589 0.552745 0.885435
O O14 0.369961 0.873647 0.833531
#
# Coordination Sequence:
#
# PCOD9423782 Si02
#       8
#     8   8   8   4   8   4   4   8
#     4  12  24  45  74 106 150 189 253 312 381 455
#     4  11  25  44  71 105 143 190 252 313 390 449
#     4  11  24  45  72 109 145 190 247 318 385 454
#     4  12  30  46  70 112 150 204 246 314 382 452
#     4  10  24  45  74  99 145 189 252 309 373 457
#     4  11  29  50  70 108 155 203 252 308 390 462
#     4  11  21  46  74 104 135 193 244 308 364 454
#     4  11  23  45  73 109 133 193 248 312 380 455
#
# _framework density 21.532475000000002
#
# number of rings (size 3 to 8) (size 9 to 14) (size 15 to 20)
#    0.000    0.923    3.077    2.769    4.308    4.923 
#    0.000    0.000    0.000    0.000    0.000    0.000 
#    0.000    0.000    0.000    0.000    0.000    0.000 
#
# Total GULP energy -289872.759762 kJ/mol
# GULP energy per Si atom -5574.476149 kJ/mol
# Density = 2.148347 g / cm^3
# Si number density = 21.532475 Si / 1000 Ang^3
#
#
#
# Elastic Constant Matrix: (Units=GPa)
#
#
# Indices 1 2 3 4 5 6 
#
# 1 59.8692 5.7357 26.2095 0.0000 0.0000 0.0000
# 2 5.7357 75.9339 49.1268 0.0000 0.0000 0.0000
# 3 26.2095 49.1268 112.4659 0.0000 0.0000 0.0000
# 4 0.0000 0.0000 0.0000 16.5214 0.0000 0.0000
# 5 0.0000 0.0000 0.0000 0.0000 32.7643 0.0000
# 6 0.0000 0.0000 0.0000 0.0000 0.0000 28.0228
#
#
#
# Elastic Compliance Matrix: (Units=1/GPa)
#
#
# Indices 1 2 3 4 5 6 
#
# 1 0.018810 0.001973 -0.005245 0.000000 0.000000 0.000000
# 2 0.001973 0.018564 -0.008569 0.000000 0.000000 0.000000
# 3 -0.005245 -0.008569 0.013857 0.000000 0.000000 0.000000
# 4 0.000000 0.000000 0.000000 0.060528 0.000000 0.000000
# 5 0.000000 0.000000 0.000000 0.000000 0.030521 0.000000
# 6 0.000000 0.000000 0.000000 0.000000 0.000000 0.035685
#
#
# Mechanical properties :
#
#
# Convention : Reuss Voigt Hill
#
# Bulk Modulus (GPa) = 36.29955 45.60146 40.95050
# Shear Modulus (GPa) = 23.71567 26.60816 25.16191
#
# Velocity S-wave (km/s) = 3.32232 3.51910 3.42212
# Velocity P-wave (km/s) = 5.62243 6.14297 5.88845
#
# Compressibility (1/GPa) = 0.02754855
#
# Stress axis : x y z
#
# Youngs Moduli (GPa) = 53.16207 53.86744 72.16577
#
# Poissons Ratio (x) = -0.10627 0.37854
# Poissons Ratio (y) = -0.10487 0.61838
# Poissons Ratio (z) = 0.27885 0.46158
#
# Static dielectric constant tensor:
#      x y z
#    x 1.792950 0.000000 0.000000 
#    y 0.000000 1.819760 0.000000 
#    z 0.000000 0.000000 1.782740 
# 
# From -- ./inp_files/22184.got.cif
#   From: 2010.05.17/outbox.cif.g08.bks.cpg/sg54_12_cif.got.tgz:22184.got - 2010.06.03 13:09:01.
