data_PCOD9423967
_publ_section_title
;
Structure prediction by ZEFSAII (Michael W. Deem and Ramdas Pophale) SiO2 
 PCOD9423967
Probable space group: P C C A
;
_chemical_formula_sum "Si O2"
_cell_formula_units_Z 60
_cell_length_a 14.464530
_cell_length_b 12.203123
_cell_length_c 16.864664
_cell_angle_alpha 90.000000
_cell_angle_beta 90.000000
_cell_angle_gamma 90.000000
_cell_volume 2976.822971
_symmetry_space_group_name_H-M "P C C A"
_symmetry_group_IT_number 54
_symmetry_cell_setting 'orthorhombic'
loop_
_space_group_symop_operation_xyz
x,y,z
1/2-x,-y,z
1/2+x,-y,1/2-z
-x,y,1/2-z
-x,-y,-z
1/2+x,y,-z
1/2-x,y,1/2+z
x,-y,1/2+z
loop_
_atom_site_type_symbol
_atom_site_label
_atom_site_fract_x
_atom_site_fract_y
_atom_site_fract_z
Si Si1 0.634867 0.190804 0.430141
Si Si2 0.328036 0.643403 0.841287
Si Si3 0.668071 0.579590 0.842194
Si Si4 0.750000 0.000000 0.850211
Si Si5 0.018099 0.518297 0.906938
Si Si6 0.638218 0.276909 0.605858
Si Si7 0.950826 0.857246 0.163580
Si Si8 0.604286 0.082789 0.720951
O O1 0.662218 0.305493 0.388370
O O2 0.703497 0.095413 0.401802
O O3 0.637134 0.212901 0.523175
O O4 0.532194 0.158895 0.399873
O O5 0.317492 0.607268 0.750101
O O6 0.399038 0.561169 0.881865
O O7 0.230340 0.650816 0.884730
O O8 0.375480 0.762773 0.843534
O O9 0.750000 0.500000 0.869919
O O10 0.571658 0.517521 0.857610
O O11 0.671005 0.049923 0.793019
O O12 0.050894 0.641905 0.891472
O O13 0.000000 0.500000 0.000000
O O14 0.638987 0.189368 0.676150
O O15 0.000000 0.846137 0.250000
O O16 0.904084 0.976399 0.164014
O O17 0.500000 0.102881 0.750000
#
# Coordination Sequence:
#
# PCOD9423967 Si02
#       8
#     8   8   8   4   8   8   8   8
#     4  12  25  46  69 103 141 184 237 291 365 434
#     4  12  24  44  74 100 139 187 239 283 348 443
#     4  12  25  44  74 102 135 189 239 286 355 430
#     4  12  24  46  76 102 138 192 240 294 366 440
#     4  12  25  46  69  99 144 185 232 296 356 423
#     4  12  28  43  69 109 146 181 235 301 370 416
#     4  11  19  45  75  95 134 190 233 282 350 431
#     4  11  24  45  72 101 142 179 235 304 346 422
#
# _framework density 20.155716999999999
#
# number of rings (size 3 to 8) (size 9 to 14) (size 15 to 20)
#    0.000    0.267    6.667    3.200    1.867    5.333 
#    2.400    0.000    0.000    0.000    0.000    0.000 
#    0.000    0.000    0.000    0.000    0.000    0.000 
#
# Total GULP energy -335872.725638 kJ/mol
# GULP energy per Si atom -5597.878761 kJ/mol
# Density = 2.010984 g / cm^3
# Si number density = 20.155717 Si / 1000 Ang^3
#
#
#
# Elastic Constant Matrix: (Units=GPa)
#
#
# Indices 1 2 3 4 5 6 
#
# 1 111.9624 48.7397 15.1556 0.0000 0.0000 0.0000
# 2 48.7397 130.4257 14.4917 0.0000 0.0000 0.0000
# 3 15.1556 14.4917 57.1212 0.0000 0.0000 0.0000
# 4 0.0000 0.0000 0.0000 19.8602 0.0000 0.0000
# 5 0.0000 0.0000 0.0000 0.0000 22.6807 0.0000
# 6 0.0000 0.0000 0.0000 0.0000 0.0000 42.2774
#
#
#
# Elastic Compliance Matrix: (Units=1/GPa)
#
#
# Indices 1 2 3 4 5 6 
#
# 1 0.010865 -0.003848 -0.001906 0.000000 0.000000 0.000000
# 2 -0.003848 0.009253 -0.001326 0.000000 0.000000 0.000000
# 3 -0.001906 -0.001326 0.018349 0.000000 0.000000 0.000000
# 4 0.000000 0.000000 0.000000 0.050352 0.000000 0.000000
# 5 0.000000 0.000000 0.000000 0.000000 0.044090 0.000000
# 6 0.000000 0.000000 0.000000 0.000000 0.000000 0.023653
#
#
# Mechanical properties :
#
#
# Convention : Reuss Voigt Hill
#
# Bulk Modulus (GPa) = 41.14491 50.69814 45.92153
# Shear Modulus (GPa) = 27.96017 31.70514 29.83266
#
# Velocity S-wave (km/s) = 3.72856 3.97042 3.85139
# Velocity P-wave (km/s) = 6.24453 6.79903 6.52767
#
# Compressibility (1/GPa) = 0.02430434
#
# Stress axis : x y z
#
# Youngs Moduli (GPa) = 92.03955 108.07664 54.49905
#
# Poissons Ratio (x) = 0.41592 0.10390
# Poissons Ratio (y) = 0.35420 0.07229
# Poissons Ratio (z) = 0.17546 0.14335
#
# Static dielectric constant tensor:
#      x y z
#    x 1.693260 0.000000 0.000000 
#    y 0.000000 1.714250 0.000000 
#    z 0.000000 0.000000 1.608670 
# 
# From -- ./inp_files/18199.got.cif
#   From: 2010.05.17/outbox.cif.g08.bks.cpg/sg54_10_cif.got.tgz:18199.got - 2010.06.03 13:09:01.
