data_PCOD9423969
_publ_section_title
;
Structure prediction by ZEFSAII (Michael W. Deem and Ramdas Pophale) SiO2 
 PCOD9423969
Probable space group: P C C A
;
_chemical_formula_sum "Si O2"
_cell_formula_units_Z 32
_cell_length_a 5.060071
_cell_length_b 10.546326
_cell_length_c 31.104966
_cell_angle_alpha 90.000000
_cell_angle_beta 90.000000
_cell_angle_gamma 90.000000
_cell_volume 1659.921436
_symmetry_space_group_name_H-M "P C C A"
_symmetry_group_IT_number 54
_symmetry_cell_setting 'orthorhombic'
loop_
_space_group_symop_operation_xyz
x,y,z
1/2-x,-y,z
1/2+x,-y,1/2-z
-x,y,1/2-z
-x,-y,-z
1/2+x,y,-z
1/2-x,y,1/2+z
x,-y,1/2+z
loop_
_atom_site_type_symbol
_atom_site_label
_atom_site_fract_x
_atom_site_fract_y
_atom_site_fract_z
Si Si1 0.334645 0.731060 0.674265
Si Si2 0.276688 0.653146 0.475588
Si Si3 0.000000 0.081166 0.750000
Si Si4 0.809773 0.653030 0.623328
Si Si5 0.750000 0.500000 0.771969
O O1 0.380330 0.839112 0.709795
O O2 0.551215 0.731073 0.637031
O O3 0.400648 0.604110 0.700819
O O4 0.049548 0.701982 0.653264
O O5 0.250000 0.500000 0.478470
O O6 0.490940 0.700111 0.509814
O O7 0.363188 0.677767 0.426875
O O8 0.250000 0.000000 0.766064
O O9 0.750000 0.500000 0.627446
O O10 0.500000 0.431205 0.750000
#
# Coordination Sequence:
#
# PCOD9423969 Si02
#       5
#     8   8   4   8   4
#     4  12  23  37  58  82 113 147 197 244 287 342
#     4   9  17  29  46  72 116 161 183 206 264 350
#     4  12  28  46  60  78 114 162 206 248 296 352
#     4  11  20  33  54  87 118 148 189 234 285 344
#     4  12  22  34  56  84 110 144 184 240 298 344
#
# _framework density 19.278019
#
# number of rings (size 3 to 8) (size 9 to 14) (size 15 to 20)
#    0.000    1.000    3.750    4.500    1.750    4.000 
#    0.000    0.000    0.000    0.000    0.000    0.000 
#    0.000   70.000    0.000    0.000    0.000    0.000 
#
# Total GULP energy -178260.801293 kJ/mol
# GULP energy per Si atom -5570.650040 kJ/mol
# Density = 1.923414 g / cm^3
# Si number density = 19.278019 Si / 1000 Ang^3
#
#
#
# Elastic Constant Matrix: (Units=GPa)
#
#
# Indices 1 2 3 4 5 6 
#
# 1 115.1215 17.3427 36.1074 0.0000 0.0000 0.0000
# 2 17.3427 44.8295 25.4713 0.0000 0.0000 0.0000
# 3 36.1074 25.4713 100.8635 0.0000 0.0000 0.0000
# 4 0.0000 0.0000 0.0000 -5.5976 0.0000 0.0000
# 5 0.0000 0.0000 0.0000 0.0000 31.9838 0.0000
# 6 0.0000 0.0000 0.0000 0.0000 0.0000 21.1008
#
#
#
# Elastic Compliance Matrix: (Units=1/GPa)
#
#
# Indices 1 2 3 4 5 6 
#
# 1 0.009957 -0.002133 -0.003026 0.000000 0.000000 0.000000
# 2 -0.002133 0.026500 -0.005929 0.000000 0.000000 0.000000
# 3 -0.003026 -0.005929 0.012495 0.000000 0.000000 0.000000
# 4 0.000000 0.000000 0.000000 -0.178649 0.000000 0.000000
# 5 0.000000 0.000000 0.000000 0.000000 0.031266 0.000000
# 6 0.000000 0.000000 0.000000 0.000000 0.000000 0.047392
#
#
# Mechanical properties :
#
#
# Convention : Reuss Voigt Hill
#
# Bulk Modulus (GPa) = 37.34478 46.51750 41.93114
# Shear Modulus (GPa) = -250.76491 21.62360 -114.57066
#
# Velocity S-wave (km/s) = -11.41755 3.35277 -7.71750
# Velocity P-wave (km/s) = 12.42579 6.25862 7.59046
#
# Compressibility (1/GPa) = 0.02677751
#
# Stress axis : x y z
#
# Youngs Moduli (GPa) = 100.43400 37.73531 80.03347
#
# Poissons Ratio (x) = 0.08048 0.24216
# Poissons Ratio (y) = 0.21419 0.47450
# Poissons Ratio (z) = 0.30389 0.22372
#
# Static dielectric constant tensor:
#      x y z
#    x 2.930850 0.000000 0.000000 
#    y 0.000000 1.676330 0.000000 
#    z 0.000000 0.000000 1.710730 
# 
# From -- ./inp_files/26906.got.cif
#   From: 2010.05.17/outbox.cif.g08.bks.cpg/sg54_14_cif.got.tgz:26906.got - 2010.06.03 13:09:01.
