data_PCOD9423320
_publ_section_title
;
Structure prediction by ZEFSAII (Michael W. Deem and Ramdas Pophale) SiO2 
 PCOD9423320
Probable space group: P C C A
;
_chemical_formula_sum "Si O2"
_cell_formula_units_Z 48
_cell_length_a 10.754814
_cell_length_b 8.504178
_cell_length_c 24.225787
_cell_angle_alpha 90.000000
_cell_angle_beta 90.000000
_cell_angle_gamma 90.000000
_cell_volume 2215.711134
_symmetry_space_group_name_H-M "P C C A"
_symmetry_group_IT_number 54
_symmetry_cell_setting 'orthorhombic'
loop_
_space_group_symop_operation_xyz
x,y,z
1/2-x,-y,z
1/2+x,-y,1/2-z
-x,y,1/2-z
-x,-y,-z
1/2+x,y,-z
1/2-x,y,1/2+z
x,-y,1/2+z
loop_
_atom_site_type_symbol
_atom_site_label
_atom_site_fract_x
_atom_site_fract_y
_atom_site_fract_z
Si Si1 0.317441 0.331691 0.439473
Si Si2 0.786387 0.820878 0.664666
Si Si3 0.211362 0.682377 0.228406
Si Si4 0.708316 0.822378 0.443269
Si Si5 0.564622 0.265045 0.845065
Si Si6 0.076467 0.634568 0.123613
O O1 0.250000 0.500000 0.442720
O O2 0.235536 0.227255 0.398339
O O3 0.328663 0.260642 0.500088
O O4 0.449779 0.339080 0.408965
O O5 0.700177 0.729668 0.708449
O O6 0.928359 0.772327 0.676699
O O7 0.750000 0.000000 0.671926
O O8 0.250000 0.500000 0.228393
O O9 0.329437 0.768544 0.200216
O O10 0.098964 0.703928 0.185277
O O11 0.596050 0.832991 0.399642
O O12 0.813939 0.713875 0.413183
O O13 0.750000 0.000000 0.454204
O O14 0.580643 0.446522 0.865177
#
# Coordination Sequence:
#
# PCOD9423320 Si02
#       6
#     8   8   8   8   8   8
#     4  12  25  43  70  99 132 179 232 276 331 408
#     4  12  26  42  65 104 139 174 222 285 350 401
#     4   9  21  44  70  95 129 176 230 275 337 405
#     4  11  26  43  69 100 139 177 221 285 349 406
#     4  10  22  46  70  97 130 182 231 277 332 419
#     4  10  23  45  72  97 131 180 228 276 335 409
#
# _framework density 21.663473
#
# number of rings (size 3 to 8) (size 9 to 14) (size 15 to 20)
#    0.000    1.333    1.667    4.000    4.667    5.333 
#    3.000    0.000    0.000    0.000    0.000    0.000 
#    0.000    0.000    0.000    0.000    0.000    0.000 
#
# Total GULP energy -268162.002515 kJ/mol
# GULP energy per Si atom -5586.708386 kJ/mol
# Density = 2.161417 g / cm^3
# Si number density = 21.663473 Si / 1000 Ang^3
#
#
#
# Elastic Constant Matrix: (Units=GPa)
#
#
# Indices 1 2 3 4 5 6 
#
# 1 93.5904 27.9439 24.3528 0.0000 0.0000 0.0000
# 2 27.9439 69.4965 18.0417 0.0000 0.0000 0.0000
# 3 24.3528 18.0417 128.6535 0.0000 0.0000 0.0000
# 4 0.0000 0.0000 0.0000 -41.4661 0.0000 0.0000
# 5 0.0000 0.0000 0.0000 0.0000 22.3425 0.0000
# 6 0.0000 0.0000 0.0000 0.0000 0.0000 14.6545
#
#
#
# Elastic Compliance Matrix: (Units=1/GPa)
#
#
# Indices 1 2 3 4 5 6 
#
# 1 0.012501 -0.004579 -0.001724 0.000000 0.000000 0.000000
# 2 -0.004579 0.016610 -0.001463 0.000000 0.000000 0.000000
# 3 -0.001724 -0.001463 0.008304 0.000000 0.000000 0.000000
# 4 0.000000 0.000000 0.000000 -0.024116 0.000000 0.000000
# 5 0.000000 0.000000 0.000000 0.000000 0.044758 0.000000
# 6 0.000000 0.000000 0.000000 0.000000 0.000000 0.068238
#
#
# Mechanical properties :
#
#
# Convention : Reuss Voigt Hill
#
# Bulk Modulus (GPa) = 45.69573 48.04636 46.87105
# Shear Modulus (GPa) = 33.52996 13.86632 23.69814
#
# Velocity S-wave (km/s) = 3.93843 2.53272 3.31104
# Velocity P-wave (km/s) = 6.46691 5.54793 6.02497
#
# Compressibility (1/GPa) = 0.02188388
#
# Stress axis : x y z
#
# Youngs Moduli (GPa) = 79.99614 60.20469 120.41984
#
# Poissons Ratio (x) = 0.27566 0.20762
# Poissons Ratio (y) = 0.36629 0.17612
# Poissons Ratio (z) = 0.13792 0.08805
#
# Static dielectric constant tensor:
#      x y z
#    x 1.768930 0.000000 0.000000 
#    y 0.000000 1.785220 0.000000 
#    z 0.000000 0.000000 1.755960 
# 
# From -- ./inp_files/24056.got.cif
#   From: 2010.05.17/outbox.cif.g08.bks.cpg/sg54_13_cif.got.tgz:24056.got - 2010.06.03 13:09:01.
