data_PCOD9423001
_publ_section_title
;
Structure prediction by ZEFSAII (Michael W. Deem and Ramdas Pophale) SiO2 
 PCOD9423001
Probable space group: P C C A
;
_chemical_formula_sum "Si O2"
_cell_formula_units_Z 36
_cell_length_a 19.121824
_cell_length_b 7.424037
_cell_length_c 12.954418
_cell_angle_alpha 90.000000
_cell_angle_beta 90.000000
_cell_angle_gamma 90.000000
_cell_volume 1839.023803
_symmetry_space_group_name_H-M "P C C A"
_symmetry_group_IT_number 54
_symmetry_cell_setting 'orthorhombic'
loop_
_space_group_symop_operation_xyz
x,y,z
1/2-x,-y,z
1/2+x,-y,1/2-z
-x,y,1/2-z
-x,-y,-z
1/2+x,y,-z
1/2-x,y,1/2+z
x,-y,1/2+z
loop_
_atom_site_type_symbol
_atom_site_label
_atom_site_fract_x
_atom_site_fract_y
_atom_site_fract_z
Si Si1 0.358615 0.789902 0.905391
Si Si2 0.750000 0.000000 0.218177
Si Si3 0.522505 0.072921 0.611868
Si Si4 0.571901 0.551248 0.195766
Si Si5 0.371059 0.817679 0.151562
O O1 0.285431 0.849065 0.854769
O O2 0.387595 0.599416 0.866926
O O3 0.414956 0.936451 0.865046
O O4 0.357385 0.797299 0.029819
O O5 0.809351 0.079285 0.292132
O O6 0.551602 0.277115 0.623294
O O7 0.446903 0.085468 0.666997
O O8 0.500000 0.000000 0.500000
O O9 0.500000 0.484787 0.250000
O O10 0.618445 0.629522 0.288987
#
# Coordination Sequence:
#
# PCOD9423001 Si02
#       5
#     8   4   8   8   8
#     4  11  24  43  69  93 132 178 215 273 336 383
#     4  12  24  42  68  90 138 178 216 260 334 394
#     4   9  20  41  68  95 130 165 220 276 322 380
#     4  10  22  40  67 101 131 160 226 274 326 394
#     4  10  23  44  63  99 130 166 224 267 319 400
#
# _framework density 19.575603999999998
#
# number of rings (size 3 to 8) (size 9 to 14) (size 15 to 20)
#    0.000    1.778    2.222    0.667    3.111    8.889 
#    4.000    2.222    0.000    0.000    0.000    0.000 
#    0.000    0.000    0.000    0.000    0.000    0.000 
#
# Total GULP energy -200731.196133 kJ/mol
# GULP energy per Si atom -5575.866559 kJ/mol
# Density = 1.953105 g / cm^3
# Si number density = 19.575604 Si / 1000 Ang^3
#
#
#
# Elastic Constant Matrix: (Units=GPa)
#
#
# Indices 1 2 3 4 5 6 
#
# 1 124.6739 65.2914 62.7270 0.0000 0.0000 0.0000
# 2 65.2914 90.9578 68.6433 0.0000 0.0000 0.0000
# 3 62.7270 68.6433 159.2264 0.0000 0.0000 0.0000
# 4 0.0000 0.0000 0.0000 26.0412 0.0000 0.0000
# 5 0.0000 0.0000 0.0000 0.0000 35.8851 0.0000
# 6 0.0000 0.0000 0.0000 0.0000 0.0000 26.6622
#
#
#
# Elastic Compliance Matrix: (Units=1/GPa)
#
#
# Indices 1 2 3 4 5 6 
#
# 1 0.013137 -0.008188 -0.001645 0.000000 0.000000 0.000000
# 2 -0.008188 0.021400 -0.006000 0.000000 0.000000 0.000000
# 3 -0.001645 -0.006000 0.009515 0.000000 0.000000 0.000000
# 4 0.000000 0.000000 0.000000 0.038401 0.000000 0.000000
# 5 0.000000 0.000000 0.000000 0.000000 0.027867 0.000000
# 6 0.000000 0.000000 0.000000 0.000000 0.000000 0.037506
#
#
# Mechanical properties :
#
#
# Convention : Reuss Voigt Hill
#
# Bulk Modulus (GPa) = 80.74270 85.35349 83.04810
# Shear Modulus (GPa) = 27.23014 29.59747 28.41380
#
# Velocity S-wave (km/s) = 3.73369 3.89261 3.81398
# Velocity P-wave (km/s) = 7.74102 7.99374 7.86839
#
# Compressibility (1/GPa) = 0.01238502
#
# Stress axis : x y z
#
# Youngs Moduli (GPa) = 76.12153 46.72971 105.09701
#
# Poissons Ratio (x) = 0.38264 0.17291
# Poissons Ratio (y) = 0.62331 0.63055
# Poissons Ratio (z) = 0.12524 0.28037
#
# Static dielectric constant tensor:
#      x y z
#    x 1.715840 0.000000 0.000000 
#    y 0.000000 1.690720 0.000000 
#    z 0.000000 0.000000 1.783280 
# 
# From -- ./inp_files/13854.got.cif
#   From: 2010.05.17/outbox.cif.g08.bks.cpg/sg54_7_cif.got.tgz:13854.got - 2010.06.03 13:09:01.
