data_PCOD9423871
_publ_section_title
;
Structure prediction by ZEFSAII (Michael W. Deem and Ramdas Pophale) SiO2 
 PCOD9423871
Probable space group: P C C A
;
_chemical_formula_sum "Si O2"
_cell_formula_units_Z 40
_cell_length_a 16.822084
_cell_length_b 8.992312
_cell_length_c 11.530595
_cell_angle_alpha 90.000000
_cell_angle_beta 90.000000
_cell_angle_gamma 90.000000
_cell_volume 1744.226508
_symmetry_space_group_name_H-M "P C C A"
_symmetry_group_IT_number 54
_symmetry_cell_setting 'orthorhombic'
loop_
_space_group_symop_operation_xyz
x,y,z
1/2-x,-y,z
1/2+x,-y,1/2-z
-x,y,1/2-z
-x,-y,-z
1/2+x,y,-z
1/2-x,y,1/2+z
x,-y,1/2+z
loop_
_atom_site_type_symbol
_atom_site_label
_atom_site_fract_x
_atom_site_fract_y
_atom_site_fract_z
Si Si1 0.116523 0.109630 0.975644
Si Si2 0.124413 0.740733 0.251036
Si Si3 0.281326 0.339053 0.614820
Si Si4 0.087362 0.424513 0.304596
Si Si5 0.439083 0.791233 0.512337
O O1 0.184348 0.216459 0.026814
O O2 0.116273 0.937338 0.009295
O O3 0.117950 0.120947 0.836149
O O4 0.029674 0.166378 0.017326
O O5 0.209008 0.727024 0.189158
O O6 0.109102 0.595308 0.328694
O O7 0.063497 0.736744 0.144351
O O8 0.250000 0.500000 0.567020
O O9 0.350994 0.373714 0.706430
O O10 0.091034 0.328821 0.421033
O O11 0.000000 0.412808 0.250000
#
# Coordination Sequence:
#
# PCOD9423871 Si02
#       5
#     8   8   8   8   8
#     4  11  25  47  72 100 150 187 246 310 372 446
#     4  11  27  44  70 105 143 187 244 304 373 442
#     4  10  25  45  69 104 142 191 237 300 369 442
#     4  11  23  44  74 102 141 189 245 298 361 435
#     4  11  26  45  74 107 141 191 251 307 375 440
#
# _framework density 22.932801999999999
#
# number of rings (size 3 to 8) (size 9 to 14) (size 15 to 20)
#    0.000    1.200    2.000    1.800   11.200    3.200 
#    0.000    0.000    0.000    0.000    0.000    0.000 
#    0.000    0.000    0.000    0.000    0.000    0.000 
#
# Total GULP energy -223917.259428 kJ/mol
# GULP energy per Si atom -5597.931486 kJ/mol
# Density = 2.288061 g / cm^3
# Si number density = 22.932802 Si / 1000 Ang^3
#
#
#
# Elastic Constant Matrix: (Units=GPa)
#
#
# Indices 1 2 3 4 5 6 
#
# 1 104.6814 39.1208 19.0059 0.0000 0.0000 0.0000
# 2 39.1208 119.0731 64.9947 0.0000 0.0000 0.0000
# 3 19.0059 64.9947 90.1184 0.0000 0.0000 0.0000
# 4 0.0000 0.0000 0.0000 40.1385 0.0000 0.0000
# 5 0.0000 0.0000 0.0000 0.0000 32.1102 0.0000
# 6 0.0000 0.0000 0.0000 0.0000 0.0000 39.8625
#
#
#
# Elastic Compliance Matrix: (Units=1/GPa)
#
#
# Indices 1 2 3 4 5 6 
#
# 1 0.010902 -0.003837 0.000468 0.000000 0.000000 0.000000
# 2 -0.003837 0.015202 -0.010154 0.000000 0.000000 0.000000
# 3 0.000468 -0.010154 0.018321 0.000000 0.000000 0.000000
# 4 0.000000 0.000000 0.000000 0.024914 0.000000 0.000000
# 5 0.000000 0.000000 0.000000 0.000000 0.031143 0.000000
# 6 0.000000 0.000000 0.000000 0.000000 0.000000 0.025086
#
#
# Mechanical properties :
#
#
# Convention : Reuss Voigt Hill
#
# Bulk Modulus (GPa) = 57.54411 62.23509 59.88960
# Shear Modulus (GPa) = 31.56434 35.13900 33.35167
#
# Velocity S-wave (km/s) = 3.71399 3.91866 3.81769
# Velocity P-wave (km/s) = 6.59838 6.90445 6.75315
#
# Compressibility (1/GPa) = 0.01737797
#
# Stress axis : x y z
#
# Youngs Moduli (GPa) = 91.72760 65.78262 54.58166
#
# Poissons Ratio (x) = 0.25244 -0.02557
# Poissons Ratio (y) = 0.35200 0.55424
# Poissons Ratio (z) = -0.04297 0.66798
#
# Static dielectric constant tensor:
#      x y z
#    x 1.872650 0.000000 0.000000 
#    y 0.000000 1.854660 0.000000 
#    z 0.000000 0.000000 1.820730 
# 
# From -- ./inp_files/8740.got.cif
#   From: 2010.05.17/outbox.cif.g08.bks.cpg/sg54_5_cif.got.tgz:8740.got - 2010.06.03 13:09:01.
