data_PCOD9423622
_publ_section_title
;
Structure prediction by ZEFSAII (Michael W. Deem and Ramdas Pophale) SiO2 
 PCOD9423622
Probable space group: P C C A
;
_chemical_formula_sum "Si O2"
_cell_formula_units_Z 60
_cell_length_a 25.938897
_cell_length_b 5.115242
_cell_length_c 18.100169
_cell_angle_alpha 90.000000
_cell_angle_beta 90.000000
_cell_angle_gamma 90.000000
_cell_volume 2401.598034
_symmetry_space_group_name_H-M "P C C A"
_symmetry_group_IT_number 54
_symmetry_cell_setting 'orthorhombic'
loop_
_space_group_symop_operation_xyz
x,y,z
1/2-x,-y,z
1/2+x,-y,1/2-z
-x,y,1/2-z
-x,-y,-z
1/2+x,y,-z
1/2-x,y,1/2+z
x,-y,1/2+z
loop_
_atom_site_type_symbol
_atom_site_label
_atom_site_fract_x
_atom_site_fract_y
_atom_site_fract_z
Si Si1 0.682928 0.211170 0.333330
Si Si2 0.782614 0.763076 0.167168
Si Si3 0.000000 0.500000 0.500000
Si Si4 0.662229 0.703784 0.412080
Si Si5 0.956437 0.267768 0.359252
Si Si6 0.601400 0.599213 0.025084
Si Si7 0.896837 0.127681 0.616100
Si Si8 0.934812 0.778945 0.278351
O O1 0.709274 0.175176 0.254236
O O2 0.692830 0.501566 0.361705
O O3 0.622574 0.217624 0.312614
O O4 0.688020 0.985566 0.395997
O O5 0.750000 0.500000 0.159083
O O6 0.839675 0.756220 0.132618
O O7 0.750000 0.000000 0.133440
O O8 0.994097 0.312668 0.427251
O O9 0.946275 0.666854 0.471952
O O10 0.602953 0.744143 0.387534
O O11 0.651178 0.529898 0.485868
O O12 0.956513 0.497179 0.298659
O O13 0.966888 0.998076 0.319208
O O14 0.575087 0.338123 0.062406
O O15 0.610663 0.844756 0.078263
O O16 0.924989 0.142395 0.693827
#
# Coordination Sequence:
#
# PCOD9423622 Si02
#       8
#     8   8   4   8   8   8   8   8
#     4   9  17  32  56  84 112 144 189 240 293 358
#     4  11  22  38  64  94 122 152 193 251 312 382
#     4  10  24  40  60  88 120 162 226 270 306 368
#     4   9  17  32  55  81 110 150 198 240 291 348
#     4   9  18  33  55  80 112 152 196 256 305 344
#     4  11  23  39  61  87 122 169 212 258 305 367
#     4  11  23  40  61  89 123 162 207 250 314 390
#     4   9  18  34  55  80 113 154 194 241 303 364
#
# _framework density 24.983366
#
# number of rings (size 3 to 8) (size 9 to 14) (size 15 to 20)
#    0.000    2.133    0.000    3.200    0.000    9.600 
#    0.000    4.000    0.000   12.000    0.000    0.000 
#    0.000    0.000    0.000    0.000    0.000    0.000 
#
# Total GULP energy -334276.217449 kJ/mol
# GULP energy per Si atom -5571.270291 kJ/mol
# Density = 2.492650 g / cm^3
# Si number density = 24.983366 Si / 1000 Ang^3
#
#
#
# Elastic Constant Matrix: (Units=GPa)
#
#
# Indices 1 2 3 4 5 6 
#
# 1 101.7390 16.7958 2.5512 0.0000 0.0000 0.0000
# 2 16.7958 116.8759 0.8637 0.0000 0.0000 0.0000
# 3 2.5512 0.8637 57.6446 0.0000 0.0000 0.0000
# 4 0.0000 0.0000 0.0000 45.3743 0.0000 0.0000
# 5 0.0000 0.0000 0.0000 0.0000 14.5922 0.0000
# 6 0.0000 0.0000 0.0000 0.0000 0.0000 25.7763
#
#
#
# Elastic Compliance Matrix: (Units=1/GPa)
#
#
# Indices 1 2 3 4 5 6 
#
# 1 0.010078 -0.001445 -0.000424 0.000000 0.000000 0.000000
# 2 -0.001445 0.008764 -0.000067 0.000000 0.000000 0.000000
# 3 -0.000424 -0.000067 0.017367 0.000000 0.000000 0.000000
# 4 0.000000 0.000000 0.000000 0.022039 0.000000 0.000000
# 5 0.000000 0.000000 0.000000 0.000000 0.068530 0.000000
# 6 0.000000 0.000000 0.000000 0.000000 0.000000 0.038795
#
#
# Mechanical properties :
#
#
# Convention : Reuss Voigt Hill
#
# Bulk Modulus (GPa) = 30.92508 35.18673 33.05591
# Shear Modulus (GPa) = 27.74285 34.21848 30.98067
#
# Velocity S-wave (km/s) = 3.33596 3.70489 3.52526
# Velocity P-wave (km/s) = 5.21951 5.69353 5.46167
#
# Compressibility (1/GPa) = 0.03233622
#
# Stress axis : x y z
#
# Youngs Moduli (GPa) = 99.22313 114.09973 57.57890
#
# Poissons Ratio (x) = 0.16489 0.02444
# Poissons Ratio (y) = 0.14339 0.00388
# Poissons Ratio (z) = 0.04211 0.00768
#
# Static dielectric constant tensor:
#      x y z
#    x 1.753820 0.000000 0.000000 
#    y 0.000000 1.888590 0.000000 
#    z 0.000000 0.000000 1.854750 
# 
# From -- ./inp_files/19330.got.cif
#   From: 2010.05.17/outbox.cif.g08.bks.cpg/sg54_10_cif.got.tgz:19330.got - 2010.06.03 13:09:01.
