data_PCOD9423558
_publ_section_title
;
Structure prediction by ZEFSAII (Michael W. Deem and Ramdas Pophale) SiO2 
 PCOD9423558
Probable space group: P C C A
;
_chemical_formula_sum "Si O2"
_cell_formula_units_Z 40
_cell_length_a 13.600440
_cell_length_b 10.196840
_cell_length_c 10.424538
_cell_angle_alpha 90.000000
_cell_angle_beta 90.000000
_cell_angle_gamma 90.000000
_cell_volume 1445.690677
_symmetry_space_group_name_H-M "P C C A"
_symmetry_group_IT_number 54
_symmetry_cell_setting 'orthorhombic'
loop_
_space_group_symop_operation_xyz
x,y,z
1/2-x,-y,z
1/2+x,-y,1/2-z
-x,y,1/2-z
-x,-y,-z
1/2+x,y,-z
1/2-x,y,1/2+z
x,-y,1/2+z
loop_
_atom_site_type_symbol
_atom_site_label
_atom_site_fract_x
_atom_site_fract_y
_atom_site_fract_z
Si Si1 0.883590 0.635485 0.265539
Si Si2 0.876208 0.426556 0.043237
Si Si3 0.033275 0.215718 0.032850
Si Si4 0.194396 0.217130 0.252603
Si Si5 0.643693 0.006633 0.569546
O O1 0.866835 0.548057 0.138810
O O2 0.804564 0.750585 0.290160
O O3 0.000000 0.671815 0.250000
O O4 0.856911 0.549198 0.393073
O O5 0.818786 0.312658 0.122949
O O6 0.981310 0.355125 0.027970
O O7 0.106064 0.236319 0.152918
O O8 0.942803 0.109383 0.031274
O O9 0.103262 0.140800 0.932683
O O10 0.171136 0.071103 0.296594
O O11 0.750000 0.000000 0.498398
#
# Coordination Sequence:
#
# PCOD9423558 Si02
#       5
#     8   8   8   8   8
#     4  12  28  48  81 120 167 215 284 354 429 520
#     4  11  26  50  81 120 163 224 277 357 428 520
#     4  10  24  49  78 109 168 210 277 355 440 511
#     4  11  26  48  76 117 162 221 277 351 435 519
#     4  10  23  45  75 111 151 213 277 346 421 519
#
# _framework density 27.668437000000001
#
# number of rings (size 3 to 8) (size 9 to 14) (size 15 to 20)
#    0.000    1.200    0.000    4.800    8.400    4.000 
#    7.200    0.000    0.000    0.000    0.000    0.000 
#    0.000    0.000    0.000    0.000    0.000    0.000 
#
# Total GULP energy -223029.409308 kJ/mol
# GULP energy per Si atom -5575.735233 kJ/mol
# Density = 2.760546 g / cm^3
# Si number density = 27.668437 Si / 1000 Ang^3
#
#
#
# Elastic Constant Matrix: (Units=GPa)
#
#
# Indices 1 2 3 4 5 6 
#
# 1 198.4177 73.3288 60.8309 0.0000 0.0000 0.0000
# 2 73.3288 121.5708 42.1312 0.0000 0.0000 0.0000
# 3 60.8309 42.1312 150.9922 0.0000 0.0000 0.0000
# 4 0.0000 0.0000 0.0000 36.2843 0.0000 0.0000
# 5 0.0000 0.0000 0.0000 0.0000 10.4131 0.0000
# 6 0.0000 0.0000 0.0000 0.0000 0.0000 83.2642
#
#
#
# Elastic Compliance Matrix: (Units=1/GPa)
#
#
# Indices 1 2 3 4 5 6 
#
# 1 0.006897 -0.003539 -0.001791 0.000000 0.000000 0.000000
# 2 -0.003539 0.010923 -0.001622 0.000000 0.000000 0.000000
# 3 -0.001791 -0.001622 0.007797 0.000000 0.000000 0.000000
# 4 0.000000 0.000000 0.000000 0.027560 0.000000 0.000000
# 5 0.000000 0.000000 0.000000 0.000000 0.096033 0.000000
# 6 0.000000 0.000000 0.000000 0.000000 0.000000 0.012010
#
#
# Mechanical properties :
#
#
# Convention : Reuss Voigt Hill
#
# Bulk Modulus (GPa) = 85.38190 91.50697 88.44443
# Shear Modulus (GPa) = 27.92853 45.63831 36.78342
#
# Velocity S-wave (km/s) = 3.18055 4.06578 3.65010
# Velocity P-wave (km/s) = 6.66437 7.42867 7.05688
#
# Compressibility (1/GPa) = 0.01171208
#
# Stress axis : x y z
#
# Youngs Moduli (GPa) = 144.98993 91.55325 128.25541
#
# Poissons Ratio (x) = 0.32405 0.22971
# Poissons Ratio (y) = 0.51318 0.20800
# Poissons Ratio (z) = 0.25968 0.14848
#
# Static dielectric constant tensor:
#      x y z
#    x 2.323510 0.000000 0.000000 
#    y 0.000000 2.177800 0.000000 
#    z 0.000000 0.000000 2.314200 
# 
# From -- ./inp_files/12478.got.cif
#   From: 2010.05.17/outbox.cif.g08.bks.cpg/sg54_7_cif.got.tgz:12478.got - 2010.06.03 13:09:01.
