data_PCOD9423537
_publ_section_title
;
Structure prediction by ZEFSAII (Michael W. Deem and Ramdas Pophale) SiO2 
 PCOD9423537
Probable space group: P C C A
;
_chemical_formula_sum "Si O2"
_cell_formula_units_Z 32
_cell_length_a 9.008237
_cell_length_b 12.834710
_cell_length_c 12.374098
_cell_angle_alpha 90.000000
_cell_angle_beta 90.000000
_cell_angle_gamma 90.000000
_cell_volume 1430.669818
_symmetry_space_group_name_H-M "P C C A"
_symmetry_group_IT_number 54
_symmetry_cell_setting 'orthorhombic'
loop_
_space_group_symop_operation_xyz
x,y,z
1/2-x,-y,z
1/2+x,-y,1/2-z
-x,y,1/2-z
-x,-y,-z
1/2+x,y,-z
1/2-x,y,1/2+z
x,-y,1/2+z
loop_
_atom_site_type_symbol
_atom_site_label
_atom_site_fract_x
_atom_site_fract_y
_atom_site_fract_z
Si Si1 0.120980 0.920349 0.334036
Si Si2 0.503255 0.743806 0.984448
Si Si3 0.250231 0.621803 0.120893
Si Si4 0.656220 0.757612 0.203077
O O1 0.047860 0.852320 0.430232
O O2 0.212840 0.834638 0.265982
O O3 0.000000 0.964822 0.250000
O O4 0.250000 0.000000 0.370382
O O5 0.587597 0.670061 0.899471
O O6 0.371528 0.681861 0.045862
O O7 0.127067 0.761122 0.923416
O O8 0.250000 0.500000 0.098371
O O9 0.302964 0.647985 0.242962
O O10 0.500000 0.792604 0.250000
#
# Coordination Sequence:
#
# PCOD9423537 Si02
#       4
#     8   8   8   8
#     4  12  25  46  75 104 142 194 245 310 378 438
#     4  11  23  45  69 107 147 187 248 306 356 446
#     4  11  23  43  72 107 147 197 240 301 370 438
#     4  10  23  45  66 100 149 186 237 301 356 440
#
# _framework density 22.367146000000002
#
# number of rings (size 3 to 8) (size 9 to 14) (size 15 to 20)
#    0.000    1.000    5.000    1.500    0.000    2.000 
#   13.500    3.750    0.000    0.000    0.000    0.000 
#    0.000    0.000    0.000    0.000    0.000    0.000 
#
# Total GULP energy -178558.526771 kJ/mol
# GULP energy per Si atom -5579.953962 kJ/mol
# Density = 2.231624 g / cm^3
# Si number density = 22.367146 Si / 1000 Ang^3
#
#
#
# Elastic Constant Matrix: (Units=GPa)
#
#
# Indices 1 2 3 4 5 6 
#
# 1 89.7628 35.9713 39.3234 0.0000 0.0000 0.0000
# 2 35.9713 130.7133 50.6169 0.0000 0.0000 0.0000
# 3 39.3234 50.6169 89.0158 0.0000 0.0000 0.0000
# 4 0.0000 0.0000 0.0000 22.1362 0.0000 0.0000
# 5 0.0000 0.0000 0.0000 0.0000 19.3035 0.0000
# 6 0.0000 0.0000 0.0000 0.0000 0.0000 35.9754
#
#
#
# Elastic Compliance Matrix: (Units=1/GPa)
#
#
# Indices 1 2 3 4 5 6 
#
# 1 0.014170 -0.001892 -0.005184 0.000000 0.000000 0.000000
# 2 -0.001892 0.010063 -0.004886 0.000000 0.000000 0.000000
# 3 -0.005184 -0.004886 0.016302 0.000000 0.000000 0.000000
# 4 0.000000 0.000000 0.000000 0.045175 0.000000 0.000000
# 5 0.000000 0.000000 0.000000 0.000000 0.051804 0.000000
# 6 0.000000 0.000000 0.000000 0.000000 0.000000 0.027797
#
#
# Mechanical properties :
#
#
# Convention : Reuss Voigt Hill
#
# Bulk Modulus (GPa) = 60.20111 62.36838 61.28474
# Shear Modulus (GPa) = 25.67103 27.72170 26.69637
#
# Velocity S-wave (km/s) = 3.39146 3.52432 3.45853
# Velocity P-wave (km/s) = 6.50457 6.67125 6.58844
#
# Compressibility (1/GPa) = 0.01661099
#
# Stress axis : x y z
#
# Youngs Moduli (GPa) = 70.57391 99.37201 61.34067
#
# Poissons Ratio (x) = 0.18802 0.31797
# Poissons Ratio (y) = 0.13353 0.29973
# Poissons Ratio (z) = 0.36583 0.48557
#
# Static dielectric constant tensor:
#      x y z
#    x 1.919280 0.000000 0.000000 
#    y 0.000000 1.810220 0.000000 
#    z 0.000000 0.000000 1.962150 
# 
# From -- ./inp_files/11385.got.cif
#   From: 2010.05.17/outbox.cif.g08.bks.cpg/sg54_6_cif.got.tgz:11385.got - 2010.06.03 13:09:01.
