data_PCOD9423113
_publ_section_title
;
Structure prediction by ZEFSAII (Michael W. Deem and Ramdas Pophale) SiO2 
 PCOD9423113
Probable space group: P C C A
;
_chemical_formula_sum "Si O2"
_cell_formula_units_Z 40
_cell_length_a 15.722426
_cell_length_b 8.881822
_cell_length_c 13.293823
_cell_angle_alpha 90.000000
_cell_angle_beta 90.000000
_cell_angle_gamma 90.000000
_cell_volume 1856.399816
_symmetry_space_group_name_H-M "P C C A"
_symmetry_group_IT_number 54
_symmetry_cell_setting 'orthorhombic'
loop_
_space_group_symop_operation_xyz
x,y,z
1/2-x,-y,z
1/2+x,-y,1/2-z
-x,y,1/2-z
-x,-y,-z
1/2+x,y,-z
1/2-x,y,1/2+z
x,-y,1/2+z
loop_
_atom_site_type_symbol
_atom_site_label
_atom_site_fract_x
_atom_site_fract_y
_atom_site_fract_z
Si Si1 0.350929 0.967978 0.009154
Si Si2 0.928067 0.793437 0.175165
Si Si3 0.654345 0.545702 0.814862
Si Si4 0.047983 0.744148 0.657561
Si Si5 0.434918 0.295029 0.023861
O O1 0.375743 0.903588 0.898279
O O2 0.250000 0.000000 0.018740
O O3 0.389951 0.851472 0.091548
O O4 0.400182 0.124582 0.024637
O O5 0.870811 0.684455 0.243111
O O6 0.000000 0.859734 0.250000
O O7 0.985560 0.694532 0.099769
O O8 0.750000 0.500000 0.799261
O O9 0.598579 0.397650 0.799510
O O10 0.636440 0.598627 0.929791
O O11 0.000000 0.820988 0.750000
O O12 0.975076 0.680778 0.583866
#
# Coordination Sequence:
#
# PCOD9423113 Si02
#       5
#     8   8   8   8   8
#     4  11  24  43  67  99 132 170 217 278 332 376
#     4   9  20  41  65  91 127 171 213 256 318 394
#     4  11  23  41  65  98 131 166 214 273 327 383
#     4  11  23  41  65  94 128 177 224 262 322 399
#     4  10  22  42  65  90 128 174 214 261 321 390
#
# _framework density 21.547083000000001
#
# number of rings (size 3 to 8) (size 9 to 14) (size 15 to 20)
#    0.000    1.600    0.000    6.000    0.000    9.600 
#    0.000   10.000    0.000    0.000    0.000    0.000 
#    0.000    0.000    0.000    0.000    0.000    0.000 
#
# Total GULP energy -223466.069986 kJ/mol
# GULP energy per Si atom -5586.651750 kJ/mol
# Density = 2.149804 g / cm^3
# Si number density = 21.547083 Si / 1000 Ang^3
#
#
#
# Elastic Constant Matrix: (Units=GPa)
#
#
# Indices 1 2 3 4 5 6 
#
# 1 134.9112 74.5647 83.0770 0.0000 0.0000 0.0000
# 2 74.5647 111.2261 34.5338 0.0000 0.0000 0.0000
# 3 83.0770 34.5338 138.4071 0.0000 0.0000 0.0000
# 4 0.0000 0.0000 0.0000 23.8676 0.0000 0.0000
# 5 0.0000 0.0000 0.0000 0.0000 13.9784 0.0000
# 6 0.0000 0.0000 0.0000 0.0000 0.0000 35.2556
#
#
#
# Elastic Compliance Matrix: (Units=1/GPa)
#
#
# Indices 1 2 3 4 5 6 
#
# 1 0.017606 -0.009237 -0.008263 0.000000 0.000000 0.000000
# 2 -0.009237 0.014592 0.001904 0.000000 0.000000 0.000000
# 3 -0.008263 0.001904 0.011710 0.000000 0.000000 0.000000
# 4 0.000000 0.000000 0.000000 0.041898 0.000000 0.000000
# 5 0.000000 0.000000 0.000000 0.000000 0.071539 0.000000
# 6 0.000000 0.000000 0.000000 0.000000 0.000000 0.028364
#
#
# Mechanical properties :
#
#
# Convention : Reuss Voigt Hill
#
# Bulk Modulus (GPa) = 78.64837 85.43283 82.04060
# Shear Modulus (GPa) = 22.61005 27.44490 25.02748
#
# Velocity S-wave (km/s) = 3.24285 3.57279 3.41181
# Velocity P-wave (km/s) = 7.11347 7.53361 7.32655
#
# Compressibility (1/GPa) = 0.01271482
#
# Stress axis : x y z
#
# Youngs Moduli (GPa) = 56.79903 68.52963 85.39860
#
# Poissons Ratio (x) = 0.63303 0.70564
# Poissons Ratio (y) = 0.52467 -0.16257
# Poissons Ratio (z) = 0.46933 -0.13046
#
# Static dielectric constant tensor:
#      x y z
#    x 1.769280 0.000000 0.000000 
#    y 0.000000 1.795950 0.000000 
#    z 0.000000 0.000000 1.825640 
# 
# From -- ./inp_files/13234.got.cif
#   From: 2010.05.17/outbox.cif.g08.bks.cpg/sg54_7_cif.got.tgz:13234.got - 2010.06.03 13:09:01.
