data_PCOD9423478
_publ_section_title
;
Structure prediction by ZEFSAII (Michael W. Deem and Ramdas Pophale) SiO2 
 PCOD9423478
Probable space group: P C C A
;
_chemical_formula_sum "Si O2"
_cell_formula_units_Z 48
_cell_length_a 16.690097
_cell_length_b 8.707176
_cell_length_c 15.702390
_cell_angle_alpha 90.000000
_cell_angle_beta 90.000000
_cell_angle_gamma 90.000000
_cell_volume 2281.928032
_symmetry_space_group_name_H-M "P C C A"
_symmetry_group_IT_number 54
_symmetry_cell_setting 'orthorhombic'
loop_
_space_group_symop_operation_xyz
x,y,z
1/2-x,-y,z
1/2+x,-y,1/2-z
-x,y,1/2-z
-x,-y,-z
1/2+x,y,-z
1/2-x,y,1/2+z
x,-y,1/2+z
loop_
_atom_site_type_symbol
_atom_site_label
_atom_site_fract_x
_atom_site_fract_y
_atom_site_fract_z
Si Si1 0.510583 0.678648 0.019794
Si Si2 0.037513 0.786122 0.155726
Si Si3 0.797033 0.664590 0.539820
Si Si4 0.803350 0.650907 0.355982
Si Si5 0.567458 0.858416 0.322764
Si Si6 0.772633 0.826236 0.715358
O O1 0.605845 0.681704 0.042347
O O2 0.459650 0.753293 0.097336
O O3 0.500000 0.500000 0.000000
O O4 0.487545 0.768766 0.932047
O O5 0.100725 0.646424 0.140856
O O6 0.000000 0.769787 0.250000
O O7 0.072539 0.960404 0.151854
O O8 0.750000 0.500000 0.542073
O O9 0.776189 0.726256 0.445262
O O10 0.772366 0.750811 0.623870
O O11 0.750000 0.500000 0.346336
O O12 0.793733 0.749147 0.272643
O O13 0.500000 0.848859 0.250000
O O14 0.648017 0.809140 0.273593
O O15 0.750000 0.000000 0.704277
#
# Coordination Sequence:
#
# PCOD9423478 Si02
#       6
#     8   8   8   8   8   8
#     4  11  25  43  68 101 132 178 228 279 347 406
#     4  10  23  44  67  97 135 177 226 276 344 403
#     4  10  24  46  64  95 135 177 221 276 342 407
#     4  10  23  43  66  97 136 173 222 282 337 411
#     4  11  23  45  68  98 132 174 227 281 337 406
#     4  12  24  43  67 100 131 175 228 277 342 404
#
# _framework density 21.034844
#
# number of rings (size 3 to 8) (size 9 to 14) (size 15 to 20)
#    0.000    1.333    3.333    1.000    7.000    4.000 
#    0.000    0.000    0.000    0.000    0.000    0.000 
#    0.000    0.000    0.000    0.000    0.000    0.000 
#
# Total GULP energy -267274.724114 kJ/mol
# GULP energy per Si atom -5568.223419 kJ/mol
# Density = 2.098697 g / cm^3
# Si number density = 21.034844 Si / 1000 Ang^3
#
#
#
# Elastic Constant Matrix: (Units=GPa)
#
#
# Indices 1 2 3 4 5 6 
#
# 1 32.2285 0.3469 15.5467 0.0000 0.0000 0.0000
# 2 0.3469 74.4994 62.9414 0.0000 0.0000 0.0000
# 3 15.5467 62.9414 192.7265 0.0000 0.0000 0.0000
# 4 0.0000 0.0000 0.0000 28.0318 0.0000 0.0000
# 5 0.0000 0.0000 0.0000 0.0000 44.6028 0.0000
# 6 0.0000 0.0000 0.0000 0.0000 0.0000 16.3043
#
#
#
# Elastic Compliance Matrix: (Units=1/GPa)
#
#
# Indices 1 2 3 4 5 6 
#
# 1 0.032723 0.002870 -0.003577 0.000000 0.000000 0.000000
# 2 0.002870 0.018789 -0.006368 0.000000 0.000000 0.000000
# 3 -0.003577 -0.006368 0.007557 0.000000 0.000000 0.000000
# 4 0.000000 0.000000 0.000000 0.035674 0.000000 0.000000
# 5 0.000000 0.000000 0.000000 0.000000 0.022420 0.000000
# 6 0.000000 0.000000 0.000000 0.000000 0.000000 0.061333
#
#
# Mechanical properties :
#
#
# Convention : Reuss Voigt Hill
#
# Bulk Modulus (GPa) = 22.26223 50.79160 36.52691
# Shear Modulus (GPa) = 24.08249 32.49576 28.28912
#
# Velocity S-wave (km/s) = 3.38729 3.93473 3.67122
# Velocity P-wave (km/s) = 5.08967 6.69639 5.94754
#
# Compressibility (1/GPa) = 0.04491913
#
# Stress axis : x y z
#
# Youngs Moduli (GPa) = 30.55955 53.22128 132.32999
#
# Poissons Ratio (x) = -0.15272 0.47332
# Poissons Ratio (y) = -0.08769 0.84265
# Poissons Ratio (z) = 0.10931 0.33890
#
# Static dielectric constant tensor:
#      x y z
#    x 1.980320 0.000000 0.000000 
#    y 0.000000 1.751760 0.000000 
#    z 0.000000 0.000000 1.801930 
# 
# From -- ./inp_files/14098.got.cif
#   From: 2010.05.17/outbox.cif.g08.bks.cpg/sg54_8_cif.got.tgz:14098.got - 2010.06.03 13:09:01.
