data_PCOD9423239
_publ_section_title
;
Structure prediction by ZEFSAII (Michael W. Deem and Ramdas Pophale) SiO2 
 PCOD9423239
Probable space group: P C C A
;
_chemical_formula_sum "Si O2"
_cell_formula_units_Z 60
_cell_length_a 19.733980
_cell_length_b 12.126220
_cell_length_c 10.634196
_cell_angle_alpha 90.000000
_cell_angle_beta 90.000000
_cell_angle_gamma 90.000000
_cell_volume 2544.748034
_symmetry_space_group_name_H-M "P C C A"
_symmetry_group_IT_number 54
_symmetry_cell_setting 'orthorhombic'
loop_
_space_group_symop_operation_xyz
x,y,z
1/2-x,-y,z
1/2+x,-y,1/2-z
-x,y,1/2-z
-x,-y,-z
1/2+x,y,-z
1/2-x,y,1/2+z
x,-y,1/2+z
loop_
_atom_site_type_symbol
_atom_site_label
_atom_site_fract_x
_atom_site_fract_y
_atom_site_fract_z
Si Si1 0.263948 0.251675 0.677790
Si Si2 0.958503 0.301888 0.530396
Si Si3 0.320195 0.055448 0.811459
Si Si4 0.500000 0.539929 0.750000
Si Si5 0.093742 0.770632 0.972838
Si Si6 0.297823 0.405111 0.992423
Si Si7 0.621906 0.823485 0.741401
Si Si8 0.367719 0.572827 0.169009
O O1 0.298488 0.132899 0.693631
O O2 0.246167 0.300156 0.540845
O O3 0.194505 0.238646 0.754408
O O4 0.314714 0.342991 0.730169
O O5 0.922460 0.219323 0.626883
O O6 0.902559 0.362615 0.447005
O O7 0.995749 0.388780 0.622685
O O8 0.014776 0.245533 0.441323
O O9 0.250000 0.000000 0.862911
O O10 0.364844 0.952629 0.770868
O O11 0.362796 0.134890 0.903343
O O12 0.569153 0.472050 0.753870
O O13 0.132584 0.655142 0.955111
O O14 0.092322 0.798714 0.121398
O O15 0.250000 0.500000 0.928695
O O16 0.323935 0.472667 0.115052
#
# Coordination Sequence:
#
# PCOD9423239 Si02
#       8
#     8   8   8   4   8   8   8   8
#     4   9  21  42  62  96 133 168 224 286 336 400
#     4  12  24  43  68  98 136 187 228 276 350 425
#     4  10  24  41  69  98 128 177 232 290 355 395
#     4  12  22  42  66  94 140 186 216 274 342 420
#     4  11  22  41  66  96 133 173 230 284 339 417
#     4   9  19  38  61  92 132 174 214 272 332 398
#     4  10  22  44  67  91 132 179 223 291 344 404
#     4  11  24  38  67 100 135 178 229 277 337 411
#
# _framework density 23.577971999999999
#
# number of rings (size 3 to 8) (size 9 to 14) (size 15 to 20)
#    0.000    1.600    2.667    1.200    1.867   10.667 
#    0.000    4.667    0.000    0.000    0.000    0.000 
#    0.000    0.000    0.000    0.000    0.000    0.000 
#
# Total GULP energy -335213.683950 kJ/mol
# GULP energy per Si atom -5586.894733 kJ/mol
# Density = 2.352431 g / cm^3
# Si number density = 23.577972 Si / 1000 Ang^3
#
#
#
# Elastic Constant Matrix: (Units=GPa)
#
#
# Indices 1 2 3 4 5 6 
#
# 1 105.3364 51.9823 2.8373 0.0000 0.0000 0.0000
# 2 51.9823 131.8742 17.1355 0.0000 0.0000 0.0000
# 3 2.8373 17.1355 34.3644 0.0000 0.0000 0.0000
# 4 0.0000 0.0000 0.0000 106.0627 0.0000 0.0000
# 5 0.0000 0.0000 0.0000 0.0000 -73.4360 0.0000
# 6 0.0000 0.0000 0.0000 0.0000 0.0000 45.6698
#
#
#
# Elastic Compliance Matrix: (Units=1/GPa)
#
#
# Indices 1 2 3 4 5 6 
#
# 1 0.011853 -0.004860 0.001445 0.000000 0.000000 0.000000
# 2 -0.004860 0.010101 -0.004636 0.000000 0.000000 0.000000
# 3 0.001445 -0.004636 0.031292 0.000000 0.000000 0.000000
# 4 0.000000 0.000000 0.000000 0.009428 0.000000 0.000000
# 5 0.000000 0.000000 0.000000 0.000000 -0.013617 0.000000
# 6 0.000000 0.000000 0.000000 0.000000 0.000000 0.021896
#
#
# Mechanical properties :
#
#
# Convention : Reuss Voigt Hill
#
# Bulk Modulus (GPa) = 26.92191 46.16503 36.54347
# Shear Modulus (GPa) = 50.28358 28.96728 39.62543
#
# Velocity S-wave (km/s) = 4.62307 3.50890 4.10397
# Velocity P-wave (km/s) = 6.31982 6.00323 6.16356
#
# Compressibility (1/GPa) = 0.03714447
#
# Stress axis : x y z
#
# Youngs Moduli (GPa) = 84.36854 99.00036 31.95698
#
# Poissons Ratio (x) = 0.48113 -0.04617
# Poissons Ratio (y) = 0.41002 0.14814
# Poissons Ratio (z) = -0.12189 0.45892
#
# Static dielectric constant tensor:
#      x y z
#    x 1.953010 0.000000 0.000000 
#    y 0.000000 1.889340 0.000000 
#    z 0.000000 0.000000 2.228550 
# 
# From -- ./inp_files/9604.got.cif
#   From: 2010.05.17/outbox.cif.g08.bks.cpg/sg54_5_cif.got.tgz:9604.got - 2010.06.03 13:09:01.
