data_PCOD9423365
_publ_section_title
;
Structure prediction by ZEFSAII (Michael W. Deem and Ramdas Pophale) SiO2 
 PCOD9423365
Probable space group: P C C A
;
_chemical_formula_sum "Si O2"
_cell_formula_units_Z 48
_cell_length_a 8.507754
_cell_length_b 9.054003
_cell_length_c 30.806048
_cell_angle_alpha 90.000000
_cell_angle_beta 90.000000
_cell_angle_gamma 90.000000
_cell_volume 2372.966164
_symmetry_space_group_name_H-M "P C C A"
_symmetry_group_IT_number 54
_symmetry_cell_setting 'orthorhombic'
loop_
_space_group_symop_operation_xyz
x,y,z
1/2-x,-y,z
1/2+x,-y,1/2-z
-x,y,1/2-z
-x,-y,-z
1/2+x,y,-z
1/2-x,y,1/2+z
x,-y,1/2+z
loop_
_atom_site_type_symbol
_atom_site_label
_atom_site_fract_x
_atom_site_fract_y
_atom_site_fract_z
Si Si1 0.182809 0.657003 0.264541
Si Si2 0.691694 0.339542 0.043454
Si Si3 0.750000 0.000000 0.411955
Si Si4 0.500000 0.145515 0.750000
Si Si5 0.510540 0.950186 0.153116
Si Si6 0.583916 0.845191 0.989136
Si Si7 0.188092 0.250604 0.860163
O O1 0.250000 0.500000 0.248261
O O2 0.330890 0.767224 0.253786
O O3 0.170143 0.655672 0.316747
O O4 0.000000 0.686411 0.250000
O O5 0.750000 0.500000 0.029621
O O6 0.533629 0.287579 0.020477
O O7 0.671473 0.335450 0.095077
O O8 0.810158 0.209400 0.028736
O O9 0.631553 0.920531 0.379149
O O10 0.822906 0.881023 0.445038
O O11 0.516033 0.057408 0.795158
O O12 0.644680 0.831787 0.142625
O O13 0.566664 0.114776 0.141777
O O14 0.500000 0.000000 0.000000
#
# Coordination Sequence:
#
# PCOD9423365 Si02
#       7
#     8   8   4   4   8   8   8
#     4  11  23  42  67  92 132 182 224 270 345 416
#     4  12  25  43  66  98 136 174 223 283 347 413
#     4  12  22  38  68  98 126 174 238 276 342 408
#     4  10  24  42  62 102 132 172 226 296 332 402
#     4  10  23  39  65  96 131 168 228 282 334 403
#     4  12  24  42  69  96 130 182 228 282 341 416
#     4  10  23  41  64  93 131 176 217 279 343 406
#
# _framework density 20.22785
#
# number of rings (size 3 to 8) (size 9 to 14) (size 15 to 20)
#    0.000    1.000    4.167    2.000    5.833    1.333 
#    0.000    0.000    0.000    0.000    0.000    0.000 
#    0.000    0.000    0.000    0.000    0.000    0.000 
#
# Total GULP energy -267819.119708 kJ/mol
# GULP energy per Si atom -5579.564994 kJ/mol
# Density = 2.018181 g / cm^3
# Si number density = 20.227850 Si / 1000 Ang^3
#
#
#
# Elastic Constant Matrix: (Units=GPa)
#
#
# Indices 1 2 3 4 5 6 
#
# 1 104.5631 35.3169 47.2985 0.0000 0.0000 0.0000
# 2 35.3169 59.0584 8.4852 0.0000 0.0000 0.0000
# 3 47.2985 8.4852 109.3185 0.0000 0.0000 0.0000
# 4 0.0000 0.0000 0.0000 47.4366 0.0000 0.0000
# 5 0.0000 0.0000 0.0000 0.0000 41.0055 0.0000
# 6 0.0000 0.0000 0.0000 0.0000 0.0000 5.8450
#
#
#
# Elastic Compliance Matrix: (Units=1/GPa)
#
#
# Indices 1 2 3 4 5 6 
#
# 1 0.014936 -0.008094 -0.005834 0.000000 0.000000 0.000000
# 2 -0.008094 0.021509 0.001832 0.000000 0.000000 0.000000
# 3 -0.005834 0.001832 0.011530 0.000000 0.000000 0.000000
# 4 0.000000 0.000000 0.000000 0.021081 0.000000 0.000000
# 5 0.000000 0.000000 0.000000 0.000000 0.024387 0.000000
# 6 0.000000 0.000000 0.000000 0.000000 0.000000 0.171086
#
#
# Mechanical properties :
#
#
# Convention : Reuss Voigt Hill
#
# Bulk Modulus (GPa) = 42.04510 50.57124 46.30817
# Shear Modulus (GPa) = 16.85497 30.98004 23.91751
#
# Velocity S-wave (km/s) = 2.88975 3.91775 3.44234
# Velocity P-wave (km/s) = 5.65377 6.74686 6.22436
#
# Compressibility (1/GPa) = 0.02378398
#
# Stress axis : x y z
#
# Youngs Moduli (GPa) = 66.95053 46.49177 86.73291
#
# Poissons Ratio (x) = 0.37629 0.50602
# Poissons Ratio (y) = 0.54188 -0.15893
# Poissons Ratio (z) = 0.39061 -0.08519
#
# Static dielectric constant tensor:
#      x y z
#    x 1.783980 0.000000 0.000000 
#    y 0.000000 1.699710 0.000000 
#    z 0.000000 0.000000 1.696780 
# 
# From -- ./inp_files/27830.got.cif
#   From: 2010.05.17/outbox.cif.g08.bks.cpg/sg54_14_cif.got.tgz:27830.got - 2010.06.03 13:09:01.
