data_PCOD9423886
_publ_section_title
;
Structure prediction by ZEFSAII (Michael W. Deem and Ramdas Pophale) SiO2 
 PCOD9423886
Probable space group: P C C A
;
_chemical_formula_sum "Si O2"
_cell_formula_units_Z 20
_cell_length_a 5.309194
_cell_length_b 5.684070
_cell_length_c 25.938121
_cell_angle_alpha 90.000000
_cell_angle_beta 90.000000
_cell_angle_gamma 90.000000
_cell_volume 782.756215
_symmetry_space_group_name_H-M "P C C A"
_symmetry_group_IT_number 54
_symmetry_cell_setting 'orthorhombic'
loop_
_space_group_symop_operation_xyz
x,y,z
1/2-x,-y,z
1/2+x,-y,1/2-z
-x,y,1/2-z
-x,-y,-z
1/2+x,y,-z
1/2-x,y,1/2+z
x,-y,1/2+z
loop_
_atom_site_type_symbol
_atom_site_label
_atom_site_fract_x
_atom_site_fract_y
_atom_site_fract_z
Si Si1 0.250000 0.000000 0.389702
Si Si2 0.497558 0.335827 0.307206
Si Si3 0.499768 0.394791 0.942034
O O1 0.065498 0.856811 0.350983
O O2 0.445648 0.873778 0.429715
O O3 0.250000 0.500000 0.306790
O O4 0.500000 0.222443 0.250000
O O5 0.750000 0.500000 0.312022
O O6 0.750000 0.500000 0.919092
O O7 0.250000 0.500000 0.917441
O O8 0.500000 0.500000 0.000000
#
# Coordination Sequence:
#
# PCOD9423886 Si02
#       3
#     4   8   8
#     4  12  26  46  82 110 148 210 252 304 396 452
#     4  10  25  48  72 108 154 196 252 317 376 458
#     4  10  25  47  71 108 149 191 252 314 369 445
#
# _framework density 25.550740999999999
#
# number of rings (size 3 to 8) (size 9 to 14) (size 15 to 20)
#    0.000    1.600    0.000    1.200    0.000   24.000 
#    0.000    4.000    0.000    2.400    0.000    0.000 
#    0.000    0.000    0.000    0.000    0.000    0.000 
#
# Total GULP energy -111481.209146 kJ/mol
# GULP energy per Si atom -5574.060457 kJ/mol
# Density = 2.549259 g / cm^3
# Si number density = 25.550741 Si / 1000 Ang^3
#
#
#
# Elastic Constant Matrix: (Units=GPa)
#
#
# Indices 1 2 3 4 5 6 
#
# 1 260.3597 60.9378 25.0201 0.0000 0.0000 0.0000
# 2 60.9378 92.7275 80.5414 0.0000 0.0000 0.0000
# 3 25.0201 80.5414 240.4273 0.0000 0.0000 0.0000
# 4 0.0000 0.0000 0.0000 -450.1721 0.0000 0.0000
# 5 0.0000 0.0000 0.0000 0.0000 -37.2688 0.0000
# 6 0.0000 0.0000 0.0000 0.0000 0.0000 59.5213
#
#
#
# Elastic Compliance Matrix: (Units=1/GPa)
#
#
# Indices 1 2 3 4 5 6 
#
# 1 0.004635 -0.003705 0.000759 0.000000 0.000000 0.000000
# 2 -0.003705 0.018172 -0.005702 0.000000 0.000000 0.000000
# 3 0.000759 -0.005702 0.005990 0.000000 0.000000 0.000000
# 4 0.000000 0.000000 0.000000 -0.002221 0.000000 0.000000
# 5 0.000000 0.000000 0.000000 0.000000 -0.026832 0.000000
# 6 0.000000 0.000000 0.000000 0.000000 0.000000 0.016801
#
#
# Mechanical properties :
#
#
# Convention : Reuss Voigt Hill
#
# Bulk Modulus (GPa) = 86.94972 102.94588 94.94780
# Shear Modulus (GPa) = 132.71629 -57.11625 37.80002
#
# Velocity S-wave (km/s) = 7.21492 -4.73314 3.85048
# Velocity P-wave (km/s) = 10.17402 3.24162 7.55046
#
# Compressibility (1/GPa) = 0.01150090
#
# Stress axis : x y z
#
# Youngs Moduli (GPa) = 215.74389 55.03059 166.93502
#
# Poissons Ratio (x) = 0.20390 -0.12668
# Poissons Ratio (y) = 0.79937 0.95183
# Poissons Ratio (z) = -0.16372 0.31377
#
# Static dielectric constant tensor:
#      x y z
#    x 1.577940 0.000000 0.000000 
#    y 0.000000 0.812310 0.000000 
#    z 0.000000 0.000000 3.087740 
# 
# From -- ./inp_files/26747.got.cif
#   From: 2010.05.17/outbox.cif.g08.bks.cpg/sg54_14_cif.got.tgz:26747.got - 2010.06.03 13:09:01.
