data_PCOD9423877
_publ_section_title
;
Structure prediction by ZEFSAII (Michael W. Deem and Ramdas Pophale) SiO2 
 PCOD9423877
Probable space group: P C C A
;
_chemical_formula_sum "Si O2"
_cell_formula_units_Z 40
_cell_length_a 9.043841
_cell_length_b 18.469377
_cell_length_c 10.160375
_cell_angle_alpha 90.000000
_cell_angle_beta 90.000000
_cell_angle_gamma 90.000000
_cell_volume 1697.129185
_symmetry_space_group_name_H-M "P C C A"
_symmetry_group_IT_number 54
_symmetry_cell_setting 'orthorhombic'
loop_
_space_group_symop_operation_xyz
x,y,z
1/2-x,-y,z
1/2+x,-y,1/2-z
-x,y,1/2-z
-x,-y,-z
1/2+x,y,-z
1/2-x,y,1/2+z
x,-y,1/2+z
loop_
_atom_site_type_symbol
_atom_site_label
_atom_site_fract_x
_atom_site_fract_y
_atom_site_fract_z
Si Si1 0.716602 0.084078 0.847655
Si Si2 0.887960 0.860184 0.584674
Si Si3 0.771333 0.704742 0.578626
Si Si4 0.471841 0.642923 0.604395
Si Si5 0.889609 0.446031 0.132363
O O1 0.713998 0.097680 0.691091
O O2 0.554403 0.111648 0.894609
O O3 0.750000 0.000000 0.872330
O O4 0.833886 0.126832 0.936361
O O5 0.855948 0.776496 0.617821
O O6 0.596028 0.703823 0.579912
O O7 0.819783 0.681996 0.430906
O O8 0.821815 0.634285 0.660657
O O9 0.500000 0.618279 0.750000
O O10 0.475384 0.575600 0.503261
O O11 0.750000 0.500000 0.118784
O O12 0.000000 0.463797 0.250000
#
# Coordination Sequence:
#
# PCOD9423877 Si02
#       5
#     8   8   8   8   8
#     4  11  25  45  70 110 157 205 256 315 388 467
#     4  11  25  43  77 109 155 204 258 319 387 455
#     4  10  25  45  78 111 154 193 265 315 393 459
#     4  10  25  46  77 111 153 195 259 325 390 461
#     4  10  26  49  79 109 155 204 256 320 397 469
#
# _framework density 23.569213000000001
#
# number of rings (size 3 to 8) (size 9 to 14) (size 15 to 20)
#    1.200    0.400    0.000    2.400    8.400    4.000 
#    0.000    2.000    0.000    0.000    0.000    0.000 
#    0.000    0.000    0.000    0.000    0.000    0.000 
#
# Total GULP energy -223297.489200 kJ/mol
# GULP energy per Si atom -5582.437230 kJ/mol
# Density = 2.351557 g / cm^3
# Si number density = 23.569213 Si / 1000 Ang^3
#
#
#
# Elastic Constant Matrix: (Units=GPa)
#
#
# Indices 1 2 3 4 5 6 
#
# 1 87.3740 40.7984 44.8726 0.0000 0.0000 0.0000
# 2 40.7984 168.2004 2.6849 0.0000 0.0000 0.0000
# 3 44.8726 2.6849 117.3401 0.0000 0.0000 0.0000
# 4 0.0000 0.0000 0.0000 15.6980 0.0000 0.0000
# 5 0.0000 0.0000 0.0000 0.0000 46.2641 0.0000
# 6 0.0000 0.0000 0.0000 0.0000 0.0000 38.0560
#
#
#
# Elastic Compliance Matrix: (Units=1/GPa)
#
#
# Indices 1 2 3 4 5 6 
#
# 1 0.016446 -0.003890 -0.006200 0.000000 0.000000 0.000000
# 2 -0.003890 0.006868 0.001330 0.000000 0.000000 0.000000
# 3 -0.006200 0.001330 0.010863 0.000000 0.000000 0.000000
# 4 0.000000 0.000000 0.000000 0.063703 0.000000 0.000000
# 5 0.000000 0.000000 0.000000 0.000000 0.021615 0.000000
# 6 0.000000 0.000000 0.000000 0.000000 0.000000 0.026277
#
#
# Mechanical properties :
#
#
# Convention : Reuss Voigt Hill
#
# Bulk Modulus (GPa) = 60.03564 61.06961 60.55262
# Shear Modulus (GPa) = 29.61345 38.97418 34.29382
#
# Velocity S-wave (km/s) = 3.54848 4.07087 3.81862
# Velocity P-wave (km/s) = 6.50510 6.93274 6.72232
#
# Compressibility (1/GPa) = 0.01665677
#
# Stress axis : x y z
#
# Youngs Moduli (GPa) = 60.80646 145.61093 92.05744
#
# Poissons Ratio (x) = 0.56643 0.57076
# Poissons Ratio (y) = 0.23654 -0.12248
# Poissons Ratio (z) = 0.37700 -0.19373
#
# Static dielectric constant tensor:
#      x y z
#    x 1.943830 0.000000 0.000000 
#    y 0.000000 1.943890 0.000000 
#    z 0.000000 0.000000 1.927760 
# 
# From -- ./inp_files/6845.got.cif
#   From: 2010.05.17/outbox.cif.g08.bks.cpg/sg54_4_cif.got.tgz:6845.got - 2010.06.03 13:09:01.
