data_PCOD9423595
_publ_section_title
;
Structure prediction by ZEFSAII (Michael W. Deem and Ramdas Pophale) SiO2 
 PCOD9423595
Probable space group: P C C A
;
_chemical_formula_sum "Si O2"
_cell_formula_units_Z 64
_cell_length_a 21.883168
_cell_length_b 9.172528
_cell_length_c 14.140580
_cell_angle_alpha 90.000000
_cell_angle_beta 90.000000
_cell_angle_gamma 90.000000
_cell_volume 2838.353373
_symmetry_space_group_name_H-M "P C C A"
_symmetry_group_IT_number 54
_symmetry_cell_setting 'orthorhombic'
loop_
_space_group_symop_operation_xyz
x,y,z
1/2-x,-y,z
1/2+x,-y,1/2-z
-x,y,1/2-z
-x,-y,-z
1/2+x,y,-z
1/2-x,y,1/2+z
x,-y,1/2+z
loop_
_atom_site_type_symbol
_atom_site_label
_atom_site_fract_x
_atom_site_fract_y
_atom_site_fract_z
Si Si1 0.507183 0.430324 0.897374
Si Si2 0.674331 0.336998 0.712190
Si Si3 0.722265 0.841739 0.818619
Si Si4 0.588907 0.442329 0.248926
Si Si5 0.717158 0.779576 0.024588
Si Si6 0.847241 0.907558 0.028467
Si Si7 0.921678 0.159074 0.338381
Si Si8 0.905874 0.888030 0.220861
O O1 0.450071 0.475911 0.832479
O O2 0.565648 0.507330 0.850320
O O3 0.523839 0.259831 0.880104
O O4 0.500000 0.500000 0.000000
O O5 0.730869 0.254119 0.759261
O O6 0.658294 0.504197 0.735987
O O7 0.685289 0.323398 0.600471
O O8 0.617439 0.248906 0.759847
O O9 0.664202 0.885541 0.757478
O O10 0.750000 0.000000 0.847941
O O11 0.706900 0.753347 0.913662
O O12 0.573279 0.274673 0.239784
O O13 0.790351 0.795426 0.040561
O O14 0.684813 0.936033 0.039404
O O15 0.899302 0.904739 0.108558
O O16 0.877925 0.879485 0.926980
O O17 0.937807 0.010582 0.283968
#
# Coordination Sequence:
#
# PCOD9423595 Si02
#       8
#     8   8   8   8   8   8   8   8
#     4  10  23  51  74  89 128 178 232 300 361 413
#     4  11  21  38  62  92 137 189 223 267 337 418
#     4  12  19  34  60  95 142 177 226 279 331 402
#     4  10  26  45  66  95 134 177 228 284 362 410
#     4  11  18  31  58  94 137 180 221 263 329 401
#     4  11  19  32  60  98 136 176 216 276 330 393
#     4  11  21  38  71 102 124 179 238 279 350 406
#     4  12  22  38  65  99 139 173 221 286 335 412
#
# _framework density 22.548286000000001
#
# number of rings (size 3 to 8) (size 9 to 14) (size 15 to 20)
#    0.000    1.000    7.500    0.750    0.000    1.500 
#    0.000    5.625    2.750    0.000    0.000    0.000 
#    0.000    0.000    0.000    0.000    0.000    0.000 
#
# Total GULP energy -357482.156893 kJ/mol
# GULP energy per Si atom -5585.658701 kJ/mol
# Density = 2.249697 g / cm^3
# Si number density = 22.548286 Si / 1000 Ang^3
#
#
#
# Elastic Constant Matrix: (Units=GPa)
#
#
# Indices 1 2 3 4 5 6 
#
# 1 53.4134 43.9523 20.6667 0.0000 0.0000 0.0000
# 2 43.9523 120.0774 35.1351 0.0000 0.0000 0.0000
# 3 20.6667 35.1351 120.8993 0.0000 0.0000 0.0000
# 4 0.0000 0.0000 0.0000 17.7296 0.0000 0.0000
# 5 0.0000 0.0000 0.0000 0.0000 23.0624 0.0000
# 6 0.0000 0.0000 0.0000 0.0000 0.0000 12.6016
#
#
#
# Elastic Compliance Matrix: (Units=1/GPa)
#
#
# Indices 1 2 3 4 5 6 
#
# 1 0.027193 -0.009392 -0.001919 0.000000 0.000000 0.000000
# 2 -0.009392 0.012346 -0.001982 0.000000 0.000000 0.000000
# 3 -0.001919 -0.001982 0.009175 0.000000 0.000000 0.000000
# 4 0.000000 0.000000 0.000000 0.056403 0.000000 0.000000
# 5 0.000000 0.000000 0.000000 0.000000 0.043361 0.000000
# 6 0.000000 0.000000 0.000000 0.000000 0.000000 0.079355
#
#
# Mechanical properties :
#
#
# Convention : Reuss Voigt Hill
#
# Bulk Modulus (GPa) = 45.19272 54.87757 50.03515
# Shear Modulus (GPa) = 19.09895 23.65447 21.37671
#
# Velocity S-wave (km/s) = 2.91353 3.24243 3.08237
# Velocity P-wave (km/s) = 5.60396 6.19746 5.90816
#
# Compressibility (1/GPa) = 0.02212746
#
# Stress axis : x y z
#
# Youngs Moduli (GPa) = 36.77459 80.99938 108.98612
#
# Poissons Ratio (x) = 0.76074 0.20914
# Poissons Ratio (y) = 0.34538 0.21605
# Poissons Ratio (z) = 0.07057 0.16057
#
# Static dielectric constant tensor:
#      x y z
#    x 1.900710 0.000000 0.000000 
#    y 0.000000 1.882280 0.000000 
#    z 0.000000 0.000000 1.818820 
# 
# From -- ./inp_files/15018.got.cif
#   From: 2010.05.17/outbox.cif.g08.bks.cpg/sg54_8_cif.got.tgz:15018.got - 2010.06.03 13:09:01.
