data_PCOD9423614
_publ_section_title
;
Structure prediction by ZEFSAII (Michael W. Deem and Ramdas Pophale) SiO2 
 PCOD9423614
Probable space group: P C C A
;
_chemical_formula_sum "Si O2"
_cell_formula_units_Z 56
_cell_length_a 20.945116
_cell_length_b 5.494471
_cell_length_c 21.991764
_cell_angle_alpha 90.000000
_cell_angle_beta 90.000000
_cell_angle_gamma 90.000000
_cell_volume 2530.863496
_symmetry_space_group_name_H-M "P C C A"
_symmetry_group_IT_number 54
_symmetry_cell_setting 'orthorhombic'
loop_
_space_group_symop_operation_xyz
x,y,z
1/2-x,-y,z
1/2+x,-y,1/2-z
-x,y,1/2-z
-x,-y,-z
1/2+x,y,-z
1/2-x,y,1/2+z
x,-y,1/2+z
loop_
_atom_site_type_symbol
_atom_site_label
_atom_site_fract_x
_atom_site_fract_y
_atom_site_fract_z
Si Si1 0.592601 0.141411 0.129976
Si Si2 0.533860 0.995903 0.812133
Si Si3 0.648142 0.659217 0.179320
Si Si4 0.750000 0.500000 0.597541
Si Si5 0.858970 0.269075 0.383823
Si Si6 0.250000 0.000000 0.690551
Si Si7 0.679996 0.140753 0.018257
Si Si8 0.148422 0.359337 0.706391
O O1 0.517101 0.124433 0.141658
O O2 0.615225 0.412558 0.150796
O O3 0.624090 0.058248 0.065331
O O4 0.616387 0.919056 0.171963
O O5 0.500000 0.091823 0.750000
O O6 0.583498 0.790513 0.789568
O O7 0.575037 0.187013 0.851721
O O8 0.714690 0.681445 0.143180
O O9 0.650453 0.589986 0.249610
O O10 0.799968 0.386167 0.552045
O O11 0.851399 0.200991 0.453858
O O12 0.846594 0.547261 0.363157
O O13 0.802010 0.124035 0.351963
O O14 0.208666 0.197684 0.725772
O O15 0.750000 0.000000 0.014203
#
# Coordination Sequence:
#
# PCOD9423614 Si02
#       8
#     8   8   8   4   8   4   8   8
#     4  11  25  46  73 106 137 199 241 301 361 435
#     4  11  24  46  68 102 147 187 243 302 366 437
#     4  11  24  43  71 105 144 184 247 297 375 434
#     4  10  24  38  70 102 136 190 230 312 364 430
#     4  11  25  42  73 102 138 197 236 300 375 436
#     4  10  24  42  60 104 142 180 244 300 378 440
#     4  11  23  47  71 102 146 183 248 303 367 439
#     4  11  25  41  68 105 142 195 236 313 367 447
#
# _framework density 22.126836999999998
#
# number of rings (size 3 to 8) (size 9 to 14) (size 15 to 20)
#    0.000    1.143    3.571    1.286    8.000    1.143 
#    0.000    0.714    0.000    0.000    0.000    0.000 
#    0.000    0.000    0.000    0.000    0.000    0.000 
#
# Total GULP energy -312300.153928 kJ/mol
# GULP energy per Si atom -5576.788463 kJ/mol
# Density = 2.207647 g / cm^3
# Si number density = 22.126837 Si / 1000 Ang^3
#
#
#
# Elastic Constant Matrix: (Units=GPa)
#
#
# Indices 1 2 3 4 5 6 
#
# 1 110.6635 23.7210 63.9751 0.0000 0.0000 0.0000
# 2 23.7210 64.4815 31.0692 0.0000 0.0000 0.0000
# 3 63.9751 31.0692 150.8958 0.0000 0.0000 0.0000
# 4 0.0000 0.0000 0.0000 23.0278 0.0000 0.0000
# 5 0.0000 0.0000 0.0000 0.0000 39.8235 0.0000
# 6 0.0000 0.0000 0.0000 0.0000 0.0000 23.7657
#
#
#
# Elastic Compliance Matrix: (Units=1/GPa)
#
#
# Indices 1 2 3 4 5 6 
#
# 1 0.012251 -0.002225 -0.004736 0.000000 0.000000 0.000000
# 2 -0.002225 0.017620 -0.002685 0.000000 0.000000 0.000000
# 3 -0.004736 -0.002685 0.009188 0.000000 0.000000 0.000000
# 4 0.000000 0.000000 0.000000 0.043426 0.000000 0.000000
# 5 0.000000 0.000000 0.000000 0.000000 0.025111 0.000000
# 6 0.000000 0.000000 0.000000 0.000000 0.000000 0.042077
#
#
# Mechanical properties :
#
#
# Convention : Reuss Voigt Hill
#
# Bulk Modulus (GPa) = 50.58660 62.61905 56.60282
# Shear Modulus (GPa) = 28.48126 31.14178 29.81152
#
# Velocity S-wave (km/s) = 3.59162 3.75563 3.67454
# Velocity P-wave (km/s) = 6.33336 6.86788 6.60603
#
# Compressibility (1/GPa) = 0.01976808
#
# Stress axis : x y z
#
# Youngs Moduli (GPa) = 81.62430 56.75246 108.83994
#
# Poissons Ratio (x) = 0.12627 0.51547
# Poissons Ratio (y) = 0.18161 0.29220
# Poissons Ratio (z) = 0.38658 0.15236
#
# Static dielectric constant tensor:
#      x y z
#    x 1.888510 0.000000 0.000000 
#    y 0.000000 1.948830 0.000000 
#    z 0.000000 0.000000 1.814130 
# 
# From -- ./inp_files/24768.got.cif
#   From: 2010.05.17/outbox.cif.g08.bks.cpg/sg54_13_cif.got.tgz:24768.got - 2010.06.03 13:09:01.
