data_PCOD9423293
_publ_section_title
;
Structure prediction by ZEFSAII (Michael W. Deem and Ramdas Pophale) SiO2 
 PCOD9423293
Probable space group: P C C A
;
_chemical_formula_sum "Si O2"
_cell_formula_units_Z 32
_cell_length_a 13.556542
_cell_length_b 7.857262
_cell_length_c 13.387166
_cell_angle_alpha 90.000000
_cell_angle_beta 90.000000
_cell_angle_gamma 90.000000
_cell_volume 1425.964808
_symmetry_space_group_name_H-M "P C C A"
_symmetry_group_IT_number 54
_symmetry_cell_setting 'orthorhombic'
loop_
_space_group_symop_operation_xyz
x,y,z
1/2-x,-y,z
1/2+x,-y,1/2-z
-x,y,1/2-z
-x,-y,-z
1/2+x,y,-z
1/2-x,y,1/2+z
x,-y,1/2+z
loop_
_atom_site_type_symbol
_atom_site_label
_atom_site_fract_x
_atom_site_fract_y
_atom_site_fract_z
Si Si1 0.596043 0.990151 0.067555
Si Si2 0.355455 0.205644 0.732880
Si Si3 0.500000 0.482504 0.750000
Si Si4 0.819696 0.348139 0.634152
Si Si5 0.250000 0.000000 0.067864
O O1 0.640971 0.179958 0.078361
O O2 0.594494 0.902443 0.176470
O O3 0.678010 0.890350 0.002652
O O4 0.500000 0.000000 0.000000
O O5 0.425906 0.354460 0.693903
O O6 0.254446 0.280689 0.779406
O O7 0.324491 0.092275 0.641342
O O8 0.577505 0.579772 0.680150
O O9 0.750000 0.500000 0.587828
#
# Coordination Sequence:
#
# PCOD9423293 Si02
#       5
#     8   8   4   8   4
#     4  12  25  43  74 106 136 186 250 293 347 437
#     4  11  22  47  67 102 140 178 247 285 343 449
#     4  10  24  40  74  98 136 192 214 298 366 408
#     4  10  22  45  70 101 152 176 228 302 361 419
#     4  12  22  42  74  96 134 184 234 290 352 394
#
# _framework density 22.440944999999999
#
# number of rings (size 3 to 8) (size 9 to 14) (size 15 to 20)
#    0.000    1.000    5.000    1.500    3.500    1.000 
#    0.000   17.500    0.000    0.000    0.000    0.000 
#    0.000    0.000    0.000    0.000    0.000    0.000 
#
# Total GULP energy -178314.137918 kJ/mol
# GULP energy per Si atom -5572.316810 kJ/mol
# Density = 2.238987 g / cm^3
# Si number density = 22.440945 Si / 1000 Ang^3
#
#
#
# Elastic Constant Matrix: (Units=GPa)
#
#
# Indices 1 2 3 4 5 6 
#
# 1 195.8606 56.6701 55.8747 0.0000 0.0000 0.0000
# 2 56.6701 99.4463 30.1373 0.0000 0.0000 0.0000
# 3 55.8747 30.1373 87.8099 0.0000 0.0000 0.0000
# 4 0.0000 0.0000 0.0000 5.2289 0.0000 0.0000
# 5 0.0000 0.0000 0.0000 0.0000 46.4600 0.0000
# 6 0.0000 0.0000 0.0000 0.0000 0.0000 49.3854
#
#
#
# Elastic Compliance Matrix: (Units=1/GPa)
#
#
# Indices 1 2 3 4 5 6 
#
# 1 0.006919 -0.002911 -0.003403 0.000000 0.000000 0.000000
# 2 -0.002911 0.012448 -0.002420 0.000000 0.000000 0.000000
# 3 -0.003403 -0.002420 0.014384 0.000000 0.000000 0.000000
# 4 0.000000 0.000000 0.000000 0.191244 0.000000 0.000000
# 5 0.000000 0.000000 0.000000 0.000000 0.021524 0.000000
# 6 0.000000 0.000000 0.000000 0.000000 0.000000 0.020249
#
#
# Mechanical properties :
#
#
# Convention : Reuss Voigt Hill
#
# Bulk Modulus (GPa) = 61.41649 74.27567 67.84608
# Shear Modulus (GPa) = 17.26136 36.24385 26.75261
#
# Velocity S-wave (km/s) = 2.77644 4.02316 3.45647
# Velocity P-wave (km/s) = 6.14049 7.39941 6.79915
#
# Compressibility (1/GPa) = 0.01628227
#
# Stress axis : x y z
#
# Youngs Moduli (GPa) = 144.53003 80.33370 69.51991
#
# Poissons Ratio (x) = 0.23388 0.23661
# Poissons Ratio (y) = 0.42079 0.16822
# Poissons Ratio (z) = 0.49190 0.19439
#
# Static dielectric constant tensor:
#      x y z
#    x 1.884900 0.000000 0.000000 
#    y 0.000000 1.924920 0.000000 
#    z 0.000000 0.000000 1.871600 
# 
# From -- ./inp_files/7985.got.cif
#   From: 2010.05.17/outbox.cif.g08.bks.cpg/sg54_4_cif.got.tgz:7985.got - 2010.06.03 13:09:01.
