data_PCOD9423508
_publ_section_title
;
Structure prediction by ZEFSAII (Michael W. Deem and Ramdas Pophale) SiO2 
 PCOD9423508
Probable space group: P C C A
;
_chemical_formula_sum "Si O2"
_cell_formula_units_Z 36
_cell_length_a 12.875073
_cell_length_b 9.853735
_cell_length_c 13.073906
_cell_angle_alpha 90.000000
_cell_angle_beta 90.000000
_cell_angle_gamma 90.000000
_cell_volume 1658.654521
_symmetry_space_group_name_H-M "P C C A"
_symmetry_group_IT_number 54
_symmetry_cell_setting 'orthorhombic'
loop_
_space_group_symop_operation_xyz
x,y,z
1/2-x,-y,z
1/2+x,-y,1/2-z
-x,y,1/2-z
-x,-y,-z
1/2+x,y,-z
1/2-x,y,1/2+z
x,-y,1/2+z
loop_
_atom_site_type_symbol
_atom_site_label
_atom_site_fract_x
_atom_site_fract_y
_atom_site_fract_z
Si Si1 0.013724 0.328508 0.582320
Si Si2 0.263398 0.773753 0.633790
Si Si3 0.250000 0.000000 0.968158
Si Si4 0.049179 0.366263 0.145134
Si Si5 0.601209 0.084779 0.194918
O O1 0.134980 0.300606 0.593541
O O2 0.006218 0.479954 0.627857
O O3 0.982708 0.307358 0.464761
O O4 0.946011 0.221822 0.645670
O O5 0.231089 0.874385 0.542902
O O6 0.171451 0.668603 0.656930
O O7 0.308711 0.864008 0.727719
O O8 0.348783 0.007558 0.892788
O O9 0.000000 0.314130 0.250000
O O10 0.500000 0.021254 0.250000
#
# Coordination Sequence:
#
# PCOD9423508 Si02
#       5
#     8   8   4   8   8
#     4  10  23  44  66  96 137 172 214 285 336 401
#     4  11  24  43  66  98 131 177 224 276 335 401
#     4  12  24  44  66 100 132 184 228 280 326 408
#     4  11  23  41  69 102 129 170 225 273 345 402
#     4  10  23  45  66  95 139 180 227 280 339 396
#
# _framework density 21.704339000000001
#
# number of rings (size 3 to 8) (size 9 to 14) (size 15 to 20)
#    0.000    1.333    2.222    3.333    3.111    3.556 
#    4.000    2.222    0.000    0.000    0.000    0.000 
#    0.000    0.000    0.000    0.000    0.000    0.000 
#
# Total GULP energy -200900.765593 kJ/mol
# GULP energy per Si atom -5580.576822 kJ/mol
# Density = 2.165494 g / cm^3
# Si number density = 21.704339 Si / 1000 Ang^3
#
#
#
# Elastic Constant Matrix: (Units=GPa)
#
#
# Indices 1 2 3 4 5 6 
#
# 1 118.4939 20.3311 49.9027 0.0000 0.0000 0.0000
# 2 20.3311 47.4089 20.1515 0.0000 0.0000 0.0000
# 3 49.9027 20.1515 136.6728 0.0000 0.0000 0.0000
# 4 0.0000 0.0000 0.0000 -3.6385 0.0000 0.0000
# 5 0.0000 0.0000 0.0000 0.0000 42.9178 0.0000
# 6 0.0000 0.0000 0.0000 0.0000 0.0000 26.2485
#
#
#
# Elastic Compliance Matrix: (Units=1/GPa)
#
#
# Indices 1 2 3 4 5 6 
#
# 1 0.010364 -0.003026 -0.003338 0.000000 0.000000 0.000000
# 2 -0.003026 0.023387 -0.002343 0.000000 0.000000 0.000000
# 3 -0.003338 -0.002343 0.008881 0.000000 0.000000 0.000000
# 4 0.000000 0.000000 0.000000 -0.274842 0.000000 0.000000
# 5 0.000000 0.000000 0.000000 0.000000 0.023300 0.000000
# 6 0.000000 0.000000 0.000000 0.000000 0.000000 0.038097
#
#
# Mechanical properties :
#
#
# Convention : Reuss Voigt Hill
#
# Bulk Modulus (GPa) = 39.65505 53.70514 46.68010
# Shear Modulus (GPa) = -34.48482 27.25157 -3.61662
#
# Velocity S-wave (km/s) = -3.99036 3.54726 -1.29226
# Velocity P-wave (km/s) = 1.70891 6.44788 4.39629
#
# Compressibility (1/GPa) = 0.02521747
#
# Stress axis : x y z
#
# Youngs Moduli (GPa) = 96.48573 42.75917 112.59868
#
# Poissons Ratio (x) = 0.12938 0.37587
# Poissons Ratio (y) = 0.29194 0.26387
# Poissons Ratio (z) = 0.32208 0.10020
#
# Static dielectric constant tensor:
#      x y z
#    x 1.812030 0.000000 0.000000 
#    y 0.000000 1.901290 0.000000 
#    z 0.000000 0.000000 1.803310 
# 
# From -- ./inp_files/7380.got.cif
#   From: 2010.05.17/outbox.cif.g08.bks.cpg/sg54_4_cif.got.tgz:7380.got - 2010.06.03 13:09:01.
