data_PCOD9423993
_publ_section_title
;
Structure prediction by ZEFSAII (Michael W. Deem and Ramdas Pophale) SiO2 
 PCOD9423993
Probable space group: P C C A
;
_chemical_formula_sum "Si O2"
_cell_formula_units_Z 64
_cell_length_a 16.297489
_cell_length_b 15.783220
_cell_length_c 11.680661
_cell_angle_alpha 90.000000
_cell_angle_beta 90.000000
_cell_angle_gamma 90.000000
_cell_volume 3004.579686
_symmetry_space_group_name_H-M "P C C A"
_symmetry_group_IT_number 54
_symmetry_cell_setting 'orthorhombic'
loop_
_space_group_symop_operation_xyz
x,y,z
1/2-x,-y,z
1/2+x,-y,1/2-z
-x,y,1/2-z
-x,-y,-z
1/2+x,y,-z
1/2-x,y,1/2+z
x,-y,1/2+z
loop_
_atom_site_type_symbol
_atom_site_label
_atom_site_fract_x
_atom_site_fract_y
_atom_site_fract_z
Si Si1 0.788836 0.280758 0.923657
Si Si2 0.412076 0.130348 0.054649
Si Si3 0.846614 0.472146 0.678382
Si Si4 0.912551 0.939114 0.690954
Si Si5 0.833567 0.045124 0.402427
Si Si6 0.154442 0.468101 0.568722
Si Si7 0.295908 0.716797 0.825964
Si Si8 0.594806 0.132823 0.108585
O O1 0.842852 0.366294 0.928288
O O2 0.746649 0.286159 0.796194
O O3 0.841002 0.195180 0.918223
O O4 0.745695 0.281003 0.048242
O O5 0.412175 0.119064 0.918910
O O6 0.396936 0.033872 0.096475
O O7 0.500429 0.158673 0.098264
O O8 0.750000 0.500000 0.679275
O O9 0.879273 0.497545 0.805881
O O10 0.880877 0.504508 0.555628
O O11 0.846736 0.370484 0.673151
O O12 0.000000 0.925734 0.750000
O O13 0.836371 0.920917 0.774244
O O14 0.903616 0.037303 0.655942
O O15 0.750000 0.000000 0.438384
O O16 0.863671 0.118370 0.484980
O O17 0.250000 0.500000 0.567301
O O18 0.353614 0.798951 0.824094
#
# Coordination Sequence:
#
# PCOD9423993 Si02
#       8
#     8   8   8   8   8   8   8   8
#     4  11  23  37  58  94 123 157 200 262 308 368
#     4  11  23  39  59  84 122 165 212 252 313 376
#     4   9  16  31  56  84 115 154 193 243 305 379
#     4  11  20  40  64  80 113 176 215 246 310 376
#     4  11  22  38  61  88 118 159 215 268 306 359
#     4   9  16  31  56  82 116 152 195 237 310 371
#     4  11  23  37  59  93 126 154 204 259 315 363
#     4  11  23  38  59  84 120 166 208 254 311 377
#
# _framework density 21.300816000000001
#
# number of rings (size 3 to 8) (size 9 to 14) (size 15 to 20)
#    0.000    1.500    5.000    2.250    0.000    5.000 
#    0.000    0.000    0.000    0.750    0.000    0.000 
#    0.000    0.000    0.000    0.000    0.000    0.000 
#
# Total GULP energy -356669.552684 kJ/mol
# GULP energy per Si atom -5572.961761 kJ/mol
# Density = 2.125233 g / cm^3
# Si number density = 21.300816 Si / 1000 Ang^3
#
#
#
# Elastic Constant Matrix: (Units=GPa)
#
#
# Indices 1 2 3 4 5 6 
#
# 1 17.0788 -9.0905 12.4432 0.0000 0.0000 0.0000
# 2 -9.0905 71.1753 23.4563 0.0000 0.0000 0.0000
# 3 12.4432 23.4563 213.8331 0.0000 0.0000 0.0000
# 4 0.0000 0.0000 0.0000 -359.4003 0.0000 0.0000
# 5 0.0000 0.0000 0.0000 0.0000 15.0741 0.0000
# 6 0.0000 0.0000 0.0000 0.0000 0.0000 -2.5043
#
#
#
# Elastic Compliance Matrix: (Units=1/GPa)
#
#
# Indices 1 2 3 4 5 6 
#
# 1 0.067745 0.010325 -0.005075 0.000000 0.000000 0.000000
# 2 0.010325 0.016150 -0.002372 0.000000 0.000000 0.000000
# 3 -0.005075 -0.002372 0.005232 0.000000 0.000000 0.000000
# 4 0.000000 0.000000 0.000000 -0.002782 0.000000 0.000000
# 5 0.000000 0.000000 0.000000 0.000000 0.066339 0.000000
# 6 0.000000 0.000000 0.000000 0.000000 0.000000 -0.399320
#
#
# Mechanical properties :
#
#
# Convention : Reuss Voigt Hill
#
# Bulk Modulus (GPa) = 10.53932 39.52279 25.03106
# Shear Modulus (GPa) = -22.64865 -51.01420 -36.83142
#
# Velocity S-wave (km/s) = -3.26433 -4.89912 -4.16277
# Velocity P-wave (km/s) = 3.04125 3.66156 3.36572
#
# Compressibility (1/GPa) = 0.09488277
#
# Stress axis : x y z
#
# Youngs Moduli (GPa) = 14.76123 61.91814 191.12828
#
# Poissons Ratio (x) = -0.63929 0.96992
# Poissons Ratio (y) = -0.15241 0.45344
# Poissons Ratio (z) = 0.07491 0.14690
#
# Static dielectric constant tensor:
#      x y z
#    x 1.781170 0.000000 0.000000 
#    y 0.000000 1.750060 0.000000 
#    z 0.000000 0.000000 1.814910 
# 
# From -- ./inp_files/9078.got.cif
#   From: 2010.05.17/outbox.cif.g08.bks.cpg/sg54_5_cif.got.tgz:9078.got - 2010.06.03 13:09:01.
