data_PCOD9423885
_publ_section_title
;
Structure prediction by ZEFSAII (Michael W. Deem and Ramdas Pophale) SiO2 
 PCOD9423885
Probable space group: P C C A
;
_chemical_formula_sum "Si O2"
_cell_formula_units_Z 24
_cell_length_a 11.416459
_cell_length_b 7.723745
_cell_length_c 12.236665
_cell_angle_alpha 90.000000
_cell_angle_beta 90.000000
_cell_angle_gamma 90.000000
_cell_volume 1079.002421
_symmetry_space_group_name_H-M "P C C A"
_symmetry_group_IT_number 54
_symmetry_cell_setting 'orthorhombic'
loop_
_space_group_symop_operation_xyz
x,y,z
1/2-x,-y,z
1/2+x,-y,1/2-z
-x,y,1/2-z
-x,-y,-z
1/2+x,y,-z
1/2-x,y,1/2+z
x,-y,1/2+z
loop_
_atom_site_type_symbol
_atom_site_label
_atom_site_fract_x
_atom_site_fract_y
_atom_site_fract_z
Si Si1 0.508549 0.227660 0.907036
Si Si2 0.075801 0.162031 0.855744
Si Si3 0.808499 0.320492 0.231661
O O1 0.412176 0.354422 0.855561
O O2 0.626831 0.236891 0.835621
O O3 0.451211 0.039121 0.883398
O O4 0.535695 0.254754 0.033161
O O5 0.208591 0.203868 0.823538
O O6 0.000000 0.210154 0.750000
O O7 0.750000 0.500000 0.264654
#
# Coordination Sequence:
#
# PCOD9423885 Si02
#       3
#     8   8   8
#     4  10  25  47  68 105 137 181 244 282 345 419
#     4  11  24  44  74  99 137 184 235 289 344 411
#     4  11  25  45  69 102 145 180 226 293 352 416
#
# _framework density 22.242766
#
# number of rings (size 3 to 8) (size 9 to 14) (size 15 to 20)
#    0.000    1.333    3.333    1.000    9.333    2.667 
#    0.000    0.000    0.000    0.000    0.000    0.000 
#    0.000    0.000    0.000    0.000    0.000    0.000 
#
# Total GULP energy -134225.846023 kJ/mol
# GULP energy per Si atom -5592.743584 kJ/mol
# Density = 2.219214 g / cm^3
# Si number density = 22.242766 Si / 1000 Ang^3
#
#
#
# Elastic Constant Matrix: (Units=GPa)
#
#
# Indices 1 2 3 4 5 6 
#
# 1 148.6730 25.3231 81.9403 0.0000 0.0000 0.0000
# 2 25.3231 60.5150 4.6451 0.0000 0.0000 0.0000
# 3 81.9403 4.6451 196.6811 0.0000 0.0000 0.0000
# 4 0.0000 0.0000 0.0000 13.6238 0.0000 0.0000
# 5 0.0000 0.0000 0.0000 0.0000 13.4881 0.0000
# 6 0.0000 0.0000 0.0000 0.0000 0.0000 35.4207
#
#
#
# Elastic Compliance Matrix: (Units=1/GPa)
#
#
# Indices 1 2 3 4 5 6 
#
# 1 0.009480 -0.003671 -0.003863 0.000000 0.000000 0.000000
# 2 -0.003671 0.017976 0.001105 0.000000 0.000000 0.000000
# 3 -0.003863 0.001105 0.006668 0.000000 0.000000 0.000000
# 4 0.000000 0.000000 0.000000 0.073401 0.000000 0.000000
# 5 0.000000 0.000000 0.000000 0.000000 0.074140 0.000000
# 6 0.000000 0.000000 0.000000 0.000000 0.000000 0.028232
#
#
# Mechanical properties :
#
#
# Convention : Reuss Voigt Hill
#
# Bulk Modulus (GPa) = 47.02288 69.96513 58.49401
# Shear Modulus (GPa) = 21.75393 32.10388 26.92890
#
# Velocity S-wave (km/s) = 3.13073 3.80325 3.48326
# Velocity P-wave (km/s) = 5.85280 7.12810 6.52170
#
# Compressibility (1/GPa) = 0.02126624
#
# Stress axis : x y z
#
# Youngs Moduli (GPa) = 105.48002 55.62954 149.97736
#
# Poissons Ratio (x) = 0.20420 0.57936
# Poissons Ratio (y) = 0.38718 -0.16568
# Poissons Ratio (z) = 0.40747 -0.06145
#
# Static dielectric constant tensor:
#      x y z
#    x 1.800000 0.000000 0.000000 
#    y 0.000000 1.901430 0.000000 
#    z 0.000000 0.000000 1.787340 
# 
# From -- ./inp_files/7119.got.cif
#   From: 2010.05.17/outbox.cif.g08.bks.cpg/sg54_4_cif.got.tgz:7119.got - 2010.06.03 13:09:01.
