data_PCOD9423694
_publ_section_title
;
Structure prediction by ZEFSAII (Michael W. Deem and Ramdas Pophale) SiO2 
 PCOD9423694
Probable space group: P C C A
;
_chemical_formula_sum "Si O2"
_cell_formula_units_Z 40
_cell_length_a 19.329789
_cell_length_b 10.154049
_cell_length_c 9.241350
_cell_angle_alpha 90.000000
_cell_angle_beta 90.000000
_cell_angle_gamma 90.000000
_cell_volume 1813.851744
_symmetry_space_group_name_H-M "P C C A"
_symmetry_group_IT_number 54
_symmetry_cell_setting 'orthorhombic'
loop_
_space_group_symop_operation_xyz
x,y,z
1/2-x,-y,z
1/2+x,-y,1/2-z
-x,y,1/2-z
-x,-y,-z
1/2+x,y,-z
1/2-x,y,1/2+z
x,-y,1/2+z
loop_
_atom_site_type_symbol
_atom_site_label
_atom_site_fract_x
_atom_site_fract_y
_atom_site_fract_z
Si Si1 0.193359 0.104757 0.641468
Si Si2 0.817778 0.422991 0.353349
Si Si3 0.540553 0.898242 0.900054
Si Si4 0.249188 0.727278 0.880683
Si Si5 0.044102 0.406706 0.603708
O O1 0.117568 0.048212 0.625342
O O2 0.196471 0.215254 0.765406
O O3 0.218321 0.166256 0.490935
O O4 0.250000 0.000000 0.687052
O O5 0.750000 0.500000 0.303236
O O6 0.793412 0.364262 0.508322
O O7 0.816155 0.320497 0.219214
O O8 0.882901 0.518384 0.370457
O O9 0.500000 0.892526 0.750000
O O10 0.549766 0.745084 0.950377
O O11 0.500000 0.000000 0.000000
O O12 0.000000 0.400609 0.750000
O O13 0.000000 0.500000 0.500000
#
# Coordination Sequence:
#
# PCOD9423694 Si02
#       5
#     8   8   8   8   8
#     4  11  25  45  74 102 140 194 252 293 356 435
#     4  11  24  42  72 102 144 183 235 295 366 427
#     4  11  29  50  72 103 149 195 243 301 367 436
#     4  10  24  42  74 105 143 182 241 306 362 422
#     4  11  28  47  74 109 147 190 242 302 371 442
#
# _framework density 22.052519
#
# number of rings (size 3 to 8) (size 9 to 14) (size 15 to 20)
#    0.000    1.200    0.000    3.600   19.600    2.400 
#    0.000    0.000    0.000    0.000    0.000    0.000 
#    0.000    0.000    0.000    0.000    0.000    0.000 
#
# Total GULP energy -223397.919238 kJ/mol
# GULP energy per Si atom -5584.947981 kJ/mol
# Density = 2.200233 g / cm^3
# Si number density = 22.052519 Si / 1000 Ang^3
#
#
#
# Elastic Constant Matrix: (Units=GPa)
#
#
# Indices 1 2 3 4 5 6 
#
# 1 160.6804 46.6429 22.2317 0.0000 0.0000 0.0000
# 2 46.6429 96.5504 48.6396 0.0000 0.0000 0.0000
# 3 22.2317 48.6396 124.0114 0.0000 0.0000 0.0000
# 4 0.0000 0.0000 0.0000 -44.0824 0.0000 0.0000
# 5 0.0000 0.0000 0.0000 0.0000 19.9796 0.0000
# 6 0.0000 0.0000 0.0000 0.0000 0.0000 40.5614
#
#
#
# Elastic Compliance Matrix: (Units=1/GPa)
#
#
# Indices 1 2 3 4 5 6 
#
# 1 0.007239 -0.003544 0.000092 0.000000 0.000000 0.000000
# 2 -0.003544 0.014642 -0.005108 0.000000 0.000000 0.000000
# 3 0.000092 -0.005108 0.010051 0.000000 0.000000 0.000000
# 4 0.000000 0.000000 0.000000 -0.022685 0.000000 0.000000
# 5 0.000000 0.000000 0.000000 0.000000 0.050051 0.000000
# 6 0.000000 0.000000 0.000000 0.000000 0.000000 0.024654
#
#
# Mechanical properties :
#
#
# Convention : Reuss Voigt Hill
#
# Bulk Modulus (GPa) = 67.50499 68.47453 67.98976
# Shear Modulus (GPa) = 47.16566 20.87359 34.01962
#
# Velocity S-wave (km/s) = 4.62972 3.07993 3.93194
# Velocity P-wave (km/s) = 7.69783 6.61559 7.17714
#
# Compressibility (1/GPa) = 0.01481372
#
# Stress axis : x y z
#
# Youngs Moduli (GPa) = 138.13143 68.29485 99.49639
#
# Poissons Ratio (x) = 0.24202 -0.00916
# Poissons Ratio (y) = 0.48950 0.50820
# Poissons Ratio (z) = -0.01272 0.34883
#
# Static dielectric constant tensor:
#      x y z
#    x 1.786540 0.000000 0.000000 
#    y 0.000000 1.847410 0.000000 
#    z 0.000000 0.000000 1.779480 
# 
# From -- ./inp_files/3946.got.cif
#   From: 2010.05.17/outbox.cif.g08.bks.cpg/sg54_2_cif.got.tgz:3946.got - 2010.06.03 13:09:01.
