data_PCOD9423323
_publ_section_title
;
Structure prediction by ZEFSAII (Michael W. Deem and Ramdas Pophale) SiO2 
 PCOD9423323
Probable space group: P C C A
;
_chemical_formula_sum "Si O2"
_cell_formula_units_Z 28
_cell_length_a 18.895732
_cell_length_b 5.852152
_cell_length_c 9.412027
_cell_angle_alpha 90.000000
_cell_angle_beta 90.000000
_cell_angle_gamma 90.000000
_cell_volume 1040.788495
_symmetry_space_group_name_H-M "P C C A"
_symmetry_group_IT_number 54
_symmetry_cell_setting 'orthorhombic'
loop_
_space_group_symop_operation_xyz
x,y,z
1/2-x,-y,z
1/2+x,-y,1/2-z
-x,y,1/2-z
-x,-y,-z
1/2+x,y,-z
1/2-x,y,1/2+z
x,-y,1/2+z
loop_
_atom_site_type_symbol
_atom_site_label
_atom_site_fract_x
_atom_site_fract_y
_atom_site_fract_z
Si Si1 0.500000 0.641649 0.750000
Si Si2 0.620714 0.719756 0.250153
Si Si3 0.590108 0.091673 0.453029
Si Si4 0.261058 0.742509 0.585603
O O1 0.431788 0.486681 0.784093
O O2 0.478415 0.792403 0.614200
O O3 0.704641 0.713244 0.285544
O O4 0.593674 0.837479 0.393947
O O5 0.605655 0.885682 0.118140
O O6 0.656141 0.233708 0.382685
O O7 0.250000 0.500000 0.505400
O O8 0.250000 0.000000 0.522897
#
# Coordination Sequence:
#
# PCOD9423323 Si02
#       4
#     4   8   8   8
#     4  12  24  46  68 104 142 194 238 302 360 442
#     4  11  26  46  72 104 143 189 242 302 367 437
#     4  11  26  46  72 104 143 189 242 302 367 437
#     4  10  22  46  72 110 140 192 238 308 362 434
#
# _framework density 26.902678999999999
#
# number of rings (size 3 to 8) (size 9 to 14) (size 15 to 20)
#    0.000    1.143    2.857    1.714    0.000   18.286 
#    0.000    0.000    0.000    0.000    0.000    0.000 
#    0.000    0.000    0.000    0.000    0.000    0.000 
#
# Total GULP energy -156371.320777 kJ/mol
# GULP energy per Si atom -5584.690028 kJ/mol
# Density = 2.684145 g / cm^3
# Si number density = 26.902679 Si / 1000 Ang^3
#
#
#
# Elastic Constant Matrix: (Units=GPa)
#
#
# Indices 1 2 3 4 5 6 
#
# 1 164.8529 20.9279 27.0048 0.0000 0.0000 0.0000
# 2 20.9279 108.1800 -12.0244 0.0000 0.0000 0.0000
# 3 27.0048 -12.0244 104.8337 0.0000 0.0000 0.0000
# 4 0.0000 0.0000 0.0000 17.0011 0.0000 0.0000
# 5 0.0000 0.0000 0.0000 0.0000 34.4593 0.0000
# 6 0.0000 0.0000 0.0000 0.0000 0.0000 69.1708
#
#
#
# Elastic Compliance Matrix: (Units=1/GPa)
#
#
# Indices 1 2 3 4 5 6 
#
# 1 0.006558 -0.001475 -0.001858 0.000000 0.000000 0.000000
# 2 -0.001475 0.009695 0.001492 0.000000 0.000000 0.000000
# 3 -0.001858 0.001492 0.010189 0.000000 0.000000 0.000000
# 4 0.000000 0.000000 0.000000 0.058820 0.000000 0.000000
# 5 0.000000 0.000000 0.000000 0.000000 0.029020 0.000000
# 6 0.000000 0.000000 0.000000 0.000000 0.000000 0.014457
#
#
# Mechanical properties :
#
#
# Convention : Reuss Voigt Hill
#
# Bulk Modulus (GPa) = 43.93994 49.96481 46.95237
# Shear Modulus (GPa) = 35.71243 46.92347 41.31795
#
# Velocity S-wave (km/s) = 3.64740 4.18088 3.92322
# Velocity P-wave (km/s) = 5.84007 6.47450 6.16545
#
# Compressibility (1/GPa) = 0.02275834
#
# Stress axis : x y z
#
# Youngs Moduli (GPa) = 152.49192 103.14517 98.14721
#
# Poissons Ratio (x) = 0.15216 0.18240
# Poissons Ratio (y) = 0.22495 -0.14644
# Poissons Ratio (z) = 0.28340 -0.15389
#
# Static dielectric constant tensor:
#      x y z
#    x 2.209650 0.000000 0.000000 
#    y 0.000000 2.200640 0.000000 
#    z 0.000000 0.000000 1.994330 
# 
# From -- ./inp_files/9180.got.cif
#   From: 2010.05.17/outbox.cif.g08.bks.cpg/sg54_5_cif.got.tgz:9180.got - 2010.06.03 13:09:01.
