data_PCOD9423058
_publ_section_title
;
Structure prediction by ZEFSAII (Michael W. Deem and Ramdas Pophale) SiO2 
 PCOD9423058
Probable space group: P C C A
;
_chemical_formula_sum "Si O2"
_cell_formula_units_Z 48
_cell_length_a 9.589086
_cell_length_b 15.440474
_cell_length_c 14.791292
_cell_angle_alpha 90.000000
_cell_angle_beta 90.000000
_cell_angle_gamma 90.000000
_cell_volume 2189.999183
_symmetry_space_group_name_H-M "P C C A"
_symmetry_group_IT_number 54
_symmetry_cell_setting 'orthorhombic'
loop_
_space_group_symop_operation_xyz
x,y,z
1/2-x,-y,z
1/2+x,-y,1/2-z
-x,y,1/2-z
-x,-y,-z
1/2+x,y,-z
1/2-x,y,1/2+z
x,-y,1/2+z
loop_
_atom_site_type_symbol
_atom_site_label
_atom_site_fract_x
_atom_site_fract_y
_atom_site_fract_z
Si Si1 0.083286 0.904118 0.155300
Si Si2 0.000000 0.606224 0.250000
Si Si3 0.250000 0.500000 0.805035
Si Si4 0.601300 0.718136 0.893214
Si Si5 0.939467 0.586767 0.547295
Si Si6 0.406750 0.280518 0.659731
Si Si7 0.084044 0.091782 0.156188
O O1 0.060225 0.818314 0.095693
O O2 0.249567 0.908186 0.173507
O O3 0.000000 0.893980 0.250000
O O4 0.047345 0.998481 0.113519
O O5 0.864974 0.546419 0.255655
O O6 0.014266 0.666797 0.336671
O O7 0.332493 0.438119 0.873865
O O8 0.739918 0.720007 0.830220
O O9 0.625756 0.657260 0.979012
O O10 0.000000 0.500000 0.500000
O O11 0.061132 0.639578 0.595843
O O12 0.500000 0.288389 0.750000
O O13 0.444496 0.186811 0.615540
O O14 0.000000 0.091742 0.250000
#
# Coordination Sequence:
#
# PCOD9423058 Si02
#       7
#     8   4   4   8   8   8   8
#     4   9  16  32  58  89 125 158 201 253 298 364
#     4  12  26  42  66  94 122 164 222 264 314 378
#     4  12  28  44  64  92 120 170 212 274 314 384
#     4  11  23  39  63  94 126 164 207 255 311 370
#     4  12  25  43  62  90 128 164 208 263 321 368
#     4  10  22  41  65  91 123 169 210 253 305 378
#     4   8  16  32  57  90 120 159 203 248 304 359
#
# _framework density 21.917816999999999
#
# number of rings (size 3 to 8) (size 9 to 14) (size 15 to 20)
#    0.000    1.667    2.500    2.000    3.500    0.667 
#    0.000    0.833    0.000    0.000    0.000    0.000 
#    0.000    0.000    0.000    0.000    0.000    0.000 
#
# Total GULP energy -267577.793763 kJ/mol
# GULP energy per Si atom -5574.537370 kJ/mol
# Density = 2.186793 g / cm^3
# Si number density = 21.917817 Si / 1000 Ang^3
#
#
#
# Elastic Constant Matrix: (Units=GPa)
#
#
# Indices 1 2 3 4 5 6 
#
# 1 37.7816 28.8386 0.1948 0.0000 0.0000 0.0000
# 2 28.8386 218.9810 39.4681 0.0000 0.0000 0.0000
# 3 0.1948 39.4681 37.5411 0.0000 0.0000 0.0000
# 4 0.0000 0.0000 0.0000 56.0120 0.0000 0.0000
# 5 0.0000 0.0000 0.0000 0.0000 21.2111 0.0000
# 6 0.0000 0.0000 0.0000 0.0000 0.0000 20.4455
#
#
#
# Elastic Compliance Matrix: (Units=1/GPa)
#
#
# Indices 1 2 3 4 5 6 
#
# 1 0.030156 -0.004865 0.004958 0.000000 0.000000 0.000000
# 2 -0.004865 0.006419 -0.006723 0.000000 0.000000 0.000000
# 3 0.004958 -0.006723 0.033680 0.000000 0.000000 0.000000
# 4 0.000000 0.000000 0.000000 0.017853 0.000000 0.000000
# 5 0.000000 0.000000 0.000000 0.000000 0.047145 0.000000
# 6 0.000000 0.000000 0.000000 0.000000 0.000000 0.048910
#
#
# Mechanical properties :
#
#
# Convention : Reuss Voigt Hill
#
# Bulk Modulus (GPa) = 17.54546 47.92299 32.73423
# Shear Modulus (GPa) = 23.10296 34.58719 28.84508
#
# Velocity S-wave (km/s) = 3.25017 3.97676 3.63168
# Velocity P-wave (km/s) = 4.70184 6.55733 5.70552
#
# Compressibility (1/GPa) = 0.05699481
#
# Stress axis : x y z
#
# Youngs Moduli (GPa) = 33.16114 155.78548 29.69107
#
# Poissons Ratio (x) = 0.75790 -0.14722
# Poissons Ratio (y) = 0.16133 0.19962
# Poissons Ratio (z) = -0.16442 1.04740
#
# Static dielectric constant tensor:
#      x y z
#    x 7.169390 0.000000 0.000000 
#    y 0.000000 1.889310 0.000000 
#    z 0.000000 0.000000 1.802600 
# 
# From -- ./inp_files/16672.got.cif
#   From: 2010.05.17/outbox.cif.g08.bks.cpg/sg54_9_cif.got.tgz:16672.got - 2010.06.03 13:09:01.
