data_PCOD9423874
_publ_section_title
;
Structure prediction by ZEFSAII (Michael W. Deem and Ramdas Pophale) SiO2 
 PCOD9423874
Probable space group: P C C A
;
_chemical_formula_sum "Si O2"
_cell_formula_units_Z 32
_cell_length_a 28.461926
_cell_length_b 5.534104
_cell_length_c 9.089927
_cell_angle_alpha 90.000000
_cell_angle_beta 90.000000
_cell_angle_gamma 90.000000
_cell_volume 1431.765842
_symmetry_space_group_name_H-M "P C C A"
_symmetry_group_IT_number 54
_symmetry_cell_setting 'orthorhombic'
loop_
_space_group_symop_operation_xyz
x,y,z
1/2-x,-y,z
1/2+x,-y,1/2-z
-x,y,1/2-z
-x,-y,-z
1/2+x,y,-z
1/2-x,y,1/2+z
x,-y,1/2+z
loop_
_atom_site_type_symbol
_atom_site_label
_atom_site_fract_x
_atom_site_fract_y
_atom_site_fract_z
Si Si1 0.483100 0.748305 0.420102
Si Si2 0.627992 0.288628 0.542753
Si Si3 0.206272 0.673394 0.458595
Si Si4 0.678254 0.025397 0.293124
O O1 0.500000 0.753108 0.250000
O O2 0.500000 0.500000 0.500000
O O3 0.426735 0.723973 0.425865
O O4 0.500000 0.000000 0.500000
O O5 0.655487 0.542236 0.538609
O O6 0.639156 0.169415 0.385373
O O7 0.654345 0.141495 0.670803
O O8 0.250000 0.500000 0.481654
O O9 0.210186 0.792506 0.298906
O O10 0.204362 0.868880 0.585923
#
# Coordination Sequence:
#
# PCOD9423874 Si02
#       4
#     8   8   8   8
#     4  12  29  49  79 116 158 207 269 330 401 474
#     4  11  25  44  75 102 148 193 248 311 381 455
#     4  11  26  46  73 109 145 197 249 308 382 461
#     4  10  25  45  73 102 149 187 247 307 376 448
#
# _framework density 22.350024000000001
#
# number of rings (size 3 to 8) (size 9 to 14) (size 15 to 20)
#    0.000    1.000    0.000    3.750   14.000   10.000 
#    0.000    3.750    0.000    0.000    0.000    0.000 
#    0.000    0.000    0.000    0.000    0.000    0.000 
#
# Total GULP energy -179216.517696 kJ/mol
# GULP energy per Si atom -5600.516178 kJ/mol
# Density = 2.229915 g / cm^3
# Si number density = 22.350024 Si / 1000 Ang^3
#
#
#
# Elastic Constant Matrix: (Units=GPa)
#
#
# Indices 1 2 3 4 5 6 
#
# 1 142.2813 51.0298 26.0863 0.0000 0.0000 0.0000
# 2 51.0298 130.1952 58.6572 0.0000 0.0000 0.0000
# 3 26.0863 58.6572 145.8419 0.0000 0.0000 0.0000
# 4 0.0000 0.0000 0.0000 33.9559 0.0000 0.0000
# 5 0.0000 0.0000 0.0000 0.0000 -19.1433 0.0000
# 6 0.0000 0.0000 0.0000 0.0000 0.0000 33.8649
#
#
#
# Elastic Compliance Matrix: (Units=1/GPa)
#
#
# Indices 1 2 3 4 5 6 
#
# 1 0.008183 -0.003112 -0.000212 0.000000 0.000000 0.000000
# 2 -0.003112 0.010564 -0.003692 0.000000 0.000000 0.000000
# 3 -0.000212 -0.003692 0.008380 0.000000 0.000000 0.000000
# 4 0.000000 0.000000 0.000000 0.029450 0.000000 0.000000
# 5 0.000000 0.000000 0.000000 0.000000 -0.052238 0.000000
# 6 0.000000 0.000000 0.000000 0.000000 0.000000 0.029529
#
#
# Mechanical properties :
#
#
# Convention : Reuss Voigt Hill
#
# Bulk Modulus (GPa) = 76.36767 76.65166 76.50967
# Shear Modulus (GPa) = 95.66535 28.57184 62.11859
#
# Velocity S-wave (km/s) = 6.54952 3.57932 5.27768
# Velocity P-wave (km/s) = 9.56232 7.17304 8.45253
#
# Compressibility (1/GPa) = 0.01309455
#
# Stress axis : x y z
#
# Youngs Moduli (GPa) = 122.19994 94.66202 119.33655
#
# Poissons Ratio (x) = 0.29457 0.02532
# Poissons Ratio (y) = 0.38027 0.44061
# Poissons Ratio (z) = 0.02592 0.34951
#
# Static dielectric constant tensor:
#      x y z
#    x 1.746300 0.000000 0.000000 
#    y 0.000000 1.870730 0.000000 
#    z 0.000000 0.000000 1.803010 
# 
# From -- ./inp_files/5693.got.cif
#   From: 2010.05.17/outbox.cif.g08.bks.cpg/sg54_3_cif.got.tgz:5693.got - 2010.06.03 13:09:01.
