data_PCOD9423806
_publ_section_title
;
Structure prediction by ZEFSAII (Michael W. Deem and Ramdas Pophale) SiO2 
 PCOD9423806
Probable space group: P C C A
;
_chemical_formula_sum "Si O2"
_cell_formula_units_Z 40
_cell_length_a 5.519432
_cell_length_b 11.643969
_cell_length_c 26.164589
_cell_angle_alpha 90.000000
_cell_angle_beta 90.000000
_cell_angle_gamma 90.000000
_cell_volume 1681.548294
_symmetry_space_group_name_H-M "P C C A"
_symmetry_group_IT_number 54
_symmetry_cell_setting 'orthorhombic'
loop_
_space_group_symop_operation_xyz
x,y,z
1/2-x,-y,z
1/2+x,-y,1/2-z
-x,y,1/2-z
-x,-y,-z
1/2+x,y,-z
1/2-x,y,1/2+z
x,-y,1/2+z
loop_
_atom_site_type_symbol
_atom_site_label
_atom_site_fract_x
_atom_site_fract_y
_atom_site_fract_z
Si Si1 0.508972 0.839261 0.470334
Si Si2 0.750000 0.000000 0.888177
Si Si3 0.241149 0.797295 0.672334
Si Si4 0.500000 0.351851 0.250000
Si Si5 0.887809 0.618327 0.909963
Si Si6 0.250000 0.500000 0.335487
Si Si7 0.000000 0.927681 0.750000
O O1 0.240463 0.859267 0.492321
O O2 0.528839 0.704827 0.454114
O O3 0.570770 0.924118 0.423280
O O4 0.878548 0.094957 0.852700
O O5 0.315269 0.732957 0.723514
O O6 0.257907 0.702195 0.628050
O O7 0.000344 0.856625 0.695942
O O8 0.415032 0.430787 0.296237
O O9 0.750000 0.500000 0.924489
O O10 0.106155 0.582184 0.873171
O O11 0.750000 0.000000 0.751047
#
# Coordination Sequence:
#
# PCOD9423806 Si02
#       7
#     8   4   8   4   8   4   4
#     4  11  27  51  78 109 141 188 241 312 387 455
#     4  10  24  46  74 104 146 184 246 304 376 444
#     4  11  23  44  66 107 143 204 238 307 354 437
#     4  12  23  41  76 102 160 199 265 288 364 432
#     4  11  25  46  71 105 147 187 249 302 378 438
#     4  12  24  44  70 108 148 212 240 314 348 446
#     4  12  25  45  68 102 150 197 255 300 354 430
#
# _framework density 23.787600000000001
#
# number of rings (size 3 to 8) (size 9 to 14) (size 15 to 20)
#    0.000    0.800    3.000    3.600    2.800    0.800 
#    7.200    0.000    0.000    0.000    0.000    0.000 
#    0.000    0.000    0.000    0.000    0.000    0.000 
#
# Total GULP energy -223114.319207 kJ/mol
# GULP energy per Si atom -5577.857980 kJ/mol
# Density = 2.373346 g / cm^3
# Si number density = 23.787600 Si / 1000 Ang^3
#
#
#
# Elastic Constant Matrix: (Units=GPa)
#
#
# Indices 1 2 3 4 5 6 
#
# 1 55.5012 18.3602 12.7982 0.0000 0.0000 0.0000
# 2 18.3602 141.6681 22.5545 0.0000 0.0000 0.0000
# 3 12.7982 22.5545 57.8292 0.0000 0.0000 0.0000
# 4 0.0000 0.0000 0.0000 93.5578 0.0000 0.0000
# 5 0.0000 0.0000 0.0000 0.0000 30.8601 0.0000
# 6 0.0000 0.0000 0.0000 0.0000 0.0000 30.6180
#
#
#
# Elastic Compliance Matrix: (Units=1/GPa)
#
#
# Indices 1 2 3 4 5 6 
#
# 1 0.019484 -0.001960 -0.003547 0.000000 0.000000 0.000000
# 2 -0.001960 0.007723 -0.002578 0.000000 0.000000 0.000000
# 3 -0.003547 -0.002578 0.019083 0.000000 0.000000 0.000000
# 4 0.000000 0.000000 0.000000 0.010689 0.000000 0.000000
# 5 0.000000 0.000000 0.000000 0.000000 0.032404 0.000000
# 6 0.000000 0.000000 0.000000 0.000000 0.000000 0.032660
#
#
# Mechanical properties :
#
#
# Convention : Reuss Voigt Hill
#
# Bulk Modulus (GPa) = 33.20269 40.26936 36.73602
# Shear Modulus (GPa) = 33.72553 44.42623 39.07588
#
# Velocity S-wave (km/s) = 3.76942 4.32629 4.05742
# Velocity P-wave (km/s) = 5.73873 6.47465 6.11777
#
# Compressibility (1/GPa) = 0.03011804
#
# Stress axis : x y z
#
# Youngs Moduli (GPa) = 51.32374 129.47818 52.40260
#
# Poissons Ratio (x) = 0.25382 0.18590
# Poissons Ratio (y) = 0.10061 0.13511
# Poissons Ratio (z) = 0.18207 0.33384
#
# Static dielectric constant tensor:
#      x y z
#    x 2.248650 0.000000 0.000000 
#    y 0.000000 1.257430 0.000000 
#    z 0.000000 0.000000 1.896550 
# 
# From -- ./inp_files/25231.got.cif
#   From: 2010.05.17/outbox.cif.g08.bks.cpg/sg54_13_cif.got.tgz:25231.got - 2010.06.03 13:09:01.
