data_PCOD9423484
_publ_section_title
;
Structure prediction by ZEFSAII (Michael W. Deem and Ramdas Pophale) SiO2 
 PCOD9423484
Probable space group: P C C A
;
_chemical_formula_sum "Si O2"
_cell_formula_units_Z 60
_cell_length_a 12.972487
_cell_length_b 10.552128
_cell_length_c 18.639174
_cell_angle_alpha 90.000000
_cell_angle_beta 90.000000
_cell_angle_gamma 90.000000
_cell_volume 2551.467010
_symmetry_space_group_name_H-M "P C C A"
_symmetry_group_IT_number 54
_symmetry_cell_setting 'orthorhombic'
loop_
_space_group_symop_operation_xyz
x,y,z
1/2-x,-y,z
1/2+x,-y,1/2-z
-x,y,1/2-z
-x,-y,-z
1/2+x,y,-z
1/2-x,y,1/2+z
x,-y,1/2+z
loop_
_atom_site_type_symbol
_atom_site_label
_atom_site_fract_x
_atom_site_fract_y
_atom_site_fract_z
Si Si1 0.901448 0.393593 0.046171
Si Si2 0.482088 0.778225 0.667685
Si Si3 0.250000 0.000000 0.764082
Si Si4 0.090235 0.673145 0.448357
Si Si5 0.267375 0.161008 0.985092
Si Si6 0.969029 0.290948 0.333360
Si Si7 0.926877 0.029251 0.118120
Si Si8 0.741807 0.220903 0.351766
O O1 0.866201 0.535836 0.031177
O O2 0.812005 0.292107 0.047987
O O3 0.966844 0.390084 0.119382
O O4 0.979018 0.337810 0.986437
O O5 0.500000 0.807727 0.750000
O O6 0.569904 0.688212 0.635881
O O7 0.369759 0.716559 0.658873
O O8 0.496065 0.909166 0.622171
O O9 0.348386 0.005629 0.815816
O O10 0.250202 0.120248 0.712365
O O11 0.148355 0.801008 0.470522
O O12 0.346220 0.061216 0.947471
O O13 0.269151 0.155143 0.070582
O O14 0.846754 0.301083 0.347801
O O15 0.000000 0.296872 0.250000
O O16 0.006323 0.154254 0.364637
#
# Coordination Sequence:
#
# PCOD9423484 Si02
#       8
#     8   8   4   8   8   8   8   8
#     4  10  23  43  68  96 131 176 225 287 348 399
#     4  12  25  43  66 100 144 179 222 280 341 410
#     4  12  22  40  64  94 132 180 220 262 336 402
#     4  11  23  43  69  96 134 175 227 287 342 400
#     4  11  24  44  68 100 134 176 235 279 338 413
#     4  11  22  43  68  97 137 178 228 280 342 411
#     4  11  24  42  65  97 138 184 214 278 340 404
#     4  12  24  39  65 101 132 180 229 273 336 406
#
# _framework density 23.515882999999999
#
# number of rings (size 3 to 8) (size 9 to 14) (size 15 to 20)
#    0.000    0.800    5.333    2.400    0.000    2.667 
#    0.000    0.667    0.000    0.000    0.000    0.000 
#    0.000    0.000    0.000    0.000    0.000    0.000 
#
# Total GULP energy -334921.000963 kJ/mol
# GULP energy per Si atom -5582.016683 kJ/mol
# Density = 2.346236 g / cm^3
# Si number density = 23.515883 Si / 1000 Ang^3
#
#
#
# Elastic Constant Matrix: (Units=GPa)
#
#
# Indices 1 2 3 4 5 6 
#
# 1 98.5678 10.0715 31.0057 0.0000 0.0000 0.0000
# 2 10.0715 85.5265 2.2703 0.0000 0.0000 0.0000
# 3 31.0057 2.2703 122.5988 0.0000 0.0000 0.0000
# 4 0.0000 0.0000 0.0000 16.8449 0.0000 0.0000
# 5 0.0000 0.0000 0.0000 0.0000 17.3415 0.0000
# 6 0.0000 0.0000 0.0000 0.0000 0.0000 16.6010
#
#
#
# Elastic Compliance Matrix: (Units=1/GPa)
#
#
# Indices 1 2 3 4 5 6 
#
# 1 0.011152 -0.001239 -0.002797 0.000000 0.000000 0.000000
# 2 -0.001239 0.011836 0.000094 0.000000 0.000000 0.000000
# 3 -0.002797 0.000094 0.008862 0.000000 0.000000 0.000000
# 4 0.000000 0.000000 0.000000 0.059365 0.000000 0.000000
# 5 0.000000 0.000000 0.000000 0.000000 0.057665 0.000000
# 6 0.000000 0.000000 0.000000 0.000000 0.000000 0.060237
#
#
# Mechanical properties :
#
#
# Convention : Reuss Voigt Hill
#
# Bulk Modulus (GPa) = 41.72658 43.70978 42.71818
# Shear Modulus (GPa) = 22.22317 27.71386 24.96852
#
# Velocity S-wave (km/s) = 3.07747 3.43668 3.26202
# Velocity P-wave (km/s) = 5.51455 5.86305 5.69147
#
# Compressibility (1/GPa) = 0.02396554
#
# Stress axis : x y z
#
# Youngs Moduli (GPa) = 89.67115 84.49029 112.83597
#
# Poissons Ratio (x) = 0.10468 0.31565
# Poissons Ratio (y) = 0.11110 -0.01063
# Poissons Ratio (z) = 0.25085 -0.00796
#
# Static dielectric constant tensor:
#      x y z
#    x 2.552640 0.000000 0.000000 
#    y 0.000000 -1.351800 0.000000 
#    z 0.000000 0.000000 1.890570 
# 
# From -- ./inp_files/18194.got.cif
#   From: 2010.05.17/outbox.cif.g08.bks.cpg/sg54_10_cif.got.tgz:18194.got - 2010.06.03 13:09:01.
