data_PCOD9423395
_publ_section_title
;
Structure prediction by ZEFSAII (Michael W. Deem and Ramdas Pophale) SiO2 
 PCOD9423395
Probable space group: P C C A
;
_chemical_formula_sum "Si O2"
_cell_formula_units_Z 56
_cell_length_a 12.814070
_cell_length_b 10.886864
_cell_length_c 16.842451
_cell_angle_alpha 90.000000
_cell_angle_beta 90.000000
_cell_angle_gamma 90.000000
_cell_volume 2349.606756
_symmetry_space_group_name_H-M "P C C A"
_symmetry_group_IT_number 54
_symmetry_cell_setting 'orthorhombic'
loop_
_space_group_symop_operation_xyz
x,y,z
1/2-x,-y,z
1/2+x,-y,1/2-z
-x,y,1/2-z
-x,-y,-z
1/2+x,y,-z
1/2-x,y,1/2+z
x,-y,1/2+z
loop_
_atom_site_type_symbol
_atom_site_label
_atom_site_fract_x
_atom_site_fract_y
_atom_site_fract_z
Si Si1 0.645430 0.336056 0.585114
Si Si2 0.828750 0.694816 0.407565
Si Si3 0.006247 0.523948 0.162461
Si Si4 0.148156 0.251976 0.838450
Si Si5 0.250625 0.870387 0.202977
Si Si6 0.001993 0.912485 0.423003
Si Si7 0.938166 0.873618 0.679630
O O1 0.691921 0.343391 0.497573
O O2 0.559181 0.439097 0.602391
O O3 0.744288 0.324437 0.643942
O O4 0.584983 0.209699 0.604084
O O5 0.734881 0.757591 0.358070
O O6 0.882185 0.576815 0.365552
O O7 0.911526 0.809769 0.416680
O O8 0.938926 0.646846 0.169296
O O9 0.000000 0.466553 0.250000
O O10 0.154831 0.179070 0.755800
O O11 0.111579 0.160276 0.908637
O O12 0.331053 0.898194 0.274474
O O13 0.250000 0.000000 0.158122
O O14 0.000052 0.007740 0.349399
O O15 0.000000 0.000000 0.500000
O O16 0.000000 0.807665 0.750000
#
# Coordination Sequence:
#
# PCOD9423395 Si02
#       7
#     8   8   8   8   8   8   8
#     4  11  24  42  65  94 136 179 232 294 345 408
#     4  11  24  41  66 100 134 179 234 285 355 423
#     4  11  22  44  73  93 131 183 242 287 353 417
#     4  10  23  40  68  95 134 180 231 287 352 428
#     4  11  21  39  65 100 133 177 226 292 351 428
#     4  11  22  40  64  98 139 180 219 287 359 425
#     4  11  23  40  63  96 136 176 231 275 350 427
#
# _framework density 23.833773999999998
#
# number of rings (size 3 to 8) (size 9 to 14) (size 15 to 20)
#    0.000    1.143    4.286    2.143    0.000    2.286 
#    0.000    0.000    9.429    0.000    0.000    0.000 
#    0.000    0.000    0.000    0.000    0.000    0.000 
#
# Total GULP energy -312415.903280 kJ/mol
# GULP energy per Si atom -5578.855416 kJ/mol
# Density = 2.377953 g / cm^3
# Si number density = 23.833774 Si / 1000 Ang^3
#
#
#
# Elastic Constant Matrix: (Units=GPa)
#
#
# Indices 1 2 3 4 5 6 
#
# 1 25.6942 12.5942 -7.0855 0.0000 0.0000 0.0000
# 2 12.5942 82.2217 21.3796 0.0000 0.0000 0.0000
# 3 -7.0855 21.3796 110.1699 0.0000 0.0000 0.0000
# 4 0.0000 0.0000 0.0000 10.1473 0.0000 0.0000
# 5 0.0000 0.0000 0.0000 0.0000 22.8139 0.0000
# 6 0.0000 0.0000 0.0000 0.0000 0.0000 31.3839
#
#
#
# Elastic Compliance Matrix: (Units=1/GPa)
#
#
# Indices 1 2 3 4 5 6 
#
# 1 0.043977 -0.007869 0.004355 0.000000 0.000000 0.000000
# 2 -0.007869 0.014216 -0.003265 0.000000 0.000000 0.000000
# 3 0.004355 -0.003265 0.009991 0.000000 0.000000 0.000000
# 4 0.000000 0.000000 0.000000 0.098548 0.000000 0.000000
# 5 0.000000 0.000000 0.000000 0.000000 0.043833 0.000000
# 6 0.000000 0.000000 0.000000 0.000000 0.000000 0.031863
#
#
# Mechanical properties :
#
#
# Convention : Reuss Voigt Hill
#
# Bulk Modulus (GPa) = 18.30568 30.20693 24.25630
# Shear Modulus (GPa) = 18.23525 25.61553 21.92539
#
# Velocity S-wave (km/s) = 2.76905 3.28191 3.03632
# Velocity P-wave (km/s) = 4.23329 5.20218 4.74254
#
# Compressibility (1/GPa) = 0.05462786
#
# Stress axis : x y z
#
# Youngs Moduli (GPa) = 22.73905 70.34096 100.09419
#
# Poissons Ratio (x) = 0.55349 -0.43595
# Poissons Ratio (y) = 0.17893 0.32680
# Poissons Ratio (z) = -0.09904 0.22966
#
# Static dielectric constant tensor:
#      x y z
#    x 2.110390 0.000000 0.000000 
#    y 0.000000 1.938690 0.000000 
#    z 0.000000 0.000000 1.947520 
# 
# From -- ./inp_files/13520.got.cif
#   From: 2010.05.17/outbox.cif.g08.bks.cpg/sg54_7_cif.got.tgz:13520.got - 2010.06.03 13:09:01.
