data_PCOD9423362
_publ_section_title
;
Structure prediction by ZEFSAII (Michael W. Deem and Ramdas Pophale) SiO2 
 PCOD9423362
Probable space group: P C C A
;
_chemical_formula_sum "Si O2"
_cell_formula_units_Z 40
_cell_length_a 7.199800
_cell_length_b 7.818953
_cell_length_c 28.679140
_cell_angle_alpha 90.000000
_cell_angle_beta 90.000000
_cell_angle_gamma 90.000000
_cell_volume 1614.489256
_symmetry_space_group_name_H-M "P C C A"
_symmetry_group_IT_number 54
_symmetry_cell_setting 'orthorhombic'
loop_
_space_group_symop_operation_xyz
x,y,z
1/2-x,-y,z
1/2+x,-y,1/2-z
-x,y,1/2-z
-x,-y,-z
1/2+x,y,-z
1/2-x,y,1/2+z
x,-y,1/2+z
loop_
_atom_site_type_symbol
_atom_site_label
_atom_site_fract_x
_atom_site_fract_y
_atom_site_fract_z
Si Si1 0.111202 0.281958 0.702158
Si Si2 0.525763 0.340632 0.834753
Si Si3 0.276246 0.795536 0.962291
Si Si4 0.850311 0.178919 0.635412
Si Si5 0.115678 0.662356 0.560810
O O1 0.053516 0.456710 0.674358
O O2 0.332948 0.268334 0.704386
O O3 0.000000 0.284163 0.750000
O O4 0.022613 0.143487 0.668501
O O5 0.310243 0.291570 0.838963
O O6 0.612644 0.286431 0.884821
O O7 0.405095 0.758153 0.916710
O O8 0.105018 0.668045 0.950616
O O9 0.250000 0.000000 0.960356
O O10 0.322643 0.770551 0.016101
O O11 0.750000 0.000000 0.629329
O O12 0.250000 0.500000 0.558320
#
# Coordination Sequence:
#
# PCOD9423362 Si02
#       5
#     8   8   8   8   8
#     4  11  24  43  70  94 123 176 218 278 336 388
#     4  10  24  43  66 102 129 165 225 272 331 393
#     4  10  23  39  62  93 133 180 218 261 334 408
#     4  10  24  45  65  97 136 173 215 273 329 394
#     4  11  21  39  61  97 131 169 219 277 324 395
#
# _framework density 24.775635999999999
#
# number of rings (size 3 to 8) (size 9 to 14) (size 15 to 20)
#    0.000    1.600    2.000    1.800    8.400    4.000 
#    3.600    0.000    0.000    0.000    0.000    0.000 
#    0.000    0.000    0.000    0.000    0.000    0.000 
#
# Total GULP energy -222816.608993 kJ/mol
# GULP energy per Si atom -5570.415225 kJ/mol
# Density = 2.471925 g / cm^3
# Si number density = 24.775636 Si / 1000 Ang^3
#
#
#
# Elastic Constant Matrix: (Units=GPa)
#
#
# Indices 1 2 3 4 5 6 
#
# 1 85.5220 15.1771 38.4843 0.0000 0.0000 0.0000
# 2 15.1771 34.1956 4.0152 0.0000 0.0000 0.0000
# 3 38.4843 4.0152 136.7917 0.0000 0.0000 0.0000
# 4 0.0000 0.0000 0.0000 -5.9692 0.0000 0.0000
# 5 0.0000 0.0000 0.0000 0.0000 13.7361 0.0000
# 6 0.0000 0.0000 0.0000 0.0000 0.0000 19.5707
#
#
#
# Elastic Compliance Matrix: (Units=1/GPa)
#
#
# Indices 1 2 3 4 5 6 
#
# 1 0.014513 -0.005982 -0.003907 0.000000 0.000000 0.000000
# 2 -0.005982 0.031811 0.000749 0.000000 0.000000 0.000000
# 3 -0.003907 0.000749 0.008388 0.000000 0.000000 0.000000
# 4 0.000000 0.000000 0.000000 -0.167527 0.000000 0.000000
# 5 0.000000 0.000000 0.000000 0.000000 0.072801 0.000000
# 6 0.000000 0.000000 0.000000 0.000000 0.000000 0.051097
#
#
# Mechanical properties :
#
#
# Convention : Reuss Voigt Hill
#
# Bulk Modulus (GPa) = 27.44968 41.31805 34.38387
# Shear Modulus (GPa) = 120.46215 18.72304 69.59259
#
# Velocity S-wave (km/s) = 6.98046 2.75199 5.30567
# Velocity P-wave (km/s) = 8.72195 5.17794 7.17229
#
# Compressibility (1/GPa) = 0.03643030
#
# Stress axis : x y z
#
# Youngs Moduli (GPa) = 68.90433 31.43589 119.22262
#
# Poissons Ratio (x) = 0.18806 0.46585
# Poissons Ratio (y) = 0.41222 -0.08934
# Poissons Ratio (z) = 0.26924 -0.02356
#
# Static dielectric constant tensor:
#      x y z
#    x 1.995460 0.000000 0.000000 
#    y 0.000000 2.034730 0.000000 
#    z 0.000000 0.000000 1.997040 
# 
# From -- ./inp_files/27569.got.cif
#   From: 2010.05.17/outbox.cif.g08.bks.cpg/sg54_14_cif.got.tgz:27569.got - 2010.06.03 13:09:01.
