data_PCOD9423534
_publ_section_title
;
Structure prediction by ZEFSAII (Michael W. Deem and Ramdas Pophale) SiO2 
 PCOD9423534
Probable space group: P C C A
;
_chemical_formula_sum "Si O2"
_cell_formula_units_Z 56
_cell_length_a 16.060796
_cell_length_b 7.636944
_cell_length_c 18.686269
_cell_angle_alpha 90.000000
_cell_angle_beta 90.000000
_cell_angle_gamma 90.000000
_cell_volume 2291.971792
_symmetry_space_group_name_H-M "P C C A"
_symmetry_group_IT_number 54
_symmetry_cell_setting 'orthorhombic'
loop_
_space_group_symop_operation_xyz
x,y,z
1/2-x,-y,z
1/2+x,-y,1/2-z
-x,y,1/2-z
-x,-y,-z
1/2+x,y,-z
1/2-x,y,1/2+z
x,-y,1/2+z
loop_
_atom_site_type_symbol
_atom_site_label
_atom_site_fract_x
_atom_site_fract_y
_atom_site_fract_z
Si Si1 0.773182 0.801459 0.738104
Si Si2 0.463410 0.766943 0.043314
Si Si3 0.940110 0.105450 0.181591
Si Si4 0.043143 0.615699 0.098575
Si Si5 0.701270 0.164643 0.021358
Si Si6 0.377947 0.293414 0.340215
Si Si7 0.278899 0.697570 0.618639
O O1 0.860011 0.772986 0.698562
O O2 0.696028 0.677805 0.715999
O O3 0.776703 0.798738 0.823722
O O4 0.750000 0.000000 0.718514
O O5 0.516316 0.845376 0.107448
O O6 0.431695 0.576794 0.070885
O O7 0.384019 0.881105 0.020341
O O8 0.514584 0.724348 0.971325
O O9 0.000000 0.120517 0.250000
O O10 0.912206 0.903175 0.173934
O O11 0.122524 0.708030 0.133367
O O12 0.962457 0.597858 0.149648
O O13 0.761359 0.243992 0.961908
O O14 0.750000 0.000000 0.053073
O O15 0.670776 0.291388 0.083974
O O16 0.250000 0.500000 0.625886
#
# Coordination Sequence:
#
# PCOD9423534 Si02
#       7
#     8   8   8   8   8   8   8
#     4  10  24  45  63  95 133 171 223 279 341 409
#     4  10  23  45  62  99 133 173 217 275 342 396
#     4  11  24  41  69  94 135 173 218 277 341 406
#     4  10  24  42  67  94 134 169 227 280 326 412
#     4  11  23  41  68  99 132 167 218 277 331 400
#     4  10  25  44  67  98 128 175 225 275 338 404
#     4  12  25  41  67  96 132 176 224 275 344 400
#
# _framework density 24.433108000000001
#
# number of rings (size 3 to 8) (size 9 to 14) (size 15 to 20)
#    0.000    1.429    1.429    2.571   10.000    2.286 
#    0.000    0.714    0.000    0.000    0.000    0.000 
#    0.000    0.000    0.000    0.000    0.000    0.000 
#
# Total GULP energy -313380.954322 kJ/mol
# GULP energy per Si atom -5596.088470 kJ/mol
# Density = 2.437750 g / cm^3
# Si number density = 24.433108 Si / 1000 Ang^3
#
#
#
# Elastic Constant Matrix: (Units=GPa)
#
#
# Indices 1 2 3 4 5 6 
#
# 1 107.3834 14.6634 32.2598 0.0000 0.0000 0.0000
# 2 14.6634 36.6770 1.0983 0.0000 0.0000 0.0000
# 3 32.2598 1.0983 89.7914 0.0000 0.0000 0.0000
# 4 0.0000 0.0000 0.0000 17.7965 0.0000 0.0000
# 5 0.0000 0.0000 0.0000 0.0000 42.5542 0.0000
# 6 0.0000 0.0000 0.0000 0.0000 0.0000 29.6884
#
#
#
# Elastic Compliance Matrix: (Units=1/GPa)
#
#
# Indices 1 2 3 4 5 6 
#
# 1 0.011082 -0.004313 -0.003929 0.000000 0.000000 0.000000
# 2 -0.004313 0.028953 0.001195 0.000000 0.000000 0.000000
# 3 -0.003929 0.001195 0.012534 0.000000 0.000000 0.000000
# 4 0.000000 0.000000 0.000000 0.056191 0.000000 0.000000
# 5 0.000000 0.000000 0.000000 0.000000 0.023499 0.000000
# 6 0.000000 0.000000 0.000000 0.000000 0.000000 0.033683
#
#
# Mechanical properties :
#
#
# Convention : Reuss Voigt Hill
#
# Bulk Modulus (GPa) = 25.98971 36.65499 31.32235
# Shear Modulus (GPa) = 25.92555 30.39649 28.16102
#
# Velocity S-wave (km/s) = 3.26096 3.53096 3.39864
# Velocity P-wave (km/s) = 4.98384 5.62658 5.31493
#
# Compressibility (1/GPa) = 0.03847677
#
# Stress axis : x y z
#
# Youngs Moduli (GPa) = 90.24007 34.53815 79.78457
#
# Poissons Ratio (x) = 0.14895 0.31344
# Poissons Ratio (y) = 0.38918 -0.09537
# Poissons Ratio (z) = 0.35452 -0.04128
#
# Static dielectric constant tensor:
#      x y z
#    x 1.968740 0.000000 0.000000 
#    y 0.000000 1.948800 0.000000 
#    z 0.000000 0.000000 1.935790 
# 
# From -- ./inp_files/21639.got.cif
#   From: 2010.05.17/outbox.cif.g08.bks.cpg/sg54_11_cif.got.tgz:21639.got - 2010.06.03 13:09:01.
