data_PCOD9423354
_publ_section_title
;
Structure prediction by ZEFSAII (Michael W. Deem and Ramdas Pophale) SiO2 
 PCOD9423354
Probable space group: P C C A
;
_chemical_formula_sum "Si O2"
_cell_formula_units_Z 44
_cell_length_a 7.148575
_cell_length_b 13.908750
_cell_length_c 18.981042
_cell_angle_alpha 90.000000
_cell_angle_beta 90.000000
_cell_angle_gamma 90.000000
_cell_volume 1887.242157
_symmetry_space_group_name_H-M "P C C A"
_symmetry_group_IT_number 54
_symmetry_cell_setting 'orthorhombic'
loop_
_space_group_symop_operation_xyz
x,y,z
1/2-x,-y,z
1/2+x,-y,1/2-z
-x,y,1/2-z
-x,-y,-z
1/2+x,y,-z
1/2-x,y,1/2+z
x,-y,1/2+z
loop_
_atom_site_type_symbol
_atom_site_label
_atom_site_fract_x
_atom_site_fract_y
_atom_site_fract_z
Si Si1 0.806111 0.287880 0.937849
Si Si2 0.938316 0.860466 0.332387
Si Si3 0.490901 0.931766 0.166924
Si Si4 0.622712 0.247681 0.594632
Si Si5 0.401725 0.579148 0.318302
Si Si6 0.250000 0.500000 0.592565
O O1 0.944599 0.232745 0.883572
O O2 0.597454 0.273679 0.909712
O O3 0.821196 0.403609 0.947173
O O4 0.814014 0.240685 0.014571
O O5 0.720493 0.892549 0.340122
O O6 0.000000 0.842423 0.250000
O O7 0.027166 0.960630 0.360479
O O8 0.500000 0.942754 0.250000
O O9 0.628502 0.850812 0.137372
O O10 0.699082 0.339299 0.636302
O O11 0.250000 0.500000 0.296913
O O12 0.500000 0.624958 0.250000
O O13 0.570466 0.530026 0.361221
#
# Coordination Sequence:
#
# PCOD9423354 Si02
#       6
#     8   8   8   8   8   4
#     4  10  23  39  57  86 123 163 208 257 318 388
#     4   9  19  37  61  90 119 160 209 259 320 385
#     4   9  18  37  61  87 124 158 201 265 322 383
#     4  10  23  38  58  88 122 163 207 260 323 386
#     4  11  23  41  65  91 122 165 213 269 326 386
#     4  10  24  42  58  92 128 158 218 270 312 378
#
# _framework density 23.314444000000002
#
# number of rings (size 3 to 8) (size 9 to 14) (size 15 to 20)
#    0.000    2.182    0.909    0.545    3.818    4.364 
#    3.273    0.000    0.000    0.000    0.000    0.000 
#    0.000    0.000    0.000    0.000    0.000    0.000 
#
# Total GULP energy -245518.874067 kJ/mol
# GULP energy per Si atom -5579.974411 kJ/mol
# Density = 2.326138 g / cm^3
# Si number density = 23.314444 Si / 1000 Ang^3
#
#
#
# Elastic Constant Matrix: (Units=GPa)
#
#
# Indices 1 2 3 4 5 6 
#
# 1 47.4637 31.6462 1.2185 0.0000 0.0000 0.0000
# 2 31.6462 135.5060 43.8509 0.0000 0.0000 0.0000
# 3 1.2185 43.8509 77.3100 0.0000 0.0000 0.0000
# 4 0.0000 0.0000 0.0000 185.6162 0.0000 0.0000
# 5 0.0000 0.0000 0.0000 0.0000 73.8487 0.0000
# 6 0.0000 0.0000 0.0000 0.0000 0.0000 75.6380
#
#
#
# Elastic Compliance Matrix: (Units=1/GPa)
#
#
# Indices 1 2 3 4 5 6 
#
# 1 0.025784 -0.007214 0.003686 0.000000 0.000000 0.000000
# 2 -0.007214 0.011057 -0.006158 0.000000 0.000000 0.000000
# 3 0.003686 -0.006158 0.016370 0.000000 0.000000 0.000000
# 4 0.000000 0.000000 0.000000 0.005387 0.000000 0.000000
# 5 0.000000 0.000000 0.000000 0.000000 0.013541 0.000000
# 6 0.000000 0.000000 0.000000 0.000000 0.000000 0.013221
#
#
# Mechanical properties :
#
#
# Convention : Reuss Voigt Hill
#
# Bulk Modulus (GPa) = 29.55280 45.96789 37.76034
# Shear Modulus (GPa) = 43.09822 79.25818 61.17820
#
# Velocity S-wave (km/s) = 4.30416 5.83688 5.12810
# Velocity P-wave (km/s) = 6.11590 8.07371 7.16202
#
# Compressibility (1/GPa) = 0.03383774
#
# Stress axis : x y z
#
# Youngs Moduli (GPa) = 38.78332 90.43685 61.08807
#
# Poissons Ratio (x) = 0.65245 -0.22515
# Poissons Ratio (y) = 0.27980 0.37619
# Poissons Ratio (z) = -0.14294 0.55693
#
# Static dielectric constant tensor:
#      x y z
#    x 1.906830 0.000000 0.000000 
#    y 0.000000 1.930930 0.000000 
#    z 0.000000 0.000000 1.844890 
# 
# From -- ./inp_files/16554.got.cif
#   From: 2010.05.17/outbox.cif.g08.bks.cpg/sg54_9_cif.got.tgz:16554.got - 2010.06.03 13:09:01.
