data_PCOD9423675
_publ_section_title
;
Structure prediction by ZEFSAII (Michael W. Deem and Ramdas Pophale) SiO2 
 PCOD9423675
Probable space group: P C C A
;
_chemical_formula_sum "Si O2"
_cell_formula_units_Z 36
_cell_length_a 11.681729
_cell_length_b 11.188419
_cell_length_c 13.082784
_cell_angle_alpha 90.000000
_cell_angle_beta 90.000000
_cell_angle_gamma 90.000000
_cell_volume 1709.920898
_symmetry_space_group_name_H-M "P C C A"
_symmetry_group_IT_number 54
_symmetry_cell_setting 'orthorhombic'
loop_
_space_group_symop_operation_xyz
x,y,z
1/2-x,-y,z
1/2+x,-y,1/2-z
-x,y,1/2-z
-x,-y,-z
1/2+x,y,-z
1/2-x,y,1/2+z
x,-y,1/2+z
loop_
_atom_site_type_symbol
_atom_site_label
_atom_site_fract_x
_atom_site_fract_y
_atom_site_fract_z
Si Si1 0.585056 0.711384 0.889469
Si Si2 0.500000 0.852064 0.250000
Si Si3 0.364347 0.613773 0.811639
Si Si4 0.114479 0.014301 0.575561
Si Si5 0.616184 0.354571 0.618147
O O1 0.456909 0.707469 0.847842
O O2 0.658365 0.635505 0.807989
O O3 0.619804 0.847669 0.893195
O O4 0.582518 0.655383 0.001054
O O5 0.428313 0.760559 0.321166
O O6 0.579830 0.931464 0.326318
O O7 0.252304 0.638641 0.874981
O O8 0.415250 0.482936 0.834025
O O9 0.250000 0.000000 0.538534
O O10 0.000000 0.000000 0.500000
#
# Coordination Sequence:
#
# PCOD9423675 Si02
#       5
#     8   4   8   8   8
#     4  11  23  45  67  96 141 186 235 290 355 420
#     4  12  24  46  70 106 142 180 252 290 360 426
#     4  10  24  42  68 104 139 185 233 290 361 426
#     4  12  28  47  74 106 144 198 243 303 362 433
#     4  11  24  41  71 102 139 186 229 296 351 436
#
# _framework density 21.053605999999998
#
# number of rings (size 3 to 8) (size 9 to 14) (size 15 to 20)
#    0.000    0.889    2.222    4.667    3.111    6.222 
#    0.000    0.000    0.000    0.000    0.000    0.000 
#    0.000    0.000    0.000    0.000    0.000    0.000 
#
# Total GULP energy -200596.548284 kJ/mol
# GULP energy per Si atom -5572.126341 kJ/mol
# Density = 2.100569 g / cm^3
# Si number density = 21.053606 Si / 1000 Ang^3
#
#
#
# Elastic Constant Matrix: (Units=GPa)
#
#
# Indices 1 2 3 4 5 6 
#
# 1 105.8435 12.0215 27.9471 0.0000 0.0000 0.0000
# 2 12.0215 136.1686 46.2581 0.0000 0.0000 0.0000
# 3 27.9471 46.2581 148.2582 0.0000 0.0000 0.0000
# 4 0.0000 0.0000 0.0000 30.1723 0.0000 0.0000
# 5 0.0000 0.0000 0.0000 0.0000 52.8293 0.0000
# 6 0.0000 0.0000 0.0000 0.0000 0.0000 38.7250
#
#
#
# Elastic Compliance Matrix: (Units=1/GPa)
#
#
# Indices 1 2 3 4 5 6 
#
# 1 0.009952 -0.000270 -0.001792 0.000000 0.000000 0.000000
# 2 -0.000270 0.008222 -0.002514 0.000000 0.000000 0.000000
# 3 -0.001792 -0.002514 0.007867 0.000000 0.000000 0.000000
# 4 0.000000 0.000000 0.000000 0.033143 0.000000 0.000000
# 5 0.000000 0.000000 0.000000 0.000000 0.018929 0.000000
# 6 0.000000 0.000000 0.000000 0.000000 0.000000 0.025823
#
#
# Mechanical properties :
#
#
# Convention : Reuss Voigt Hill
#
# Bulk Modulus (GPa) = 59.21125 62.52487 60.86806
# Shear Modulus (GPa) = 42.11686 44.61491 43.36589
#
# Velocity S-wave (km/s) = 4.47750 4.60837 4.54341
# Velocity P-wave (km/s) = 7.41052 7.62093 7.51646
#
# Compressibility (1/GPa) = 0.01688868
#
# Stress axis : x y z
#
# Youngs Moduli (GPa) = 100.48588 121.62720 127.10914
#
# Poissons Ratio (x) = 0.03283 0.22774
# Poissons Ratio (y) = 0.02712 0.31961
# Poissons Ratio (z) = 0.18004 0.30582
#
# Static dielectric constant tensor:
#      x y z
#    x 1.826380 0.000000 0.000000 
#    y 0.000000 1.796180 0.000000 
#    z 0.000000 0.000000 1.879670 
# 
# From -- ./inp_files/7411.got.cif
#   From: 2010.05.17/outbox.cif.g08.bks.cpg/sg54_4_cif.got.tgz:7411.got - 2010.06.03 13:09:01.
