data_PCOD9423115
_publ_section_title
;
Structure prediction by ZEFSAII (Michael W. Deem and Ramdas Pophale) SiO2 
 PCOD9423115
Probable space group: P C C A
;
_chemical_formula_sum "Si O2"
_cell_formula_units_Z 40
_cell_length_a 5.092064
_cell_length_b 28.137094
_cell_length_c 10.337168
_cell_angle_alpha 90.000000
_cell_angle_beta 90.000000
_cell_angle_gamma 90.000000
_cell_volume 1481.066877
_symmetry_space_group_name_H-M "P C C A"
_symmetry_group_IT_number 54
_symmetry_cell_setting 'orthorhombic'
loop_
_space_group_symop_operation_xyz
x,y,z
1/2-x,-y,z
1/2+x,-y,1/2-z
-x,y,1/2-z
-x,-y,-z
1/2+x,y,-z
1/2-x,y,1/2+z
x,-y,1/2+z
loop_
_atom_site_type_symbol
_atom_site_label
_atom_site_fract_x
_atom_site_fract_y
_atom_site_fract_z
Si Si1 0.400908 0.539277 0.882603
Si Si2 0.225982 0.214657 0.086105
Si Si3 0.500000 0.029107 0.250000
Si Si4 0.675955 0.639182 0.064068
Si Si5 0.873150 0.885220 0.418457
Si Si6 0.500000 0.294352 0.250000
O O1 0.250000 0.500000 0.798938
O O2 0.500000 0.566943 0.750000
O O3 0.218446 0.581789 0.937097
O O4 0.500000 0.500000 0.000000
O O5 0.285716 0.163503 0.150883
O O6 0.314637 0.258405 0.171078
O O7 0.428839 0.216695 0.964127
O O8 0.649652 0.065204 0.346255
O O9 0.250000 0.000000 0.306669
O O10 0.814566 0.671533 0.167419
O O11 0.370440 0.649779 0.056379
O O12 0.675504 0.883873 0.539287
#
# Coordination Sequence:
#
# PCOD9423115 Si02
#       6
#     8   8   4   8   8   4
#     4  12  25  45  73 103 138 182 233 283 339 410
#     4  10  23  43  69 100 131 174 228 278 343 417
#     4  12  25  38  60  96 134 178 233 282 342 406
#     4  12  28  47  68 102 136 178 222 273 338 411
#     4  10  22  42  65  92 131 178 227 281 342 409
#     4  12  25  46  72 100 142 172 219 284 354 402
#
# _framework density 27.007559000000001
#
# number of rings (size 3 to 8) (size 9 to 14) (size 15 to 20)
#    0.000    0.800    3.000    3.600    0.000    5.600 
#    0.000    6.000    0.000    0.000    0.000    0.000 
#    0.000    0.000    0.000    0.000    0.000    0.000 
#
# Total GULP energy -222685.887868 kJ/mol
# GULP energy per Si atom -5567.147197 kJ/mol
# Density = 2.694609 g / cm^3
# Si number density = 27.007559 Si / 1000 Ang^3
#
#
#
# Elastic Constant Matrix: (Units=GPa)
#
#
# Indices 1 2 3 4 5 6 
#
# 1 102.3288 21.6735 12.9339 0.0000 0.0000 0.0000
# 2 21.6735 201.3079 33.6169 0.0000 0.0000 0.0000
# 3 12.9339 33.6169 63.6041 0.0000 0.0000 0.0000
# 4 0.0000 0.0000 0.0000 -7.2358 0.0000 0.0000
# 5 0.0000 0.0000 0.0000 0.0000 27.9275 0.0000
# 6 0.0000 0.0000 0.0000 0.0000 0.0000 24.4090
#
#
#
# Elastic Compliance Matrix: (Units=1/GPa)
#
#
# Indices 1 2 3 4 5 6 
#
# 1 0.010152 -0.000821 -0.001631 0.000000 0.000000 0.000000
# 2 -0.000821 0.005515 -0.002748 0.000000 0.000000 0.000000
# 3 -0.001631 -0.002748 0.017506 0.000000 0.000000 0.000000
# 4 0.000000 0.000000 0.000000 -0.138202 0.000000 0.000000
# 5 0.000000 0.000000 0.000000 0.000000 0.035807 0.000000
# 6 0.000000 0.000000 0.000000 0.000000 0.000000 0.040968
#
#
# Mechanical properties :
#
#
# Convention : Reuss Voigt Hill
#
# Bulk Modulus (GPa) = 43.90825 55.96549 49.93687
# Shear Modulus (GPa) = -487.18728 28.95457 -229.11635
#
# Velocity S-wave (km/s) = -13.44548 3.27783 -9.22054
# Velocity P-wave (km/s) = 14.99160 5.92391 9.73795
#
# Compressibility (1/GPa) = 0.02277477
#
# Stress axis : x y z
#
# Youngs Moduli (GPa) = 98.49926 181.33203 57.12267
#
# Poissons Ratio (x) = 0.14882 0.09315
# Poissons Ratio (y) = 0.08084 0.15696
# Poissons Ratio (z) = 0.16062 0.49827
#
# Static dielectric constant tensor:
#      x y z
#    x 2.525200 0.000000 0.000000 
#    y 0.000000 2.112840 0.000000 
#    z 0.000000 0.000000 2.264290 
# 
# From -- ./inp_files/6460.got.cif
#   From: 2010.05.17/outbox.cif.g08.bks.cpg/sg54_4_cif.got.tgz:6460.got - 2010.06.03 13:09:01.
