data_PCOD9423728
_publ_section_title
;
Structure prediction by ZEFSAII (Michael W. Deem and Ramdas Pophale) SiO2 
 PCOD9423728
Probable space group: P C C A
;
_chemical_formula_sum "Si O2"
_cell_formula_units_Z 36
_cell_length_a 8.235548
_cell_length_b 14.242402
_cell_length_c 14.077366
_cell_angle_alpha 90.000000
_cell_angle_beta 90.000000
_cell_angle_gamma 90.000000
_cell_volume 1651.190361
_symmetry_space_group_name_H-M "P C C A"
_symmetry_group_IT_number 54
_symmetry_cell_setting 'orthorhombic'
loop_
_space_group_symop_operation_xyz
x,y,z
1/2-x,-y,z
1/2+x,-y,1/2-z
-x,y,1/2-z
-x,-y,-z
1/2+x,y,-z
1/2-x,y,1/2+z
x,-y,1/2+z
loop_
_atom_site_type_symbol
_atom_site_label
_atom_site_fract_x
_atom_site_fract_y
_atom_site_fract_z
Si Si1 0.750000 0.000000 0.995334
Si Si2 0.112454 0.688269 0.376076
Si Si3 0.316843 0.606333 0.215887
Si Si4 0.492915 0.899599 0.635141
Si Si5 0.693647 0.393928 0.473769
O O1 0.672877 0.924754 0.921133
O O2 0.878585 0.955555 0.069151
O O3 0.182328 0.663342 0.273427
O O4 0.274548 0.673578 0.438955
O O5 0.036977 0.790488 0.375830
O O6 0.980663 0.616955 0.422910
O O7 0.250000 0.500000 0.218605
O O8 0.500000 0.609464 0.250000
O O9 0.316226 0.638566 0.107997
O O10 0.500000 0.921947 0.750000
O O11 0.750000 0.500000 0.498868
#
# Coordination Sequence:
#
# PCOD9423728 Si02
#       5
#     4   8   8   8   8
#     4  10  24  44  68  94 126 164 204 258 332 394
#     4  12  23  39  62  91 123 161 211 261 309 370
#     4  11  22  38  58  85 123 169 213 256 308 366
#     4  11  23  43  68  96 127 163 208 263 321 387
#     4  11  22  37  57  86 125 168 208 254 308 363
#
# _framework density 21.802454000000001
#
# number of rings (size 3 to 8) (size 9 to 14) (size 15 to 20)
#    0.000    0.889    0.000    9.333    0.000    0.000 
#    0.000    3.333    0.000    0.000    0.000    0.000 
#    0.000    0.000    0.000    0.000    0.000    0.000 
#
# Total GULP energy -200909.207011 kJ/mol
# GULP energy per Si atom -5580.811306 kJ/mol
# Density = 2.175283 g / cm^3
# Si number density = 21.802454 Si / 1000 Ang^3
#
#
#
# Elastic Constant Matrix: (Units=GPa)
#
#
# Indices 1 2 3 4 5 6 
#
# 1 93.2514 19.4762 27.8686 0.0000 0.0000 0.0000
# 2 19.4762 94.1017 44.1835 0.0000 0.0000 0.0000
# 3 27.8686 44.1835 150.3334 0.0000 0.0000 0.0000
# 4 0.0000 0.0000 0.0000 0.3470 0.0000 0.0000
# 5 0.0000 0.0000 0.0000 0.0000 33.2183 0.0000
# 6 0.0000 0.0000 0.0000 0.0000 0.0000 23.1323
#
#
#
# Elastic Compliance Matrix: (Units=1/GPa)
#
#
# Indices 1 2 3 4 5 6 
#
# 1 0.011559 -0.001608 -0.001670 0.000000 0.000000 0.000000
# 2 -0.001608 0.012552 -0.003391 0.000000 0.000000 0.000000
# 3 -0.001670 -0.003391 0.007958 0.000000 0.000000 0.000000
# 4 0.000000 0.000000 0.000000 2.881459 0.000000 0.000000
# 5 0.000000 0.000000 0.000000 0.000000 0.030104 0.000000
# 6 0.000000 0.000000 0.000000 0.000000 0.000000 0.043230
#
#
# Mechanical properties :
#
#
# Convention : Reuss Voigt Hill
#
# Bulk Modulus (GPa) = 53.38952 57.86035 55.62493
# Shear Modulus (GPa) = 1.66309 27.75007 14.70658
#
# Velocity S-wave (km/s) = 0.87433 3.57150 2.60000
# Velocity P-wave (km/s) = 5.05572 6.60330 5.88064
#
# Compressibility (1/GPa) = 0.01873027
#
# Stress axis : x y z
#
# Youngs Moduli (GPa) = 86.51507 79.67007 125.65844
#
# Poissons Ratio (x) = 0.12812 0.20986
# Poissons Ratio (y) = 0.13913 0.42609
# Poissons Ratio (z) = 0.14449 0.27015
#
# Static dielectric constant tensor:
#      x y z
#    x 1.867600 0.000000 0.000000 
#    y 0.000000 1.767390 0.000000 
#    z 0.000000 0.000000 1.872970 
# 
# From -- ./inp_files/11414.got.cif
#   From: 2010.05.17/outbox.cif.g08.bks.cpg/sg54_6_cif.got.tgz:11414.got - 2010.06.03 13:09:01.
