data_PCOD9423866
_publ_section_title
;
Structure prediction by ZEFSAII (Michael W. Deem and Ramdas Pophale) SiO2 
 PCOD9423866
Probable space group: P C C A
;
_chemical_formula_sum "Si O2"
_cell_formula_units_Z 40
_cell_length_a 14.888217
_cell_length_b 8.763946
_cell_length_c 14.803897
_cell_angle_alpha 90.000000
_cell_angle_beta 90.000000
_cell_angle_gamma 90.000000
_cell_volume 1931.605520
_symmetry_space_group_name_H-M "P C C A"
_symmetry_group_IT_number 54
_symmetry_cell_setting 'orthorhombic'
loop_
_space_group_symop_operation_xyz
x,y,z
1/2-x,-y,z
1/2+x,-y,1/2-z
-x,y,1/2-z
-x,-y,-z
1/2+x,y,-z
1/2-x,y,1/2+z
x,-y,1/2+z
loop_
_atom_site_type_symbol
_atom_site_label
_atom_site_fract_x
_atom_site_fract_y
_atom_site_fract_z
Si Si1 0.868550 0.824379 0.394088
Si Si2 0.233074 0.680250 0.463618
Si Si3 0.524195 0.323065 0.999218
Si Si4 0.743986 0.185070 0.732776
Si Si5 0.565522 0.143830 0.830604
O O1 0.795133 0.778161 0.468998
O O2 0.826494 0.773308 0.298673
O O3 0.960906 0.750562 0.425803
O O4 0.890790 0.002524 0.384087
O O5 0.250000 0.500000 0.477185
O O6 0.128280 0.705262 0.481307
O O7 0.253337 0.731430 0.362039
O O8 0.510642 0.247454 0.900701
O O9 0.500000 0.500000 0.000000
O O10 0.651278 0.223449 0.784307
O O11 0.750000 0.000000 0.720178
O O12 0.500000 0.090621 0.750000
#
# Coordination Sequence:
#
# PCOD9423866 Si02
#       5
#     8   8   8   8   8
#     4  11  25  48  69 103 139 187 238 297 359 422
#     4  12  26  45  70 103 145 191 234 293 365 432
#     4  12  26  44  71 102 143 193 237 290 369 440
#     4  10  25  43  71 100 138 181 239 297 356 416
#     4  11  25  46  73 106 138 185 244 305 357 428
#
# _framework density 20.708162999999999
#
# number of rings (size 3 to 8) (size 9 to 14) (size 15 to 20)
#    0.000    0.800    4.000    1.800    8.400    2.400 
#    0.000    0.000    0.000    0.000    0.000    0.000 
#    0.000    0.000    0.000    0.000    0.000    0.000 
#
# Total GULP energy -223698.703981 kJ/mol
# GULP energy per Si atom -5592.467600 kJ/mol
# Density = 2.066103 g / cm^3
# Si number density = 20.708163 Si / 1000 Ang^3
#
#
#
# Elastic Constant Matrix: (Units=GPa)
#
#
# Indices 1 2 3 4 5 6 
#
# 1 124.1664 41.1858 39.2595 0.0000 0.0000 0.0000
# 2 41.1858 87.0211 74.3033 0.0000 0.0000 0.0000
# 3 39.2595 74.3033 128.7259 0.0000 0.0000 0.0000
# 4 0.0000 0.0000 0.0000 -4.2476 0.0000 0.0000
# 5 0.0000 0.0000 0.0000 0.0000 41.2552 0.0000
# 6 0.0000 0.0000 0.0000 0.0000 0.0000 35.6091
#
#
#
# Elastic Compliance Matrix: (Units=1/GPa)
#
#
# Indices 1 2 3 4 5 6 
#
# 1 0.009577 -0.004020 -0.000600 0.000000 0.000000 0.000000
# 2 -0.004020 0.024347 -0.012827 0.000000 0.000000 0.000000
# 3 -0.000600 -0.012827 0.015356 0.000000 0.000000 0.000000
# 4 0.000000 0.000000 0.000000 -0.235428 0.000000 0.000000
# 5 0.000000 0.000000 0.000000 0.000000 0.024239 0.000000
# 6 0.000000 0.000000 0.000000 0.000000 0.000000 0.028083
#
#
# Mechanical properties :
#
#
# Convention : Reuss Voigt Hill
#
# Bulk Modulus (GPa) = 69.52203 72.15674 70.83938
# Shear Modulus (GPa) = -53.11456 26.86767 -13.12345
#
# Velocity S-wave (km/s) = -5.06999 3.60591 -2.52014
# Velocity P-wave (km/s) = 0.79238 7.22890 5.08080
#
# Compressibility (1/GPa) = 0.01438393
#
# Stress axis : x y z
#
# Youngs Moduli (GPa) = 104.41724 41.07315 65.12179
#
# Poissons Ratio (x) = 0.16511 0.03910
# Poissons Ratio (y) = 0.41975 0.83535
# Poissons Ratio (z) = 0.06270 0.52686
#
# Static dielectric constant tensor:
#      x y z
#    x 1.807540 0.000000 0.000000 
#    y 0.000000 1.774460 0.000000 
#    z 0.000000 0.000000 1.757390 
# 
# From -- ./inp_files/13172.got.cif
#   From: 2010.05.17/outbox.cif.g08.bks.cpg/sg54_7_cif.got.tgz:13172.got - 2010.06.03 13:09:01.
