data_PCOD9423418
_publ_section_title
;
Structure prediction by ZEFSAII (Michael W. Deem and Ramdas Pophale) SiO2 
 PCOD9423418
Probable space group: P C C A
;
_chemical_formula_sum "Si O2"
_cell_formula_units_Z 48
_cell_length_a 18.063782
_cell_length_b 10.093873
_cell_length_c 13.134006
_cell_angle_alpha 90.000000
_cell_angle_beta 90.000000
_cell_angle_gamma 90.000000
_cell_volume 2394.769564
_symmetry_space_group_name_H-M "P C C A"
_symmetry_group_IT_number 54
_symmetry_cell_setting 'orthorhombic'
loop_
_space_group_symop_operation_xyz
x,y,z
1/2-x,-y,z
1/2+x,-y,1/2-z
-x,y,1/2-z
-x,-y,-z
1/2+x,y,-z
1/2-x,y,1/2+z
x,-y,1/2+z
loop_
_atom_site_type_symbol
_atom_site_label
_atom_site_fract_x
_atom_site_fract_y
_atom_site_fract_z
Si Si1 0.147719 0.711792 0.345996
Si Si2 0.512698 0.099418 0.127586
Si Si3 0.133801 0.734573 0.103795
Si Si4 0.921443 0.541279 0.544744
Si Si5 0.711699 0.858355 0.082862
Si Si6 0.447099 0.819129 0.346681
O O1 0.089588 0.822612 0.386911
O O2 0.148935 0.719873 0.223083
O O3 0.116867 0.572676 0.388698
O O4 0.229194 0.748229 0.383901
O O5 0.500000 0.090623 0.250000
O O6 0.445565 0.192204 0.093286
O O7 0.516674 0.945446 0.095251
O O8 0.128678 0.592123 0.049022
O O9 0.186532 0.822610 0.032119
O O10 0.938955 0.673801 0.607416
O O11 0.000000 0.500000 0.500000
O O12 0.639728 0.860584 0.156858
O O13 0.750000 0.000000 0.086929
O O14 0.500000 0.804328 0.250000
#
# Coordination Sequence:
#
# PCOD9423418 Si02
#       6
#     8   8   8   8   8   8
#     4  11  23  45  71  94 143 184 224 292 359 411
#     4   9  18  39  68  94 126 176 225 280 341 407
#     4  10  24  43  67 100 136 183 231 281 360 418
#     4  11  24  40  68 102 132 178 236 285 344 425
#     4  11  24  45  68 106 141 183 237 297 353 426
#     4  10  23  41  67 101 136 177 236 283 347 418
#
# _framework density 20.043682
#
# number of rings (size 3 to 8) (size 9 to 14) (size 15 to 20)
#    0.000    1.667    3.333    0.000    2.333    7.333 
#    3.000    3.333    0.000    0.000    0.000    0.000 
#    0.000    0.000    0.000    0.000    0.000    0.000 
#
# Total GULP energy -267626.114711 kJ/mol
# GULP energy per Si atom -5575.544056 kJ/mol
# Density = 1.999806 g / cm^3
# Si number density = 20.043682 Si / 1000 Ang^3
#
#
#
# Elastic Constant Matrix: (Units=GPa)
#
#
# Indices 1 2 3 4 5 6 
#
# 1 125.3687 45.8618 58.7594 0.0000 0.0000 0.0000
# 2 45.8618 125.6114 42.6704 0.0000 0.0000 0.0000
# 3 58.7594 42.6704 103.8218 0.0000 0.0000 0.0000
# 4 0.0000 0.0000 0.0000 20.3032 0.0000 0.0000
# 5 0.0000 0.0000 0.0000 0.0000 39.6694 0.0000
# 6 0.0000 0.0000 0.0000 0.0000 0.0000 32.8655
#
#
#
# Elastic Compliance Matrix: (Units=1/GPa)
#
#
# Indices 1 2 3 4 5 6 
#
# 1 0.011396 -0.002289 -0.005509 0.000000 0.000000 0.000000
# 2 -0.002289 0.009713 -0.002696 0.000000 0.000000 0.000000
# 3 -0.005509 -0.002696 0.013858 0.000000 0.000000 0.000000
# 4 0.000000 0.000000 0.000000 0.049253 0.000000 0.000000
# 5 0.000000 0.000000 0.000000 0.000000 0.025208 0.000000
# 6 0.000000 0.000000 0.000000 0.000000 0.000000 0.030427
#
#
# Mechanical properties :
#
#
# Convention : Reuss Voigt Hill
#
# Bulk Modulus (GPa) = 71.54208 72.15390 71.84799
# Shear Modulus (GPa) = 30.21091 32.40163 31.30627
#
# Velocity S-wave (km/s) = 3.88655 4.02500 3.95638
# Velocity P-wave (km/s) = 7.47736 7.59456 7.53619
#
# Compressibility (1/GPa) = 0.01397779
#
# Stress axis : x y z
#
# Youngs Moduli (GPa) = 87.75113 102.95626 72.16178
#
# Poissons Ratio (x) = 0.23571 0.39752
# Poissons Ratio (y) = 0.20090 0.19456
# Poissons Ratio (z) = 0.48339 0.27759
#
# Static dielectric constant tensor:
#      x y z
#    x 1.700570 0.000000 0.000000 
#    y 0.000000 1.714040 0.000000 
#    z 0.000000 0.000000 1.787240 
# 
# From -- ./inp_files/14071.got.cif
#   From: 2010.05.17/outbox.cif.g08.bks.cpg/sg54_8_cif.got.tgz:14071.got - 2010.06.03 13:09:01.
