data_PCOD9423089
_publ_section_title
;
Structure prediction by ZEFSAII (Michael W. Deem and Ramdas Pophale) SiO2 
 PCOD9423089
Probable space group: P C C A
;
_chemical_formula_sum "Si O2"
_cell_formula_units_Z 56
_cell_length_a 11.338978
_cell_length_b 12.544996
_cell_length_c 21.936272
_cell_angle_alpha 90.000000
_cell_angle_beta 90.000000
_cell_angle_gamma 90.000000
_cell_volume 3120.378396
_symmetry_space_group_name_H-M "P C C A"
_symmetry_group_IT_number 54
_symmetry_cell_setting 'orthorhombic'
loop_
_space_group_symop_operation_xyz
x,y,z
1/2-x,-y,z
1/2+x,-y,1/2-z
-x,y,1/2-z
-x,-y,-z
1/2+x,y,-z
1/2-x,y,1/2+z
x,-y,1/2+z
loop_
_atom_site_type_symbol
_atom_site_label
_atom_site_fract_x
_atom_site_fract_y
_atom_site_fract_z
Si Si1 0.018411 0.509750 0.321060
Si Si2 0.392594 0.134099 0.204217
Si Si3 0.659425 0.669084 0.883307
Si Si4 0.250000 0.000000 0.795232
Si Si5 0.995153 0.920367 0.677219
Si Si6 0.564581 0.301257 0.879352
Si Si7 0.073903 0.608950 0.985536
Si Si8 0.750000 0.500000 0.605686
O O1 0.144530 0.543131 0.350638
O O2 0.000000 0.529655 0.250000
O O3 0.913288 0.571673 0.354508
O O4 0.004007 0.384552 0.335824
O O5 0.500000 0.161871 0.250000
O O6 0.371247 0.227485 0.157000
O O7 0.290110 0.096509 0.250469
O O8 0.427076 0.026045 0.168749
O O9 0.799933 0.663281 0.879285
O O10 0.619275 0.664954 0.953531
O O11 0.360390 0.042882 0.833527
O O12 0.041974 0.818306 0.642498
O O13 0.000000 0.898510 0.750000
O O14 0.512787 0.317924 0.946504
O O15 0.182739 0.579420 0.940724
O O16 0.000000 0.500000 0.000000
#
# Coordination Sequence:
#
# PCOD9423089 Si02
#       8
#     8   8   8   4   8   8   8   4
#     4  11  25  39  58  93 123 158 197 258 323 363
#     4   9  19  36  58  90 119 157 196 245 307 363
#     4  12  22  38  62  86 122 159 207 248 298 370
#     4   8  16  36  62  84 128 158 198 252 308 382
#     4   9  18  37  59  90 120 155 199 243 316 363
#     4  11  23  38  62  88 116 159 206 250 297 374
#     4  11  22  42  60  84 118 171 211 243 301 355
#     4  10  22  42  58  80 124 162 202 254 294 378
#
# _framework density 17.946542000000001
#
# number of rings (size 3 to 8) (size 9 to 14) (size 15 to 20)
#    0.000    2.000    2.857    3.857    2.000    0.000 
#   12.857    0.714    0.000    0.857    0.000    0.000 
#    0.000    0.000    0.000    0.000    0.000    0.000 
#
# Total GULP energy -312191.169171 kJ/mol
# GULP energy per Si atom -5574.842307 kJ/mol
# Density = 1.790569 g / cm^3
# Si number density = 17.946542 Si / 1000 Ang^3
#
#
#
# Elastic Constant Matrix: (Units=GPa)
#
#
# Indices 1 2 3 4 5 6 
#
# 1 106.0914 25.4852 28.7212 0.0000 0.0000 0.0000
# 2 25.4852 79.7240 28.3564 0.0000 0.0000 0.0000
# 3 28.7212 28.3564 102.7985 0.0000 0.0000 0.0000
# 4 0.0000 0.0000 0.0000 13.4045 0.0000 0.0000
# 5 0.0000 0.0000 0.0000 0.0000 15.6944 0.0000
# 6 0.0000 0.0000 0.0000 0.0000 0.0000 17.6093
#
#
#
# Elastic Compliance Matrix: (Units=1/GPa)
#
#
# Indices 1 2 3 4 5 6 
#
# 1 0.010664 -0.002605 -0.002261 0.000000 0.000000 0.000000
# 2 -0.002605 0.014544 -0.003284 0.000000 0.000000 0.000000
# 3 -0.002261 -0.003284 0.011265 0.000000 0.000000 0.000000
# 4 0.000000 0.000000 0.000000 0.074602 0.000000 0.000000
# 5 0.000000 0.000000 0.000000 0.000000 0.063717 0.000000
# 6 0.000000 0.000000 0.000000 0.000000 0.000000 0.056788
#
#
# Mechanical properties :
#
#
# Convention : Reuss Voigt Hill
#
# Bulk Modulus (GPa) = 49.56970 50.41548 49.99259
# Shear Modulus (GPa) = 19.63834 23.07838 21.35836
#
# Velocity S-wave (km/s) = 3.31156 3.58991 3.45354
# Velocity P-wave (km/s) = 6.50405 6.73322 6.61963
#
# Compressibility (1/GPa) = 0.02017361
#
# Stress axis : x y z
#
# Youngs Moduli (GPa) = 93.77710 68.75683 88.76776
#
# Poissons Ratio (x) = 0.17909 0.20069
# Poissons Ratio (y) = 0.24426 0.29153
# Poissons Ratio (z) = 0.21202 0.22581
#
# Static dielectric constant tensor:
#      x y z
#    x 1.667820 0.000000 0.000000 
#    y 0.000000 1.617540 0.000000 
#    z 0.000000 0.000000 1.578700 
# 
# From -- ./inp_files/21214.got.cif
#   From: 2010.05.17/outbox.cif.g08.bks.cpg/sg54_11_cif.got.tgz:21214.got - 2010.06.03 13:09:01.
