data_PCOD9423160
_publ_section_title
;
Structure prediction by ZEFSAII (Michael W. Deem and Ramdas Pophale) SiO2 
 PCOD9423160
Probable space group: P C C A
;
_chemical_formula_sum "Si O2"
_cell_formula_units_Z 20
_cell_length_a 13.468783
_cell_length_b 9.918169
_cell_length_c 4.864566
_cell_angle_alpha 90.000000
_cell_angle_beta 90.000000
_cell_angle_gamma 90.000000
_cell_volume 649.836289
_symmetry_space_group_name_H-M "P C C A"
_symmetry_group_IT_number 54
_symmetry_cell_setting 'orthorhombic'
loop_
_space_group_symop_operation_xyz
x,y,z
1/2-x,-y,z
1/2+x,-y,1/2-z
-x,y,1/2-z
-x,-y,-z
1/2+x,y,-z
1/2-x,y,1/2+z
x,-y,1/2+z
loop_
_atom_site_type_symbol
_atom_site_label
_atom_site_fract_x
_atom_site_fract_y
_atom_site_fract_z
Si Si1 0.000000 0.500000 0.000000
Si Si2 0.675671 0.678999 0.173424
Si Si3 0.110617 0.944490 0.121669
O O1 0.914207 0.427784 0.219975
O O2 0.000000 0.380953 0.750000
O O3 0.757702 0.659517 0.939934
O O4 0.622795 0.815293 0.069363
O O5 0.000000 0.966856 0.250000
O O6 0.158002 0.939391 0.425347
#
# Coordination Sequence:
#
# PCOD9423160 Si02
#       3
#     4   8   8
#     4  12  28  50  74 100 148 196 246 318 380 440
#     4  12  27  46  74 111 148 196 256 313 377 453
#     4  10  22  42  70 105 149 198 242 295 370 449
#
# _framework density 30.776983999999999
#
# number of rings (size 3 to 8) (size 9 to 14) (size 15 to 20)
#    0.000    0.800    0.000    6.000    0.000   14.400 
#    0.000    0.000    0.000    0.000    0.000    0.000 
#    0.000    0.000    0.000    0.000    0.000    0.000 
#
# Total GULP energy -111390.895576 kJ/mol
# GULP energy per Si atom -5569.544779 kJ/mol
# Density = 3.070693 g / cm^3
# Si number density = 30.776984 Si / 1000 Ang^3
#
#
#
# Elastic Constant Matrix: (Units=GPa)
#
#
# Indices 1 2 3 4 5 6 
#
# 1 214.7356 55.6110 28.1422 0.0000 0.0000 0.0000
# 2 55.6110 124.0692 17.3585 0.0000 0.0000 0.0000
# 3 28.1422 17.3585 239.7707 0.0000 0.0000 0.0000
# 4 0.0000 0.0000 0.0000 25.3167 0.0000 0.0000
# 5 0.0000 0.0000 0.0000 0.0000 61.2331 0.0000
# 6 0.0000 0.0000 0.0000 0.0000 0.0000 70.9782
#
#
#
# Elastic Compliance Matrix: (Units=1/GPa)
#
#
# Indices 1 2 3 4 5 6 
#
# 1 0.005317 -0.002320 -0.000456 0.000000 0.000000 0.000000
# 2 -0.002320 0.009154 -0.000390 0.000000 0.000000 0.000000
# 3 -0.000456 -0.000390 0.004252 0.000000 0.000000 0.000000
# 4 0.000000 0.000000 0.000000 0.039500 0.000000 0.000000
# 5 0.000000 0.000000 0.000000 0.000000 0.016331 0.000000
# 6 0.000000 0.000000 0.000000 0.000000 0.000000 0.014089
#
#
# Mechanical properties :
#
#
# Convention : Reuss Voigt Hill
#
# Bulk Modulus (GPa) = 80.69903 86.75542 83.72723
# Shear Modulus (GPa) = 50.45063 63.33651 56.89357
#
# Velocity S-wave (km/s) = 4.05314 4.54135 4.30417
# Velocity P-wave (km/s) = 6.94128 7.46646 7.20866
#
# Compressibility (1/GPa) = 0.01239172
#
# Stress axis : x y z
#
# Youngs Moduli (GPa) = 188.06255 109.23782 235.15777
#
# Poissons Ratio (x) = 0.25338 0.10727
# Poissons Ratio (y) = 0.43622 0.09183
# Poissons Ratio (z) = 0.08579 0.04266
#
# Static dielectric constant tensor:
#      x y z
#    x 5.541190 0.000000 0.000000 
#    y 0.000000 2.617930 0.000000 
#    z 0.000000 0.000000 3.092200 
# 
# From -- ./inp_files/272.got.cif
#   From: 2010.05.17/outbox.cif.g08.bks.cpg/sg54_1_cif.got.tgz:272.got - 2010.06.03 13:09:01.
