data_PCOD9423975
_publ_section_title
;
Structure prediction by ZEFSAII (Michael W. Deem and Ramdas Pophale) SiO2 
 PCOD9423975
Probable space group: P C C A
;
_chemical_formula_sum "Si O2"
_cell_formula_units_Z 40
_cell_length_a 11.644932
_cell_length_b 7.789117
_cell_length_c 17.486178
_cell_angle_alpha 90.000000
_cell_angle_beta 90.000000
_cell_angle_gamma 90.000000
_cell_volume 1586.061705
_symmetry_space_group_name_H-M "P C C A"
_symmetry_group_IT_number 54
_symmetry_cell_setting 'orthorhombic'
loop_
_space_group_symop_operation_xyz
x,y,z
1/2-x,-y,z
1/2+x,-y,1/2-z
-x,y,1/2-z
-x,-y,-z
1/2+x,y,-z
1/2-x,y,1/2+z
x,-y,1/2+z
loop_
_atom_site_type_symbol
_atom_site_label
_atom_site_fract_x
_atom_site_fract_y
_atom_site_fract_z
Si Si1 0.809434 0.821982 0.436963
Si Si2 0.908938 0.347477 0.473865
Si Si3 0.399186 0.181492 0.889047
Si Si4 0.447724 0.808190 0.865155
Si Si5 0.627523 0.475336 0.722920
O O1 0.721014 0.665232 0.443694
O O2 0.854552 0.843262 0.524350
O O3 0.915638 0.794750 0.379886
O O4 0.750000 0.000000 0.415430
O O5 0.000000 0.500000 0.500000
O O6 0.973892 0.249096 0.406714
O O7 0.900350 0.237221 0.550914
O O8 0.341114 0.335493 0.842937
O O9 0.405646 0.999561 0.846879
O O10 0.405476 0.661381 0.809788
O O11 0.750000 0.500000 0.766645
O O12 0.500000 0.412513 0.750000
#
# Coordination Sequence:
#
# PCOD9423975 Si02
#       5
#     8   8   8   8   8
#     4  11  20  36  68 114 153 185 224 281 367 462
#     4  11  20  36  60 109 150 183 222 276 356 440
#     4  11  23  40  70 101 144 182 227 289 359 433
#     4  11  23  43  70 104 144 186 230 289 367 434
#     4  12  30  52  72  99 135 192 258 307 360 423
#
# _framework density 25.2197
#
# number of rings (size 3 to 8) (size 9 to 14) (size 15 to 20)
#    0.000    0.800    6.000    2.400    0.000    4.800 
#    0.000    0.000    0.000    0.000    0.000    0.000 
#    0.000    0.000    0.000    0.000    0.000    0.000 
#
# Total GULP energy -223138.889743 kJ/mol
# GULP energy per Si atom -5578.472244 kJ/mol
# Density = 2.516230 g / cm^3
# Si number density = 25.219700 Si / 1000 Ang^3
#
#
#
# Elastic Constant Matrix: (Units=GPa)
#
#
# Indices 1 2 3 4 5 6 
#
# 1 195.5898 49.0382 21.2193 0.0000 0.0000 0.0000
# 2 49.0382 194.2015 18.6516 0.0000 0.0000 0.0000
# 3 21.2193 18.6516 48.4683 0.0000 0.0000 0.0000
# 4 0.0000 0.0000 0.0000 249.8341 0.0000 0.0000
# 5 0.0000 0.0000 0.0000 0.0000 13.2949 0.0000
# 6 0.0000 0.0000 0.0000 0.0000 0.0000 13.8690
#
#
#
# Elastic Compliance Matrix: (Units=1/GPa)
#
#
# Indices 1 2 3 4 5 6 
#
# 1 0.005638 -0.001232 -0.001994 0.000000 0.000000 0.000000
# 2 -0.001232 0.005616 -0.001622 0.000000 0.000000 0.000000
# 3 -0.001994 -0.001622 0.022129 0.000000 0.000000 0.000000
# 4 0.000000 0.000000 0.000000 0.004003 0.000000 0.000000
# 5 0.000000 0.000000 0.000000 0.000000 0.075217 0.000000
# 6 0.000000 0.000000 0.000000 0.000000 0.000000 0.072103
#
#
# Mechanical properties :
#
#
# Convention : Reuss Voigt Hill
#
# Bulk Modulus (GPa) = 42.21690 68.45311 55.33500
# Shear Modulus (GPa) = 24.71598 78.68962 51.70280
#
# Velocity S-wave (km/s) = 3.13393 5.59190 4.53271
# Velocity P-wave (km/s) = 5.46547 8.30025 7.02729
#
# Compressibility (1/GPa) = 0.02368720
#
# Stress axis : x y z
#
# Youngs Moduli (GPa) = 177.36766 178.05694 45.18918
#
# Poissons Ratio (x) = 0.21939 0.09011
# Poissons Ratio (y) = 0.21854 0.07329
# Poissons Ratio (z) = 0.35370 0.28877
#
# Static dielectric constant tensor:
#      x y z
#    x 2.206390 0.000000 0.000000 
#    y 0.000000 2.008140 0.000000 
#    z 0.000000 0.000000 1.961720 
# 
# From -- ./inp_files/20984.got.cif
#   From: 2010.05.17/outbox.cif.g08.bks.cpg/sg54_11_cif.got.tgz:20984.got - 2010.06.03 13:09:01.
