data_PCOD9423907
_publ_section_title
;
Structure prediction by ZEFSAII (Michael W. Deem and Ramdas Pophale) SiO2 
 PCOD9423907
Probable space group: P C C A
;
_chemical_formula_sum "Si O2"
_cell_formula_units_Z 36
_cell_length_a 20.722795
_cell_length_b 4.935358
_cell_length_c 15.025494
_cell_angle_alpha 90.000000
_cell_angle_beta 90.000000
_cell_angle_gamma 90.000000
_cell_volume 1536.723565
_symmetry_space_group_name_H-M "P C C A"
_symmetry_group_IT_number 54
_symmetry_cell_setting 'orthorhombic'
loop_
_space_group_symop_operation_xyz
x,y,z
1/2-x,-y,z
1/2+x,-y,1/2-z
-x,y,1/2-z
-x,-y,-z
1/2+x,y,-z
1/2-x,y,1/2+z
x,-y,1/2+z
loop_
_atom_site_type_symbol
_atom_site_label
_atom_site_fract_x
_atom_site_fract_y
_atom_site_fract_z
Si Si1 0.355284 0.245398 0.233839
Si Si2 0.985963 0.751396 0.936343
Si Si3 0.750000 0.500000 0.521719
Si Si4 0.340613 0.753461 0.123041
Si Si5 0.000000 0.996106 0.250000
Si Si6 0.250000 0.000000 0.865565
O O1 0.338953 0.553920 0.208621
O O2 0.310134 0.136413 0.312926
O O3 0.330050 0.060766 0.151986
O O4 0.432847 0.178918 0.239645
O O5 0.911933 0.730186 0.912792
O O6 0.014115 0.819681 0.837764
O O7 0.000000 0.500000 0.000000
O O8 0.000000 0.000000 0.000000
O O9 0.797886 0.349104 0.456122
O O10 0.778417 0.745212 0.579892
#
# Coordination Sequence:
#
# PCOD9423907 Si02
#       6
#     8   8   4   8   4   4
#     4  11  24  45  70  99 139 186 237 289 361 434
#     4  11  25  42  70 101 141 185 231 292 356 435
#     4  12  26  42  70 102 140 180 238 300 356 430
#     4  11  24  45  68  98 137 187 232 289 361 424
#     4  10  26  44  72 104 144 186 234 300 360 434
#     4  12  26  42  70 104 136 186 236 300 356 430
#
# _framework density 23.426461
#
# number of rings (size 3 to 8) (size 9 to 14) (size 15 to 20)
#    0.000    0.889    0.000    6.667    6.222    8.000 
#    0.000    0.000    0.000    0.000    0.000    0.000 
#    0.000    0.000    0.000    0.000    0.000    0.000 
#
# Total GULP energy -201175.809188 kJ/mol
# GULP energy per Si atom -5588.216922 kJ/mol
# Density = 2.337314 g / cm^3
# Si number density = 23.426461 Si / 1000 Ang^3
#
#
#
# Elastic Constant Matrix: (Units=GPa)
#
#
# Indices 1 2 3 4 5 6 
#
# 1 50.7277 -9.4837 4.7494 0.0000 0.0000 0.0000
# 2 -9.4837 107.1714 31.9454 0.0000 0.0000 0.0000
# 3 4.7494 31.9454 121.1779 0.0000 0.0000 0.0000
# 4 0.0000 0.0000 0.0000 22.9170 0.0000 0.0000
# 5 0.0000 0.0000 0.0000 0.0000 188.0955 0.0000
# 6 0.0000 0.0000 0.0000 0.0000 0.0000 27.3982
#
#
#
# Elastic Compliance Matrix: (Units=1/GPa)
#
#
# Indices 1 2 3 4 5 6 
#
# 1 0.020253 0.002202 -0.001374 0.000000 0.000000 0.000000
# 2 0.002202 0.010366 -0.002819 0.000000 0.000000 0.000000
# 3 -0.001374 -0.002819 0.009049 0.000000 0.000000 0.000000
# 4 0.000000 0.000000 0.000000 0.043636 0.000000 0.000000
# 5 0.000000 0.000000 0.000000 0.000000 0.005316 0.000000
# 6 0.000000 0.000000 0.000000 0.000000 0.000000 0.036499
#
#
# Mechanical properties :
#
#
# Convention : Reuss Voigt Hill
#
# Bulk Modulus (GPa) = 28.02224 37.05546 32.53885
# Shear Modulus (GPa) = 35.46152 64.47319 49.96735
#
# Velocity S-wave (km/s) = 3.89490 5.25179 4.62339
# Velocity P-wave (km/s) = 5.67580 7.25446 6.51314
#
# Compressibility (1/GPa) = 0.03568594
#
# Stress axis : x y z
#
# Youngs Moduli (GPa) = 49.37438 96.46935 110.50511
#
# Poissons Ratio (x) = -0.21242 0.15186
# Poissons Ratio (y) = -0.10872 0.31152
# Poissons Ratio (z) = 0.06785 0.27195
#
# Static dielectric constant tensor:
#      x y z
#    x 1.859190 0.000000 0.000000 
#    y 0.000000 3.866400 0.000000 
#    z 0.000000 0.000000 2.108820 
# 
# From -- ./inp_files/14487.got.cif
#   From: 2010.05.17/outbox.cif.g08.bks.cpg/sg54_8_cif.got.tgz:14487.got - 2010.06.03 13:09:01.
