data_PCOD9423018
_publ_section_title
;
Structure prediction by ZEFSAII (Michael W. Deem and Ramdas Pophale) SiO2 
 PCOD9423018
Probable space group: P C C A
;
_chemical_formula_sum "Si O2"
_cell_formula_units_Z 32
_cell_length_a 7.616902
_cell_length_b 5.201538
_cell_length_c 34.596221
_cell_angle_alpha 90.000000
_cell_angle_beta 90.000000
_cell_angle_gamma 90.000000
_cell_volume 1370.688617
_symmetry_space_group_name_H-M "P C C A"
_symmetry_group_IT_number 54
_symmetry_cell_setting 'orthorhombic'
loop_
_space_group_symop_operation_xyz
x,y,z
1/2-x,-y,z
1/2+x,-y,1/2-z
-x,y,1/2-z
-x,-y,-z
1/2+x,y,-z
1/2-x,y,1/2+z
x,-y,1/2+z
loop_
_atom_site_type_symbol
_atom_site_label
_atom_site_fract_x
_atom_site_fract_y
_atom_site_fract_z
Si Si1 0.250000 0.000000 0.476408
Si Si2 0.539276 0.025532 0.165059
Si Si3 0.750000 0.500000 0.469449
Si Si4 0.039357 0.476532 0.294104
Si Si5 0.439060 0.864951 0.578023
O O1 0.233162 0.746267 0.502737
O O2 0.080457 0.004175 0.449039
O O3 0.471683 0.744851 0.177140
O O4 0.750000 0.000000 0.168194
O O5 0.470842 0.242974 0.194268
O O6 0.498966 0.120614 0.122044
O O7 0.592404 0.416795 0.440646
O O8 0.250000 0.500000 0.298062
O O9 0.000000 0.408771 0.250000
O O10 0.250000 0.000000 0.576749
#
# Coordination Sequence:
#
# PCOD9423018 Si02
#       5
#     4   8   4   8   8
#     4  12  28  50  72  98 148 184 228 310 356 408
#     4  10  23  44  66  96 138 184 224 281 349 412
#     4  12  28  48  72 106 138 184 244 294 356 420
#     4  10  22  40  68  98 135 179 227 276 343 412
#     4  12  28  46  74 105 139 187 242 285 357 425
#
# _framework density 23.345932000000001
#
# number of rings (size 3 to 8) (size 9 to 14) (size 15 to 20)
#    0.000    1.000    2.500    2.250    7.000    2.000 
#    0.000    0.000    0.000    0.000    0.000    0.000 
#    0.000    0.000    0.000    0.000    0.000    0.000 
#
# Total GULP energy -179026.966407 kJ/mol
# GULP energy per Si atom -5594.592700 kJ/mol
# Density = 2.329280 g / cm^3
# Si number density = 23.345932 Si / 1000 Ang^3
#
#
#
# Elastic Constant Matrix: (Units=GPa)
#
#
# Indices 1 2 3 4 5 6 
#
# 1 64.2041 28.5779 -4.7667 0.0000 0.0000 0.0000
# 2 28.5779 155.7795 57.7514 0.0000 0.0000 0.0000
# 3 -4.7667 57.7514 133.8791 0.0000 0.0000 0.0000
# 4 0.0000 0.0000 0.0000 18.6098 0.0000 0.0000
# 5 0.0000 0.0000 0.0000 0.0000 32.0293 0.0000
# 6 0.0000 0.0000 0.0000 0.0000 0.0000 12.1597
#
#
#
# Elastic Compliance Matrix: (Units=1/GPa)
#
#
# Indices 1 2 3 4 5 6 
#
# 1 0.017586 -0.004117 0.002402 0.000000 0.000000 0.000000
# 2 -0.004117 0.008605 -0.003858 0.000000 0.000000 0.000000
# 3 0.002402 -0.003858 0.009219 0.000000 0.000000 0.000000
# 4 0.000000 0.000000 0.000000 0.053735 0.000000 0.000000
# 5 0.000000 0.000000 0.000000 0.000000 0.031221 0.000000
# 6 0.000000 0.000000 0.000000 0.000000 0.000000 0.082239
#
#
# Mechanical properties :
#
#
# Convention : Reuss Voigt Hill
#
# Bulk Modulus (GPa) = 41.21337 57.44309 49.32823
# Shear Modulus (GPa) = 22.53873 30.71309 26.62591
#
# Velocity S-wave (km/s) = 3.11050 3.63101 3.38078
# Velocity P-wave (km/s) = 5.53100 6.49904 6.03446
#
# Compressibility (1/GPa) = 0.02426397
#
# Stress axis : x y z
#
# Youngs Moduli (GPa) = 56.86342 116.21190 108.46716
#
# Poissons Ratio (x) = 0.47840 -0.26053
# Poissons Ratio (y) = 0.23409 0.41852
# Poissons Ratio (z) = -0.13658 0.44840
#
# Static dielectric constant tensor:
#      x y z
#    x 1.902820 0.000000 0.000000 
#    y 0.000000 1.907420 0.000000 
#    z 0.000000 0.000000 1.830290 
# 
# From -- ./inp_files/27424.got.cif
#   From: 2010.05.17/outbox.cif.g08.bks.cpg/sg54_14_cif.got.tgz:27424.got - 2010.06.03 13:09:01.
