data_PCOD9423242
_publ_section_title
;
Structure prediction by ZEFSAII (Michael W. Deem and Ramdas Pophale) SiO2 
 PCOD9423242
Probable space group: P C C A
;
_chemical_formula_sum "Si O2"
_cell_formula_units_Z 40
_cell_length_a 10.995479
_cell_length_b 5.758187
_cell_length_c 28.253041
_cell_angle_alpha 90.000000
_cell_angle_beta 90.000000
_cell_angle_gamma 90.000000
_cell_volume 1788.813723
_symmetry_space_group_name_H-M "P C C A"
_symmetry_group_IT_number 54
_symmetry_cell_setting 'orthorhombic'
loop_
_space_group_symop_operation_xyz
x,y,z
1/2-x,-y,z
1/2+x,-y,1/2-z
-x,y,1/2-z
-x,-y,-z
1/2+x,y,-z
1/2-x,y,1/2+z
x,-y,1/2+z
loop_
_atom_site_type_symbol
_atom_site_label
_atom_site_fract_x
_atom_site_fract_y
_atom_site_fract_z
Si Si1 0.750000 0.000000 0.051316
Si Si2 0.934073 0.862822 0.618610
Si Si3 0.750000 0.500000 0.156782
Si Si4 0.541405 0.784387 0.696393
Si Si5 0.109866 0.523331 0.117775
Si Si6 0.621702 0.361464 0.482604
O O1 0.860666 0.944356 0.088295
O O2 0.834394 0.156284 0.016896
O O3 0.838129 0.651770 0.623881
O O4 0.053560 0.725873 0.601934
O O5 0.959223 0.969286 0.669904
O O6 0.826140 0.673054 0.189640
O O7 0.500000 0.795101 0.750000
O O8 0.456669 0.622289 0.663580
O O9 0.250000 0.500000 0.128952
O O10 0.097194 0.692247 0.072425
O O11 0.750000 0.500000 0.481649
O O12 0.500000 0.500000 0.500000
#
# Coordination Sequence:
#
# PCOD9423242 Si02
#       6
#     4   8   4   8   8   8
#     4  12  24  40  76 102 136 190 242 296 356 428
#     4  11  23  43  73 100 135 181 236 294 349 425
#     4  10  22  44  68 100 136 168 230 286 352 412
#     4  11  25  43  73 101 134 181 234 289 355 425
#     4  10  25  48  66 102 147 184 228 296 359 426
#     4  11  26  43  69 105 145 189 240 293 364 436
#
# _framework density 22.361187000000001
#
# number of rings (size 3 to 8) (size 9 to 14) (size 15 to 20)
#    0.000    1.200    4.000    0.000    5.600    8.000 
#    3.600    0.000    0.000    0.000    0.000    0.000 
#    0.000    0.000    0.000    0.000    0.000    0.000 
#
# Total GULP energy -222955.458076 kJ/mol
# GULP energy per Si atom -5573.886452 kJ/mol
# Density = 2.231029 g / cm^3
# Si number density = 22.361187 Si / 1000 Ang^3
#
#
#
# Elastic Constant Matrix: (Units=GPa)
#
#
# Indices 1 2 3 4 5 6 
#
# 1 163.2892 37.7534 31.1802 0.0000 0.0000 0.0000
# 2 37.7534 55.4544 15.4866 0.0000 0.0000 0.0000
# 3 31.1802 15.4866 148.1731 0.0000 0.0000 0.0000
# 4 0.0000 0.0000 0.0000 3.1351 0.0000 0.0000
# 5 0.0000 0.0000 0.0000 0.0000 24.1466 0.0000
# 6 0.0000 0.0000 0.0000 0.0000 0.0000 22.0735
#
#
#
# Elastic Compliance Matrix: (Units=1/GPa)
#
#
# Indices 1 2 3 4 5 6 
#
# 1 0.007428 -0.004759 -0.001066 0.000000 0.000000 0.000000
# 2 -0.004759 0.021625 -0.001259 0.000000 0.000000 0.000000
# 3 -0.001066 -0.001259 0.007105 0.000000 0.000000 0.000000
# 4 0.000000 0.000000 0.000000 0.318967 0.000000 0.000000
# 5 0.000000 0.000000 0.000000 0.000000 0.041414 0.000000
# 6 0.000000 0.000000 0.000000 0.000000 0.000000 0.045303
#
#
# Mechanical properties :
#
#
# Convention : Reuss Voigt Hill
#
# Bulk Modulus (GPa) = 45.47542 59.52856 52.50199
# Shear Modulus (GPa) = 10.79127 28.70415 19.74771
#
# Velocity S-wave (km/s) = 2.19917 3.58671 2.97496
# Velocity P-wave (km/s) = 5.17971 6.62056 5.94395
#
# Compressibility (1/GPa) = 0.02198990
#
# Stress axis : x y z
#
# Youngs Moduli (GPa) = 134.62607 46.24379 140.75277
#
# Poissons Ratio (x) = 0.22009 0.14999
# Poissons Ratio (y) = 0.64074 0.17715
# Poissons Ratio (z) = 0.14346 0.05820
#
# Static dielectric constant tensor:
#      x y z
#    x 1.834560 0.000000 0.000000 
#    y 0.000000 1.935970 0.000000 
#    z 0.000000 0.000000 1.838010 
# 
# From -- ./inp_files/26081.got.cif
#   From: 2010.05.17/outbox.cif.g08.bks.cpg/sg54_14_cif.got.tgz:26081.got - 2010.06.03 13:09:01.
