data_PCOD9423761
_publ_section_title
;
Structure prediction by ZEFSAII (Michael W. Deem and Ramdas Pophale) SiO2 
 PCOD9423761
Probable space group: P C C A
;
_chemical_formula_sum "Si O2"
_cell_formula_units_Z 28
_cell_length_a 10.923441
_cell_length_b 10.983582
_cell_length_c 9.562301
_cell_angle_alpha 90.000000
_cell_angle_beta 90.000000
_cell_angle_gamma 90.000000
_cell_volume 1147.270626
_symmetry_space_group_name_H-M "P C C A"
_symmetry_group_IT_number 54
_symmetry_cell_setting 'orthorhombic'
loop_
_space_group_symop_operation_xyz
x,y,z
1/2-x,-y,z
1/2+x,-y,1/2-z
-x,y,1/2-z
-x,-y,-z
1/2+x,y,-z
1/2-x,y,1/2+z
x,-y,1/2+z
loop_
_atom_site_type_symbol
_atom_site_label
_atom_site_fract_x
_atom_site_fract_y
_atom_site_fract_z
Si Si1 0.750000 0.000000 0.384050
Si Si2 0.000000 0.051381 0.250000
Si Si3 0.000000 0.660456 0.250000
Si Si4 0.375529 0.528789 0.417910
Si Si5 0.385287 0.207036 0.984029
O O1 0.629581 0.007885 0.287822
O O2 0.768359 0.876516 0.475540
O O3 0.027120 0.124732 0.391268
O O4 0.890615 0.567828 0.206801
O O5 0.952518 0.742212 0.377576
O O6 0.250000 0.500000 0.496677
O O7 0.500000 0.500000 0.500000
O O8 0.365628 0.672065 0.390549
#
# Coordination Sequence:
#
# PCOD9423761 Si02
#       5
#     4   4   4   8   8
#     4  12  28  48  82 118 158 212 268 330 396 472
#     4  12  28  50  80 114 158 210 266 322 398 468
#     4  10  24  46  76 116 158 202 256 330 394 478
#     4  10  24  44  75 112 153 197 258 321 401 462
#     4  11  26  47  78 111 160 199 267 317 402 468
#
# _framework density 24.405750999999999
#
# number of rings (size 3 to 8) (size 9 to 14) (size 15 to 20)
#    0.000    1.143    0.000    3.429   12.000    4.571 
#    0.000    0.000    0.000    0.000    0.000    0.000 
#    0.000    0.000    0.000    0.000    0.000    0.000 
#
# Total GULP energy -156239.232097 kJ/mol
# GULP energy per Si atom -5579.972575 kJ/mol
# Density = 2.435020 g / cm^3
# Si number density = 24.405751 Si / 1000 Ang^3
#
#
#
# Elastic Constant Matrix: (Units=GPa)
#
#
# Indices 1 2 3 4 5 6 
#
# 1 165.0826 47.7647 29.1823 0.0000 0.0000 0.0000
# 2 47.7647 139.6890 37.1748 0.0000 0.0000 0.0000
# 3 29.1823 37.1748 102.5552 0.0000 0.0000 0.0000
# 4 0.0000 0.0000 0.0000 -2.1074 0.0000 0.0000
# 5 0.0000 0.0000 0.0000 0.0000 46.7925 0.0000
# 6 0.0000 0.0000 0.0000 0.0000 0.0000 44.7101
#
#
#
# Elastic Compliance Matrix: (Units=1/GPa)
#
#
# Indices 1 2 3 4 5 6 
#
# 1 0.006858 -0.002020 -0.001219 0.000000 0.000000 0.000000
# 2 -0.002020 0.008518 -0.002513 0.000000 0.000000 0.000000
# 3 -0.001219 -0.002513 0.011009 0.000000 0.000000 0.000000
# 4 0.000000 0.000000 0.000000 -0.474512 0.000000 0.000000
# 5 0.000000 0.000000 0.000000 0.000000 0.021371 0.000000
# 6 0.000000 0.000000 0.000000 0.000000 0.000000 0.022366
#
#
# Mechanical properties :
#
#
# Convention : Reuss Voigt Hill
#
# Bulk Modulus (GPa) = 67.20430 70.61893 68.91162
# Shear Modulus (GPa) = -12.88909 37.42603 12.26847
#
# Velocity S-wave (km/s) = -2.30057 3.92023 2.24450
# Velocity P-wave (km/s) = 4.53202 7.03485 5.91728
#
# Compressibility (1/GPa) = 0.01488000
#
# Stress axis : x y z
#
# Youngs Moduli (GPa) = 145.82235 117.39334 90.83827
#
# Poissons Ratio (x) = 0.23719 0.11073
# Poissons Ratio (y) = 0.29463 0.22826
# Poissons Ratio (z) = 0.17775 0.29499
#
# Static dielectric constant tensor:
#      x y z
#    x 1.988200 0.000000 0.000000 
#    y 0.000000 2.022460 0.000000 
#    z 0.000000 0.000000 2.031880 
# 
# From -- ./inp_files/7221.got.cif
#   From: 2010.05.17/outbox.cif.g08.bks.cpg/sg54_4_cif.got.tgz:7221.got - 2010.06.03 13:09:01.
