data_PCOD9423686
_publ_section_title
;
Structure prediction by ZEFSAII (Michael W. Deem and Ramdas Pophale) SiO2 
 PCOD9423686
Probable space group: P C C A
;
_chemical_formula_sum "Si O2"
_cell_formula_units_Z 48
_cell_length_a 26.524454
_cell_length_b 8.669197
_cell_length_c 8.639807
_cell_angle_alpha 90.000000
_cell_angle_beta 90.000000
_cell_angle_gamma 90.000000
_cell_volume 1986.686616
_symmetry_space_group_name_H-M "P C C A"
_symmetry_group_IT_number 54
_symmetry_cell_setting 'orthorhombic'
loop_
_space_group_symop_operation_xyz
x,y,z
1/2-x,-y,z
1/2+x,-y,1/2-z
-x,y,1/2-z
-x,-y,-z
1/2+x,y,-z
1/2-x,y,1/2+z
x,-y,1/2+z
loop_
_atom_site_type_symbol
_atom_site_label
_atom_site_fract_x
_atom_site_fract_y
_atom_site_fract_z
Si Si1 0.792786 0.177333 0.672045
Si Si2 0.075823 0.472963 0.928504
Si Si3 0.427350 0.267822 0.720766
Si Si4 0.312251 0.169357 0.697789
Si Si5 0.880519 0.691277 0.361775
Si Si6 0.036855 0.937462 0.131707
O O1 0.736252 0.232243 0.710251
O O2 0.803108 0.174041 0.488077
O O3 0.828977 0.278650 0.777092
O O4 0.807898 0.007181 0.739175
O O5 0.049840 0.627505 0.858938
O O6 0.086145 0.379705 0.775439
O O7 0.058964 0.355346 0.060574
O O8 0.122892 0.559307 0.010013
O O9 0.366097 0.248903 0.728781
O O10 0.444755 0.092698 0.716309
O O11 0.912920 0.841680 0.412633
O O12 0.000000 0.848174 0.250000
O O13 0.000000 0.000000 0.000000
#
# Coordination Sequence:
#
# PCOD9423686 Si02
#       6
#     8   8   8   8   8   8
#     4  11  23  39  67 103 135 178 227 280 332 395
#     4  10  24  42  69  96 138 190 210 268 356 407
#     4  11  23  46  68  97 140 177 222 280 335 400
#     4  11  23  39  67 103 135 177 229 276 337 388
#     4  11  23  46  68  97 142 175 226 279 338 401
#     4  12  26  44  73 104 125 170 234 288 334 396
#
# _framework density 24.160831999999999
#
# number of rings (size 3 to 8) (size 9 to 14) (size 15 to 20)
#    0.000    1.000    3.333    4.000    4.667    0.000 
#    0.000   21.667    0.000    0.000    0.000    0.000 
#    0.000    0.000    0.000    0.000    0.000    0.000 
#
# Total GULP energy -267719.634958 kJ/mol
# GULP energy per Si atom -5577.492395 kJ/mol
# Density = 2.410584 g / cm^3
# Si number density = 24.160832 Si / 1000 Ang^3
#
#
#
# Elastic Constant Matrix: (Units=GPa)
#
#
# Indices 1 2 3 4 5 6 
#
# 1 144.1357 29.0961 30.8953 0.0000 0.0000 0.0000
# 2 29.0961 76.4889 6.2680 0.0000 0.0000 0.0000
# 3 30.8953 6.2680 98.9407 0.0000 0.0000 0.0000
# 4 0.0000 0.0000 0.0000 566.0816 0.0000 0.0000
# 5 0.0000 0.0000 0.0000 0.0000 29.2133 0.0000
# 6 0.0000 0.0000 0.0000 0.0000 0.0000 -34.3831
#
#
#
# Elastic Compliance Matrix: (Units=1/GPa)
#
#
# Indices 1 2 3 4 5 6 
#
# 1 0.008012 -0.002858 -0.002321 0.000000 0.000000 0.000000
# 2 -0.002858 0.014161 -0.000005 0.000000 0.000000 0.000000
# 3 -0.002321 -0.000005 0.010832 0.000000 0.000000 0.000000
# 4 0.000000 0.000000 0.000000 0.001767 0.000000 0.000000
# 5 0.000000 0.000000 0.000000 0.000000 0.034231 0.000000
# 6 0.000000 0.000000 0.000000 0.000000 0.000000 -0.029084
#
#
# Mechanical properties :
#
#
# Convention : Reuss Voigt Hill
#
# Bulk Modulus (GPa) = 44.17172 50.23157 47.20164
# Shear Modulus (GPa) = 86.45741 129.06943 107.76342
#
# Velocity S-wave (km/s) = 5.98847 7.31689 6.68576
# Velocity P-wave (km/s) = 8.13251 9.60303 8.89820
#
# Compressibility (1/GPa) = 0.02263892
#
# Stress axis : x y z
#
# Youngs Moduli (GPa) = 124.80896 70.61532 92.31830
#
# Poissons Ratio (x) = 0.20179 0.21426
# Poissons Ratio (y) = 0.35666 0.00044
# Poissons Ratio (z) = 0.28967 0.00034
#
# Static dielectric constant tensor:
#      x y z
#    x 2.150430 0.000000 0.000000 
#    y 0.000000 26.350150 0.000000 
#    z 0.000000 0.000000 1.971350 
# 
# From -- ./inp_files/5828.got.cif
#   From: 2010.05.17/outbox.cif.g08.bks.cpg/sg54_3_cif.got.tgz:5828.got - 2010.06.03 13:09:01.
