data_PCOD9423106
_publ_section_title
;
Structure prediction by ZEFSAII (Michael W. Deem and Ramdas Pophale) SiO2 
 PCOD9423106
Probable space group: P C C A
;
_chemical_formula_sum "Si O2"
_cell_formula_units_Z 40
_cell_length_a 13.497754
_cell_length_b 5.557990
_cell_length_c 23.181227
_cell_angle_alpha 90.000000
_cell_angle_beta 90.000000
_cell_angle_gamma 90.000000
_cell_volume 1739.064499
_symmetry_space_group_name_H-M "P C C A"
_symmetry_group_IT_number 54
_symmetry_cell_setting 'orthorhombic'
loop_
_space_group_symop_operation_xyz
x,y,z
1/2-x,-y,z
1/2+x,-y,1/2-z
-x,y,1/2-z
-x,-y,-z
1/2+x,y,-z
1/2-x,y,1/2+z
x,-y,1/2+z
loop_
_atom_site_type_symbol
_atom_site_label
_atom_site_fract_x
_atom_site_fract_y
_atom_site_fract_z
Si Si1 0.304778 0.753039 0.143240
Si Si2 0.980318 0.302713 0.949667
Si Si3 0.643231 0.102562 0.534574
Si Si4 0.473040 0.659454 0.366691
Si Si5 0.694067 0.251964 0.717595
O O1 0.250000 0.500000 0.125972
O O2 0.419772 0.779282 0.123655
O O3 0.309914 0.743840 0.213187
O O4 0.250000 0.000000 0.128236
O O5 0.994511 0.389707 0.884294
O O6 0.874107 0.212032 0.971340
O O7 0.064160 0.108361 0.959594
O O8 0.000000 0.500000 0.000000
O O9 0.610337 0.279629 0.585578
O O10 0.750000 0.000000 0.543015
O O11 0.416552 0.724996 0.308588
O O12 0.750000 0.500000 0.699072
O O13 0.750000 0.000000 0.700675
#
# Coordination Sequence:
#
# PCOD9423106 Si02
#       5
#     8   8   8   8   8
#     4  10  24  45  63  95 139 178 220 271 333 402
#     4   9  22  42  58  92 127 167 221 270 346 390
#     4  10  22  42  64  91 132 169 221 285 337 407
#     4  11  23  38  66  96 127 172 229 273 331 403
#     4  10  23  41  67 100 135 174 216 273 340 395
#
# _framework density 23.000871
#
# number of rings (size 3 to 8) (size 9 to 14) (size 15 to 20)
#    0.000    2.000    0.000    1.200    8.400    2.400 
#   10.800    6.000    0.000    0.000    0.000    0.000 
#    0.000    0.000    0.000    0.000    0.000    0.000 
#
# Total GULP energy -222934.442608 kJ/mol
# GULP energy per Si atom -5573.361065 kJ/mol
# Density = 2.294852 g / cm^3
# Si number density = 23.000871 Si / 1000 Ang^3
#
#
#
# Elastic Constant Matrix: (Units=GPa)
#
#
# Indices 1 2 3 4 5 6 
#
# 1 155.4681 29.1999 28.9408 0.0000 0.0000 0.0000
# 2 29.1999 85.5685 27.2860 0.0000 0.0000 0.0000
# 3 28.9408 27.2860 58.2162 0.0000 0.0000 0.0000
# 4 0.0000 0.0000 0.0000 29.4161 0.0000 0.0000
# 5 0.0000 0.0000 0.0000 0.0000 34.4054 0.0000
# 6 0.0000 0.0000 0.0000 0.0000 0.0000 21.8459
#
#
#
# Elastic Compliance Matrix: (Units=1/GPa)
#
#
# Indices 1 2 3 4 5 6 
#
# 1 0.007261 -0.001560 -0.002879 0.000000 0.000000 0.000000
# 2 -0.001560 0.014075 -0.005822 0.000000 0.000000 0.000000
# 3 -0.002879 -0.005822 0.021337 0.000000 0.000000 0.000000
# 4 0.000000 0.000000 0.000000 0.033995 0.000000 0.000000
# 5 0.000000 0.000000 0.000000 0.000000 0.029065 0.000000
# 6 0.000000 0.000000 0.000000 0.000000 0.000000 0.045775
#
#
# Mechanical properties :
#
#
# Convention : Reuss Voigt Hill
#
# Bulk Modulus (GPa) = 45.14036 52.23403 48.68720
# Shear Modulus (GPa) = 27.86865 31.38854 29.62859
#
# Velocity S-wave (km/s) = 3.48463 3.69815 3.59298
# Velocity P-wave (km/s) = 5.98818 6.40265 6.19888
#
# Compressibility (1/GPa) = 0.02215312
#
# Stress axis : x y z
#
# Youngs Moduli (GPa) = 137.72188 71.04669 46.86708
#
# Poissons Ratio (x) = 0.11082 0.13491
# Poissons Ratio (y) = 0.21483 0.27284
# Poissons Ratio (z) = 0.39644 0.41361
#
# Static dielectric constant tensor:
#      x y z
#    x 1.878980 0.000000 0.000000 
#    y 0.000000 1.975550 0.000000 
#    z 0.000000 0.000000 1.976140 
# 
# From -- ./inp_files/26048.got.cif
#   From: 2010.05.17/outbox.cif.g08.bks.cpg/sg54_14_cif.got.tgz:26048.got - 2010.06.03 13:09:01.
