data_PCOD9423840
_publ_section_title
;
Structure prediction by ZEFSAII (Michael W. Deem and Ramdas Pophale) SiO2 
 PCOD9423840
Probable space group: P C C A
;
_chemical_formula_sum "Si O2"
_cell_formula_units_Z 32
_cell_length_a 15.100431
_cell_length_b 7.568696
_cell_length_c 10.622133
_cell_angle_alpha 90.000000
_cell_angle_beta 90.000000
_cell_angle_gamma 90.000000
_cell_volume 1214.009653
_symmetry_space_group_name_H-M "P C C A"
_symmetry_group_IT_number 54
_symmetry_cell_setting 'orthorhombic'
loop_
_space_group_symop_operation_xyz
x,y,z
1/2-x,-y,z
1/2+x,-y,1/2-z
-x,y,1/2-z
-x,-y,-z
1/2+x,y,-z
1/2-x,y,1/2+z
x,-y,1/2+z
loop_
_atom_site_type_symbol
_atom_site_label
_atom_site_fract_x
_atom_site_fract_y
_atom_site_fract_z
Si Si1 0.843280 0.660996 0.782843
Si Si2 0.750000 0.000000 0.874263
Si Si3 0.094552 0.070276 0.947469
Si Si4 0.000000 0.885933 0.750000
Si Si5 0.894488 0.477586 0.523038
O O1 0.857274 0.594124 0.639877
O O2 0.937126 0.751962 0.824133
O O3 0.772224 0.818272 0.799960
O O4 0.843553 0.507092 0.888893
O O5 0.667888 0.973927 0.970022
O O6 0.118232 0.274251 0.936742
O O7 0.077105 0.004281 0.807298
O O8 0.000000 0.000000 0.000000
O O9 0.000000 0.500000 0.500000
#
# Coordination Sequence:
#
# PCOD9423840 Si02
#       5
#     8   4   8   4   8
#     4  11  23  45  82 120 171 221 292 359 444 527
#     4  10  24  48  78 116 174 234 298 364 446 540
#     4  11  23  45  79 116 168 234 296 358 444 544
#     4  12  22  42  80 118 152 238 284 346 432 528
#     4  11  21  42  78 128 165 221 285 366 440 524
#
# _framework density 26.358934999999999
#
# number of rings (size 3 to 8) (size 9 to 14) (size 15 to 20)
#    0.000    1.000    7.500    0.000    3.500    1.000 
#    0.000    0.000   11.000   43.500    0.000    0.000 
#    0.000    0.000    0.000    0.000    0.000    0.000 
#
# Total GULP energy -178558.925086 kJ/mol
# GULP energy per Si atom -5579.966409 kJ/mol
# Density = 2.629894 g / cm^3
# Si number density = 26.358935 Si / 1000 Ang^3
#
#
#
# Elastic Constant Matrix: (Units=GPa)
#
#
# Indices 1 2 3 4 5 6 
#
# 1 168.7652 44.7711 49.6450 0.0000 0.0000 0.0000
# 2 44.7711 129.7954 79.5203 0.0000 0.0000 0.0000
# 3 49.6450 79.5203 173.1864 0.0000 0.0000 0.0000
# 4 0.0000 0.0000 0.0000 52.7229 0.0000 0.0000
# 5 0.0000 0.0000 0.0000 0.0000 37.9977 0.0000
# 6 0.0000 0.0000 0.0000 0.0000 0.0000 51.6441
#
#
#
# Elastic Compliance Matrix: (Units=1/GPa)
#
#
# Indices 1 2 3 4 5 6 
#
# 1 0.006695 -0.001577 -0.001195 0.000000 0.000000 0.000000
# 2 -0.001577 0.011092 -0.004641 0.000000 0.000000 0.000000
# 3 -0.001195 -0.004641 0.008248 0.000000 0.000000 0.000000
# 4 0.000000 0.000000 0.000000 0.018967 0.000000 0.000000
# 5 0.000000 0.000000 0.000000 0.000000 0.026317 0.000000
# 6 0.000000 0.000000 0.000000 0.000000 0.000000 0.019363
#
#
# Mechanical properties :
#
#
# Convention : Reuss Voigt Hill
#
# Bulk Modulus (GPa) = 89.21844 91.06885 90.14365
# Shear Modulus (GPa) = 45.76885 48.32699 47.04792
#
# Velocity S-wave (km/s) = 4.17150 4.28649 4.22938
# Velocity P-wave (km/s) = 7.55797 7.68916 7.62385
#
# Compressibility (1/GPa) = 0.01120845
#
# Stress axis : x y z
#
# Youngs Moduli (GPa) = 149.35696 90.15769 121.24875
#
# Poissons Ratio (x) = 0.14221 0.14489
# Poissons Ratio (y) = 0.23559 0.56268
# Poissons Ratio (z) = 0.17848 0.41839
#
# Static dielectric constant tensor:
#      x y z
#    x 2.254370 0.000000 0.000000 
#    y 0.000000 2.137470 0.000000 
#    z 0.000000 0.000000 3.896830 
# 
# From -- ./inp_files/12268.got.cif
#   From: 2010.05.17/outbox.cif.g08.bks.cpg/sg54_7_cif.got.tgz:12268.got - 2010.06.03 13:09:01.
