data_PCOD9423594
_publ_section_title
;
Structure prediction by ZEFSAII (Michael W. Deem and Ramdas Pophale) SiO2 
 PCOD9423594
Probable space group: P C C A
;
_chemical_formula_sum "Si O2"
_cell_formula_units_Z 36
_cell_length_a 8.674327
_cell_length_b 17.862001
_cell_length_c 10.269329
_cell_angle_alpha 90.000000
_cell_angle_beta 90.000000
_cell_angle_gamma 90.000000
_cell_volume 1591.138436
_symmetry_space_group_name_H-M "P C C A"
_symmetry_group_IT_number 54
_symmetry_cell_setting 'orthorhombic'
loop_
_space_group_symop_operation_xyz
x,y,z
1/2-x,-y,z
1/2+x,-y,1/2-z
-x,y,1/2-z
-x,-y,-z
1/2+x,y,-z
1/2-x,y,1/2+z
x,-y,1/2+z
loop_
_atom_site_type_symbol
_atom_site_label
_atom_site_fract_x
_atom_site_fract_y
_atom_site_fract_z
Si Si1 0.580043 0.969212 0.123583
Si Si2 0.250000 0.500000 0.888470
Si Si3 0.673729 0.263192 0.244400
Si Si4 0.000000 0.177224 0.250000
Si Si5 0.000000 0.402055 0.250000
Si Si6 0.186447 0.348719 0.030943
O O1 0.500000 0.002459 0.250000
O O2 0.545411 0.880599 0.134155
O O3 0.250000 0.000000 0.875725
O O4 0.500000 0.000000 0.000000
O O5 0.366529 0.456850 0.795146
O O6 0.189711 0.433872 0.980491
O O7 0.500000 0.228895 0.250000
O O8 0.832685 0.216776 0.270696
O O9 0.683218 0.324424 0.363017
O O10 0.686816 0.298479 0.098951
O O11 0.037475 0.350203 0.125947
#
# Coordination Sequence:
#
# PCOD9423594 Si02
#       6
#     8   4   8   4   4   8
#     4  10  23  49  82 120 160 203 259 319 387 462
#     4  12  26  46  76 108 146 206 272 362 420 468
#     4  12  29  52  79 110 164 216 265 329 413 490
#     4  10  29  54  80 124 163 208 264 318 390 485
#     4  12  25  48  74 106 149 190 282 350 428 487
#     4  12  27  49  77 111 151 211 278 345 409 494
#
# _framework density 22.625309999999999
#
# number of rings (size 3 to 8) (size 9 to 14) (size 15 to 20)
#    0.667    0.000    2.222    4.000    4.667    2.667 
#    0.000    0.000    0.000    0.000    0.000    0.000 
#    0.000    0.000    0.000    0.000    0.000    0.000 
#
# Total GULP energy -200654.990571 kJ/mol
# GULP energy per Si atom -5573.749738 kJ/mol
# Density = 2.257381 g / cm^3
# Si number density = 22.625310 Si / 1000 Ang^3
#
#
#
# Elastic Constant Matrix: (Units=GPa)
#
#
# Indices 1 2 3 4 5 6 
#
# 1 203.7488 66.2118 64.7977 0.0000 0.0000 0.0000
# 2 66.2118 96.3979 41.5348 0.0000 0.0000 0.0000
# 3 64.7977 41.5348 182.2963 0.0000 0.0000 0.0000
# 4 0.0000 0.0000 0.0000 6.8669 0.0000 0.0000
# 5 0.0000 0.0000 0.0000 0.0000 36.1606 0.0000
# 6 0.0000 0.0000 0.0000 0.0000 0.0000 43.9419
#
#
#
# Elastic Compliance Matrix: (Units=1/GPa)
#
#
# Indices 1 2 3 4 5 6 
#
# 1 0.006655 -0.003938 -0.001468 0.000000 0.000000 0.000000
# 2 -0.003938 0.013834 -0.001752 0.000000 0.000000 0.000000
# 3 -0.001468 -0.001752 0.006407 0.000000 0.000000 0.000000
# 4 0.000000 0.000000 0.000000 0.145627 0.000000 0.000000
# 5 0.000000 0.000000 0.000000 0.000000 0.027654 0.000000
# 6 0.000000 0.000000 0.000000 0.000000 0.000000 0.022757
#
#
# Mechanical properties :
#
#
# Convention : Reuss Voigt Hill
#
# Bulk Modulus (GPa) = 79.50334 91.94797 85.72566
# Shear Modulus (GPa) = 20.70882 38.05379 29.38130
#
# Velocity S-wave (km/s) = 3.02867 4.10556 3.60752
# Velocity P-wave (km/s) = 6.88809 7.94996 7.43800
#
# Compressibility (1/GPa) = 0.01257809
#
# Stress axis : x y z
#
# Youngs Moduli (GPa) = 150.26908 72.28769 156.08888
#
# Poissons Ratio (x) = 0.28469 0.22916
# Poissons Ratio (y) = 0.59180 0.27347
# Poissons Ratio (z) = 0.22061 0.12665
#
# Static dielectric constant tensor:
#      x y z
#    x 1.903950 0.000000 0.000000 
#    y 0.000000 1.943220 0.000000 
#    z 0.000000 0.000000 1.836130 
# 
# From -- ./inp_files/2509.got.cif
#   From: 2010.05.17/outbox.cif.g08.bks.cpg/sg54_2_cif.got.tgz:2509.got - 2010.06.03 13:09:01.
