data_PCOD9423526
_publ_section_title
;
Structure prediction by ZEFSAII (Michael W. Deem and Ramdas Pophale) SiO2 
 PCOD9423526
Probable space group: P C C A
;
_chemical_formula_sum "Si O2"
_cell_formula_units_Z 32
_cell_length_a 17.611455
_cell_length_b 5.414650
_cell_length_c 14.144342
_cell_angle_alpha 90.000000
_cell_angle_beta 90.000000
_cell_angle_gamma 90.000000
_cell_volume 1348.802541
_symmetry_space_group_name_H-M "P C C A"
_symmetry_group_IT_number 54
_symmetry_cell_setting 'orthorhombic'
loop_
_space_group_symop_operation_xyz
x,y,z
1/2-x,-y,z
1/2+x,-y,1/2-z
-x,y,1/2-z
-x,-y,-z
1/2+x,y,-z
1/2-x,y,1/2+z
x,-y,1/2+z
loop_
_atom_site_type_symbol
_atom_site_label
_atom_site_fract_x
_atom_site_fract_y
_atom_site_fract_z
Si Si1 0.200696 0.253961 0.825132
Si Si2 0.204709 0.748403 0.104929
Si Si3 0.461716 0.418791 0.350921
Si Si4 0.060517 0.212973 0.487769
O O1 0.250000 0.500000 0.850514
O O2 0.179349 0.291131 0.713710
O O3 0.115889 0.264886 0.870586
O O4 0.250000 0.000000 0.837388
O O5 0.250000 0.500000 0.078685
O O6 0.250000 0.000000 0.112580
O O7 0.144220 0.815663 0.025657
O O8 0.500000 0.383374 0.250000
O O9 0.437246 0.695680 0.379693
O O10 0.528380 0.389116 0.427709
O O11 0.000000 0.000000 0.500000
#
# Coordination Sequence:
#
# PCOD9423526 Si02
#       4
#     8   8   8   8
#     4  10  23  44  72 105 139 188 240 295 368 438
#     4  10  23  45  74 104 147 188 238 305 369 441
#     4  11  25  47  72 102 148 191 249 308 369 451
#     4  11  27  45  71 107 142 196 248 304 378 441
#
# _framework density 23.724747000000001
#
# number of rings (size 3 to 8) (size 9 to 14) (size 15 to 20)
#    0.000    1.500    2.500    0.000   10.500    4.000 
#    0.000    0.000    0.000    0.000    0.000    0.000 
#    0.000    0.000    0.000    0.000    0.000    0.000 
#
# Total GULP energy -178279.238649 kJ/mol
# GULP energy per Si atom -5571.226208 kJ/mol
# Density = 2.367075 g / cm^3
# Si number density = 23.724747 Si / 1000 Ang^3
#
#
#
# Elastic Constant Matrix: (Units=GPa)
#
#
# Indices 1 2 3 4 5 6 
#
# 1 58.1755 0.3638 -4.2124 0.0000 0.0000 0.0000
# 2 0.3638 92.2444 -16.0241 0.0000 0.0000 0.0000
# 3 -4.2124 -16.0241 59.5667 0.0000 0.0000 0.0000
# 4 0.0000 0.0000 0.0000 23.7685 0.0000 0.0000
# 5 0.0000 0.0000 0.0000 0.0000 24.3818 0.0000
# 6 0.0000 0.0000 0.0000 0.0000 0.0000 33.9661
#
#
#
# Elastic Compliance Matrix: (Units=1/GPa)
#
#
# Indices 1 2 3 4 5 6 
#
# 1 0.017280 0.000151 0.001263 0.000000 0.000000 0.000000
# 2 0.000151 0.011374 0.003070 0.000000 0.000000 0.000000
# 3 0.001263 0.003070 0.017703 0.000000 0.000000 0.000000
# 4 0.000000 0.000000 0.000000 0.042072 0.000000 0.000000
# 5 0.000000 0.000000 0.000000 0.000000 0.041014 0.000000
# 6 0.000000 0.000000 0.000000 0.000000 0.000000 0.029441
#
#
# Mechanical properties :
#
#
# Convention : Reuss Voigt Hill
#
# Bulk Modulus (GPa) = 18.07508 18.91569 18.49538
# Shear Modulus (GPa) = 29.69869 31.74724 30.72297
#
# Velocity S-wave (km/s) = 3.54192 3.66204 3.60248
# Velocity P-wave (km/s) = 4.93580 5.08635 5.01164
#
# Compressibility (1/GPa) = 0.05532480
#
# Stress axis : x y z
#
# Youngs Moduli (GPa) = 57.87084 87.92353 56.48714
#
# Poissons Ratio (x) = -0.01329 -0.07132
# Poissons Ratio (y) = -0.00875 -0.17343
# Poissons Ratio (z) = -0.07307 -0.26995
#
# Static dielectric constant tensor:
#      x y z
#    x 2.111410 0.000000 0.000000 
#    y 0.000000 1.648550 0.000000 
#    z 0.000000 0.000000 2.132070 
# 
# From -- ./inp_files/13697.got.cif
#   From: 2010.05.17/outbox.cif.g08.bks.cpg/sg54_7_cif.got.tgz:13697.got - 2010.06.03 13:09:01.
