data_PCOD9423688
_publ_section_title
;
Structure prediction by ZEFSAII (Michael W. Deem and Ramdas Pophale) SiO2 
 PCOD9423688
Probable space group: P C C A
;
_chemical_formula_sum "Si O2"
_cell_formula_units_Z 40
_cell_length_a 23.322429
_cell_length_b 8.465460
_cell_length_c 9.334584
_cell_angle_alpha 90.000000
_cell_angle_beta 90.000000
_cell_angle_gamma 90.000000
_cell_volume 1842.974430
_symmetry_space_group_name_H-M "P C C A"
_symmetry_group_IT_number 54
_symmetry_cell_setting 'orthorhombic'
loop_
_space_group_symop_operation_xyz
x,y,z
1/2-x,-y,z
1/2+x,-y,1/2-z
-x,y,1/2-z
-x,-y,-z
1/2+x,y,-z
1/2-x,y,1/2+z
x,-y,1/2+z
loop_
_atom_site_type_symbol
_atom_site_label
_atom_site_fract_x
_atom_site_fract_y
_atom_site_fract_z
Si Si1 0.912730 0.861800 0.831141
Si Si2 0.450414 0.662236 0.925472
Si Si3 0.324259 0.127041 0.083899
Si Si4 0.000000 0.914881 0.250000
Si Si5 0.250000 0.000000 0.324302
Si Si6 0.080032 0.326460 0.456764
O O1 0.917691 0.804516 0.668126
O O2 0.860366 0.970485 0.874813
O O3 0.918058 0.711319 0.931367
O O4 0.967955 0.971271 0.859570
O O5 0.449933 0.807880 0.816866
O O6 0.422782 0.497787 0.879427
O O7 0.519067 0.660409 0.959758
O O8 0.280000 0.127177 0.217272
O O9 0.292466 0.089505 0.934139
O O10 0.367072 0.274705 0.057506
#
# Coordination Sequence:
#
# PCOD9423688 Si02
#       6
#     8   8   8   4   4   8
#     4  12  22  39  64  96 137 180 231 275 345 421
#     4  11  25  36  59  98 146 179 216 271 345 445
#     4  11  22  43  70 101 128 177 236 299 342 398
#     4  12  22  36  62  98 132 182 228 264 334 434
#     4  10  24  42  72 102 124 172 258 308 334 378
#     4  11  23  39  61  97 141 186 218 276 352 421
#
# _framework density 21.704046999999999
#
# number of rings (size 3 to 8) (size 9 to 14) (size 15 to 20)
#    0.000    0.800    6.000    1.800    5.600    0.000 
#    0.000    0.000    0.000    7.200    0.000    0.000 
#    0.000    0.000    0.000    0.000    0.000    0.000 
#
# Total GULP energy -223109.636734 kJ/mol
# GULP energy per Si atom -5577.740918 kJ/mol
# Density = 2.165465 g / cm^3
# Si number density = 21.704047 Si / 1000 Ang^3
#
#
#
# Elastic Constant Matrix: (Units=GPa)
#
#
# Indices 1 2 3 4 5 6 
#
# 1 96.6291 42.6350 41.9005 0.0000 0.0000 0.0000
# 2 42.6350 102.5161 28.6568 0.0000 0.0000 0.0000
# 3 41.9005 28.6568 106.5792 0.0000 0.0000 0.0000
# 4 0.0000 0.0000 0.0000 29.3497 0.0000 0.0000
# 5 0.0000 0.0000 0.0000 0.0000 39.7723 0.0000
# 6 0.0000 0.0000 0.0000 0.0000 0.0000 28.2890
#
#
#
# Elastic Compliance Matrix: (Units=1/GPa)
#
#
# Indices 1 2 3 4 5 6 
#
# 1 0.014331 -0.004742 -0.004359 0.000000 0.000000 0.000000
# 2 -0.004742 0.012116 -0.001394 0.000000 0.000000 0.000000
# 3 -0.004359 -0.001394 0.011471 0.000000 0.000000 0.000000
# 4 0.000000 0.000000 0.000000 0.034072 0.000000 0.000000
# 5 0.000000 0.000000 0.000000 0.000000 0.025143 0.000000
# 6 0.000000 0.000000 0.000000 0.000000 0.000000 0.035349
#
#
# Mechanical properties :
#
#
# Convention : Reuss Voigt Hill
#
# Bulk Modulus (GPa) = 59.06834 59.12321 59.09578
# Shear Modulus (GPa) = 31.42379 32.31768 31.87074
#
# Velocity S-wave (km/s) = 3.80917 3.86296 3.83616
# Velocity P-wave (km/s) = 6.82794 6.86997 6.84899
#
# Compressibility (1/GPa) = 0.01692954
#
# Stress axis : x y z
#
# Youngs Moduli (GPa) = 69.77774 82.53485 87.17483
#
# Poissons Ratio (x) = 0.39135 0.38002
# Poissons Ratio (y) = 0.33086 0.12149
# Poissons Ratio (z) = 0.30418 0.11502
#
# Static dielectric constant tensor:
#      x y z
#    x 1.856970 0.000000 0.000000 
#    y 0.000000 1.823530 0.000000 
#    z 0.000000 0.000000 1.860650 
# 
# From -- ./inp_files/5056.got.cif
#   From: 2010.05.17/outbox.cif.g08.bks.cpg/sg54_3_cif.got.tgz:5056.got - 2010.06.03 13:09:01.
