data_PCOD9423263
_publ_section_title
;
Structure prediction by ZEFSAII (Michael W. Deem and Ramdas Pophale) SiO2 
 PCOD9423263
Probable space group: P C C A
;
_chemical_formula_sum "Si O2"
_cell_formula_units_Z 56
_cell_length_a 8.549776
_cell_length_b 14.342695
_cell_length_c 20.007131
_cell_angle_alpha 90.000000
_cell_angle_beta 90.000000
_cell_angle_gamma 90.000000
_cell_volume 2453.411042
_symmetry_space_group_name_H-M "P C C A"
_symmetry_group_IT_number 54
_symmetry_cell_setting 'orthorhombic'
loop_
_space_group_symop_operation_xyz
x,y,z
1/2-x,-y,z
1/2+x,-y,1/2-z
-x,y,1/2-z
-x,-y,-z
1/2+x,y,-z
1/2-x,y,1/2+z
x,-y,1/2+z
loop_
_atom_site_type_symbol
_atom_site_label
_atom_site_fract_x
_atom_site_fract_y
_atom_site_fract_z
Si Si1 0.659263 0.151322 0.902487
Si Si2 0.142141 0.911307 0.303288
Si Si3 0.160783 0.680397 0.165311
Si Si4 0.293910 0.294188 0.309220
Si Si5 0.455725 0.039542 0.072377
Si Si6 0.782923 0.400397 0.464037
Si Si7 0.587927 0.302829 0.564063
O O1 0.740099 0.226660 0.853886
O O2 0.810407 0.108694 0.940288
O O3 0.515754 0.208876 0.934691
O O4 0.586892 0.051450 0.881686
O O5 0.233067 0.814874 0.294084
O O6 0.000000 0.910209 0.250000
O O7 0.082602 0.911219 0.380645
O O8 0.250000 0.000000 0.292082
O O9 0.214206 0.651999 0.239273
O O10 0.197522 0.607958 0.107101
O O11 0.975178 0.699412 0.167334
O O12 0.172346 0.320288 0.365877
O O13 0.500000 0.000000 0.000000
O O14 0.750000 0.500000 0.495684
O O15 0.718605 0.314382 0.507761
O O16 0.963922 0.383159 0.452188
#
# Coordination Sequence:
#
# PCOD9423263 Si02
#       7
#     8   8   8   8   8   8   8
#     4  10  23  41  63  94 134 181 228 289 341 401
#     4  12  26  42  67  95 142 190 237 290 343 394
#     4  10  22  44  71  95 137 182 226 282 349 418
#     4  11  22  45  67 101 137 184 233 281 346 417
#     4  11  25  41  62  95 137 177 243 293 339 395
#     4  11  25  47  72 105 140 175 225 287 356 435
#     4  11  25  42  74 100 135 184 225 283 352 423
#
# _framework density 22.825365000000001
#
# number of rings (size 3 to 8) (size 9 to 14) (size 15 to 20)
#    0.000    1.143    2.857    2.143   10.000    4.571 
#    0.000    3.571    0.000    0.000    0.000    0.000 
#    0.000    0.000    0.000    0.000    0.000    0.000 
#
# Total GULP energy -312701.391538 kJ/mol
# GULP energy per Si atom -5583.953420 kJ/mol
# Density = 2.277341 g / cm^3
# Si number density = 22.825365 Si / 1000 Ang^3
#
#
#
# Elastic Constant Matrix: (Units=GPa)
#
#
# Indices 1 2 3 4 5 6 
#
# 1 86.6425 13.0917 41.7912 0.0000 0.0000 0.0000
# 2 13.0917 38.8093 -1.0105 0.0000 0.0000 0.0000
# 3 41.7912 -1.0105 101.4049 0.0000 0.0000 0.0000
# 4 0.0000 0.0000 0.0000 18.2190 0.0000 0.0000
# 5 0.0000 0.0000 0.0000 0.0000 31.2136 0.0000
# 6 0.0000 0.0000 0.0000 0.0000 0.0000 34.7120
#
#
#
# Elastic Compliance Matrix: (Units=1/GPa)
#
#
# Indices 1 2 3 4 5 6 
#
# 1 0.015452 -0.005380 -0.006422 0.000000 0.000000 0.000000
# 2 -0.005380 0.027647 0.002493 0.000000 0.000000 0.000000
# 3 -0.006422 0.002493 0.012533 0.000000 0.000000 0.000000
# 4 0.000000 0.000000 0.000000 0.054888 0.000000 0.000000
# 5 0.000000 0.000000 0.000000 0.000000 0.032037 0.000000
# 6 0.000000 0.000000 0.000000 0.000000 0.000000 0.028809
#
#
# Mechanical properties :
#
#
# Convention : Reuss Voigt Hill
#
# Bulk Modulus (GPa) = 27.01688 37.17792 32.09740
# Shear Modulus (GPa) = 24.71325 28.36121 26.53723
#
# Velocity S-wave (km/s) = 3.29403 3.52878 3.41342
# Velocity P-wave (km/s) = 5.13123 5.73815 5.44316
#
# Compressibility (1/GPa) = 0.03701390
#
# Stress axis : x y z
#
# Youngs Moduli (GPa) = 64.71650 36.17068 79.79050
#
# Poissons Ratio (x) = 0.19459 0.51239
# Poissons Ratio (y) = 0.34815 -0.19889
# Poissons Ratio (z) = 0.41559 -0.09016
#
# Static dielectric constant tensor:
#      x y z
#    x 1.887490 0.000000 0.000000 
#    y 0.000000 1.847340 0.000000 
#    z 0.000000 0.000000 1.888540 
# 
# From -- ./inp_files/20575.got.cif
#   From: 2010.05.17/outbox.cif.g08.bks.cpg/sg54_11_cif.got.tgz:20575.got - 2010.06.03 13:09:01.
