data_PCOD9423631
_publ_section_title
;
Structure prediction by ZEFSAII (Michael W. Deem and Ramdas Pophale) SiO2 
 PCOD9423631
Probable space group: P C C A
;
_chemical_formula_sum "Si O2"
_cell_formula_units_Z 36
_cell_length_a 8.924167
_cell_length_b 9.276819
_cell_length_c 21.557133
_cell_angle_alpha 90.000000
_cell_angle_beta 90.000000
_cell_angle_gamma 90.000000
_cell_volume 1784.669383
_symmetry_space_group_name_H-M "P C C A"
_symmetry_group_IT_number 54
_symmetry_cell_setting 'orthorhombic'
loop_
_space_group_symop_operation_xyz
x,y,z
1/2-x,-y,z
1/2+x,-y,1/2-z
-x,y,1/2-z
-x,-y,-z
1/2+x,y,-z
1/2-x,y,1/2+z
x,-y,1/2+z
loop_
_atom_site_type_symbol
_atom_site_label
_atom_site_fract_x
_atom_site_fract_y
_atom_site_fract_z
Si Si1 0.912820 0.931530 0.186834
Si Si2 0.250000 0.000000 0.488184
Si Si3 0.906746 0.411378 0.686044
Si Si4 0.573905 0.463915 0.932650
Si Si5 0.006681 0.867588 0.578709
O O1 0.888455 0.760813 0.180190
O O2 0.000000 0.955678 0.250000
O O3 0.750000 0.000000 0.189297
O O4 0.005405 0.017142 0.134298
O O5 0.126504 0.922828 0.529177
O O6 0.338606 0.882949 0.447953
O O7 0.750000 0.500000 0.687893
O O8 0.000000 0.440328 0.750000
O O9 0.997616 0.451346 0.623977
O O10 0.750000 0.500000 0.936445
O O11 0.546573 0.298045 0.912475
O O12 0.500000 0.500000 0.000000
#
# Coordination Sequence:
#
# PCOD9423631 Si02
#       5
#     8   4   8   8   8
#     4  11  26  44  69  99 132 178 232 284 338 411
#     4  10  24  40  68  96 132 178 218 274 340 400
#     4  11  26  47  70  99 139 185 232 286 356 424
#     4  12  27  43  70 105 141 184 229 289 351 422
#     4  11  24  43  68  97 137 175 227 279 337 411
#
# _framework density 20.171803000000001
#
# number of rings (size 3 to 8) (size 9 to 14) (size 15 to 20)
#    0.000    0.889    1.111    4.000   10.889    5.333 
#    0.000    0.000    0.000    0.000    0.000    0.000 
#    0.000    0.000    0.000    0.000    0.000    0.000 
#
# Total GULP energy -201133.062404 kJ/mol
# GULP energy per Si atom -5587.029511 kJ/mol
# Density = 2.012589 g / cm^3
# Si number density = 20.171803 Si / 1000 Ang^3
#
#
#
# Elastic Constant Matrix: (Units=GPa)
#
#
# Indices 1 2 3 4 5 6 
#
# 1 153.7319 54.3740 81.0115 0.0000 0.0000 0.0000
# 2 54.3740 104.8231 65.5290 0.0000 0.0000 0.0000
# 3 81.0115 65.5290 162.3211 0.0000 0.0000 0.0000
# 4 0.0000 0.0000 0.0000 31.4854 0.0000 0.0000
# 5 0.0000 0.0000 0.0000 0.0000 -41.3562 0.0000
# 6 0.0000 0.0000 0.0000 0.0000 0.0000 31.7005
#
#
#
# Elastic Compliance Matrix: (Units=1/GPa)
#
#
# Indices 1 2 3 4 5 6 
#
# 1 0.009319 -0.002577 -0.003611 0.000000 0.000000 0.000000
# 2 -0.002577 0.013473 -0.004153 0.000000 0.000000 0.000000
# 3 -0.003611 -0.004153 0.009639 0.000000 0.000000 0.000000
# 4 0.000000 0.000000 0.000000 0.031761 0.000000 0.000000
# 5 0.000000 0.000000 0.000000 0.000000 -0.024180 0.000000
# 6 0.000000 0.000000 0.000000 0.000000 0.000000 0.031545
#
#
# Mechanical properties :
#
#
# Convention : Reuss Voigt Hill
#
# Bulk Modulus (GPa) = 85.10570 91.41169 88.25870
# Shear Modulus (GPa) = 51.99998 19.03004 35.51501
#
# Velocity S-wave (km/s) = 5.08277 3.07481 4.20053
# Velocity P-wave (km/s) = 8.75945 7.61714 8.20819
#
# Compressibility (1/GPa) = 0.01175009
#
# Stress axis : x y z
#
# Youngs Moduli (GPa) = 107.30868 74.22451 103.74334
#
# Poissons Ratio (x) = 0.19126 0.37458
# Poissons Ratio (y) = 0.27651 0.43084
# Poissons Ratio (z) = 0.38746 0.30825
#
# Static dielectric constant tensor:
#      x y z
#    x 1.683360 0.000000 0.000000 
#    y 0.000000 1.926130 0.000000 
#    z 0.000000 0.000000 1.744280 
# 
# From -- ./inp_files/20114.got.cif
#   From: 2010.05.17/outbox.cif.g08.bks.cpg/sg54_11_cif.got.tgz:20114.got - 2010.06.03 13:09:01.
