data_PCOD9423286
_publ_section_title
;
Structure prediction by ZEFSAII (Michael W. Deem and Ramdas Pophale) SiO2 
 PCOD9423286
Probable space group: P C C A
;
_chemical_formula_sum "Si O2"
_cell_formula_units_Z 28
_cell_length_a 15.993340
_cell_length_b 7.360644
_cell_length_c 8.653575
_cell_angle_alpha 90.000000
_cell_angle_beta 90.000000
_cell_angle_gamma 90.000000
_cell_volume 1018.709944
_symmetry_space_group_name_H-M "P C C A"
_symmetry_group_IT_number 54
_symmetry_cell_setting 'orthorhombic'
loop_
_space_group_symop_operation_xyz
x,y,z
1/2-x,-y,z
1/2+x,-y,1/2-z
-x,y,1/2-z
-x,-y,-z
1/2+x,y,-z
1/2-x,y,1/2+z
x,-y,1/2+z
loop_
_atom_site_type_symbol
_atom_site_label
_atom_site_fract_x
_atom_site_fract_y
_atom_site_fract_z
Si Si1 0.500000 0.041734 0.250000
Si Si2 0.165626 0.074022 0.112815
Si Si3 0.839974 0.405564 0.620584
Si Si4 0.909921 0.272712 0.949683
O O1 0.502839 0.178130 0.398662
O O2 0.418270 0.924324 0.216893
O O3 0.172380 0.255281 0.013325
O O4 0.250000 0.000000 0.693821
O O5 0.146387 0.899259 0.004253
O O6 0.750000 0.500000 0.641902
O O7 0.870409 0.333814 0.785507
O O8 0.904208 0.560467 0.562594
#
# Coordination Sequence:
#
# PCOD9423286 Si02
#       4
#     4   8   8   8
#     4   8  22  48  62 108 134 186 230 276 356 400
#     4  10  22  45  65 102 141 183 228 287 340 414
#     4  12  23  42  72 103 137 185 231 285 343 410
#     4  10  25  43  68 105 139 179 233 281 345 412
#
# _framework density 27.485745000000001
#
# number of rings (size 3 to 8) (size 9 to 14) (size 15 to 20)
#    1.714    0.000    2.857    0.857    0.000    6.857 
#    0.000    0.000    0.000    0.000    0.000    0.000 
#    0.000    0.000    0.000    0.000    0.000    0.000 
#
# Total GULP energy -156591.648598 kJ/mol
# GULP energy per Si atom -5592.558879 kJ/mol
# Density = 2.742319 g / cm^3
# Si number density = 27.485745 Si / 1000 Ang^3
#
#
#
# Elastic Constant Matrix: (Units=GPa)
#
#
# Indices 1 2 3 4 5 6 
#
# 1 136.3271 25.6580 68.9518 0.0000 0.0000 0.0000
# 2 25.6580 152.1990 50.6374 0.0000 0.0000 0.0000
# 3 68.9518 50.6374 105.1523 0.0000 0.0000 0.0000
# 4 0.0000 0.0000 0.0000 47.6768 0.0000 0.0000
# 5 0.0000 0.0000 0.0000 0.0000 39.6011 0.0000
# 6 0.0000 0.0000 0.0000 0.0000 0.0000 55.1820
#
#
#
# Elastic Compliance Matrix: (Units=1/GPa)
#
#
# Indices 1 2 3 4 5 6 
#
# 1 0.011029 0.000651 -0.007546 0.000000 0.000000 0.000000
# 2 0.000651 0.007862 -0.004213 0.000000 0.000000 0.000000
# 3 -0.007546 -0.004213 0.016487 0.000000 0.000000 0.000000
# 4 0.000000 0.000000 0.000000 0.020975 0.000000 0.000000
# 5 0.000000 0.000000 0.000000 0.000000 0.025252 0.000000
# 6 0.000000 0.000000 0.000000 0.000000 0.000000 0.018122
#
#
# Mechanical properties :
#
#
# Convention : Reuss Voigt Hill
#
# Bulk Modulus (GPa) = 75.97121 76.01920 75.99520
# Shear Modulus (GPa) = 39.57880 45.05407 42.31644
#
# Velocity S-wave (km/s) = 3.79882 4.05307 3.92800
# Velocity P-wave (km/s) = 6.85139 7.04421 6.94847
#
# Compressibility (1/GPa) = 0.01316288
#
# Stress axis : x y z
#
# Youngs Moduli (GPa) = 90.66754 127.18894 60.65377
#
# Poissons Ratio (x) = -0.08283 0.45769
# Poissons Ratio (y) = -0.05904 0.25555
# Poissons Ratio (z) = 0.68417 0.53587
#
# Static dielectric constant tensor:
#      x y z
#    x 2.291180 0.000000 0.000000 
#    y 0.000000 2.138320 0.000000 
#    z 0.000000 0.000000 2.100610 
# 
# From -- ./inp_files/3881.got.cif
#   From: 2010.05.17/outbox.cif.g08.bks.cpg/sg54_2_cif.got.tgz:3881.got - 2010.06.03 13:09:01.
