data_PCOD9423767
_publ_section_title
;
Structure prediction by ZEFSAII (Michael W. Deem and Ramdas Pophale) SiO2 
 PCOD9423767
Probable space group: P C C A
;
_chemical_formula_sum "Si O2"
_cell_formula_units_Z 40
_cell_length_a 8.587808
_cell_length_b 11.750326
_cell_length_c 19.129278
_cell_angle_alpha 90.000000
_cell_angle_beta 90.000000
_cell_angle_gamma 90.000000
_cell_volume 1930.326713
_symmetry_space_group_name_H-M "P C C A"
_symmetry_group_IT_number 54
_symmetry_cell_setting 'orthorhombic'
loop_
_space_group_symop_operation_xyz
x,y,z
1/2-x,-y,z
1/2+x,-y,1/2-z
-x,y,1/2-z
-x,-y,-z
1/2+x,y,-z
1/2-x,y,1/2+z
x,-y,1/2+z
loop_
_atom_site_type_symbol
_atom_site_label
_atom_site_fract_x
_atom_site_fract_y
_atom_site_fract_z
Si Si1 0.938362 0.503874 0.826420
Si Si2 0.414141 0.062219 0.179891
Si Si3 0.594504 0.291109 0.408290
Si Si4 0.084760 0.060443 0.434274
Si Si5 0.462701 0.312773 0.556709
O O1 0.750000 0.500000 0.826414
O O2 0.969732 0.374413 0.848243
O O3 0.001580 0.590577 0.885902
O O4 0.000000 0.534184 0.750000
O O5 0.500000 0.099506 0.250000
O O6 0.412593 0.164817 0.123710
O O7 0.250000 0.000000 0.193617
O O8 0.513686 0.968258 0.140396
O O9 0.496921 0.334055 0.475366
O O10 0.777055 0.299363 0.430300
O O11 0.062021 0.195924 0.437014
O O12 0.250000 0.000000 0.436547
O O13 0.000000 0.000000 0.500000
#
# Coordination Sequence:
#
# PCOD9423767 Si02
#       5
#     8   8   8   8   8
#     4  10  24  45  65  97 135 178 225 284 344 413
#     4  12  25  44  64  96 137 175 224 278 344 421
#     4  11  23  43  67  98 133 172 226 288 338 413
#     4  12  23  41  66  98 134 175 222 274 339 402
#     4  11  23  41  69  95 134 175 229 281 340 409
#
# _framework density 20.721882000000001
#
# number of rings (size 3 to 8) (size 9 to 14) (size 15 to 20)
#    0.000    0.800    4.000    3.600    0.000    2.400 
#    7.200    0.000    0.000    0.000    0.000    0.000 
#    0.000    0.000    0.000    0.000    0.000    0.000 
#
# Total GULP energy -222877.625526 kJ/mol
# GULP energy per Si atom -5571.940638 kJ/mol
# Density = 2.067472 g / cm^3
# Si number density = 20.721882 Si / 1000 Ang^3
#
#
#
# Elastic Constant Matrix: (Units=GPa)
#
#
# Indices 1 2 3 4 5 6 
#
# 1 82.3480 8.6310 25.1250 0.0000 0.0000 0.0000
# 2 8.6310 102.4073 31.8468 0.0000 0.0000 0.0000
# 3 25.1250 31.8468 120.1957 0.0000 0.0000 0.0000
# 4 0.0000 0.0000 0.0000 39.4934 0.0000 0.0000
# 5 0.0000 0.0000 0.0000 0.0000 17.4725 0.0000
# 6 0.0000 0.0000 0.0000 0.0000 0.0000 16.2026
#
#
#
# Elastic Compliance Matrix: (Units=1/GPa)
#
#
# Indices 1 2 3 4 5 6 
#
# 1 0.012978 -0.000273 -0.002641 0.000000 0.000000 0.000000
# 2 -0.000273 0.010648 -0.002764 0.000000 0.000000 0.000000
# 3 -0.002641 -0.002764 0.009604 0.000000 0.000000 0.000000
# 4 0.000000 0.000000 0.000000 0.025321 0.000000 0.000000
# 5 0.000000 0.000000 0.000000 0.000000 0.057233 0.000000
# 6 0.000000 0.000000 0.000000 0.000000 0.000000 0.061718
#
#
# Mechanical properties :
#
#
# Convention : Reuss Voigt Hill
#
# Bulk Modulus (GPa) = 45.71481 48.46184 47.08833
# Shear Modulus (GPa) = 25.49100 30.59025 28.04063
#
# Velocity S-wave (km/s) = 3.51115 3.84634 3.68256
# Velocity P-wave (km/s) = 6.20859 6.56988 6.39179
#
# Compressibility (1/GPa) = 0.02187475
#
# Stress axis : x y z
#
# Youngs Moduli (GPa) = 77.05457 93.91876 104.12201
#
# Poissons Ratio (x) = 0.02560 0.27494
# Poissons Ratio (y) = 0.02101 0.28781
# Poissons Ratio (z) = 0.20347 0.25961
#
# Static dielectric constant tensor:
#      x y z
#    x 1.726110 0.000000 0.000000 
#    y 0.000000 1.719410 0.000000 
#    z 0.000000 0.000000 1.964890 
# 
# From -- ./inp_files/16284.got.cif
#   From: 2010.05.17/outbox.cif.g08.bks.cpg/sg54_9_cif.got.tgz:16284.got - 2010.06.03 13:09:01.
