data_PCOD9423069
_publ_section_title
;
Structure prediction by ZEFSAII (Michael W. Deem and Ramdas Pophale) SiO2 
 PCOD9423069
Probable space group: P C C A
;
_chemical_formula_sum "Si O2"
_cell_formula_units_Z 20
_cell_length_a 8.981679
_cell_length_b 9.135780
_cell_length_c 8.575301
_cell_angle_alpha 90.000000
_cell_angle_beta 90.000000
_cell_angle_gamma 90.000000
_cell_volume 703.643265
_symmetry_space_group_name_H-M "P C C A"
_symmetry_group_IT_number 54
_symmetry_cell_setting 'orthorhombic'
loop_
_space_group_symop_operation_xyz
x,y,z
1/2-x,-y,z
1/2+x,-y,1/2-z
-x,y,1/2-z
-x,-y,-z
1/2+x,y,-z
1/2-x,y,1/2+z
x,-y,1/2+z
loop_
_atom_site_type_symbol
_atom_site_label
_atom_site_fract_x
_atom_site_fract_y
_atom_site_fract_z
Si Si1 0.638566 0.391075 0.038200
Si Si2 0.000000 0.073066 0.250000
Si Si3 0.887729 0.810704 0.434738
O O1 0.750000 0.500000 0.126027
O O2 0.547626 0.259495 0.109046
O O3 0.500000 0.500000 0.000000
O O4 0.750048 0.697169 0.919666
O O5 0.895847 0.967362 0.353414
O O6 0.906780 0.163688 0.122481
#
# Coordination Sequence:
#
# PCOD9423069 Si02
#       3
#     8   4   8
#     4   9  20  42  66  94 128 174 228 278 328 394
#     4  10  24  40  66 100 136 176 220 278 340 400
#     4  10  22  41  66  97 133 173 223 276 335 399
#
# _framework density 28.423492
#
# number of rings (size 3 to 8) (size 9 to 14) (size 15 to 20)
#    0.000    2.400    0.000    0.000    0.000   12.800 
#    0.000   30.000    0.000    0.000    0.000    8.400 
#    0.000    0.000    0.000    0.000    0.000    0.000 
#
# Total GULP energy -111546.938301 kJ/mol
# GULP energy per Si atom -5577.346915 kJ/mol
# Density = 2.835880 g / cm^3
# Si number density = 28.423492 Si / 1000 Ang^3
#
#
#
# Elastic Constant Matrix: (Units=GPa)
#
#
# Indices 1 2 3 4 5 6 
#
# 1 234.4905 59.0631 34.6522 0.0000 0.0000 0.0000
# 2 59.0631 131.8910 39.7713 0.0000 0.0000 0.0000
# 3 34.6522 39.7713 127.3828 0.0000 0.0000 0.0000
# 4 0.0000 0.0000 0.0000 34.5614 0.0000 0.0000
# 5 0.0000 0.0000 0.0000 0.0000 10.0254 0.0000
# 6 0.0000 0.0000 0.0000 0.0000 0.0000 37.4411
#
#
#
# Elastic Compliance Matrix: (Units=1/GPa)
#
#
# Indices 1 2 3 4 5 6 
#
# 1 0.004864 -0.001964 -0.000710 0.000000 0.000000 0.000000
# 2 -0.001964 0.009163 -0.002327 0.000000 0.000000 0.000000
# 3 -0.000710 -0.002327 0.008770 0.000000 0.000000 0.000000
# 4 0.000000 0.000000 0.000000 0.028934 0.000000 0.000000
# 5 0.000000 0.000000 0.000000 0.000000 0.099747 0.000000
# 6 0.000000 0.000000 0.000000 0.000000 0.000000 0.026709
#
#
# Mechanical properties :
#
#
# Convention : Reuss Voigt Hill
#
# Bulk Modulus (GPa) = 78.15066 84.52638 81.33852
# Shear Modulus (GPa) = 25.98031 40.42409 33.20220
#
# Velocity S-wave (km/s) = 3.02660 3.77531 3.42149
# Velocity P-wave (km/s) = 6.30623 6.98618 6.65489
#
# Compressibility (1/GPa) = 0.01279580
#
# Stress axis : x y z
#
# Youngs Moduli (GPa) = 205.58283 109.13226 114.02647
#
# Poissons Ratio (x) = 0.21436 0.08095
# Poissons Ratio (y) = 0.40380 0.26529
# Poissons Ratio (z) = 0.14596 0.25391
#
# Static dielectric constant tensor:
#      x y z
#    x 2.228170 0.000000 0.000000 
#    y 0.000000 2.258920 0.000000 
#    z 0.000000 0.000000 2.388770 
# 
# From -- ./inp_files/2593.got.cif
#   From: 2010.05.17/outbox.cif.g08.bks.cpg/sg54_2_cif.got.tgz:2593.got - 2010.06.03 13:09:01.
