data_PCOD9423273
_publ_section_title
;
Structure prediction by ZEFSAII (Michael W. Deem and Ramdas Pophale) SiO2 
 PCOD9423273
Probable space group: P C C A
;
_chemical_formula_sum "Si O2"
_cell_formula_units_Z 60
_cell_length_a 16.515171
_cell_length_b 17.838100
_cell_length_c 9.404212
_cell_angle_alpha 90.000000
_cell_angle_beta 90.000000
_cell_angle_gamma 90.000000
_cell_volume 2770.474007
_symmetry_space_group_name_H-M "P C C A"
_symmetry_group_IT_number 54
_symmetry_cell_setting 'orthorhombic'
loop_
_space_group_symop_operation_xyz
x,y,z
1/2-x,-y,z
1/2+x,-y,1/2-z
-x,y,1/2-z
-x,-y,-z
1/2+x,y,-z
1/2-x,y,1/2+z
x,-y,1/2+z
loop_
_atom_site_type_symbol
_atom_site_label
_atom_site_fract_x
_atom_site_fract_y
_atom_site_fract_z
Si Si1 0.300354 0.896766 0.191410
Si Si2 0.686645 0.757953 0.897164
Si Si3 0.583722 0.230012 0.824584
Si Si4 0.834026 0.531382 0.768063
Si Si5 0.004051 0.272207 0.587542
Si Si6 0.273558 0.319669 0.825463
Si Si7 0.564101 0.562308 0.544152
Si Si8 0.750000 0.000000 0.551307
O O1 0.227964 0.836084 0.153923
O O2 0.382918 0.851695 0.207573
O O3 0.284570 0.938777 0.339198
O O4 0.305473 0.954548 0.060349
O O5 0.594595 0.754818 0.952963
O O6 0.695099 0.697441 0.769733
O O7 0.736239 0.724296 0.028905
O O8 0.500000 0.250735 0.750000
O O9 0.654143 0.282509 0.765635
O O10 0.563855 0.235031 0.990204
O O11 0.750000 0.500000 0.827144
O O12 0.802948 0.595617 0.658904
O O13 0.886316 0.470675 0.679540
O O14 0.880536 0.567076 0.902343
O O15 0.000000 0.250027 0.750000
O O16 0.983939 0.360663 0.572384
O O17 0.500000 0.500000 0.500000
#
# Coordination Sequence:
#
# PCOD9423273 Si02
#       8
#     8   8   8   8   8   8   8   4
#     4  10  23  43  74 105 138 183 224 265 332 405
#     4  11  25  42  72 101 134 174 235 282 337 405
#     4  11  23  45  70 100 138 177 226 284 345 401
#     4  12  28  43  66  92 135 184 239 294 359 425
#     4  12  27  42  68 100 135 176 233 295 352 408
#     4  11  25  42  68  96 133 179 233 295 343 406
#     4  12  27  47  64  94 134 184 232 294 366 426
#     4  10  22  44  74 102 146 182 218 260 328 416
#
# _framework density 21.656943999999999
#
# number of rings (size 3 to 8) (size 9 to 14) (size 15 to 20)
#    0.000    0.800    2.667    4.000   13.067    0.000 
#    0.000    0.667    0.000    0.000    0.000    0.000 
#    0.000    0.000    0.000    0.000    0.000    0.000 
#
# Total GULP energy -335161.314376 kJ/mol
# GULP energy per Si atom -5586.021906 kJ/mol
# Density = 2.160765 g / cm^3
# Si number density = 21.656944 Si / 1000 Ang^3
#
#
#
# Elastic Constant Matrix: (Units=GPa)
#
#
# Indices 1 2 3 4 5 6 
#
# 1 62.1710 2.6476 -3.3487 0.0000 0.0000 0.0000
# 2 2.6476 59.8912 -7.8344 0.0000 0.0000 0.0000
# 3 -3.3487 -7.8344 91.0423 0.0000 0.0000 0.0000
# 4 0.0000 0.0000 0.0000 36.2733 0.0000 0.0000
# 5 0.0000 0.0000 0.0000 0.0000 29.5230 0.0000
# 6 0.0000 0.0000 0.0000 0.0000 0.0000 14.9057
#
#
#
# Elastic Compliance Matrix: (Units=1/GPa)
#
#
# Indices 1 2 3 4 5 6 
#
# 1 0.016141 -0.000643 0.000538 0.000000 0.000000 0.000000
# 2 -0.000643 0.016913 0.001432 0.000000 0.000000 0.000000
# 3 0.000538 0.001432 0.011127 0.000000 0.000000 0.000000
# 4 0.000000 0.000000 0.000000 0.027568 0.000000 0.000000
# 5 0.000000 0.000000 0.000000 0.000000 0.033872 0.000000
# 6 0.000000 0.000000 0.000000 0.000000 0.000000 0.067088
#
#
# Mechanical properties :
#
#
# Convention : Reuss Voigt Hill
#
# Bulk Modulus (GPa) = 21.35179 21.78152 21.56666
# Shear Modulus (GPa) = 26.92992 30.91640 28.92316
#
# Velocity S-wave (km/s) = 3.53012 3.78239 3.65843
# Velocity P-wave (km/s) = 5.14745 5.39951 5.27498
#
# Compressibility (1/GPa) = 0.04683447
#
# Stress axis : x y z
#
# Youngs Moduli (GPa) = 61.95385 59.12730 89.87223
#
# Poissons Ratio (x) = 0.03803 -0.04838
# Poissons Ratio (y) = 0.03984 -0.12867
# Poissons Ratio (z) = -0.03335 -0.08465
#
# Static dielectric constant tensor:
#      x y z
#    x 1.821770 0.000000 0.000000 
#    y 0.000000 1.826190 0.000000 
#    z 0.000000 0.000000 1.835710 
# 
# From -- ./inp_files/4352.got.cif
#   From: 2010.05.17/outbox.cif.g08.bks.cpg/sg54_3_cif.got.tgz:4352.got - 2010.06.03 13:09:01.
