data_PCOD9423187
_publ_section_title
;
Structure prediction by ZEFSAII (Michael W. Deem and Ramdas Pophale) SiO2 
 PCOD9423187
Probable space group: P C C A
;
_chemical_formula_sum "Si O2"
_cell_formula_units_Z 36
_cell_length_a 16.495189
_cell_length_b 4.895399
_cell_length_c 19.270560
_cell_angle_alpha 90.000000
_cell_angle_beta 90.000000
_cell_angle_gamma 90.000000
_cell_volume 1556.107967
_symmetry_space_group_name_H-M "P C C A"
_symmetry_group_IT_number 54
_symmetry_cell_setting 'orthorhombic'
loop_
_space_group_symop_operation_xyz
x,y,z
1/2-x,-y,z
1/2+x,-y,1/2-z
-x,y,1/2-z
-x,-y,-z
1/2+x,y,-z
1/2-x,y,1/2+z
x,-y,1/2+z
loop_
_atom_site_type_symbol
_atom_site_label
_atom_site_fract_x
_atom_site_fract_y
_atom_site_fract_z
Si Si1 0.441655 0.693767 0.923133
Si Si2 0.750000 0.500000 0.425349
Si Si3 0.394615 0.810766 0.507797
Si Si4 0.827348 0.659627 0.790343
Si Si5 0.411807 0.170871 0.266525
O O1 0.427328 0.382212 0.945235
O O2 0.409371 0.757179 0.847276
O O3 0.395505 0.883159 0.979362
O O4 0.536272 0.772863 0.933324
O O5 0.690725 0.306516 0.468011
O O6 0.695116 0.676302 0.371402
O O7 0.750000 0.500000 0.758069
O O8 0.899506 0.447714 0.777001
O O9 0.847184 0.947568 0.757524
O O10 0.500000 0.053643 0.250000
#
# Coordination Sequence:
#
# PCOD9423187 Si02
#       5
#     8   4   8   8   8
#     4  10  23  41  65  95 130 166 219 270 321 387
#     4  10  24  44  66  94 128 180 216 266 334 392
#     4  10  22  43  65  94 129 172 217 269 321 392
#     4  10  25  42  64  95 133 171 216 273 321 393
#     4  12  23  43  69  99 129 176 217 271 333 393
#
# _framework density 23.134643000000001
#
# number of rings (size 3 to 8) (size 9 to 14) (size 15 to 20)
#    0.667    0.889    0.000    4.000    0.000    9.778 
#   12.000    0.000    0.000    0.000    0.000    0.000 
#    0.000    0.000    0.000    0.000    0.000    0.000 
#
# Total GULP energy -201480.804665 kJ/mol
# GULP energy per Si atom -5596.689018 kJ/mol
# Density = 2.308199 g / cm^3
# Si number density = 23.134643 Si / 1000 Ang^3
#
#
#
# Elastic Constant Matrix: (Units=GPa)
#
#
# Indices 1 2 3 4 5 6 
#
# 1 94.6619 9.7779 17.3188 0.0000 0.0000 0.0000
# 2 9.7779 94.8521 2.0248 0.0000 0.0000 0.0000
# 3 17.3188 2.0248 76.4478 0.0000 0.0000 0.0000
# 4 0.0000 0.0000 0.0000 8.4413 0.0000 0.0000
# 5 0.0000 0.0000 0.0000 0.0000 31.2955 0.0000
# 6 0.0000 0.0000 0.0000 0.0000 0.0000 43.8743
#
#
#
# Elastic Compliance Matrix: (Units=1/GPa)
#
#
# Indices 1 2 3 4 5 6 
#
# 1 0.011133 -0.001094 -0.002493 0.000000 0.000000 0.000000
# 2 -0.001094 0.010656 -0.000034 0.000000 0.000000 0.000000
# 3 -0.002493 -0.000034 0.013647 0.000000 0.000000 0.000000
# 4 0.000000 0.000000 0.000000 0.118466 0.000000 0.000000
# 5 0.000000 0.000000 0.000000 0.000000 0.031953 0.000000
# 6 0.000000 0.000000 0.000000 0.000000 0.000000 0.022792
#
#
# Mechanical properties :
#
#
# Convention : Reuss Voigt Hill
#
# Bulk Modulus (GPa) = 35.47090 36.02275 35.74682
# Shear Modulus (GPa) = 22.19376 32.51157 27.35267
#
# Velocity S-wave (km/s) = 3.10067 3.75283 3.44223
# Velocity P-wave (km/s) = 5.30891 5.86370 5.59319
#
# Compressibility (1/GPa) = 0.02819213
#
# Stress axis : x y z
#
# Youngs Moduli (GPa) = 89.82227 93.84137 73.27870
#
# Poissons Ratio (x) = 0.10270 0.18269
# Poissons Ratio (y) = 0.09831 0.00251
# Poissons Ratio (z) = 0.22394 0.00322
#
# Static dielectric constant tensor:
#      x y z
#    x 1.899660 0.000000 0.000000 
#    y 0.000000 1.842420 0.000000 
#    z 0.000000 0.000000 1.831110 
# 
# From -- ./inp_files/21347.got.cif
#   From: 2010.05.17/outbox.cif.g08.bks.cpg/sg54_11_cif.got.tgz:21347.got - 2010.06.03 13:09:01.
