data_PCOD9423032
_publ_section_title
;
Structure prediction by ZEFSAII (Michael W. Deem and Ramdas Pophale) SiO2 
 PCOD9423032
Probable space group: P C C A
;
_chemical_formula_sum "Si O2"
_cell_formula_units_Z 36
_cell_length_a 8.540381
_cell_length_b 8.554402
_cell_length_c 22.796844
_cell_angle_alpha 90.000000
_cell_angle_beta 90.000000
_cell_angle_gamma 90.000000
_cell_volume 1665.488462
_symmetry_space_group_name_H-M "P C C A"
_symmetry_group_IT_number 54
_symmetry_cell_setting 'orthorhombic'
loop_
_space_group_symop_operation_xyz
x,y,z
1/2-x,-y,z
1/2+x,-y,1/2-z
-x,y,1/2-z
-x,-y,-z
1/2+x,y,-z
1/2-x,y,1/2+z
x,-y,1/2+z
loop_
_atom_site_type_symbol
_atom_site_label
_atom_site_fract_x
_atom_site_fract_y
_atom_site_fract_z
Si Si1 0.427949 0.061476 0.440506
Si Si2 0.514514 0.091198 0.828744
Si Si3 0.927196 0.435358 0.561153
Si Si4 0.073677 0.440476 0.314698
Si Si5 0.750000 0.000000 0.744609
O O1 0.428913 0.248067 0.439394
O O2 0.250000 0.000000 0.432202
O O3 0.500000 0.000000 0.500000
O O4 0.536202 0.981907 0.391252
O O5 0.426747 0.255079 0.827752
O O6 0.670047 0.118299 0.790448
O O7 0.396384 0.967399 0.797175
O O8 0.750000 0.500000 0.561766
O O9 0.998503 0.487450 0.624794
O O10 0.000000 0.500000 0.500000
O O11 0.250000 0.500000 0.310756
O O12 0.000000 0.469126 0.250000
#
# Coordination Sequence:
#
# PCOD9423032 Si02
#       5
#     8   8   8   8   4
#     4  12  25  44  70  99 129 177 232 279 330 403
#     4  11  23  44  67 101 133 176 229 278 334 402
#     4  11  25  46  67  94 136 176 218 278 340 399
#     4  11  24  44  66 100 140 177 221 278 344 408
#     4  10  22  40  72  92 138 172 228 278 330 398
#
# _framework density 21.615282000000001
#
# number of rings (size 3 to 8) (size 9 to 14) (size 15 to 20)
#    0.000    0.889    3.333    5.333    1.556    2.667 
#    4.000    0.000    0.000    0.000    0.000    0.000 
#    0.000    0.000    0.000    0.000    0.000    0.000 
#
# Total GULP energy -200683.858142 kJ/mol
# GULP energy per Si atom -5574.551615 kJ/mol
# Density = 2.156609 g / cm^3
# Si number density = 21.615282 Si / 1000 Ang^3
#
#
#
# Elastic Constant Matrix: (Units=GPa)
#
#
# Indices 1 2 3 4 5 6 
#
# 1 32.0629 29.9749 32.5662 0.0000 0.0000 0.0000
# 2 29.9749 154.2464 68.9850 0.0000 0.0000 0.0000
# 3 32.5662 68.9850 235.8856 0.0000 0.0000 0.0000
# 4 0.0000 0.0000 0.0000 33.2034 0.0000 0.0000
# 5 0.0000 0.0000 0.0000 0.0000 29.0501 0.0000
# 6 0.0000 0.0000 0.0000 0.0000 0.0000 31.7137
#
#
#
# Elastic Compliance Matrix: (Units=1/GPa)
#
#
# Indices 1 2 3 4 5 6 
#
# 1 0.040904 -0.006239 -0.003822 0.000000 0.000000 0.000000
# 2 -0.006239 0.008410 -0.001598 0.000000 0.000000 0.000000
# 3 -0.003822 -0.001598 0.005234 0.000000 0.000000 0.000000
# 4 0.000000 0.000000 0.000000 0.030117 0.000000 0.000000
# 5 0.000000 0.000000 0.000000 0.000000 0.034423 0.000000
# 6 0.000000 0.000000 0.000000 0.000000 0.000000 0.031532
#
#
# Mechanical properties :
#
#
# Convention : Reuss Voigt Hill
#
# Bulk Modulus (GPa) = 32.02162 76.13858 54.08010
# Shear Modulus (GPa) = 27.12204 38.17136 32.64670
#
# Velocity S-wave (km/s) = 3.54611 4.20687 3.89054
# Velocity P-wave (km/s) = 5.62254 7.67450 6.72722
#
# Compressibility (1/GPa) = 0.03122890
#
# Stress axis : x y z
#
# Youngs Moduli (GPa) = 24.44734 118.89985 191.04096
#
# Poissons Ratio (x) = 0.74187 0.73025
# Poissons Ratio (y) = 0.15254 0.30533
# Poissons Ratio (z) = 0.09345 0.19003
#
# Static dielectric constant tensor:
#      x y z
#    x 1.787590 0.000000 0.000000 
#    y 0.000000 1.895760 0.000000 
#    z 0.000000 0.000000 1.790840 
# 
# From -- ./inp_files/20157.got.cif
#   From: 2010.05.17/outbox.cif.g08.bks.cpg/sg54_11_cif.got.tgz:20157.got - 2010.06.03 13:09:01.
