data_PCOD9423224
_publ_section_title
;
Structure prediction by ZEFSAII (Michael W. Deem and Ramdas Pophale) SiO2 
 PCOD9423224
Probable space group: P C C A
;
_chemical_formula_sum "Si O2"
_cell_formula_units_Z 28
_cell_length_a 20.242837
_cell_length_b 5.406737
_cell_length_c 9.509878
_cell_angle_alpha 90.000000
_cell_angle_beta 90.000000
_cell_angle_gamma 90.000000
_cell_volume 1040.834234
_symmetry_space_group_name_H-M "P C C A"
_symmetry_group_IT_number 54
_symmetry_cell_setting 'orthorhombic'
loop_
_space_group_symop_operation_xyz
x,y,z
1/2-x,-y,z
1/2+x,-y,1/2-z
-x,y,1/2-z
-x,-y,-z
1/2+x,y,-z
1/2-x,y,1/2+z
x,-y,1/2+z
loop_
_atom_site_type_symbol
_atom_site_label
_atom_site_fract_x
_atom_site_fract_y
_atom_site_fract_z
Si Si1 0.048237 0.908605 0.880960
Si Si2 0.424244 0.418829 0.297835
Si Si3 0.750000 0.000000 0.568507
Si Si4 0.694767 0.694456 0.330067
O O1 0.075126 0.636056 0.915556
O O2 0.000000 0.862067 0.750000
O O3 0.094924 0.138302 0.837560
O O4 0.000000 0.000000 0.000000
O O5 0.500000 0.382845 0.250000
O O6 0.373254 0.549365 0.192512
O O7 0.696821 0.894414 0.454875
O O8 0.781187 0.804409 0.679240
O O9 0.750000 0.500000 0.374614
#
# Coordination Sequence:
#
# PCOD9423224 Si02
#       4
#     8   8   4   8
#     4  10  22  44  65 104 144 186 230 299 374 441
#     4  10  24  45  74 107 143 191 246 311 374 446
#     4  10  26  48  76 106 146 204 254 316 388 464
#     4  11  25  50  73 108 150 199 256 315 385 467
#
# _framework density 26.901501
#
# number of rings (size 3 to 8) (size 9 to 14) (size 15 to 20)
#    0.000    1.714    0.000    1.714    8.000    4.571 
#   25.714    0.000    0.000    0.000    0.000    0.000 
#    0.000    0.000    0.000    0.000    0.000    0.000 
#
# Total GULP energy -156504.617811 kJ/mol
# GULP energy per Si atom -5589.450636 kJ/mol
# Density = 2.684027 g / cm^3
# Si number density = 26.901501 Si / 1000 Ang^3
#
#
#
# Elastic Constant Matrix: (Units=GPa)
#
#
# Indices 1 2 3 4 5 6 
#
# 1 114.1497 -6.4125 23.6800 0.0000 0.0000 0.0000
# 2 -6.4125 136.8887 -2.7656 0.0000 0.0000 0.0000
# 3 23.6800 -2.7656 153.6345 0.0000 0.0000 0.0000
# 4 0.0000 0.0000 0.0000 -22.5701 0.0000 0.0000
# 5 0.0000 0.0000 0.0000 0.0000 21.8593 0.0000
# 6 0.0000 0.0000 0.0000 0.0000 0.0000 46.6745
#
#
#
# Elastic Compliance Matrix: (Units=1/GPa)
#
#
# Indices 1 2 3 4 5 6 
#
# 1 0.009071 0.000397 -0.001391 0.000000 0.000000 0.000000
# 2 0.000397 0.007325 0.000071 0.000000 0.000000 0.000000
# 3 -0.001391 0.000071 0.006725 0.000000 0.000000 0.000000
# 4 0.000000 0.000000 0.000000 -0.044306 0.000000 0.000000
# 5 0.000000 0.000000 0.000000 0.000000 0.045747 0.000000
# 6 0.000000 0.000000 0.000000 0.000000 0.000000 0.021425
#
#
# Mechanical properties :
#
#
# Convention : Reuss Voigt Hill
#
# Bulk Modulus (GPa) = 47.00541 48.18629 47.59585
# Shear Modulus (GPa) = 91.03275 35.20413 63.11844
#
# Velocity S-wave (km/s) = 5.82346 3.62142 4.84910
# Velocity P-wave (km/s) = 7.92011 5.95292 7.00590
#
# Compressibility (1/GPa) = 0.02127415
#
# Stress axis : x y z
#
# Youngs Moduli (GPa) = 110.23796 136.51460 148.70709
#
# Poissons Ratio (x) = -0.05417 0.20686
# Poissons Ratio (y) = -0.04375 -0.01051
# Poissons Ratio (z) = 0.15334 -0.00965
#
# Static dielectric constant tensor:
#      x y z
#    x 2.112800 0.000000 0.000000 
#    y 0.000000 2.032190 0.000000 
#    z 0.000000 0.000000 2.065660 
# 
# From -- ./inp_files/9175.got.cif
#   From: 2010.05.17/outbox.cif.g08.bks.cpg/sg54_5_cif.got.tgz:9175.got - 2010.06.03 13:09:01.
