data_PCOD9423717
_publ_section_title
;
Structure prediction by ZEFSAII (Michael W. Deem and Ramdas Pophale) SiO2 
 PCOD9423717
Probable space group: P C C A
;
_chemical_formula_sum "Si O2"
_cell_formula_units_Z 64
_cell_length_a 9.484995
_cell_length_b 24.355691
_cell_length_c 14.487665
_cell_angle_alpha 90.000000
_cell_angle_beta 90.000000
_cell_angle_gamma 90.000000
_cell_volume 3346.847754
_symmetry_space_group_name_H-M "P C C A"
_symmetry_group_IT_number 54
_symmetry_cell_setting 'orthorhombic'
loop_
_space_group_symop_operation_xyz
x,y,z
1/2-x,-y,z
1/2+x,-y,1/2-z
-x,y,1/2-z
-x,-y,-z
1/2+x,y,-z
1/2-x,y,1/2+z
x,-y,1/2+z
loop_
_atom_site_type_symbol
_atom_site_label
_atom_site_fract_x
_atom_site_fract_y
_atom_site_fract_z
Si Si1 0.172463 0.747637 0.147852
Si Si2 0.649802 0.760978 0.640526
Si Si3 0.678444 0.867586 0.083350
Si Si4 0.664303 0.054062 0.745960
Si Si5 0.257719 0.334759 0.495595
Si Si6 0.418088 0.487638 0.152768
Si Si7 0.520111 0.413543 0.525588
Si Si8 0.155970 0.146043 0.100451
O O1 0.173334 0.737923 0.256944
O O2 0.195259 0.693264 0.087767
O O3 0.290170 0.792834 0.123475
O O4 0.016785 0.771875 0.126856
O O5 0.741622 0.815534 0.628067
O O6 0.695817 0.715806 0.567257
O O7 0.699609 0.921149 0.145973
O O8 0.511083 0.855397 0.079728
O O9 0.751243 0.874080 0.985073
O O10 0.500000 0.039898 0.750000
O O11 0.684424 0.104902 0.815403
O O12 0.750000 0.000000 0.769171
O O13 0.385209 0.375146 0.516069
O O14 0.143979 0.372788 0.445903
O O15 0.250000 0.500000 0.166417
O O16 0.500000 0.477179 0.250000
O O17 0.438788 0.440394 0.074113
O O18 0.488652 0.539762 0.100709
#
# Coordination Sequence:
#
# PCOD9423717 Si02
#       8
#     8   8   8   8   8   8   8   8
#     4  11  24  40  62  95 130 173 220 261 326 391
#     4  11  24  40  63  93 130 177 215 265 323 391
#     4  11  23  41  64  93 129 170 216 265 326 390
#     4  10  24  44  66  94 128 168 219 277 328 384
#     4  12  24  43  64  98 135 174 219 270 325 384
#     4  11  26  46  74 101 131 177 223 267 335 387
#     4  11  26  46  68  96 141 172 216 277 324 390
#     4  11  23  41  64  93 130 168 218 265 324 393
#
# _framework density 19.122471000000001
#
# number of rings (size 3 to 8) (size 9 to 14) (size 15 to 20)
#    0.000    1.000    5.000    0.750    3.500    4.500 
#    0.000    2.500    0.000    0.000    0.000    0.000 
#    0.000    0.000    0.000    0.000    0.000    0.000 
#
# Total GULP energy -357506.840832 kJ/mol
# GULP energy per Si atom -5586.044388 kJ/mol
# Density = 1.907895 g / cm^3
# Si number density = 19.122471 Si / 1000 Ang^3
#
#
#
# Elastic Constant Matrix: (Units=GPa)
#
#
# Indices 1 2 3 4 5 6 
#
# 1 84.7638 17.1034 17.6021 0.0000 0.0000 0.0000
# 2 17.1034 65.8416 -2.3894 0.0000 0.0000 0.0000
# 3 17.6021 -2.3894 77.7577 0.0000 0.0000 0.0000
# 4 0.0000 0.0000 0.0000 3.0058 0.0000 0.0000
# 5 0.0000 0.0000 0.0000 0.0000 22.8714 0.0000
# 6 0.0000 0.0000 0.0000 0.0000 0.0000 33.4320
#
#
#
# Elastic Compliance Matrix: (Units=1/GPa)
#
#
# Indices 1 2 3 4 5 6 
#
# 1 0.013150 -0.003528 -0.003085 0.000000 0.000000 0.000000
# 2 -0.003528 0.016151 0.001295 0.000000 0.000000 0.000000
# 3 -0.003085 0.001295 0.013599 0.000000 0.000000 0.000000
# 4 0.000000 0.000000 0.000000 0.332685 0.000000 0.000000
# 5 0.000000 0.000000 0.000000 0.000000 0.043723 0.000000
# 6 0.000000 0.000000 0.000000 0.000000 0.000000 0.029911
#
#
# Mechanical properties :
#
#
# Convention : Reuss Voigt Hill
#
# Bulk Modulus (GPa) = 30.99457 32.55506 31.77481
# Shear Modulus (GPa) = 10.62450 24.93166 17.77808
#
# Velocity S-wave (km/s) = 2.35968 3.61472 3.05240
# Velocity P-wave (km/s) = 4.86495 5.87223 5.39216
#
# Compressibility (1/GPa) = 0.03226372
#
# Stress axis : x y z
#
# Youngs Moduli (GPa) = 76.04562 61.91418 73.53676
#
# Poissons Ratio (x) = 0.21843 0.22687
# Poissons Ratio (y) = 0.26828 -0.09522
# Poissons Ratio (z) = 0.23461 -0.08017
#
# Static dielectric constant tensor:
#      x y z
#    x 1.645090 0.000000 0.000000 
#    y 0.000000 1.636930 0.000000 
#    z 0.000000 0.000000 1.668140 
# 
# From -- ./inp_files/11936.got.cif
#   From: 2010.05.17/outbox.cif.g08.bks.cpg/sg54_6_cif.got.tgz:11936.got - 2010.06.03 13:09:01.
