data_PCOD9423332
_publ_section_title
;
Structure prediction by ZEFSAII (Michael W. Deem and Ramdas Pophale) SiO2 
 PCOD9423332
Probable space group: P C C A
;
_chemical_formula_sum "Si O2"
_cell_formula_units_Z 40
_cell_length_a 10.511147
_cell_length_b 17.059010
_cell_length_c 8.833599
_cell_angle_alpha 90.000000
_cell_angle_beta 90.000000
_cell_angle_gamma 90.000000
_cell_volume 1583.950532
_symmetry_space_group_name_H-M "P C C A"
_symmetry_group_IT_number 54
_symmetry_cell_setting 'orthorhombic'
loop_
_space_group_symop_operation_xyz
x,y,z
1/2-x,-y,z
1/2+x,-y,1/2-z
-x,y,1/2-z
-x,-y,-z
1/2+x,y,-z
1/2-x,y,1/2+z
x,-y,1/2+z
loop_
_atom_site_type_symbol
_atom_site_label
_atom_site_fract_x
_atom_site_fract_y
_atom_site_fract_z
Si Si1 0.875125 0.897327 0.489069
Si Si2 0.767322 0.249715 0.343812
Si Si3 0.667497 0.361112 0.093768
Si Si4 0.250000 0.000000 0.754444
Si Si5 0.000000 0.474445 0.750000
Si Si6 0.750000 0.500000 0.420612
Si Si7 0.000000 0.840162 0.750000
O O1 0.823945 0.817593 0.411350
O O2 0.005234 0.883008 0.584824
O O3 0.795332 0.932744 0.630717
O O4 0.856867 0.961520 0.355525
O O5 0.699862 0.318174 0.249902
O O6 0.844510 0.290980 0.477540
O O7 0.874315 0.211604 0.238846
O O8 0.548411 0.416748 0.118735
O O9 0.767770 0.423267 0.024546
O O10 0.874270 0.514960 0.816582
#
# Coordination Sequence:
#
# PCOD9423332 Si02
#       7
#     8   8   8   4   4   4   4
#     4  11  23  47  71 113 148 200 253 318 382 463
#     4  12  26  48  73 111 153 199 259 322 388 467
#     4  12  27  48  77 109 156 202 258 330 393 468
#     4  10  22  46  76 102 162 188 252 326 370 464
#     4  12  28  51  82 115 156 214 264 334 400 481
#     4  12  28  54  80 120 156 208 272 326 408 474
#     4  12  26  43  78 105 150 204 256 314 392 471
#
# _framework density 25.253316000000002
#
# number of rings (size 3 to 8) (size 9 to 14) (size 15 to 20)
#    0.000    0.400    6.000    1.200    5.600    1.600 
#    0.000    0.000    0.000    0.000    0.000    0.000 
#    0.000    0.000    0.000    0.000    0.000    0.000 
#
# Total GULP energy -223363.654313 kJ/mol
# GULP energy per Si atom -5584.091358 kJ/mol
# Density = 2.519584 g / cm^3
# Si number density = 25.253316 Si / 1000 Ang^3
#
#
#
# Elastic Constant Matrix: (Units=GPa)
#
#
# Indices 1 2 3 4 5 6 
#
# 1 65.4326 21.6304 38.9864 0.0000 0.0000 0.0000
# 2 21.6304 132.4156 57.1723 0.0000 0.0000 0.0000
# 3 38.9864 57.1723 142.6626 0.0000 0.0000 0.0000
# 4 0.0000 0.0000 0.0000 42.4379 0.0000 0.0000
# 5 0.0000 0.0000 0.0000 0.0000 38.3156 0.0000
# 6 0.0000 0.0000 0.0000 0.0000 0.0000 37.0212
#
#
#
# Elastic Compliance Matrix: (Units=1/GPa)
#
#
# Indices 1 2 3 4 5 6 
#
# 1 0.018366 -0.001007 -0.004615 0.000000 0.000000 0.000000
# 2 -0.001007 0.009187 -0.003407 0.000000 0.000000 0.000000
# 3 -0.004615 -0.003407 0.009636 0.000000 0.000000 0.000000
# 4 0.000000 0.000000 0.000000 0.023564 0.000000 0.000000
# 5 0.000000 0.000000 0.000000 0.000000 0.026099 0.000000
# 6 0.000000 0.000000 0.000000 0.000000 0.000000 0.027012
#
#
# Mechanical properties :
#
#
# Convention : Reuss Voigt Hill
#
# Bulk Modulus (GPa) = 52.27187 64.00989 58.14088
# Shear Modulus (GPa) = 36.15360 38.40306 37.27833
#
# Velocity S-wave (km/s) = 3.78780 3.90386 3.84627
# Velocity P-wave (km/s) = 6.31458 6.76183 6.54203
#
# Compressibility (1/GPa) = 0.01913075
#
# Stress axis : x y z
#
# Youngs Moduli (GPa) = 54.44908 108.84505 103.77799
#
# Poissons Ratio (x) = 0.10965 0.47896
# Poissons Ratio (y) = 0.05485 0.35353
# Poissons Ratio (z) = 0.25129 0.37079
#
# Static dielectric constant tensor:
#      x y z
#    x 2.102880 0.000000 0.000000 
#    y 0.000000 2.041260 0.000000 
#    z 0.000000 0.000000 2.097140 
# 
# From -- ./inp_files/2980.got.cif
#   From: 2010.05.17/outbox.cif.g08.bks.cpg/sg54_2_cif.got.tgz:2980.got - 2010.06.03 13:09:01.
