data_PCOD9423000
_publ_section_title
;
Structure prediction by ZEFSAII (Michael W. Deem and Ramdas Pophale) SiO2 
 PCOD9423000
Probable space group: P C C A
;
_chemical_formula_sum "Si O2"
_cell_formula_units_Z 44
_cell_length_a 5.044810
_cell_length_b 14.634717
_cell_length_c 29.651335
_cell_angle_alpha 90.000000
_cell_angle_beta 90.000000
_cell_angle_gamma 90.000000
_cell_volume 2189.139284
_symmetry_space_group_name_H-M "P C C A"
_symmetry_group_IT_number 54
_symmetry_cell_setting 'orthorhombic'
loop_
_space_group_symop_operation_xyz
x,y,z
1/2-x,-y,z
1/2+x,-y,1/2-z
-x,y,1/2-z
-x,-y,-z
1/2+x,y,-z
1/2-x,y,1/2+z
x,-y,1/2+z
loop_
_atom_site_type_symbol
_atom_site_label
_atom_site_fract_x
_atom_site_fract_y
_atom_site_fract_z
Si Si1 0.250633 0.396821 0.282709
Si Si2 0.841841 0.740901 0.637329
Si Si3 0.742742 0.865394 0.472220
Si Si4 0.011507 0.940464 0.621651
Si Si5 0.833739 0.309394 0.920186
Si Si6 0.750000 0.500000 0.467096
O O1 0.250000 0.500000 0.303078
O O2 0.500000 0.388948 0.250000
O O3 0.245777 0.318535 0.320104
O O4 0.000000 0.389100 0.250000
O O5 0.617487 0.724565 0.598821
O O6 0.903568 0.848012 0.645271
O O7 0.120277 0.703612 0.619167
O O8 0.534722 0.890023 0.511102
O O9 0.642285 0.907994 0.425583
O O10 0.750805 0.757516 0.461142
O O11 0.250000 0.000000 0.643895
O O12 0.750000 0.000000 0.613945
O O13 0.804133 0.412048 0.936449
O O14 0.500000 0.500000 0.500000
#
# Coordination Sequence:
#
# PCOD9423000 Si02
#       6
#     8   8   8   8   8   4
#     4  10  22  40  66  99 130 158 191 242 305 374
#     4  11  23  41  64  89 124 161 201 250 308 371
#     4  11  21  36  55  78 115 153 201 262 312 353
#     4  11  23  39  59  87 118 158 210 257 312 366
#     4  11  23  37  58  85 117 166 209 253 302 366
#     4  12  24  38  56  82 120 166 216 260 300 352
#
# _framework density 20.099222999999999
#
# number of rings (size 3 to 8) (size 9 to 14) (size 15 to 20)
#    0.000    1.091    0.000    8.727    2.545    2.182 
#    0.000    0.000    0.000    2.182    0.000    0.000 
#    0.000    0.000    0.000    0.000    0.000    0.000 
#
# Total GULP energy -245854.848598 kJ/mol
# GULP energy per Si atom -5587.610195 kJ/mol
# Density = 2.005348 g / cm^3
# Si number density = 20.099223 Si / 1000 Ang^3
#
#
#
# Elastic Constant Matrix: (Units=GPa)
#
#
# Indices 1 2 3 4 5 6 
#
# 1 124.7640 45.2650 11.4398 0.0000 0.0000 0.0000
# 2 45.2650 181.1949 45.9499 0.0000 0.0000 0.0000
# 3 11.4398 45.9499 46.6349 0.0000 0.0000 0.0000
# 4 0.0000 0.0000 0.0000 14.7624 0.0000 0.0000
# 5 0.0000 0.0000 0.0000 0.0000 11.8477 0.0000
# 6 0.0000 0.0000 0.0000 0.0000 0.0000 33.1567
#
#
#
# Elastic Compliance Matrix: (Units=1/GPa)
#
#
# Indices 1 2 3 4 5 6 
#
# 1 0.008814 -0.002204 0.000010 0.000000 0.000000 0.000000
# 2 -0.002204 0.007909 -0.007252 0.000000 0.000000 0.000000
# 3 0.000010 -0.007252 0.028586 0.000000 0.000000 0.000000
# 4 0.000000 0.000000 0.000000 0.067740 0.000000 0.000000
# 5 0.000000 0.000000 0.000000 0.000000 0.084405 0.000000
# 6 0.000000 0.000000 0.000000 0.000000 0.000000 0.030160
#
#
# Mechanical properties :
#
#
# Convention : Reuss Voigt Hill
#
# Bulk Modulus (GPa) = 37.85568 61.98924 49.92246
# Shear Modulus (GPa) = 19.58401 28.61596 24.09999
#
# Velocity S-wave (km/s) = 3.12487 3.77733 3.46649
# Velocity P-wave (km/s) = 5.64757 7.06632 6.39640
#
# Compressibility (1/GPa) = 0.02641611
#
# Stress axis : x y z
#
# Youngs Moduli (GPa) = 113.45608 126.44515 34.98231
#
# Poissons Ratio (x) = 0.27873 -0.00034
# Poissons Ratio (y) = 0.25010 0.25368
# Poissons Ratio (z) = -0.00112 0.91694
#
# Static dielectric constant tensor:
#      x y z
#    x 1.693080 0.000000 0.000000 
#    y 0.000000 1.799070 0.000000 
#    z 0.000000 0.000000 1.693360 
# 
# From -- ./inp_files/25302.got.cif
#   From: 2010.05.17/outbox.cif.g08.bks.cpg/sg54_13_cif.got.tgz:25302.got - 2010.06.03 13:09:01.
