data_PCOD9423719
_publ_section_title
;
Structure prediction by ZEFSAII (Michael W. Deem and Ramdas Pophale) SiO2 
 PCOD9423719
Probable space group: P C C A
;
_chemical_formula_sum "Si O2"
_cell_formula_units_Z 40
_cell_length_a 16.286804
_cell_length_b 7.918275
_cell_length_c 14.760951
_cell_angle_alpha 90.000000
_cell_angle_beta 90.000000
_cell_angle_gamma 90.000000
_cell_volume 1903.622324
_symmetry_space_group_name_H-M "P C C A"
_symmetry_group_IT_number 54
_symmetry_cell_setting 'orthorhombic'
loop_
_space_group_symop_operation_xyz
x,y,z
1/2-x,-y,z
1/2+x,-y,1/2-z
-x,y,1/2-z
-x,-y,-z
1/2+x,y,-z
1/2-x,y,1/2+z
x,-y,1/2+z
loop_
_atom_site_type_symbol
_atom_site_label
_atom_site_fract_x
_atom_site_fract_y
_atom_site_fract_z
Si Si1 0.738733 0.803878 0.757354
Si Si2 0.614209 0.773030 0.115464
Si Si3 0.683066 0.617791 0.933009
Si Si4 0.563472 0.135770 0.172792
Si Si5 0.988259 0.486090 0.893655
O O1 0.811178 0.755572 0.687625
O O2 0.731233 0.709450 0.852362
O O3 0.650200 0.795942 0.709407
O O4 0.750000 0.000000 0.779154
O O5 0.543002 0.639647 0.143686
O O6 0.582775 0.966697 0.116366
O O7 0.644882 0.730087 0.013533
O O8 0.750000 0.500000 0.980336
O O9 0.609564 0.516359 0.883099
O O10 0.500000 0.077587 0.250000
O O11 0.520674 0.301086 0.132118
O O12 0.000000 0.500000 0.000000
#
# Coordination Sequence:
#
# PCOD9423719 Si02
#       5
#     8   8   8   8   8
#     4  10  24  44  67 102 135 181 228 288 353 409
#     4  10  26  46  72 100 139 189 230 285 357 413
#     4  11  25  44  67 105 140 181 236 287 348 424
#     4  11  23  44  71 100 139 177 234 289 347 418
#     4  10  24  44  70 100 134 184 232 286 352 413
#
# _framework density 21.01257
#
# number of rings (size 3 to 8) (size 9 to 14) (size 15 to 20)
#    0.000    1.600    2.000    0.000    8.400    9.600 
#    0.000    0.000    0.000    0.000    0.000    0.000 
#    0.000    0.000    0.000    0.000    0.000    0.000 
#
# Total GULP energy -223183.673435 kJ/mol
# GULP energy per Si atom -5579.591836 kJ/mol
# Density = 2.096474 g / cm^3
# Si number density = 21.012570 Si / 1000 Ang^3
#
#
#
# Elastic Constant Matrix: (Units=GPa)
#
#
# Indices 1 2 3 4 5 6 
#
# 1 102.6911 47.8879 23.0512 0.0000 0.0000 0.0000
# 2 47.8879 98.7356 36.1944 0.0000 0.0000 0.0000
# 3 23.0512 36.1944 50.6925 0.0000 0.0000 0.0000
# 4 0.0000 0.0000 0.0000 43.1721 0.0000 0.0000
# 5 0.0000 0.0000 0.0000 0.0000 26.5576 0.0000
# 6 0.0000 0.0000 0.0000 0.0000 0.0000 -127.2601
#
#
#
# Elastic Compliance Matrix: (Units=1/GPa)
#
#
# Indices 1 2 3 4 5 6 
#
# 1 0.012713 -0.005482 -0.001867 0.000000 0.000000 0.000000
# 2 -0.005482 0.016082 -0.008990 0.000000 0.000000 0.000000
# 3 -0.001867 -0.008990 0.026995 0.000000 0.000000 0.000000
# 4 0.000000 0.000000 0.000000 0.023163 0.000000 0.000000
# 5 0.000000 0.000000 0.000000 0.000000 0.037654 0.000000
# 6 0.000000 0.000000 0.000000 0.000000 0.000000 -0.007858
#
#
# Mechanical properties :
#
#
# Convention : Reuss Voigt Hill
#
# Bulk Modulus (GPa) = 43.26659 51.82068 47.54363
# Shear Modulus (GPa) = 33.52742 -1.84037 15.84353
#
# Velocity S-wave (km/s) = 3.99882 -0.93688 2.74889
# Velocity P-wave (km/s) = 6.47736 4.85232 5.72281
#
# Compressibility (1/GPa) = 0.02311252
#
# Stress axis : x y z
#
# Youngs Moduli (GPa) = 78.65763 62.18009 37.04421
#
# Poissons Ratio (x) = 0.34085 0.06917
# Poissons Ratio (y) = 0.43117 0.33303
# Poissons Ratio (z) = 0.14687 0.55901
#
# Static dielectric constant tensor:
#      x y z
#    x 1.945980 0.000000 0.000000 
#    y 0.000000 1.865460 0.000000 
#    z 0.000000 0.000000 1.753170 
# 
# From -- ./inp_files/13210.got.cif
#   From: 2010.05.17/outbox.cif.g08.bks.cpg/sg54_7_cif.got.tgz:13210.got - 2010.06.03 13:09:01.
