data_PCOD9423468
_publ_section_title
;
Structure prediction by ZEFSAII (Michael W. Deem and Ramdas Pophale) SiO2 
 PCOD9423468
Probable space group: P C C A
;
_chemical_formula_sum "Si O2"
_cell_formula_units_Z 60
_cell_length_a 10.833730
_cell_length_b 8.830255
_cell_length_c 29.452890
_cell_angle_alpha 90.000000
_cell_angle_beta 90.000000
_cell_angle_gamma 90.000000
_cell_volume 2817.598897
_symmetry_space_group_name_H-M "P C C A"
_symmetry_group_IT_number 54
_symmetry_cell_setting 'orthorhombic'
loop_
_space_group_symop_operation_xyz
x,y,z
1/2-x,-y,z
1/2+x,-y,1/2-z
-x,y,1/2-z
-x,-y,-z
1/2+x,y,-z
1/2-x,y,1/2+z
x,-y,1/2+z
loop_
_atom_site_type_symbol
_atom_site_label
_atom_site_fract_x
_atom_site_fract_y
_atom_site_fract_z
Si Si1 0.174186 0.281079 0.774726
Si Si2 0.605993 0.304126 0.881013
Si Si3 0.881378 0.914490 0.021087
Si Si4 0.529429 0.002359 0.116893
Si Si5 0.320939 0.838718 0.673922
Si Si6 0.940009 0.584508 0.702791
Si Si7 0.879050 0.419349 0.479659
Si Si8 0.250000 0.000000 0.825034
O O1 0.168394 0.253996 0.720802
O O2 0.304627 0.344380 0.792925
O O3 0.078254 0.403677 0.793174
O O4 0.172142 0.114680 0.795042
O O5 0.738118 0.263723 0.859399
O O6 0.520286 0.368250 0.840414
O O7 0.610105 0.408782 0.925004
O O8 0.553100 0.140937 0.896978
O O9 0.913990 0.909377 0.074491
O O10 0.750000 0.000000 0.014559
O O11 0.872717 0.749450 0.999615
O O12 0.000000 0.000000 0.000000
O O13 0.444901 0.109355 0.148321
O O14 0.645262 0.930127 0.143303
O O15 0.250000 0.000000 0.683127
O O16 0.000000 0.637923 0.750000
O O17 0.750000 0.500000 0.491356
O O18 0.000000 0.500000 0.500000
#
# Coordination Sequence:
#
# PCOD9423468 Si02
#       8
#     8   8   8   8   8   8   8   4
#     4  11  24  42  65 103 146 195 246 301 367 436
#     4  11  24  48  74 104 149 191 248 307 376 446
#     4  12  26  49  82 110 150 197 259 319 386 469
#     4  11  25  43  74 108 141 193 254 308 367 443
#     4  10  23  42  73 105 139 193 255 314 359 430
#     4  11  24  43  67  99 149 198 238 299 372 445
#     4  12  30  51  78 116 154 195 247 322 401 461
#     4  12  24  42  68 102 146 186 250 308 358 430
#
# _framework density 21.294726000000001
#
# number of rings (size 3 to 8) (size 9 to 14) (size 15 to 20)
#    0.000    0.800    5.333    0.800    5.600    2.133 
#    2.400    0.000    0.000    0.000    0.000    0.000 
#    0.000    0.000    0.000    0.000    0.000    0.000 
#
# Total GULP energy -335245.920427 kJ/mol
# GULP energy per Si atom -5587.432007 kJ/mol
# Density = 2.124626 g / cm^3
# Si number density = 21.294726 Si / 1000 Ang^3
#
#
#
# Elastic Constant Matrix: (Units=GPa)
#
#
# Indices 1 2 3 4 5 6 
#
# 1 166.3427 58.4060 65.6609 0.0000 0.0000 0.0000
# 2 58.4060 103.0308 59.3320 0.0000 0.0000 0.0000
# 3 65.6609 59.3320 133.3240 0.0000 0.0000 0.0000
# 4 0.0000 0.0000 0.0000 34.6256 0.0000 0.0000
# 5 0.0000 0.0000 0.0000 0.0000 26.3459 0.0000
# 6 0.0000 0.0000 0.0000 0.0000 0.0000 31.6523
#
#
#
# Elastic Compliance Matrix: (Units=1/GPa)
#
#
# Indices 1 2 3 4 5 6 
#
# 1 0.008137 -0.003099 -0.002628 0.000000 0.000000 0.000000
# 2 -0.003099 0.014231 -0.004807 0.000000 0.000000 0.000000
# 3 -0.002628 -0.004807 0.010934 0.000000 0.000000 0.000000
# 4 0.000000 0.000000 0.000000 0.028880 0.000000 0.000000
# 5 0.000000 0.000000 0.000000 0.000000 0.037957 0.000000
# 6 0.000000 0.000000 0.000000 0.000000 0.000000 0.031593
#
#
# Mechanical properties :
#
#
# Convention : Reuss Voigt Hill
#
# Bulk Modulus (GPa) = 81.74197 85.49948 83.62072
# Shear Modulus (GPa) = 31.87176 33.14467 32.50822
#
# Velocity S-wave (km/s) = 3.87291 3.94950 3.91139
# Velocity P-wave (km/s) = 7.64648 7.81254 7.72995
#
# Compressibility (1/GPa) = 0.01223362
#
# Stress axis : x y z
#
# Youngs Moduli (GPa) = 122.88911 70.27040 91.45806
#
# Poissons Ratio (x) = 0.21779 0.24038
# Poissons Ratio (y) = 0.38088 0.43960
# Poissons Ratio (z) = 0.32299 0.33776
#
# Static dielectric constant tensor:
#      x y z
#    x 1.826610 0.000000 0.000000 
#    y 0.000000 1.794360 0.000000 
#    z 0.000000 0.000000 1.776020 
# 
# From -- ./inp_files/26291.got.cif
#   From: 2010.05.17/outbox.cif.g08.bks.cpg/sg54_14_cif.got.tgz:26291.got - 2010.06.03 13:09:01.
