data_PCOD9423897
_publ_section_title
;
Structure prediction by ZEFSAII (Michael W. Deem and Ramdas Pophale) SiO2 
 PCOD9423897
Probable space group: P C C A
;
_chemical_formula_sum "Si O2"
_cell_formula_units_Z 32
_cell_length_a 9.360549
_cell_length_b 17.172584
_cell_length_c 8.429952
_cell_angle_alpha 90.000000
_cell_angle_beta 90.000000
_cell_angle_gamma 90.000000
_cell_volume 1355.071066
_symmetry_space_group_name_H-M "P C C A"
_symmetry_group_IT_number 54
_symmetry_cell_setting 'orthorhombic'
loop_
_space_group_symop_operation_xyz
x,y,z
1/2-x,-y,z
1/2+x,-y,1/2-z
-x,y,1/2-z
-x,-y,-z
1/2+x,y,-z
1/2-x,y,1/2+z
x,-y,1/2+z
loop_
_atom_site_type_symbol
_atom_site_label
_atom_site_fract_x
_atom_site_fract_y
_atom_site_fract_z
Si Si1 0.857333 0.931080 0.329647
Si Si2 0.000000 0.691488 0.750000
Si Si3 0.750000 0.500000 0.522185
Si Si4 0.504842 0.607725 0.915743
Si Si5 0.131542 0.158968 0.355799
O O1 0.774362 0.881616 0.198933
O O2 0.893594 0.870063 0.467650
O O3 0.000000 0.962681 0.250000
O O4 0.750000 0.000000 0.383491
O O5 0.030637 0.645004 0.588109
O O6 0.874162 0.749758 0.689016
O O7 0.619153 0.543049 0.609028
O O8 0.840256 0.567591 0.435454
O O9 0.500000 0.655551 0.750000
O O10 0.000000 0.129740 0.250000
#
# Coordination Sequence:
#
# PCOD9423897 Si02
#       5
#     8   4   4   8   8
#     4  12  25  46  80 106 141 187 241 306 364 426
#     4  10  28  48  70 108 148 198 248 286 366 458
#     4  10  26  44  74 116 136 188 254 308 360 440
#     4  11  25  47  75 104 151 188 244 308 369 423
#     4  10  25  49  66 106 148 186 240 295 361 437
#
# _framework density 23.614999999999998
#
# number of rings (size 3 to 8) (size 9 to 14) (size 15 to 20)
#    0.750    0.500    0.000    3.750   10.500    6.000 
#    0.000    1.250    0.000    0.000    0.000    0.000 
#    0.000    0.000    0.000    0.000    0.000    0.000 
#
# Total GULP energy -178380.189018 kJ/mol
# GULP energy per Si atom -5574.380907 kJ/mol
# Density = 2.356125 g / cm^3
# Si number density = 23.615000 Si / 1000 Ang^3
#
#
#
# Elastic Constant Matrix: (Units=GPa)
#
#
# Indices 1 2 3 4 5 6 
#
# 1 139.7918 19.0381 17.7822 0.0000 0.0000 0.0000
# 2 19.0381 78.6909 42.6098 0.0000 0.0000 0.0000
# 3 17.7822 42.6098 162.0717 0.0000 0.0000 0.0000
# 4 0.0000 0.0000 0.0000 5.4267 0.0000 0.0000
# 5 0.0000 0.0000 0.0000 0.0000 17.1440 0.0000
# 6 0.0000 0.0000 0.0000 0.0000 0.0000 -873.5004
#
#
#
# Elastic Compliance Matrix: (Units=1/GPa)
#
#
# Indices 1 2 3 4 5 6 
#
# 1 0.007419 -0.001579 -0.000399 0.000000 0.000000 0.000000
# 2 -0.001579 0.015153 -0.003811 0.000000 0.000000 0.000000
# 3 -0.000399 -0.003811 0.007216 0.000000 0.000000 0.000000
# 4 0.000000 0.000000 0.000000 0.184275 0.000000 0.000000
# 5 0.000000 0.000000 0.000000 0.000000 0.058329 0.000000
# 6 0.000000 0.000000 0.000000 0.000000 0.000000 -0.001145
#
#
# Mechanical properties :
#
#
# Convention : Reuss Voigt Hill
#
# Bulk Modulus (GPa) = 54.91114 59.93496 57.42305
# Shear Modulus (GPa) = 17.30730 -150.11099 -66.40185
#
# Velocity S-wave (km/s) = 2.71014 -7.98148 -5.30844
# Velocity P-wave (km/s) = 5.75294 7.71385 3.63367
#
# Compressibility (1/GPa) = 0.01821124
#
# Stress axis : x y z
#
# Youngs Moduli (GPa) = 134.78406 65.99191 138.58606
#
# Poissons Ratio (x) = 0.10420 0.05528
# Poissons Ratio (y) = 0.21282 0.52811
# Poissons Ratio (z) = 0.05377 0.25147
#
# Static dielectric constant tensor:
#      x y z
#    x 1.868350 0.000000 0.000000 
#    y 0.000000 1.953950 0.000000 
#    z 0.000000 0.000000 1.880870 
# 
# From -- ./inp_files/2468.got.cif
#   From: 2010.05.17/outbox.cif.g08.bks.cpg/sg54_2_cif.got.tgz:2468.got - 2010.06.03 13:09:01.
