data_PCOD9423604
_publ_section_title
;
Structure prediction by ZEFSAII (Michael W. Deem and Ramdas Pophale) SiO2 
 PCOD9423604
Probable space group: P C C A
;
_chemical_formula_sum "Si O2"
_cell_formula_units_Z 40
_cell_length_a 13.289072
_cell_length_b 11.267245
_cell_length_c 10.778418
_cell_angle_alpha 90.000000
_cell_angle_beta 90.000000
_cell_angle_gamma 90.000000
_cell_volume 1613.865785
_symmetry_space_group_name_H-M "P C C A"
_symmetry_group_IT_number 54
_symmetry_cell_setting 'orthorhombic'
loop_
_space_group_symop_operation_xyz
x,y,z
1/2-x,-y,z
1/2+x,-y,1/2-z
-x,y,1/2-z
-x,-y,-z
1/2+x,y,-z
1/2-x,y,1/2+z
x,-y,1/2+z
loop_
_atom_site_type_symbol
_atom_site_label
_atom_site_fract_x
_atom_site_fract_y
_atom_site_fract_z
Si Si1 0.700824 0.760106 0.067215
Si Si2 0.921023 0.316648 0.841987
Si Si3 0.471374 0.077240 0.881131
Si Si4 0.379552 0.565231 0.245344
Si Si5 0.906866 0.296162 0.481549
O O1 0.642604 0.873502 0.121705
O O2 0.668156 0.642115 0.144455
O O3 0.820701 0.764318 0.064214
O O4 0.657099 0.753317 0.926281
O O5 0.868121 0.423850 0.768446
O O6 0.000000 0.252611 0.750000
O O7 0.004065 0.361004 0.943753
O O8 0.500000 0.022314 0.750000
O O9 0.538672 0.195581 0.900655
O O10 0.500000 0.000000 0.000000
O O11 0.500000 0.581680 0.250000
O O12 0.350220 0.616627 0.111405
#
# Coordination Sequence:
#
# PCOD9423604 Si02
#       5
#     8   8   8   8   8
#     4  11  24  44  67 100 137 181 230 282 345 415
#     4  10  24  38  62  97 137 181 225 274 321 402
#     4  11  24  49  75  99 136 181 228 296 367 422
#     4  11  20  44  64  85 141 184 220 270 331 397
#     4  11  23  43  68  98 132 179 228 280 342 406
#
# _framework density 24.785209999999999
#
# number of rings (size 3 to 8) (size 9 to 14) (size 15 to 20)
#    0.000    1.200    6.000    0.600    5.600    4.800 
#    3.600    2.000    0.000    0.000    0.000    0.000 
#    0.000    0.000    0.000    0.000    0.000    0.000 
#
# Total GULP energy -223517.976737 kJ/mol
# GULP energy per Si atom -5587.949418 kJ/mol
# Density = 2.472880 g / cm^3
# Si number density = 24.785210 Si / 1000 Ang^3
#
#
#
# Elastic Constant Matrix: (Units=GPa)
#
#
# Indices 1 2 3 4 5 6 
#
# 1 108.7576 -3.0136 2.8852 0.0000 0.0000 0.0000
# 2 -3.0136 72.0539 25.4938 0.0000 0.0000 0.0000
# 3 2.8852 25.4938 105.6231 0.0000 0.0000 0.0000
# 4 0.0000 0.0000 0.0000 40.8454 0.0000 0.0000
# 5 0.0000 0.0000 0.0000 0.0000 36.3976 0.0000
# 6 0.0000 0.0000 0.0000 0.0000 0.0000 11.9230
#
#
#
# Elastic Compliance Matrix: (Units=1/GPa)
#
#
# Indices 1 2 3 4 5 6 
#
# 1 0.009219 0.000519 -0.000377 0.000000 0.000000 0.000000
# 2 0.000519 0.015204 -0.003684 0.000000 0.000000 0.000000
# 3 -0.000377 -0.003684 0.010367 0.000000 0.000000 0.000000
# 4 0.000000 0.000000 0.000000 0.024483 0.000000 0.000000
# 5 0.000000 0.000000 0.000000 0.000000 0.027474 0.000000
# 6 0.000000 0.000000 0.000000 0.000000 0.000000 0.083872
#
#
# Mechanical properties :
#
#
# Convention : Reuss Voigt Hill
#
# Bulk Modulus (GPa) = 36.09324 37.46282 36.77803
# Shear Modulus (GPa) = 26.74689 35.23780 30.99235
#
# Velocity S-wave (km/s) = 3.28860 3.77467 3.53999
# Velocity P-wave (km/s) = 5.38645 5.84340 5.61957
#
# Compressibility (1/GPa) = 0.02770602
#
# Stress axis : x y z
#
# Youngs Moduli (GPa) = 108.46993 65.77392 96.45930
#
# Poissons Ratio (x) = -0.03414 0.03637
# Poissons Ratio (y) = -0.05630 0.35534
# Poissons Ratio (z) = 0.04090 0.24230
#
# Static dielectric constant tensor:
#      x y z
#    x 1.992170 0.000000 0.000000 
#    y 0.000000 1.972980 0.000000 
#    z 0.000000 0.000000 2.085330 
# 
# From -- ./inp_files/8235.got.cif
#   From: 2010.05.17/outbox.cif.g08.bks.cpg/sg54_5_cif.got.tgz:8235.got - 2010.06.03 13:09:01.
