data_PCOD9423696
_publ_section_title
;
Structure prediction by ZEFSAII (Michael W. Deem and Ramdas Pophale) SiO2 
 PCOD9423696
Probable space group: P C C A
;
_chemical_formula_sum "Si O2"
_cell_formula_units_Z 40
_cell_length_a 27.897058
_cell_length_b 4.932867
_cell_length_c 12.510476
_cell_angle_alpha 90.000000
_cell_angle_beta 90.000000
_cell_angle_gamma 90.000000
_cell_volume 1721.597588
_symmetry_space_group_name_H-M "P C C A"
_symmetry_group_IT_number 54
_symmetry_cell_setting 'orthorhombic'
loop_
_space_group_symop_operation_xyz
x,y,z
1/2-x,-y,z
1/2+x,-y,1/2-z
-x,y,1/2-z
-x,-y,-z
1/2+x,y,-z
1/2-x,y,1/2+z
x,-y,1/2+z
loop_
_atom_site_type_symbol
_atom_site_label
_atom_site_fract_x
_atom_site_fract_y
_atom_site_fract_z
Si Si1 0.597130 0.541673 0.749039
Si Si2 0.250000 0.500000 0.486175
Si Si3 0.299745 0.639925 0.280090
Si Si4 0.465247 0.707892 0.065295
Si Si5 0.940467 0.045197 0.128165
Si Si6 0.750000 0.000000 0.355673
O O1 0.653301 0.499461 0.764364
O O2 0.580364 0.836696 0.713739
O O3 0.583767 0.331891 0.652991
O O4 0.567440 0.449766 0.851920
O O5 0.293676 0.592625 0.407276
O O6 0.241398 0.757615 0.560098
O O7 0.250000 0.500000 0.245243
O O8 0.293254 0.940120 0.230380
O O9 0.434698 0.897096 0.985938
O O10 0.497326 0.101700 0.871374
O O11 0.500000 0.500000 0.000000
#
# Coordination Sequence:
#
# PCOD9423696 Si02
#       6
#     8   4   8   8   8   4
#     4  12  28  44  77 105 149 195 243 306 384 435
#     4  10  24  42  76  98 142 194 242 302 382 438
#     4  10  27  49  70 113 149 188 261 310 368 466
#     4  11  26  47  72 107 147 189 251 303 370 460
#     4  11  27  45  71 108 143 192 243 302 374 446
#     4  12  22  48  76 100 148 204 230 318 384 420
#
# _framework density 23.234235000000002
#
# number of rings (size 3 to 8) (size 9 to 14) (size 15 to 20)
#    0.600    0.400    3.000    1.200   11.200    3.200 
#    0.000    2.000    0.000    0.000    0.000    0.000 
#    0.000    0.000    0.000    0.000    0.000    0.000 
#
# Total GULP energy -223110.341928 kJ/mol
# GULP energy per Si atom -5577.758548 kJ/mol
# Density = 2.318135 g / cm^3
# Si number density = 23.234235 Si / 1000 Ang^3
#
#
#
# Elastic Constant Matrix: (Units=GPa)
#
#
# Indices 1 2 3 4 5 6 
#
# 1 130.1880 30.0777 25.8356 0.0000 0.0000 0.0000
# 2 30.0777 100.0595 21.9445 0.0000 0.0000 0.0000
# 3 25.8356 21.9445 83.9164 0.0000 0.0000 0.0000
# 4 0.0000 0.0000 0.0000 10.9473 0.0000 0.0000
# 5 0.0000 0.0000 0.0000 0.0000 -45.6924 0.0000
# 6 0.0000 0.0000 0.0000 0.0000 0.0000 28.9701
#
#
#
# Elastic Compliance Matrix: (Units=1/GPa)
#
#
# Indices 1 2 3 4 5 6 
#
# 1 0.008586 -0.002123 -0.002088 0.000000 0.000000 0.000000
# 2 -0.002123 0.011127 -0.002256 0.000000 0.000000 0.000000
# 3 -0.002088 -0.002256 0.013150 0.000000 0.000000 0.000000
# 4 0.000000 0.000000 0.000000 0.091347 0.000000 0.000000
# 5 0.000000 0.000000 0.000000 0.000000 -0.021885 0.000000
# 6 0.000000 0.000000 0.000000 0.000000 0.000000 0.034518
#
#
# Mechanical properties :
#
#
# Convention : Reuss Voigt Hill
#
# Bulk Modulus (GPa) = 50.18099 52.20882 51.19491
# Shear Modulus (GPa) = 31.96522 14.59874 23.28198
#
# Velocity S-wave (km/s) = 3.71318 2.50937 3.16896
# Velocity P-wave (km/s) = 6.32679 5.56016 5.95582
#
# Compressibility (1/GPa) = 0.01992787
#
# Stress axis : x y z
#
# Youngs Moduli (GPa) = 116.46747 89.87128 76.04833
#
# Poissons Ratio (x) = 0.19079 0.15881
# Poissons Ratio (y) = 0.24726 0.17158
# Poissons Ratio (z) = 0.24321 0.20276
#
# Static dielectric constant tensor:
#      x y z
#    x 1.870200 0.000000 0.000000 
#    y 0.000000 1.691330 0.000000 
#    z 0.000000 0.000000 1.936620 
# 
# From -- ./inp_files/10207.got.cif
#   From: 2010.05.17/outbox.cif.g08.bks.cpg/sg54_6_cif.got.tgz:10207.got - 2010.06.03 13:09:01.
