data_PCOD9423528
_publ_section_title
;
Structure prediction by ZEFSAII (Michael W. Deem and Ramdas Pophale) SiO2 
 PCOD9423528
Probable space group: P C C A
;
_chemical_formula_sum "Si O2"
_cell_formula_units_Z 56
_cell_length_a 25.200917
_cell_length_b 8.570836
_cell_length_c 10.704490
_cell_angle_alpha 90.000000
_cell_angle_beta 90.000000
_cell_angle_gamma 90.000000
_cell_volume 2312.094123
_symmetry_space_group_name_H-M "P C C A"
_symmetry_group_IT_number 54
_symmetry_cell_setting 'orthorhombic'
loop_
_space_group_symop_operation_xyz
x,y,z
1/2-x,-y,z
1/2+x,-y,1/2-z
-x,y,1/2-z
-x,-y,-z
1/2+x,y,-z
1/2-x,y,1/2+z
x,-y,1/2+z
loop_
_atom_site_type_symbol
_atom_site_label
_atom_site_fract_x
_atom_site_fract_y
_atom_site_fract_z
Si Si1 0.570590 0.671887 0.568746
Si Si2 0.829353 0.863462 0.103449
Si Si3 0.305182 0.083052 0.666498
Si Si4 0.390672 0.321195 0.937664
Si Si5 0.942884 0.812309 0.796387
Si Si6 0.724588 0.668879 0.148556
Si Si7 0.028910 0.876305 0.096341
O O1 0.622607 0.746625 0.631180
O O2 0.579706 0.487713 0.569087
O O3 0.569277 0.728713 0.425464
O O4 0.516741 0.747962 0.622645
O O5 0.772164 0.778806 0.100215
O O6 0.826048 0.989029 0.212949
O O7 0.837883 0.924583 0.961868
O O8 0.448360 0.000684 0.694467
O O9 0.292971 0.256074 0.718643
O O10 0.250000 0.000000 0.634877
O O11 0.401946 0.237624 0.806861
O O12 0.326925 0.337314 0.942258
O O13 0.421759 0.216413 0.037692
O O14 0.000000 0.754943 0.750000
O O15 0.750000 0.500000 0.164310
O O16 0.000000 0.000000 0.000000
#
# Coordination Sequence:
#
# PCOD9423528 Si02
#       7
#     8   8   8   8   8   8   8
#     4  11  24  45  77 107 154 194 254 322 397 471
#     4  11  24  48  73 114 152 206 264 322 389 471
#     4  10  23  44  74 104 152 204 259 322 382 467
#     4  12  24  49  73 107 157 199 249 324 397 464
#     4  11  24  46  74 108 144 197 255 320 381 464
#     4  11  24  45  73 108 157 199 257 323 394 466
#     4  10  23  44  72 108 138 189 254 314 377 467
#
# _framework density 24.220468
#
# number of rings (size 3 to 8) (size 9 to 14) (size 15 to 20)
#    0.000    1.143    4.286    2.571    4.000    1.714 
#   10.286    1.429    0.000    0.000    0.000    0.000 
#    0.000    0.000    0.000    0.000    0.000    0.000 
#
# Total GULP energy -313473.867747 kJ/mol
# GULP energy per Si atom -5597.747638 kJ/mol
# Density = 2.416534 g / cm^3
# Si number density = 24.220468 Si / 1000 Ang^3
#
#
#
# Elastic Constant Matrix: (Units=GPa)
#
#
# Indices 1 2 3 4 5 6 
#
# 1 139.9189 44.2583 16.3451 0.0000 0.0000 0.0000
# 2 44.2583 154.3862 42.9670 0.0000 0.0000 0.0000
# 3 16.3451 42.9670 100.4699 0.0000 0.0000 0.0000
# 4 0.0000 0.0000 0.0000 25.2240 0.0000 0.0000
# 5 0.0000 0.0000 0.0000 0.0000 5.2466 0.0000
# 6 0.0000 0.0000 0.0000 0.0000 0.0000 49.5801
#
#
#
# Elastic Compliance Matrix: (Units=1/GPa)
#
#
# Indices 1 2 3 4 5 6 
#
# 1 0.007871 -0.002157 -0.000358 0.000000 0.000000 0.000000
# 2 -0.002157 0.007943 -0.003046 0.000000 0.000000 0.000000
# 3 -0.000358 -0.003046 0.011314 0.000000 0.000000 0.000000
# 4 0.000000 0.000000 0.000000 0.039645 0.000000 0.000000
# 5 0.000000 0.000000 0.000000 0.000000 0.190598 0.000000
# 6 0.000000 0.000000 0.000000 0.000000 0.000000 0.020169
#
#
# Mechanical properties :
#
#
# Convention : Reuss Voigt Hill
#
# Bulk Modulus (GPa) = 62.47479 66.87951 64.67715
# Shear Modulus (GPa) = 17.00689 35.42380 26.21534
#
# Velocity S-wave (km/s) = 2.65272 3.82849 3.29350
# Velocity P-wave (km/s) = 5.93572 6.87138 6.42062
#
# Compressibility (1/GPa) = 0.01600646
#
# Stress axis : x y z
#
# Youngs Moduli (GPa) = 127.04798 125.89208 88.38429
#
# Poissons Ratio (x) = 0.27152 0.03166
# Poissons Ratio (y) = 0.27401 0.26923
# Poissons Ratio (z) = 0.04550 0.38349
#
# Static dielectric constant tensor:
#      x y z
#    x 1.993950 0.000000 0.000000 
#    y 0.000000 1.912850 0.000000 
#    z 0.000000 0.000000 1.972180 
# 
# From -- ./inp_files/14696.got.cif
#   From: 2010.05.17/outbox.cif.g08.bks.cpg/sg54_8_cif.got.tgz:14696.got - 2010.06.03 13:09:01.
