data_PCOD9423048
_publ_section_title
;
Structure prediction by ZEFSAII (Michael W. Deem and Ramdas Pophale) SiO2 
 PCOD9423048
Probable space group: P C C A
;
_chemical_formula_sum "Si O2"
_cell_formula_units_Z 40
_cell_length_a 9.921931
_cell_length_b 8.046751
_cell_length_c 20.779407
_cell_angle_alpha 90.000000
_cell_angle_beta 90.000000
_cell_angle_gamma 90.000000
_cell_volume 1659.013480
_symmetry_space_group_name_H-M "P C C A"
_symmetry_group_IT_number 54
_symmetry_cell_setting 'orthorhombic'
loop_
_space_group_symop_operation_xyz
x,y,z
1/2-x,-y,z
1/2+x,-y,1/2-z
-x,y,1/2-z
-x,-y,-z
1/2+x,y,-z
1/2-x,y,1/2+z
x,-y,1/2+z
loop_
_atom_site_type_symbol
_atom_site_label
_atom_site_fract_x
_atom_site_fract_y
_atom_site_fract_z
Si Si1 0.435823 0.328621 0.883367
Si Si2 0.206122 0.190517 0.137297
Si Si3 0.743286 0.801796 0.006871
Si Si4 0.447587 0.627424 0.684909
Si Si5 0.823130 0.178589 0.639155
O O1 0.546288 0.201302 0.856900
O O2 0.507382 0.503566 0.872029
O O3 0.295797 0.308715 0.845093
O O4 0.386705 0.272995 0.955197
O O5 0.235381 0.259862 0.064718
O O6 0.295518 0.309225 0.182110
O O7 0.250000 0.000000 0.144318
O O8 0.750000 0.000000 0.997988
O O9 0.853340 0.782671 0.063598
O O10 0.500000 0.543826 0.750000
O O11 0.543121 0.789325 0.677530
O O12 0.750000 0.000000 0.643347
#
# Coordination Sequence:
#
# PCOD9423048 Si02
#       5
#     8   8   8   8   8
#     4  10  22  41  63  96 131 174 208 268 327 390
#     4  11  24  41  69 102 134 166 218 274 331 391
#     4   8  20  38  71  99 132 161 209 268 339 392
#     4  12  27  44  62  92 135 179 223 270 320 388
#     4   9  20  42  69  92 123 169 218 263 330 387
#
# _framework density 24.110714000000002
#
# number of rings (size 3 to 8) (size 9 to 14) (size 15 to 20)
#    1.200    0.800    0.000    2.400    2.800    6.400 
#    3.600    2.000    0.000    0.000    0.000    0.000 
#    0.000    0.000    0.000    0.000    0.000    0.000 
#
# Total GULP energy -222782.989579 kJ/mol
# GULP energy per Si atom -5569.574739 kJ/mol
# Density = 2.405584 g / cm^3
# Si number density = 24.110714 Si / 1000 Ang^3
#
#
#
# Elastic Constant Matrix: (Units=GPa)
#
#
# Indices 1 2 3 4 5 6 
#
# 1 54.7227 0.1638 18.9441 0.0000 0.0000 0.0000
# 2 0.1638 87.6809 14.0517 0.0000 0.0000 0.0000
# 3 18.9441 14.0517 62.9504 0.0000 0.0000 0.0000
# 4 0.0000 0.0000 0.0000 12.4405 0.0000 0.0000
# 5 0.0000 0.0000 0.0000 0.0000 18.6135 0.0000
# 6 0.0000 0.0000 0.0000 0.0000 0.0000 42.2821
#
#
#
# Elastic Compliance Matrix: (Units=1/GPa)
#
#
# Indices 1 2 3 4 5 6 
#
# 1 0.020481 0.000985 -0.006383 0.000000 0.000000 0.000000
# 2 0.000985 0.011875 -0.002947 0.000000 0.000000 0.000000
# 3 -0.006383 -0.002947 0.018464 0.000000 0.000000 0.000000
# 4 0.000000 0.000000 0.000000 0.080383 0.000000 0.000000
# 5 0.000000 0.000000 0.000000 0.000000 0.053725 0.000000
# 6 0.000000 0.000000 0.000000 0.000000 0.000000 0.023651
#
#
# Mechanical properties :
#
#
# Convention : Reuss Voigt Hill
#
# Bulk Modulus (GPa) = 29.30038 30.18589 29.74314
# Shear Modulus (GPa) = 21.12858 26.14684 23.63771
#
# Velocity S-wave (km/s) = 2.96347 3.29667 3.13450
# Velocity P-wave (km/s) = 4.88757 5.19977 5.04609
#
# Compressibility (1/GPa) = 0.03412924
#
# Stress axis : x y z
#
# Youngs Moduli (GPa) = 48.82625 84.20728 54.15846
#
# Poissons Ratio (x) = -0.08292 0.34571
# Poissons Ratio (y) = -0.04808 0.15961
# Poissons Ratio (z) = 0.31167 0.24817
#
# Static dielectric constant tensor:
#      x y z
#    x 1.929980 0.000000 0.000000 
#    y 0.000000 2.009480 0.000000 
#    z 0.000000 0.000000 2.001710 
# 
# From -- ./inp_files/23279.got.cif
#   From: 2010.05.17/outbox.cif.g08.bks.cpg/sg54_12_cif.got.tgz:23279.got - 2010.06.03 13:09:01.
