data_PCOD9423731
_publ_section_title
;
Structure prediction by ZEFSAII (Michael W. Deem and Ramdas Pophale) SiO2 
 PCOD9423731
Probable space group: P C C A
;
_chemical_formula_sum "Si O2"
_cell_formula_units_Z 44
_cell_length_a 23.762483
_cell_length_b 8.599590
_cell_length_c 8.920759
_cell_angle_alpha 90.000000
_cell_angle_beta 90.000000
_cell_angle_gamma 90.000000
_cell_volume 1822.935792
_symmetry_space_group_name_H-M "P C C A"
_symmetry_group_IT_number 54
_symmetry_cell_setting 'orthorhombic'
loop_
_space_group_symop_operation_xyz
x,y,z
1/2-x,-y,z
1/2+x,-y,1/2-z
-x,y,1/2-z
-x,-y,-z
1/2+x,y,-z
1/2-x,y,1/2+z
x,-y,1/2+z
loop_
_atom_site_type_symbol
_atom_site_label
_atom_site_fract_x
_atom_site_fract_y
_atom_site_fract_z
Si Si1 0.250000 0.500000 0.292790
Si Si2 0.314449 0.027630 0.093127
Si Si3 0.057701 0.632464 0.172824
Si Si4 0.378941 0.893600 0.864227
Si Si5 0.528837 0.861775 0.096378
Si Si6 0.672208 0.372663 0.451124
O O1 0.219226 0.617175 0.179594
O O2 0.299424 0.558298 0.401507
O O3 0.324707 0.063391 0.266258
O O4 0.336349 0.189795 0.022451
O O5 0.250000 0.000000 0.060988
O O6 0.354701 0.890861 0.031506
O O7 0.086909 0.749171 0.295247
O O8 0.114040 0.548056 0.107024
O O9 0.000000 0.569249 0.250000
O O10 0.962079 0.727768 0.474601
O O11 0.418360 0.041670 0.845071
O O12 0.500000 0.807745 0.250000
O O13 0.500000 0.000000 0.000000
#
# Coordination Sequence:
#
# PCOD9423731 Si02
#       6
#     4   8   8   8   8   8
#     4  10  24  50  68  86 116 170 228 272 304 360
#     4  11  24  34  58  97 133 158 201 257 320 380
#     4  11  22  37  60  94 130 166 204 253 317 388
#     4  11  19  34  51  87 133 169 191 232 310 390
#     4  12  18  31  52  82 130 170 196 226 294 398
#     4  10  24  44  69  91 120 167 218 265 317 370
#
# _framework density 24.136890999999999
#
# number of rings (size 3 to 8) (size 9 to 14) (size 15 to 20)
#    0.000    1.091    7.273    0.545    7.636    0.000 
#    0.000    4.545    0.000    0.000    0.000    0.000 
#    0.000    0.000    0.000    0.000    0.000    0.000 
#
# Total GULP energy -245316.281895 kJ/mol
# GULP energy per Si atom -5575.370043 kJ/mol
# Density = 2.408195 g / cm^3
# Si number density = 24.136891 Si / 1000 Ang^3
#
#
#
# Elastic Constant Matrix: (Units=GPa)
#
#
# Indices 1 2 3 4 5 6 
#
# 1 122.4588 10.1593 24.8912 0.0000 0.0000 0.0000
# 2 10.1593 29.1156 20.8720 0.0000 0.0000 0.0000
# 3 24.8912 20.8720 92.6701 0.0000 0.0000 0.0000
# 4 0.0000 0.0000 0.0000 2.6674 0.0000 0.0000
# 5 0.0000 0.0000 0.0000 0.0000 35.1843 0.0000
# 6 0.0000 0.0000 0.0000 0.0000 0.0000 7.6394
#
#
#
# Elastic Compliance Matrix: (Units=1/GPa)
#
#
# Indices 1 2 3 4 5 6 
#
# 1 0.008701 -0.001623 -0.001972 0.000000 0.000000 0.000000
# 2 -0.001623 0.041262 -0.008857 0.000000 0.000000 0.000000
# 3 -0.001972 -0.008857 0.013316 0.000000 0.000000 0.000000
# 4 0.000000 0.000000 0.000000 0.374890 0.000000 0.000000
# 5 0.000000 0.000000 0.000000 0.000000 0.028422 0.000000
# 6 0.000000 0.000000 0.000000 0.000000 0.000000 0.130901
#
#
# Mechanical properties :
#
#
# Convention : Reuss Voigt Hill
#
# Bulk Modulus (GPa) = 26.05876 39.56550 32.81213
# Shear Modulus (GPa) = 7.87170 21.65303 14.76237
#
# Velocity S-wave (km/s) = 1.80786 2.99840 2.47576
# Velocity P-wave (km/s) = 3.89583 5.33056 4.66864
#
# Compressibility (1/GPa) = 0.03837481
#
# Stress axis : x y z
#
# Youngs Moduli (GPa) = 114.92395 24.23557 75.10024
#
# Poissons Ratio (x) = 0.03933 0.14808
# Poissons Ratio (y) = 0.18649 0.66520
# Poissons Ratio (z) = 0.22660 0.21467
#
# Static dielectric constant tensor:
#      x y z
#    x 2.094910 0.000000 0.000000 
#    y 0.000000 2.269370 0.000000 
#    z 0.000000 0.000000 2.018110 
# 
# From -- ./inp_files/5106.got.cif
#   From: 2010.05.17/outbox.cif.g08.bks.cpg/sg54_3_cif.got.tgz:5106.got - 2010.06.03 13:09:01.
