data_PCOD9423504
_publ_section_title
;
Structure prediction by ZEFSAII (Michael W. Deem and Ramdas Pophale) SiO2 
 PCOD9423504
Probable space group: P C C A
;
_chemical_formula_sum "Si O2"
_cell_formula_units_Z 32
_cell_length_a 9.907661
_cell_length_b 12.339865
_cell_length_c 10.570809
_cell_angle_alpha 90.000000
_cell_angle_beta 90.000000
_cell_angle_gamma 90.000000
_cell_volume 1292.378643
_symmetry_space_group_name_H-M "P C C A"
_symmetry_group_IT_number 54
_symmetry_cell_setting 'orthorhombic'
loop_
_space_group_symop_operation_xyz
x,y,z
1/2-x,-y,z
1/2+x,-y,1/2-z
-x,y,1/2-z
-x,-y,-z
1/2+x,y,-z
1/2-x,y,1/2+z
x,-y,1/2+z
loop_
_atom_site_type_symbol
_atom_site_label
_atom_site_fract_x
_atom_site_fract_y
_atom_site_fract_z
Si Si1 0.250000 0.500000 0.303981
Si Si2 0.463195 0.814147 0.457671
Si Si3 0.000000 0.630569 0.750000
Si Si4 0.771684 0.881993 0.857610
Si Si5 0.870106 0.288608 0.675231
O O1 0.129586 0.445178 0.224089
O O2 0.195202 0.602968 0.380642
O O3 0.460972 0.706450 0.369852
O O4 0.324926 0.860911 0.517759
O O5 0.568065 0.887447 0.381736
O O6 0.558517 0.786811 0.575488
O O7 0.726320 0.783675 0.765496
O O8 0.750000 0.000000 0.799954
O O9 0.000000 0.331061 0.750000
#
# Coordination Sequence:
#
# PCOD9423504 Si02
#       5
#     4   8   4   8   8
#     4  12  22  44  70 104 140 188 238 292 362 434
#     4  11  25  47  69 109 143 185 240 298 362 428
#     4  12  26  44  72 104 148 188 242 294 364 436
#     4  11  24  46  74 103 141 187 238 295 360 429
#     4  10  23  44  66 100 141 181 231 292 357 419
#
# _framework density 24.760545
#
# number of rings (size 3 to 8) (size 9 to 14) (size 15 to 20)
#    0.000    1.000    3.750    2.250    0.000    3.000 
#    6.750    0.000    0.000    0.000    0.000    0.000 
#    0.000    0.000    0.000    0.000    0.000    0.000 
#
# Total GULP energy -178372.032116 kJ/mol
# GULP energy per Si atom -5574.126004 kJ/mol
# Density = 2.470419 g / cm^3
# Si number density = 24.760545 Si / 1000 Ang^3
#
#
#
# Elastic Constant Matrix: (Units=GPa)
#
#
# Indices 1 2 3 4 5 6 
#
# 1 132.1900 23.3234 23.9796 0.0000 0.0000 0.0000
# 2 23.3234 95.1301 -10.4594 0.0000 0.0000 0.0000
# 3 23.9796 -10.4594 50.5805 0.0000 0.0000 0.0000
# 4 0.0000 0.0000 0.0000 1.1153 0.0000 0.0000
# 5 0.0000 0.0000 0.0000 0.0000 25.0939 0.0000
# 6 0.0000 0.0000 0.0000 0.0000 0.0000 23.0859
#
#
#
# Elastic Compliance Matrix: (Units=1/GPa)
#
#
# Indices 1 2 3 4 5 6 
#
# 1 0.008911 -0.002711 -0.004785 0.000000 0.000000 0.000000
# 2 -0.002711 0.011581 0.003680 0.000000 0.000000 0.000000
# 3 -0.004785 0.003680 0.022800 0.000000 0.000000 0.000000
# 4 0.000000 0.000000 0.000000 0.896629 0.000000 0.000000
# 5 0.000000 0.000000 0.000000 0.000000 0.039850 0.000000
# 6 0.000000 0.000000 0.000000 0.000000 0.000000 0.043317
#
#
# Mechanical properties :
#
#
# Convention : Reuss Voigt Hill
#
# Bulk Modulus (GPa) = 28.04248 39.06532 33.55390
# Shear Modulus (GPa) = 4.79567 25.92949 15.36258
#
# Velocity S-wave (km/s) = 1.39321 3.23957 2.49358
# Velocity P-wave (km/s) = 3.73337 5.45936 4.67668
#
# Compressibility (1/GPa) = 0.03566018
#
# Stress axis : x y z
#
# Youngs Moduli (GPa) = 112.21770 86.34694 43.85946
#
# Poissons Ratio (x) = 0.23408 0.20988
# Poissons Ratio (y) = 0.30422 -0.16141
# Poissons Ratio (z) = 0.53700 -0.31776
#
# Static dielectric constant tensor:
#      x y z
#    x 2.289900 0.000000 0.000000 
#    y 0.000000 1.979940 0.000000 
#    z 0.000000 0.000000 2.094340 
# 
# From -- ./inp_files/7323.got.cif
#   From: 2010.05.17/outbox.cif.g08.bks.cpg/sg54_4_cif.got.tgz:7323.got - 2010.06.03 13:09:01.
