data_PCOD9423162
_publ_section_title
;
Structure prediction by ZEFSAII (Michael W. Deem and Ramdas Pophale) SiO2 
 PCOD9423162
Probable space group: P C C A
;
_chemical_formula_sum "Si O2"
_cell_formula_units_Z 36
_cell_length_a 10.750440
_cell_length_b 5.556329
_cell_length_c 25.270208
_cell_angle_alpha 90.000000
_cell_angle_beta 90.000000
_cell_angle_gamma 90.000000
_cell_volume 1509.464868
_symmetry_space_group_name_H-M "P C C A"
_symmetry_group_IT_number 54
_symmetry_cell_setting 'orthorhombic'
loop_
_space_group_symop_operation_xyz
x,y,z
1/2-x,-y,z
1/2+x,-y,1/2-z
-x,y,1/2-z
-x,-y,-z
1/2+x,y,-z
1/2-x,y,1/2+z
x,-y,1/2+z
loop_
_atom_site_type_symbol
_atom_site_label
_atom_site_fract_x
_atom_site_fract_y
_atom_site_fract_z
Si Si1 0.877987 0.159099 0.490844
Si Si2 0.750000 0.000000 0.664117
Si Si3 0.962065 0.338484 0.193933
Si Si4 0.675443 0.249137 0.872170
Si Si5 0.378241 0.638595 0.899963
O O1 0.877149 0.271549 0.432429
O O2 0.893654 0.352069 0.537796
O O3 0.750000 0.000000 0.498050
O O4 0.000000 0.000000 0.500000
O O5 0.670003 0.196908 0.696481
O O6 0.853359 0.098699 0.623482
O O7 0.963499 0.519742 0.144166
O O8 0.000000 0.448225 0.250000
O O9 0.078543 0.183496 0.174501
O O10 0.750000 0.500000 0.861018
O O11 0.750000 0.000000 0.877039
O O12 0.250000 0.500000 0.892205
#
# Coordination Sequence:
#
# PCOD9423162 Si02
#       5
#     8   4   8   8   8
#     4  11  24  43  76 112 152 201 249 324 401 478
#     4  10  22  44  70 102 136 194 252 316 382 462
#     4  11  27  45  74 105 147 203 259 329 379 470
#     4  11  28  49  74 115 159 203 255 323 403 469
#     4  10  22  42  71 104 140 186 254 306 382 462
#
# _framework density 23.849513000000002
#
# number of rings (size 3 to 8) (size 9 to 14) (size 15 to 20)
#    0.000    1.333    1.111    2.000   14.000    4.444 
#    0.000    0.000    0.000    0.000    0.000    0.000 
#    0.000    0.000    0.000    0.000    0.000    0.000 
#
# Total GULP energy -200607.606512 kJ/mol
# GULP energy per Si atom -5572.433514 kJ/mol
# Density = 2.379523 g / cm^3
# Si number density = 23.849513 Si / 1000 Ang^3
#
#
#
# Elastic Constant Matrix: (Units=GPa)
#
#
# Indices 1 2 3 4 5 6 
#
# 1 96.2433 13.7888 34.4851 0.0000 0.0000 0.0000
# 2 13.7888 51.7577 8.2172 0.0000 0.0000 0.0000
# 3 34.4851 8.2172 143.0457 0.0000 0.0000 0.0000
# 4 0.0000 0.0000 0.0000 -1.5209 0.0000 0.0000
# 5 0.0000 0.0000 0.0000 0.0000 33.0141 0.0000
# 6 0.0000 0.0000 0.0000 0.0000 0.0000 33.9878
#
#
#
# Elastic Compliance Matrix: (Units=1/GPa)
#
#
# Indices 1 2 3 4 5 6 
#
# 1 0.011736 -0.002702 -0.002674 0.000000 0.000000 0.000000
# 2 -0.002702 0.020121 -0.000504 0.000000 0.000000 0.000000
# 3 -0.002674 -0.000504 0.007664 0.000000 0.000000 0.000000
# 4 0.000000 0.000000 0.000000 -0.657527 0.000000 0.000000
# 5 0.000000 0.000000 0.000000 0.000000 0.030290 0.000000
# 6 0.000000 0.000000 0.000000 0.000000 0.000000 0.029422
#
#
# Mechanical properties :
#
#
# Convention : Reuss Voigt Hill
#
# Bulk Modulus (GPa) = 36.02315 44.89210 40.45762
# Shear Modulus (GPa) = -9.30614 28.73325 9.71356
#
# Velocity S-wave (km/s) = -1.97750 3.47475 2.02032
# Velocity P-wave (km/s) = 3.15010 5.91290 4.73738
#
# Compressibility (1/GPa) = 0.02775993
#
# Stress axis : x y z
#
# Youngs Moduli (GPa) = 85.21114 49.70004 130.47370
#
# Poissons Ratio (x) = 0.13429 0.34888
# Poissons Ratio (y) = 0.23024 0.06582
# Poissons Ratio (z) = 0.22785 0.02507
#
# Static dielectric constant tensor:
#      x y z
#    x 2.290740 0.000000 0.000000 
#    y 0.000000 2.152640 0.000000 
#    z 0.000000 0.000000 1.926930 
# 
# From -- ./inp_files/23802.got.cif
#   From: 2010.05.17/outbox.cif.g08.bks.cpg/sg54_12_cif.got.tgz:23802.got - 2010.06.03 13:09:01.
