data_PCOD9423883
_publ_section_title
;
Structure prediction by ZEFSAII (Michael W. Deem and Ramdas Pophale) SiO2 
 PCOD9423883
Probable space group: P C C A
;
_chemical_formula_sum "Si O2"
_cell_formula_units_Z 32
_cell_length_a 16.143413
_cell_length_b 5.190958
_cell_length_c 15.119678
_cell_angle_alpha 90.000000
_cell_angle_beta 90.000000
_cell_angle_gamma 90.000000
_cell_volume 1267.025673
_symmetry_space_group_name_H-M "P C C A"
_symmetry_group_IT_number 54
_symmetry_cell_setting 'orthorhombic'
loop_
_space_group_symop_operation_xyz
x,y,z
1/2-x,-y,z
1/2+x,-y,1/2-z
-x,y,1/2-z
-x,-y,-z
1/2+x,y,-z
1/2-x,y,1/2+z
x,-y,1/2+z
loop_
_atom_site_type_symbol
_atom_site_label
_atom_site_fract_x
_atom_site_fract_y
_atom_site_fract_z
Si Si1 0.882504 0.168713 0.366724
Si Si2 0.514513 0.648133 0.846415
Si Si3 0.408573 0.968171 0.954381
Si Si4 0.305000 0.747336 0.322542
O O1 0.933549 0.426488 0.393348
O O2 0.848711 0.078424 0.462408
O O3 0.829642 0.249529 0.281539
O O4 0.934081 0.915603 0.335083
O O5 0.500000 0.535864 0.750000
O O6 0.428851 0.731213 0.890387
O O7 0.380145 0.196223 0.890328
O O8 0.500000 0.000000 0.000000
O O9 0.250000 0.500000 0.341866
O O10 0.250000 0.000000 0.336524
#
# Coordination Sequence:
#
# PCOD9423883 Si02
#       4
#     8   8   8   8
#     4  11  24  44  70 106 147 194 251 313 389 466
#     4  11  21  39  74 106 148 183 246 321 392 443
#     4  10  25  46  77 117 148 200 269 336 388 464
#     4  12  28  49  74 107 159 216 259 321 409 488
#
# _framework density 25.255998999999999
#
# number of rings (size 3 to 8) (size 9 to 14) (size 15 to 20)
#    0.000    1.000    2.500    3.000    3.500    5.000 
#    0.000    2.500    0.000    0.000    0.000    0.000 
#    0.000    0.000    0.000    0.000    0.000    0.000 
#
# Total GULP energy -178788.943294 kJ/mol
# GULP energy per Si atom -5587.154478 kJ/mol
# Density = 2.519852 g / cm^3
# Si number density = 25.255999 Si / 1000 Ang^3
#
#
#
# Elastic Constant Matrix: (Units=GPa)
#
#
# Indices 1 2 3 4 5 6 
#
# 1 82.3857 56.5763 32.7478 0.0000 0.0000 0.0000
# 2 56.5763 191.2625 19.7189 0.0000 0.0000 0.0000
# 3 32.7478 19.7189 186.2863 0.0000 0.0000 0.0000
# 4 0.0000 0.0000 0.0000 1.0627 0.0000 0.0000
# 5 0.0000 0.0000 0.0000 0.0000 33.1307 0.0000
# 6 0.0000 0.0000 0.0000 0.0000 0.0000 41.5815
#
#
#
# Elastic Compliance Matrix: (Units=1/GPa)
#
#
# Indices 1 2 3 4 5 6 
#
# 1 0.016203 -0.004549 -0.002367 0.000000 0.000000 0.000000
# 2 -0.004549 0.006563 0.000105 0.000000 0.000000 0.000000
# 3 -0.002367 0.000105 0.005773 0.000000 0.000000 0.000000
# 4 0.000000 0.000000 0.000000 0.940995 0.000000 0.000000
# 5 0.000000 0.000000 0.000000 0.000000 0.030184 0.000000
# 6 0.000000 0.000000 0.000000 0.000000 0.000000 0.024049
#
#
# Mechanical properties :
#
#
# Convention : Reuss Voigt Hill
#
# Bulk Modulus (GPa) = 67.03562 75.33563 71.18562
# Shear Modulus (GPa) = 4.79681 38.54774 21.67227
#
# Velocity S-wave (km/s) = 1.37964 3.91100 2.93252
# Velocity P-wave (km/s) = 5.39796 7.09141 6.30183
#
# Compressibility (1/GPa) = 0.01491744
#
# Stress axis : x y z
#
# Youngs Moduli (GPa) = 61.71855 152.36577 173.21896
#
# Poissons Ratio (x) = 0.69308 0.40997
# Poissons Ratio (y) = 0.28074 -0.01817
# Poissons Ratio (z) = 0.14608 -0.01599
#
# Static dielectric constant tensor:
#      x y z
#    x 2.179990 0.000000 0.000000 
#    y 0.000000 1.968700 0.000000 
#    z 0.000000 0.000000 2.151240 
# 
# From -- ./inp_files/13724.got.cif
#   From: 2010.05.17/outbox.cif.g08.bks.cpg/sg54_7_cif.got.tgz:13724.got - 2010.06.03 13:09:01.
