data_PCOD9423280
_publ_section_title
;
Structure prediction by ZEFSAII (Michael W. Deem and Ramdas Pophale) SiO2 
 PCOD9423280
Probable space group: P C C A
;
_chemical_formula_sum "Si O2"
_cell_formula_units_Z 40
_cell_length_a 15.636997
_cell_length_b 5.067977
_cell_length_c 20.175771
_cell_angle_alpha 90.000000
_cell_angle_beta 90.000000
_cell_angle_gamma 90.000000
_cell_volume 1598.888313
_symmetry_space_group_name_H-M "P C C A"
_symmetry_group_IT_number 54
_symmetry_cell_setting 'orthorhombic'
loop_
_space_group_symop_operation_xyz
x,y,z
1/2-x,-y,z
1/2+x,-y,1/2-z
-x,y,1/2-z
-x,-y,-z
1/2+x,y,-z
1/2-x,y,1/2+z
x,-y,1/2+z
loop_
_atom_site_type_symbol
_atom_site_label
_atom_site_fract_x
_atom_site_fract_y
_atom_site_fract_z
Si Si1 0.656573 0.625016 0.704614
Si Si2 0.102133 0.109951 0.920781
Si Si3 0.847603 0.601817 0.499062
Si Si4 0.497269 0.200314 0.822609
Si Si5 0.651283 0.583862 0.848245
O O1 0.750000 0.500000 0.706470
O O2 0.596611 0.634336 0.532087
O O3 0.642804 0.740032 0.778734
O O4 0.658156 0.822537 0.643556
O O5 0.140188 0.867580 0.960601
O O6 0.080168 0.582149 0.814891
O O7 0.019341 0.998612 0.882621
O O8 0.750000 0.500000 0.504241
O O9 0.866756 0.671292 0.422929
O O10 0.500000 0.072808 0.750000
O O11 0.585437 0.346941 0.836252
O O12 0.750000 0.500000 0.850618
#
# Coordination Sequence:
#
# PCOD9423280 Si02
#       5
#     8   8   8   8   8
#     4  10  22  44  76 108 145 193 250 302 368 438
#     4  12  24  44  73 107 144 190 242 306 367 429
#     4  11  25  45  72 107 151 194 243 304 368 441
#     4  10  23  43  71 108 148 190 248 311 361 432
#     4   9  22  49  73 105 150 200 245 302 373 446
#
# _framework density 25.017381
#
# number of rings (size 3 to 8) (size 9 to 14) (size 15 to 20)
#    0.000    1.600    2.000    1.200    2.800    4.000 
#   10.800    0.000    0.000    0.000    0.000    0.000 
#    0.000    0.000    0.000    0.000    0.000    0.000 
#
# Total GULP energy -223758.929065 kJ/mol
# GULP energy per Si atom -5593.973227 kJ/mol
# Density = 2.496044 g / cm^3
# Si number density = 25.017381 Si / 1000 Ang^3
#
#
#
# Elastic Constant Matrix: (Units=GPa)
#
#
# Indices 1 2 3 4 5 6 
#
# 1 153.1285 49.2110 61.7696 0.0000 0.0000 0.0000
# 2 49.2110 117.0475 99.7850 0.0000 0.0000 0.0000
# 3 61.7696 99.7850 269.8355 0.0000 0.0000 0.0000
# 4 0.0000 0.0000 0.0000 -23.5135 0.0000 0.0000
# 5 0.0000 0.0000 0.0000 0.0000 29.6524 0.0000
# 6 0.0000 0.0000 0.0000 0.0000 0.0000 18.0034
#
#
#
# Elastic Compliance Matrix: (Units=1/GPa)
#
#
# Indices 1 2 3 4 5 6 
#
# 1 0.007674 -0.002525 -0.000823 0.000000 0.000000 0.000000
# 2 -0.002525 0.013308 -0.004343 0.000000 0.000000 0.000000
# 3 -0.000823 -0.004343 0.005500 0.000000 0.000000 0.000000
# 4 0.000000 0.000000 0.000000 -0.042529 0.000000 0.000000
# 5 0.000000 0.000000 0.000000 0.000000 0.033724 0.000000
# 6 0.000000 0.000000 0.000000 0.000000 0.000000 0.055545
#
#
# Mechanical properties :
#
#
# Convention : Reuss Voigt Hill
#
# Bulk Modulus (GPa) = 90.08943 106.83808 98.46375
# Shear Modulus (GPa) = 54.16852 26.77818 40.47335
#
# Velocity S-wave (km/s) = 4.65826 3.27522 4.02656
# Velocity P-wave (km/s) = 8.06358 7.55652 7.81417
#
# Compressibility (1/GPa) = 0.01110008
#
# Stress axis : x y z
#
# Youngs Moduli (GPa) = 130.31311 75.14447 181.80199
#
# Poissons Ratio (x) = 0.18972 0.14963
# Poissons Ratio (y) = 0.32900 0.78961
# Poissons Ratio (z) = 0.10725 0.32637
#
# Static dielectric constant tensor:
#      x y z
#    x 2.111320 0.000000 0.000000 
#    y 0.000000 2.027110 0.000000 
#    z 0.000000 0.000000 1.990090 
# 
# From -- ./inp_files/18794.got.cif
#   From: 2010.05.17/outbox.cif.g08.bks.cpg/sg54_10_cif.got.tgz:18794.got - 2010.06.03 13:09:01.
