data_PCOD9423763
_publ_section_title
;
Structure prediction by ZEFSAII (Michael W. Deem and Ramdas Pophale) SiO2 
 PCOD9423763
Probable space group: P C C A
;
_chemical_formula_sum "Si O2"
_cell_formula_units_Z 32
_cell_length_a 5.146950
_cell_length_b 13.303084
_cell_length_c 18.857989
_cell_angle_alpha 90.000000
_cell_angle_beta 90.000000
_cell_angle_gamma 90.000000
_cell_volume 1291.212319
_symmetry_space_group_name_H-M "P C C A"
_symmetry_group_IT_number 54
_symmetry_cell_setting 'orthorhombic'
loop_
_space_group_symop_operation_xyz
x,y,z
1/2-x,-y,z
1/2+x,-y,1/2-z
-x,y,1/2-z
-x,-y,-z
1/2+x,y,-z
1/2-x,y,1/2+z
x,-y,1/2+z
loop_
_atom_site_type_symbol
_atom_site_label
_atom_site_fract_x
_atom_site_fract_y
_atom_site_fract_z
Si Si1 0.750000 0.000000 0.825152
Si Si2 0.750000 0.500000 0.952055
Si Si3 0.498995 0.887134 0.050351
Si Si4 0.000000 0.570756 0.750000
Si Si5 0.000000 0.180132 0.750000
Si Si6 0.207388 0.301670 0.134846
O O1 0.964544 0.964535 0.883599
O O2 0.711291 0.904945 0.773453
O O3 0.706499 0.601130 0.907734
O O4 0.500000 0.500000 0.000000
O O5 0.431087 0.780602 0.086256
O O6 0.771379 0.894802 0.009465
O O7 0.750000 0.500000 0.752581
O O8 0.004805 0.648177 0.814306
O O9 0.937870 0.253093 0.817020
#
# Coordination Sequence:
#
# PCOD9423763 Si02
#       6
#     4   4   8   4   4   8
#     4  10  24  44  76 112 154 198 266 320 404 462
#     4  12  28  46  74 108 152 208 254 314 382 464
#     4  11  25  46  74 109 152 203 256 317 385 465
#     4  12  27  47  76 112 150 206 255 321 388 456
#     4  10  25  47  74 118 150 208 255 337 392 466
#     4  11  26  46  76 111 158 200 265 319 390 470
#
# _framework density 24.782913000000001
#
# number of rings (size 3 to 8) (size 9 to 14) (size 15 to 20)
#    0.000    1.000    1.250    3.000    1.750   14.000 
#    0.000    0.000    0.000    0.000    0.000    0.000 
#    0.000    0.000    0.000    0.000    0.000    0.000 
#
# Total GULP energy -178558.802713 kJ/mol
# GULP energy per Si atom -5579.962585 kJ/mol
# Density = 2.472651 g / cm^3
# Si number density = 24.782913 Si / 1000 Ang^3
#
#
#
# Elastic Constant Matrix: (Units=GPa)
#
#
# Indices 1 2 3 4 5 6 
#
# 1 128.0549 32.3622 42.5679 0.0000 0.0000 0.0000
# 2 32.3622 198.5263 67.9392 0.0000 0.0000 0.0000
# 3 42.5679 67.9392 104.3139 0.0000 0.0000 0.0000
# 4 0.0000 0.0000 0.0000-1868.2616 0.0000 0.0000
# 5 0.0000 0.0000 0.0000 0.0000 65.6153 0.0000
# 6 0.0000 0.0000 0.0000 0.0000 0.0000 19.8064
#
#
#
# Elastic Compliance Matrix: (Units=1/GPa)
#
#
# Indices 1 2 3 4 5 6 
#
# 1 0.009046 -0.000272 -0.003514 0.000000 0.000000 0.000000
# 2 -0.000272 0.006490 -0.004116 0.000000 0.000000 0.000000
# 3 -0.003514 -0.004116 0.013701 0.000000 0.000000 0.000000
# 4 0.000000 0.000000 0.000000 -0.000535 0.000000 0.000000
# 5 0.000000 0.000000 0.000000 0.000000 0.015240 0.000000
# 6 0.000000 0.000000 0.000000 0.000000 0.000000 0.050489
#
#
# Mechanical properties :
#
#
# Convention : Reuss Voigt Hill
#
# Bulk Modulus (GPa) = 74.44425 79.62597 77.03511
# Shear Modulus (GPa) = 43.58693 -337.36626 -146.88967
#
# Velocity S-wave (km/s) = 4.19829 -11.68007 -7.70709
# Velocity P-wave (km/s) = 7.32152 12.23518 6.93163
#
# Compressibility (1/GPa) = 0.01343287
#
# Stress axis : x y z
#
# Youngs Moduli (GPa) = 110.54454 154.08348 72.98595
#
# Poissons Ratio (x) = 0.04190 0.25650
# Poissons Ratio (y) = 0.03006 0.30040
# Poissons Ratio (z) = 0.38850 0.63420
#
# Static dielectric constant tensor:
#      x y z
#    x 1.962830 0.000000 0.000000 
#    y 0.000000 2.051460 0.000000 
#    z 0.000000 0.000000 1.875740 
# 
# From -- ./inp_files/15734.got.cif
#   From: 2010.05.17/outbox.cif.g08.bks.cpg/sg54_8_cif.got.tgz:15734.got - 2010.06.03 13:09:01.
