data_PCOD9423148
_publ_section_title
;
Structure prediction by ZEFSAII (Michael W. Deem and Ramdas Pophale) SiO2 
 PCOD9423148
Probable space group: P C C A
;
_chemical_formula_sum "Si O2"
_cell_formula_units_Z 24
_cell_length_a 11.665426
_cell_length_b 5.314566
_cell_length_c 17.817526
_cell_angle_alpha 90.000000
_cell_angle_beta 90.000000
_cell_angle_gamma 90.000000
_cell_volume 1104.627394
_symmetry_space_group_name_H-M "P C C A"
_symmetry_group_IT_number 54
_symmetry_cell_setting 'orthorhombic'
loop_
_space_group_symop_operation_xyz
x,y,z
1/2-x,-y,z
1/2+x,-y,1/2-z
-x,y,1/2-z
-x,-y,-z
1/2+x,y,-z
1/2-x,y,1/2+z
x,-y,1/2+z
loop_
_atom_site_type_symbol
_atom_site_label
_atom_site_fract_x
_atom_site_fract_y
_atom_site_fract_z
Si Si1 0.499461 0.055613 0.839005
Si Si2 0.626080 0.109967 0.974119
Si Si3 0.121838 0.553077 0.397898
O O1 0.500000 0.075358 0.750000
O O2 0.618456 0.059296 0.885290
O O3 0.444867 0.307839 0.873248
O O4 0.429797 0.803380 0.860204
O O5 0.750000 0.000000 0.001262
O O6 0.623520 0.384738 0.012775
O O7 0.500000 0.000000 0.000000
O O8 0.250000 0.500000 0.372908
#
# Coordination Sequence:
#
# PCOD9423148 Si02
#       3
#     8   8   8
#     4  11  24  42  64  99 137 176 223 284 347 410
#     4  10  22  42  68  98 133 179 233 283 336 405
#     4  11  22  42  67  93 130 177 227 279 338 407
#
# _framework density 21.726785
#
# number of rings (size 3 to 8) (size 9 to 14) (size 15 to 20)
#    0.000    1.333    0.000    7.000    0.000    5.333 
#    0.000    1.667    0.000    0.000    0.000    0.000 
#    0.000    0.000    0.000    0.000    0.000    0.000 
#
# Total GULP energy -133639.212501 kJ/mol
# GULP energy per Si atom -5568.300521 kJ/mol
# Density = 2.167733 g / cm^3
# Si number density = 21.726785 Si / 1000 Ang^3
#
#
#
# Elastic Constant Matrix: (Units=GPa)
#
#
# Indices 1 2 3 4 5 6 
#
# 1 143.8109 60.6105 27.6475 0.0000 0.0000 0.0000
# 2 60.6105 176.0489 51.4881 0.0000 0.0000 0.0000
# 3 27.6475 51.4881 140.1910 0.0000 0.0000 0.0000
# 4 0.0000 0.0000 0.0000 30.8808 0.0000 0.0000
# 5 0.0000 0.0000 0.0000 0.0000 16.9814 0.0000
# 6 0.0000 0.0000 0.0000 0.0000 0.0000 10.6669
#
#
#
# Elastic Compliance Matrix: (Units=1/GPa)
#
#
# Indices 1 2 3 4 5 6 
#
# 1 0.008186 -0.002629 -0.000649 0.000000 0.000000 0.000000
# 2 -0.002629 0.007208 -0.002129 0.000000 0.000000 0.000000
# 3 -0.000649 -0.002129 0.008043 0.000000 0.000000 0.000000
# 4 0.000000 0.000000 0.000000 0.032383 0.000000 0.000000
# 5 0.000000 0.000000 0.000000 0.000000 0.058888 0.000000
# 6 0.000000 0.000000 0.000000 0.000000 0.000000 0.093748
#
#
# Mechanical properties :
#
#
# Convention : Reuss Voigt Hill
#
# Bulk Modulus (GPa) = 79.21327 82.17146 80.69236
# Shear Modulus (GPa) = 22.37372 33.05947 27.71659
#
# Velocity S-wave (km/s) = 3.21249 3.90500 3.57555
# Velocity P-wave (km/s) = 7.09212 7.63115 7.36657
#
# Compressibility (1/GPa) = 0.01262415
#
# Stress axis : x y z
#
# Youngs Moduli (GPa) = 122.15716 138.73843 124.33193
#
# Poissons Ratio (x) = 0.36468 0.08070
# Poissons Ratio (y) = 0.32109 0.26468
# Poissons Ratio (z) = 0.07928 0.29535
#
# Static dielectric constant tensor:
#      x y z
#    x 1.843410 0.000000 0.000000 
#    y 0.000000 1.479940 0.000000 
#    z 0.000000 0.000000 1.949510 
# 
# From -- ./inp_files/16903.got.cif
#   From: 2010.05.17/outbox.cif.g08.bks.cpg/sg54_9_cif.got.tgz:16903.got - 2010.06.03 13:09:01.
