data_PCOD9423102
_publ_section_title
;
Structure prediction by ZEFSAII (Michael W. Deem and Ramdas Pophale) SiO2 
 PCOD9423102
Probable space group: P C C A
;
_chemical_formula_sum "Si O2"
_cell_formula_units_Z 40
_cell_length_a 7.339451
_cell_length_b 8.767185
_cell_length_c 31.103441
_cell_angle_alpha 90.000000
_cell_angle_beta 90.000000
_cell_angle_gamma 90.000000
_cell_volume 2001.392114
_symmetry_space_group_name_H-M "P C C A"
_symmetry_group_IT_number 54
_symmetry_cell_setting 'orthorhombic'
loop_
_space_group_symop_operation_xyz
x,y,z
1/2-x,-y,z
1/2+x,-y,1/2-z
-x,y,1/2-z
-x,-y,-z
1/2+x,y,-z
1/2-x,y,1/2+z
x,-y,1/2+z
loop_
_atom_site_type_symbol
_atom_site_label
_atom_site_fract_x
_atom_site_fract_y
_atom_site_fract_z
Si Si1 0.954853 0.447651 0.547786
Si Si2 0.995717 0.342289 0.124453
Si Si3 0.544863 0.555281 0.799647
Si Si4 0.653683 0.149704 0.087777
Si Si5 0.843449 0.850384 0.343729
O O1 0.750000 0.500000 0.554325
O O2 0.948078 0.266880 0.555692
O O3 0.000000 0.500000 0.500000
O O4 0.050251 0.542678 0.585703
O O5 0.945668 0.447156 0.165709
O O6 0.172605 0.240101 0.135141
O O7 0.819795 0.242149 0.110834
O O8 0.750000 0.500000 0.804873
O O9 0.500000 0.533216 0.750000
O O10 0.551018 0.732330 0.812898
O O11 0.496261 0.103756 0.121431
O O12 0.750000 0.000000 0.068525
O O13 0.750000 0.000000 0.323505
#
# Coordination Sequence:
#
# PCOD9423102 Si02
#       5
#     8   8   8   8   8
#     4  10  23  39  64  94 124 162 217 260 314 379
#     4  10  22  42  63  94 119 172 219 258 311 378
#     4  10  23  39  65  94 126 166 222 265 312 377
#     4  11  22  40  66  91 129 168 208 262 326 377
#     4  11  22  40  65  91 128 167 211 262 325 373
#
# _framework density 19.986090999999998
#
# number of rings (size 3 to 8) (size 9 to 14) (size 15 to 20)
#    0.000    1.600    4.000    0.000    5.600    0.000 
#    0.000   10.000    0.000    0.000    0.000    0.000 
#    0.000    0.000    0.000    0.000    0.000    0.000 
#
# Total GULP energy -222909.078883 kJ/mol
# GULP energy per Si atom -5572.726972 kJ/mol
# Density = 1.994060 g / cm^3
# Si number density = 19.986091 Si / 1000 Ang^3
#
#
#
# Elastic Constant Matrix: (Units=GPa)
#
#
# Indices 1 2 3 4 5 6 
#
# 1 74.2318 8.9745 -2.9303 0.0000 0.0000 0.0000
# 2 8.9745 129.4967 43.8706 0.0000 0.0000 0.0000
# 3 -2.9303 43.8706 95.8396 0.0000 0.0000 0.0000
# 4 0.0000 0.0000 0.0000 14.9935 0.0000 0.0000
# 5 0.0000 0.0000 0.0000 0.0000 20.4215 0.0000
# 6 0.0000 0.0000 0.0000 0.0000 0.0000 29.4540
#
#
#
# Elastic Compliance Matrix: (Units=1/GPa)
#
#
# Indices 1 2 3 4 5 6 
#
# 1 0.013667 -0.001289 0.001008 0.000000 0.000000 0.000000
# 2 -0.001289 0.009261 -0.004279 0.000000 0.000000 0.000000
# 3 0.001008 -0.004279 0.012423 0.000000 0.000000 0.000000
# 4 0.000000 0.000000 0.000000 0.066696 0.000000 0.000000
# 5 0.000000 0.000000 0.000000 0.000000 0.048968 0.000000
# 6 0.000000 0.000000 0.000000 0.000000 0.000000 0.033951
#
#
# Mechanical properties :
#
#
# Convention : Reuss Voigt Hill
#
# Bulk Modulus (GPa) = 38.12080 44.37751 41.24915
# Shear Modulus (GPa) = 24.65129 29.61736 27.13432
#
# Velocity S-wave (km/s) = 3.51582 3.85372 3.68864
# Velocity P-wave (km/s) = 5.96627 6.48490 6.23098
#
# Compressibility (1/GPa) = 0.02623240
#
# Stress axis : x y z
#
# Youngs Moduli (GPa) = 73.16965 107.97963 80.49291
#
# Poissons Ratio (x) = 0.13914 -0.08111
# Poissons Ratio (y) = 0.09428 0.34440
# Poissons Ratio (z) = -0.07373 0.46200
#
# Static dielectric constant tensor:
#      x y z
#    x 1.726790 0.000000 0.000000 
#    y 0.000000 1.788980 0.000000 
#    z 0.000000 0.000000 1.456400 
# 
# From -- ./inp_files/25726.got.cif
#   From: 2010.05.17/outbox.cif.g08.bks.cpg/sg54_13_cif.got.tgz:25726.got - 2010.06.03 13:09:01.
