data_PCOD9423987
_publ_section_title
;
Structure prediction by ZEFSAII (Michael W. Deem and Ramdas Pophale) SiO2 
 PCOD9423987
Probable space group: P C C A
;
_chemical_formula_sum "Si O2"
_cell_formula_units_Z 48
_cell_length_a 8.326338
_cell_length_b 16.984817
_cell_length_c 15.758657
_cell_angle_alpha 90.000000
_cell_angle_beta 90.000000
_cell_angle_gamma 90.000000
_cell_volume 2228.610188
_symmetry_space_group_name_H-M "P C C A"
_symmetry_group_IT_number 54
_symmetry_cell_setting 'orthorhombic'
loop_
_space_group_symop_operation_xyz
x,y,z
1/2-x,-y,z
1/2+x,-y,1/2-z
-x,y,1/2-z
-x,-y,-z
1/2+x,y,-z
1/2-x,y,1/2+z
x,-y,1/2+z
loop_
_atom_site_type_symbol
_atom_site_label
_atom_site_fract_x
_atom_site_fract_y
_atom_site_fract_z
Si Si1 0.807637 0.581508 0.267519
Si Si2 0.624649 0.058422 0.046103
Si Si3 0.220573 0.588792 0.923055
Si Si4 0.983914 0.696683 0.003307
Si Si5 0.138698 0.738874 0.679447
Si Si6 0.158633 0.841571 0.089408
O O1 0.750000 0.500000 0.310880
O O2 0.711372 0.583254 0.178304
O O3 0.748268 0.660729 0.312092
O O4 0.000000 0.580810 0.250000
O O5 0.507282 0.111659 0.101634
O O6 0.750000 0.000000 0.090675
O O7 0.725564 0.111224 0.977332
O O8 0.500000 0.000000 0.000000
O O9 0.250000 0.500000 0.952139
O O10 0.067709 0.617003 0.973499
O O11 0.342742 0.661515 0.939352
O O12 0.935964 0.736116 0.914518
O O13 0.096839 0.759294 0.049059
O O14 0.247629 0.817005 0.674322
O O15 0.000000 0.739863 0.750000
#
# Coordination Sequence:
#
# PCOD9423987 Si02
#       6
#     8   8   8   8   8   8
#     4  11  25  41  60  85 126 176 228 281 338 396
#     4   9  19  36  67 106 127 157 203 259 313 385
#     4  11  24  39  59  87 123 171 233 278 330 370
#     4  12  22  40  63  90 125 168 221 280 322 376
#     4  12  24  40  61  93 136 175 219 272 335 388
#     4  11  20  39  64 100 133 165 214 264 318 392
#
# _framework density 21.538086
#
# number of rings (size 3 to 8) (size 9 to 14) (size 15 to 20)
#    0.000    1.000    5.000    2.000    2.333    0.667 
#    0.000    0.000    0.000    0.000   13.000    0.000 
#    0.000    0.000    0.000    0.000    0.000    0.167 
#
# Total GULP energy -267661.843568 kJ/mol
# GULP energy per Si atom -5576.288408 kJ/mol
# Density = 2.148906 g / cm^3
# Si number density = 21.538086 Si / 1000 Ang^3
#
#
#
# Elastic Constant Matrix: (Units=GPa)
#
#
# Indices 1 2 3 4 5 6 
#
# 1 101.0919 52.2331 12.4046 0.0000 0.0000 0.0000
# 2 52.2331 109.9313 27.8613 0.0000 0.0000 0.0000
# 3 12.4046 27.8613 35.6527 0.0000 0.0000 0.0000
# 4 0.0000 0.0000 0.0000 13.2741 0.0000 0.0000
# 5 0.0000 0.0000 0.0000 0.0000 107.2662 0.0000
# 6 0.0000 0.0000 0.0000 0.0000 0.0000 62.2732
#
#
#
# Elastic Compliance Matrix: (Units=1/GPa)
#
#
# Indices 1 2 3 4 5 6 
#
# 1 0.013115 -0.006328 0.000382 0.000000 0.000000 0.000000
# 2 -0.006328 0.014397 -0.009049 0.000000 0.000000 0.000000
# 3 0.000382 -0.009049 0.034987 0.000000 0.000000 0.000000
# 4 0.000000 0.000000 0.000000 0.075335 0.000000 0.000000
# 5 0.000000 0.000000 0.000000 0.000000 0.009323 0.000000
# 6 0.000000 0.000000 0.000000 0.000000 0.000000 0.016058
#
#
# Mechanical properties :
#
#
# Convention : Reuss Voigt Hill
#
# Bulk Modulus (GPa) = 30.76098 47.96379 39.36238
# Shear Modulus (GPa) = 24.50504 46.84115 35.67309
#
# Velocity S-wave (km/s) = 3.37672 4.66854 4.07416
# Velocity P-wave (km/s) = 5.43287 7.16784 6.35980
#
# Compressibility (1/GPa) = 0.03250872
#
# Stress axis : x y z
#
# Youngs Moduli (GPa) = 76.24935 69.45981 28.58234
#
# Poissons Ratio (x) = 0.43957 -0.01093
# Poissons Ratio (y) = 0.48253 0.25864
# Poissons Ratio (z) = -0.02915 0.62853
#
# Static dielectric constant tensor:
#      x y z
#    x 2.126790 0.000000 0.000000 
#    y 0.000000 1.952940 0.000000 
#    z 0.000000 0.000000 1.754700 
# 
# From -- ./inp_files/11723.got.cif
#   From: 2010.05.17/outbox.cif.g08.bks.cpg/sg54_6_cif.got.tgz:11723.got - 2010.06.03 13:09:01.
