data_PCOD9423341
_publ_section_title
;
Structure prediction by ZEFSAII (Michael W. Deem and Ramdas Pophale) SiO2 
 PCOD9423341
Probable space group: P C C A
;
_chemical_formula_sum "Si O2"
_cell_formula_units_Z 40
_cell_length_a 11.905428
_cell_length_b 11.086590
_cell_length_c 13.636277
_cell_angle_alpha 90.000000
_cell_angle_beta 90.000000
_cell_angle_gamma 90.000000
_cell_volume 1799.860370
_symmetry_space_group_name_H-M "P C C A"
_symmetry_group_IT_number 54
_symmetry_cell_setting 'orthorhombic'
loop_
_space_group_symop_operation_xyz
x,y,z
1/2-x,-y,z
1/2+x,-y,1/2-z
-x,y,1/2-z
-x,-y,-z
1/2+x,y,-z
1/2-x,y,1/2+z
x,-y,1/2+z
loop_
_atom_site_type_symbol
_atom_site_label
_atom_site_fract_x
_atom_site_fract_y
_atom_site_fract_z
Si Si1 0.750000 0.500000 0.167100
Si Si2 0.763620 0.314220 0.306743
Si Si3 0.000000 0.247756 0.250000
Si Si4 0.253878 0.717896 0.466801
Si Si5 0.384070 0.842883 0.808486
Si Si6 0.931618 0.921885 0.580273
O O1 0.689722 0.413137 0.247918
O O2 0.797687 0.399677 0.091740
O O3 0.888399 0.324714 0.263922
O O4 0.764723 0.319807 0.422144
O O5 0.714383 0.188431 0.267606
O O6 0.000892 0.164314 0.153026
O O7 0.144044 0.762779 0.405836
O O8 0.338816 0.831657 0.464350
O O9 0.500000 0.821243 0.750000
O O10 0.381330 0.978030 0.847475
O O11 0.000000 0.000000 0.500000
#
# Coordination Sequence:
#
# PCOD9423341 Si02
#       6
#     4   8   4   8   8   8
#     4  10  22  48  70  98 140 184 248 304 358 428
#     4  11  25  46  71  99 141 187 235 307 362 429
#     4  12  24  44  68 100 146 180 232 294 366 432
#     4  11  24  45  71 105 140 189 250 293 365 448
#     4  11  23  43  68 105 146 187 233 295 374 451
#     4  12  24  42  72 107 147 187 233 298 373 451
#
# _framework density 22.223946999999999
#
# number of rings (size 3 to 8) (size 9 to 14) (size 15 to 20)
#    0.000    0.800    5.000    3.600    0.000    0.000 
#    7.200    1.000    0.000    0.000    0.000    0.000 
#    0.000    0.000    0.000    0.000    0.000    0.000 
#
# Total GULP energy -222862.658544 kJ/mol
# GULP energy per Si atom -5571.566464 kJ/mol
# Density = 2.217336 g / cm^3
# Si number density = 22.223947 Si / 1000 Ang^3
#
#
#
# Elastic Constant Matrix: (Units=GPa)
#
#
# Indices 1 2 3 4 5 6 
#
# 1 100.7352 40.6607 53.7852 0.0000 0.0000 0.0000
# 2 40.6607 128.9610 70.2783 0.0000 0.0000 0.0000
# 3 53.7852 70.2783 214.5321 0.0000 0.0000 0.0000
# 4 0.0000 0.0000 0.0000 13.7301 0.0000 0.0000
# 5 0.0000 0.0000 0.0000 0.0000 27.2677 0.0000
# 6 0.0000 0.0000 0.0000 0.0000 0.0000 17.1419
#
#
#
# Elastic Compliance Matrix: (Units=1/GPa)
#
#
# Indices 1 2 3 4 5 6 
#
# 1 0.012160 -0.002645 -0.002182 0.000000 0.000000 0.000000
# 2 -0.002645 0.010015 -0.002618 0.000000 0.000000 0.000000
# 3 -0.002182 -0.002618 0.006066 0.000000 0.000000 0.000000
# 4 0.000000 0.000000 0.000000 0.072833 0.000000 0.000000
# 5 0.000000 0.000000 0.000000 0.000000 0.036673 0.000000
# 6 0.000000 0.000000 0.000000 0.000000 0.000000 0.058337
#
#
# Mechanical properties :
#
#
# Convention : Reuss Voigt Hill
#
# Bulk Modulus (GPa) = 74.89956 85.96407 80.43181
# Shear Modulus (GPa) = 23.21024 30.26156 26.73590
#
# Velocity S-wave (km/s) = 3.23519 3.69408 3.47222
# Velocity P-wave (km/s) = 6.90874 7.54717 7.23500
#
# Compressibility (1/GPa) = 0.01335121
#
# Stress axis : x y z
#
# Youngs Moduli (GPa) = 82.23934 99.85393 164.85589
#
# Poissons Ratio (x) = 0.26408 0.35974
# Poissons Ratio (y) = 0.21750 0.43153
# Poissons Ratio (z) = 0.17946 0.26138
#
# Static dielectric constant tensor:
#      x y z
#    x 1.941070 0.000000 0.000000 
#    y 0.000000 1.935660 0.000000 
#    z 0.000000 0.000000 1.883680 
# 
# From -- ./inp_files/12530.got.cif
#   From: 2010.05.17/outbox.cif.g08.bks.cpg/sg54_7_cif.got.tgz:12530.got - 2010.06.03 13:09:01.
