data_PCOD9423232
_publ_section_title
;
Structure prediction by ZEFSAII (Michael W. Deem and Ramdas Pophale) SiO2 
 PCOD9423232
Probable space group: P C C A
;
_chemical_formula_sum "Si O2"
_cell_formula_units_Z 40
_cell_length_a 8.790434
_cell_length_b 9.161098
_cell_length_c 22.690839
_cell_angle_alpha 90.000000
_cell_angle_beta 90.000000
_cell_angle_gamma 90.000000
_cell_volume 1827.293885
_symmetry_space_group_name_H-M "P C C A"
_symmetry_group_IT_number 54
_symmetry_cell_setting 'orthorhombic'
loop_
_space_group_symop_operation_xyz
x,y,z
1/2-x,-y,z
1/2+x,-y,1/2-z
-x,y,1/2-z
-x,-y,-z
1/2+x,y,-z
1/2-x,y,1/2+z
x,-y,1/2+z
loop_
_atom_site_type_symbol
_atom_site_label
_atom_site_fract_x
_atom_site_fract_y
_atom_site_fract_z
Si Si1 0.657012 0.636652 0.447613
Si Si2 0.851104 0.134448 0.883789
Si Si3 0.000000 0.232700 0.250000
Si Si4 0.250000 0.000000 0.228127
Si Si5 0.323673 0.845150 0.941387
Si Si6 0.622682 0.624684 0.132903
O O1 0.750000 0.500000 0.470807
O O2 0.760032 0.719694 0.398995
O O3 0.641771 0.749316 0.500931
O O4 0.502061 0.585089 0.416931
O O5 0.857228 0.096547 0.814994
O O6 0.015597 0.132333 0.910628
O O7 0.750000 0.000000 0.907532
O O8 0.857131 0.121475 0.244203
O O9 0.972736 0.330617 0.191527
O O10 0.212263 0.760243 0.896582
O O11 0.250000 0.000000 0.956143
O O12 0.750000 0.500000 0.143809
#
# Coordination Sequence:
#
# PCOD9423232 Si02
#       6
#     8   8   4   4   8   8
#     4  12  25  46  71 101 146 194 239 297 369 438
#     4  10  22  44  66 102 138 184 233 298 356 429
#     4  12  26  48  76 110 146 192 248 312 372 436
#     4  10  24  46  74 102 138 184 246 308 362 434
#     4  12  25  43  76 110 146 189 248 305 364 435
#     4  12  28  50  72 110 152 194 248 299 369 447
#
# _framework density 21.890294000000001
#
# number of rings (size 3 to 8) (size 9 to 14) (size 15 to 20)
#    0.600    0.000    2.000    6.000    4.200    5.600 
#    3.600    2.000    0.000    0.000    0.000    0.000 
#    0.000    0.000    0.000    0.000    0.000    0.000 
#
# Total GULP energy -223517.165733 kJ/mol
# GULP energy per Si atom -5587.929143 kJ/mol
# Density = 2.184047 g / cm^3
# Si number density = 21.890294 Si / 1000 Ang^3
#
#
#
# Elastic Constant Matrix: (Units=GPa)
#
#
# Indices 1 2 3 4 5 6 
#
# 1 129.1157 24.0772 26.4808 0.0000 0.0000 0.0000
# 2 24.0772 78.0425 13.9600 0.0000 0.0000 0.0000
# 3 26.4808 13.9600 88.6214 0.0000 0.0000 0.0000
# 4 0.0000 0.0000 0.0000 26.9911 0.0000 0.0000
# 5 0.0000 0.0000 0.0000 0.0000 30.7631 0.0000
# 6 0.0000 0.0000 0.0000 0.0000 0.0000 47.7031
#
#
#
# Elastic Compliance Matrix: (Units=1/GPa)
#
#
# Indices 1 2 3 4 5 6 
#
# 1 0.008622 -0.002263 -0.002220 0.000000 0.000000 0.000000
# 2 -0.002263 0.013779 -0.001494 0.000000 0.000000 0.000000
# 3 -0.002220 -0.001494 0.012183 0.000000 0.000000 0.000000
# 4 0.000000 0.000000 0.000000 0.037049 0.000000 0.000000
# 5 0.000000 0.000000 0.000000 0.000000 0.032506 0.000000
# 6 0.000000 0.000000 0.000000 0.000000 0.000000 0.020963
#
#
# Mechanical properties :
#
#
# Convention : Reuss Voigt Hill
#
# Bulk Modulus (GPa) = 44.19016 47.20171 45.69594
# Shear Modulus (GPa) = 34.57805 36.50889 35.54347
#
# Velocity S-wave (km/s) = 3.97874 4.08832 4.03390
# Velocity P-wave (km/s) = 6.42947 6.62536 6.52815
#
# Compressibility (1/GPa) = 0.02262947
#
# Stress axis : x y z
#
# Youngs Moduli (GPa) = 115.97855 72.57422 82.08372
#
# Poissons Ratio (x) = 0.16424 0.18222
# Poissons Ratio (y) = 0.26246 0.12266
# Poissons Ratio (z) = 0.25746 0.10845
#
# Static dielectric constant tensor:
#      x y z
#    x 1.726860 0.000000 0.000000 
#    y 0.000000 1.826150 0.000000 
#    z 0.000000 0.000000 1.806570 
# 
# From -- ./inp_files/23341.got.cif
#   From: 2010.05.17/outbox.cif.g08.bks.cpg/sg54_12_cif.got.tgz:23341.got - 2010.06.03 13:09:01.
