data_PCOD9423002
_publ_section_title
;
Structure prediction by ZEFSAII (Michael W. Deem and Ramdas Pophale) SiO2 
 PCOD9423002
Probable space group: P C C A
;
_chemical_formula_sum "Si O2"
_cell_formula_units_Z 32
_cell_length_a 9.114436
_cell_length_b 6.859150
_cell_length_c 20.633789
_cell_angle_alpha 90.000000
_cell_angle_beta 90.000000
_cell_angle_gamma 90.000000
_cell_volume 1289.968441
_symmetry_space_group_name_H-M "P C C A"
_symmetry_group_IT_number 54
_symmetry_cell_setting 'orthorhombic'
loop_
_space_group_symop_operation_xyz
x,y,z
1/2-x,-y,z
1/2+x,-y,1/2-z
-x,y,1/2-z
-x,-y,-z
1/2+x,y,-z
1/2-x,y,1/2+z
x,-y,1/2+z
loop_
_atom_site_type_symbol
_atom_site_label
_atom_site_fract_x
_atom_site_fract_y
_atom_site_fract_z
Si Si1 0.313242 0.187988 0.159532
Si Si2 0.000000 0.529953 0.250000
Si Si3 0.758444 0.284800 0.546478
Si Si4 0.068546 0.860902 0.571431
Si Si5 0.750000 0.500000 0.666068
O O1 0.403447 0.332437 0.203123
O O2 0.406137 0.074190 0.103270
O O3 0.169531 0.266595 0.121250
O O4 0.250000 0.000000 0.199041
O O5 0.879737 0.414474 0.209216
O O6 0.596265 0.208811 0.562713
O O7 0.855536 0.159549 0.498526
O O8 0.818417 0.340001 0.617743
O O9 0.250000 0.500000 0.485541
#
# Coordination Sequence:
#
# PCOD9423002 Si02
#       5
#     8   4   8   8   4
#     4   8  24  40  71  94 131 192 211 295 330 407
#     4  12  24  50  62 102 140 178 250 254 368 402
#     4  10  22  40  67 106 135 176 225 278 358 394
#     4   9  21  43  67 100 140 169 230 283 354 387
#     4  10  30  38  72 100 134 190 216 298 328 428
#
# _framework density 24.806805000000001
#
# number of rings (size 3 to 8) (size 9 to 14) (size 15 to 20)
#    2.250    0.000    0.000    0.750    7.000    6.000 
#    0.000    0.000    0.000    0.000    0.000    0.000 
#    0.000    0.000    0.000    0.000    0.000    0.000 
#
# Total GULP energy -178418.551770 kJ/mol
# GULP energy per Si atom -5575.579743 kJ/mol
# Density = 2.475034 g / cm^3
# Si number density = 24.806805 Si / 1000 Ang^3
#
#
#
# Elastic Constant Matrix: (Units=GPa)
#
#
# Indices 1 2 3 4 5 6 
#
# 1 86.0244 8.3196 32.8969 0.0000 0.0000 0.0000
# 2 8.3196 68.1900 21.0327 0.0000 0.0000 0.0000
# 3 32.8969 21.0327 108.2818 0.0000 0.0000 0.0000
# 4 0.0000 0.0000 0.0000 54.0392 0.0000 0.0000
# 5 0.0000 0.0000 0.0000 0.0000 46.1776 0.0000
# 6 0.0000 0.0000 0.0000 0.0000 0.0000 42.0455
#
#
#
# Elastic Compliance Matrix: (Units=1/GPa)
#
#
# Indices 1 2 3 4 5 6 
#
# 1 0.013163 -0.000396 -0.003922 0.000000 0.000000 0.000000
# 2 -0.000396 0.015611 -0.002912 0.000000 0.000000 0.000000
# 3 -0.003922 -0.002912 0.010992 0.000000 0.000000 0.000000
# 4 0.000000 0.000000 0.000000 0.018505 0.000000 0.000000
# 5 0.000000 0.000000 0.000000 0.000000 0.021656 0.000000
# 6 0.000000 0.000000 0.000000 0.000000 0.000000 0.023784
#
#
# Mechanical properties :
#
#
# Convention : Reuss Voigt Hill
#
# Bulk Modulus (GPa) = 39.51620 42.99942 41.25781
# Shear Modulus (GPa) = 39.49240 41.80227 40.64733
#
# Velocity S-wave (km/s) = 3.99431 4.10947 4.05230
# Velocity P-wave (km/s) = 6.10220 6.31572 6.20988
#
# Compressibility (1/GPa) = 0.02530608
#
# Stress axis : x y z
#
# Youngs Moduli (GPa) = 75.97200 64.05564 90.97262
#
# Poissons Ratio (x) = 0.02538 0.35679
# Poissons Ratio (y) = 0.03010 0.26491
# Poissons Ratio (z) = 0.29796 0.18653
#
# Static dielectric constant tensor:
#      x y z
#    x 1.973410 0.000000 0.000000 
#    y 0.000000 2.080530 0.000000 
#    z 0.000000 0.000000 2.016780 
# 
# From -- ./inp_files/20084.got.cif
#   From: 2010.05.17/outbox.cif.g08.bks.cpg/sg54_11_cif.got.tgz:20084.got - 2010.06.03 13:09:01.
