data_PCOD9423860
_publ_section_title
;
Structure prediction by ZEFSAII (Michael W. Deem and Ramdas Pophale) SiO2 
 PCOD9423860
Probable space group: P C C A
;
_chemical_formula_sum "Si O2"
_cell_formula_units_Z 40
_cell_length_a 15.447760
_cell_length_b 9.081548
_cell_length_c 12.827411
_cell_angle_alpha 90.000000
_cell_angle_beta 90.000000
_cell_angle_gamma 90.000000
_cell_volume 1799.552024
_symmetry_space_group_name_H-M "P C C A"
_symmetry_group_IT_number 54
_symmetry_cell_setting 'orthorhombic'
loop_
_space_group_symop_operation_xyz
x,y,z
1/2-x,-y,z
1/2+x,-y,1/2-z
-x,y,1/2-z
-x,-y,-z
1/2+x,y,-z
1/2-x,y,1/2+z
x,-y,1/2+z
loop_
_atom_site_type_symbol
_atom_site_label
_atom_site_fract_x
_atom_site_fract_y
_atom_site_fract_z
Si Si1 0.933459 0.490497 0.346777
Si Si2 0.935123 0.851392 0.160352
Si Si3 0.323801 0.884207 0.348075
Si Si4 0.973405 0.737471 0.520150
Si Si5 0.707899 0.368225 0.206871
O O1 0.951467 0.609528 0.436853
O O2 0.841009 0.541182 0.298513
O O3 0.000000 0.496074 0.250000
O O4 0.957692 0.333175 0.398916
O O5 0.865747 0.721672 0.147811
O O6 0.000000 0.806571 0.250000
O O7 0.889939 0.999363 0.201113
O O8 0.982606 0.861604 0.051065
O O9 0.384819 0.794388 0.427473
O O10 0.277511 0.762475 0.275395
O O11 0.250000 0.000000 0.390549
O O12 0.750000 0.500000 0.141282
#
# Coordination Sequence:
#
# PCOD9423860 Si02
#       5
#     8   8   8   8   8
#     4  11  22  42  71 102 132 179 240 289 348 420
#     4  11  22  46  70  96 138 187 236 286 345 435
#     4  10  25  42  64 101 145 183 226 299 356 416
#     4  11  22  43  73  97 134 188 242 282 343 436
#     4  11  22  43  65  98 141 173 220 301 360 402
#
# _framework density 22.227754000000001
#
# number of rings (size 3 to 8) (size 9 to 14) (size 15 to 20)
#    0.000    1.200    4.000    1.800    2.800    2.400 
#   10.800    0.000    0.000    0.000    0.000    0.000 
#    0.000    0.000    0.000    0.000    0.000    0.000 
#
# Total GULP energy -222707.930348 kJ/mol
# GULP energy per Si atom -5567.698259 kJ/mol
# Density = 2.217716 g / cm^3
# Si number density = 22.227754 Si / 1000 Ang^3
#
#
#
# Elastic Constant Matrix: (Units=GPa)
#
#
# Indices 1 2 3 4 5 6 
#
# 1 113.2151 59.8527 47.3146 0.0000 0.0000 0.0000
# 2 59.8527 137.9689 47.0900 0.0000 0.0000 0.0000
# 3 47.3146 47.0900 71.8981 0.0000 0.0000 0.0000
# 4 0.0000 0.0000 0.0000 93.5418 0.0000 0.0000
# 5 0.0000 0.0000 0.0000 0.0000 18.3110 0.0000
# 6 0.0000 0.0000 0.0000 0.0000 0.0000 27.3253
#
#
#
# Elastic Compliance Matrix: (Units=1/GPa)
#
#
# Indices 1 2 3 4 5 6 
#
# 1 0.013459 -0.003626 -0.006482 0.000000 0.000000 0.000000
# 2 -0.003626 0.010312 -0.004367 0.000000 0.000000 0.000000
# 3 -0.006482 -0.004367 0.021035 0.000000 0.000000 0.000000
# 4 0.000000 0.000000 0.000000 0.010690 0.000000 0.000000
# 5 0.000000 0.000000 0.000000 0.000000 0.054612 0.000000
# 6 0.000000 0.000000 0.000000 0.000000 0.000000 0.036596
#
#
# Mechanical properties :
#
#
# Convention : Reuss Voigt Hill
#
# Bulk Modulus (GPa) = 63.07529 70.17741 66.62635
# Shear Modulus (GPa) = 27.63361 39.09061 33.36211
#
# Velocity S-wave (km/s) = 3.52973 4.19816 3.87838
# Velocity P-wave (km/s) = 6.71196 7.42563 7.07780
#
# Compressibility (1/GPa) = 0.01585407
#
# Stress axis : x y z
#
# Youngs Moduli (GPa) = 74.30139 96.97679 47.54080
#
# Poissons Ratio (x) = 0.35166 0.30815
# Poissons Ratio (y) = 0.26944 0.20763
# Poissons Ratio (z) = 0.48161 0.42353
#
# Static dielectric constant tensor:
#      x y z
#    x 1.948540 0.000000 0.000000 
#    y 0.000000 1.910580 0.000000 
#    z 0.000000 0.000000 1.761200 
# 
# From -- ./inp_files/13188.got.cif
#   From: 2010.05.17/outbox.cif.g08.bks.cpg/sg54_7_cif.got.tgz:13188.got - 2010.06.03 13:09:01.
