data_PCOD9423463
_publ_section_title
;
Structure prediction by ZEFSAII (Michael W. Deem and Ramdas Pophale) SiO2 
 PCOD9423463
Probable space group: P C C A
;
_chemical_formula_sum "Si O2"
_cell_formula_units_Z 64
_cell_length_a 15.186000
_cell_length_b 9.279102
_cell_length_c 20.397265
_cell_angle_alpha 90.000000
_cell_angle_beta 90.000000
_cell_angle_gamma 90.000000
_cell_volume 2874.228441
_symmetry_space_group_name_H-M "P C C A"
_symmetry_group_IT_number 54
_symmetry_cell_setting 'orthorhombic'
loop_
_space_group_symop_operation_xyz
x,y,z
1/2-x,-y,z
1/2+x,-y,1/2-z
-x,y,1/2-z
-x,-y,-z
1/2+x,y,-z
1/2-x,y,1/2+z
x,-y,1/2+z
loop_
_atom_site_type_symbol
_atom_site_label
_atom_site_fract_x
_atom_site_fract_y
_atom_site_fract_z
Si Si1 0.151987 0.479630 0.897772
Si Si2 0.345521 0.938442 0.453764
Si Si3 0.208389 0.643893 0.166877
Si Si4 0.929650 0.861145 0.306471
Si Si5 0.070722 0.746098 0.838587
Si Si6 0.873954 0.173109 0.307393
Si Si7 0.953121 0.788323 0.067890
Si Si8 0.125009 0.339609 0.527116
O O1 0.250000 0.500000 0.871349
O O2 0.086979 0.579481 0.855887
O O3 0.122049 0.315627 0.903548
O O4 0.150604 0.550682 0.970262
O O5 0.384178 0.846623 0.393260
O O6 0.338412 0.820611 0.511209
O O7 0.250000 0.000000 0.437989
O O8 0.409746 0.074059 0.466805
O O9 0.250000 0.500000 0.195998
O O10 0.131478 0.723364 0.206734
O O11 0.290607 0.751268 0.160704
O O12 0.163289 0.611439 0.096639
O O13 0.000000 0.887084 0.250000
O O14 0.984855 0.840811 0.372845
O O15 0.869614 0.001455 0.312186
O O16 0.114431 0.783134 0.768886
O O17 0.967247 0.779459 0.838027
O O18 0.019584 0.687869 0.026577
#
# Coordination Sequence:
#
# PCOD9423463 Si02
#       8
#     8   8   8   8   8   8   8   8
#     4  11  24  44  64  97 133 177 222 277 340 405
#     4  11  22  41  65  98 130 172 225 280 329 401
#     4  11  27  44  69 101 136 180 223 286 342 405
#     4  11  23  44  67 101 137 177 225 279 339 411
#     4  10  23  42  69  98 130 178 218 270 343 404
#     4  11  22  46  70  97 136 175 226 273 339 410
#     4  11  22  40  67  96 130 176 226 277 338 398
#     4  10  24  44  62  93 133 176 225 270 345 400
#
# _framework density 22.266846000000001
#
# number of rings (size 3 to 8) (size 9 to 14) (size 15 to 20)
#    0.000    1.250    2.500    3.000    3.500    6.500 
#    9.000    0.000    0.000    0.000    0.000    0.000 
#    0.000    0.000    0.000    0.000    0.000    0.000 
#
# Total GULP energy -358071.879754 kJ/mol
# GULP energy per Si atom -5594.873121 kJ/mol
# Density = 2.221617 g / cm^3
# Si number density = 22.266846 Si / 1000 Ang^3
#
#
#
# Elastic Constant Matrix: (Units=GPa)
#
#
# Indices 1 2 3 4 5 6 
#
# 1 71.6191 2.9393 -0.8871 0.0000 0.0000 0.0000
# 2 2.9393 91.6532 -8.2859 0.0000 0.0000 0.0000
# 3 -0.8871 -8.2859 18.3989 0.0000 0.0000 0.0000
# 4 0.0000 0.0000 0.0000 18.1866 0.0000 0.0000
# 5 0.0000 0.0000 0.0000 0.0000 1.9756 0.0000
# 6 0.0000 0.0000 0.0000 0.0000 0.0000 43.7669
#
#
#
# Elastic Compliance Matrix: (Units=1/GPa)
#
#
# Indices 1 2 3 4 5 6 
#
# 1 0.013985 -0.000404 0.000492 0.000000 0.000000 0.000000
# 2 -0.000404 0.011385 0.005108 0.000000 0.000000 0.000000
# 3 0.000492 0.005108 0.056675 0.000000 0.000000 0.000000
# 4 0.000000 0.000000 0.000000 0.054986 0.000000 0.000000
# 5 0.000000 0.000000 0.000000 0.000000 0.506179 0.000000
# 6 0.000000 0.000000 0.000000 0.000000 0.000000 0.022848
#
#
# Mechanical properties :
#
#
# Convention : Reuss Voigt Hill
#
# Bulk Modulus (GPa) = 10.81800 18.80043 14.80921
# Shear Modulus (GPa) = 7.28354 25.31280 16.29817
#
# Velocity S-wave (km/s) = 1.81056 3.37529 2.70839
# Velocity P-wave (km/s) = 3.03969 4.86330 4.05533
#
# Compressibility (1/GPa) = 0.09243851
#
# Stress axis : x y z
#
# Youngs Moduli (GPa) = 71.50298 87.83146 17.64444
#
# Poissons Ratio (x) = 0.03548 -0.00869
# Poissons Ratio (y) = 0.02889 -0.09013
# Poissons Ratio (z) = -0.03520 -0.44864
#
# Static dielectric constant tensor:
#      x y z
#    x 1.811240 0.000000 0.000000 
#    y 0.000000 1.817540 0.000000 
#    z 0.000000 0.000000 1.821130 
# 
# From -- ./inp_files/24547.got.cif
#   From: 2010.05.17/outbox.cif.g08.bks.cpg/sg54_13_cif.got.tgz:24547.got - 2010.06.03 13:09:01.
