data_PCOD9423200
_publ_section_title
;
Structure prediction by ZEFSAII (Michael W. Deem and Ramdas Pophale) SiO2 
 PCOD9423200
Probable space group: P C C A
;
_chemical_formula_sum "Si O2"
_cell_formula_units_Z 56
_cell_length_a 12.324698
_cell_length_b 10.801579
_cell_length_c 20.419987
_cell_angle_alpha 90.000000
_cell_angle_beta 90.000000
_cell_angle_gamma 90.000000
_cell_volume 2718.435255
_symmetry_space_group_name_H-M "P C C A"
_symmetry_group_IT_number 54
_symmetry_cell_setting 'orthorhombic'
loop_
_space_group_symop_operation_xyz
x,y,z
1/2-x,-y,z
1/2+x,-y,1/2-z
-x,y,1/2-z
-x,-y,-z
1/2+x,y,-z
1/2-x,y,1/2+z
x,-y,1/2+z
loop_
_atom_site_type_symbol
_atom_site_label
_atom_site_fract_x
_atom_site_fract_y
_atom_site_fract_z
Si Si1 0.586344 0.319337 0.191948
Si Si2 0.989576 0.255684 0.423902
Si Si3 0.758175 0.857170 0.884107
Si Si4 0.914594 0.410011 0.192365
Si Si5 0.783896 0.165485 0.228393
Si Si6 0.873719 0.983793 0.614300
Si Si7 0.522350 0.779773 0.927324
O O1 0.500000 0.301426 0.250000
O O2 0.639800 0.454720 0.190969
O O3 0.671249 0.206418 0.194249
O O4 0.519725 0.315419 0.125835
O O5 0.868332 0.210298 0.406024
O O6 0.996974 0.272634 0.501374
O O7 0.029902 0.365058 0.375711
O O8 0.070657 0.140504 0.411901
O O9 0.761628 0.856027 0.804632
O O10 0.649431 0.798418 0.913493
O O11 0.750000 0.000000 0.904937
O O12 0.849550 0.291721 0.217881
O O13 0.000000 0.429732 0.250000
O O14 0.851011 0.057247 0.191117
O O15 0.750000 0.000000 0.588526
O O16 0.954528 0.093346 0.590477
#
# Coordination Sequence:
#
# PCOD9423200 Si02
#       7
#     8   8   8   8   8   8   8
#     4  11  23  41  66  95 131 168 224 283 331 388
#     4  11  26  43  67  95 135 181 219 269 332 410
#     4  12  25  41  65  98 138 173 219 268 335 401
#     4  10  22  43  68  93 127 172 226 280 330 388
#     4  11  22  41  66  98 128 173 222 277 333 394
#     4  11  23  40  65  94 133 173 215 269 329 388
#     4  12  26  42  65 100 139 174 220 271 336 402
#
# _framework density 20.600086000000001
#
# number of rings (size 3 to 8) (size 9 to 14) (size 15 to 20)
#    0.000    0.857    5.714    1.286    2.000    0.571 
#    2.571    0.714    0.000    0.000    0.000    0.000 
#    0.000    0.000    0.000    0.000    0.000    0.000 
#
# Total GULP energy -312248.377812 kJ/mol
# GULP energy per Si atom -5575.863889 kJ/mol
# Density = 2.055320 g / cm^3
# Si number density = 20.600086 Si / 1000 Ang^3
#
#
#
# Elastic Constant Matrix: (Units=GPa)
#
#
# Indices 1 2 3 4 5 6 
#
# 1 106.6638 9.5847 18.3253 0.0000 0.0000 0.0000
# 2 9.5847 89.0344 -5.8709 0.0000 0.0000 0.0000
# 3 18.3253 -5.8709 139.0646 0.0000 0.0000 0.0000
# 4 0.0000 0.0000 0.0000 -58.1248 0.0000 0.0000
# 5 0.0000 0.0000 0.0000 0.0000 61.8972 0.0000
# 6 0.0000 0.0000 0.0000 0.0000 0.0000 21.1864
#
#
#
# Elastic Compliance Matrix: (Units=1/GPa)
#
#
# Indices 1 2 3 4 5 6 
#
# 1 0.009705 -0.001132 -0.001327 0.000000 0.000000 0.000000
# 2 -0.001132 0.011395 0.000630 0.000000 0.000000 0.000000
# 3 -0.001327 0.000630 0.007392 0.000000 0.000000 0.000000
# 4 0.000000 0.000000 0.000000 -0.017204 0.000000 0.000000
# 5 0.000000 0.000000 0.000000 0.000000 0.016156 0.000000
# 6 0.000000 0.000000 0.000000 0.000000 0.000000 0.047200
#
#
# Mechanical properties :
#
#
# Convention : Reuss Voigt Hill
#
# Bulk Modulus (GPa) = 40.26570 42.09347 41.17958
# Shear Modulus (GPa) = 57.75034 25.83999 41.79516
#
# Velocity S-wave (km/s) = 5.30046 3.54554 4.50920
# Velocity P-wave (km/s) = 7.55306 6.10239 6.86614
#
# Compressibility (1/GPa) = 0.02483503
#
# Stress axis : x y z
#
# Youngs Moduli (GPa) = 103.04052 87.75728 135.27532
#
# Poissons Ratio (x) = 0.09936 0.17947
# Poissons Ratio (y) = 0.11667 -0.08526
# Poissons Ratio (z) = 0.13670 -0.05531
#
# Static dielectric constant tensor:
#      x y z
#    x 1.764420 0.000000 0.000000 
#    y 0.000000 1.346010 0.000000 
#    z 0.000000 0.000000 1.749490 
# 
# From -- ./inp_files/21192.got.cif
#   From: 2010.05.17/outbox.cif.g08.bks.cpg/sg54_11_cif.got.tgz:21192.got - 2010.06.03 13:09:01.
