data_PCOD9423698
_publ_section_title
;
Structure prediction by ZEFSAII (Michael W. Deem and Ramdas Pophale) SiO2 
 PCOD9423698
Probable space group: P C C A
;
_chemical_formula_sum "Si O2"
_cell_formula_units_Z 28
_cell_length_a 5.330796
_cell_length_b 8.800223
_cell_length_c 24.591340
_cell_angle_alpha 90.000000
_cell_angle_beta 90.000000
_cell_angle_gamma 90.000000
_cell_volume 1153.633702
_symmetry_space_group_name_H-M "P C C A"
_symmetry_group_IT_number 54
_symmetry_cell_setting 'orthorhombic'
loop_
_space_group_symop_operation_xyz
x,y,z
1/2-x,-y,z
1/2+x,-y,1/2-z
-x,y,1/2-z
-x,-y,-z
1/2+x,y,-z
1/2-x,y,1/2+z
x,-y,1/2+z
loop_
_atom_site_type_symbol
_atom_site_label
_atom_site_fract_x
_atom_site_fract_y
_atom_site_fract_z
Si Si1 0.181489 0.325934 0.133290
Si Si2 0.500000 0.600889 0.250000
Si Si3 0.499519 0.927723 0.061256
Si Si4 0.500805 0.895656 0.690474
O O1 0.250000 0.500000 0.121676
O O2 0.037329 0.244477 0.082507
O O3 0.440165 0.236664 0.147318
O O4 0.028133 0.317228 0.190772
O O5 0.750000 0.500000 0.246557
O O6 0.250000 0.000000 0.084267
O O7 0.750000 0.000000 0.083711
O O8 0.500000 0.000000 0.000000
O O9 0.500000 0.819990 0.750000
O O10 0.250000 0.000000 0.691426
O O11 0.750000 0.000000 0.688320
#
# Coordination Sequence:
#
# PCOD9423698 Si02
#       4
#     8   4   8   8
#     4  11  26  45  76 112 157 203 259 311 398 456
#     4  10  26  44  64 108 170 204 234 304 386 472
#     4  10  24  51  77 103 145 198 260 331 388 448
#     4  10  24  43  64  98 151 205 254 292 363 463
#
# _framework density 24.271135999999998
#
# number of rings (size 3 to 8) (size 9 to 14) (size 15 to 20)
#    0.000    1.714    0.000    0.857   14.000    9.143 
#    5.143    5.714    0.000    0.000    0.000    6.000 
#    0.000    0.000    0.000    0.000    0.000    0.000 
#
# Total GULP energy -155985.388531 kJ/mol
# GULP energy per Si atom -5570.906733 kJ/mol
# Density = 2.421589 g / cm^3
# Si number density = 24.271136 Si / 1000 Ang^3
#
#
#
# Elastic Constant Matrix: (Units=GPa)
#
#
# Indices 1 2 3 4 5 6 
#
# 1 199.4513 77.5406 7.9961 0.0000 0.0000 0.0000
# 2 77.5406 216.1936 66.1001 0.0000 0.0000 0.0000
# 3 7.9961 66.1001 187.2839 0.0000 0.0000 0.0000
# 4 0.0000 0.0000 0.0000 49.1807 0.0000 0.0000
# 5 0.0000 0.0000 0.0000 0.0000 -42.2338 0.0000
# 6 0.0000 0.0000 0.0000 0.0000 0.0000 40.1011
#
#
#
# Elastic Compliance Matrix: (Units=1/GPa)
#
#
# Indices 1 2 3 4 5 6 
#
# 1 0.005877 -0.002277 0.000553 0.000000 0.000000 0.000000
# 2 -0.002277 0.006067 -0.002044 0.000000 0.000000 0.000000
# 3 0.000553 -0.002044 0.006037 0.000000 0.000000 0.000000
# 4 0.000000 0.000000 0.000000 0.020333 0.000000 0.000000
# 5 0.000000 0.000000 0.000000 0.000000 -0.023678 0.000000
# 6 0.000000 0.000000 0.000000 0.000000 0.000000 0.024937
#
#
# Mechanical properties :
#
#
# Convention : Reuss Voigt Hill
#
# Bulk Modulus (GPa) = 95.74211 100.68916 98.21564
# Shear Modulus (GPa) = 98.83080 39.49572 69.16326
#
# Velocity S-wave (km/s) = 6.38810 4.03832 5.34396
# Velocity P-wave (km/s) = 9.69242 7.95734 8.86742
#
# Compressibility (1/GPa) = 0.01044472
#
# Stress axis : x y z
#
# Youngs Moduli (GPa) = 170.16291 164.82519 165.63593
#
# Poissons Ratio (x) = 0.37526 -0.09154
# Poissons Ratio (y) = 0.38741 0.33858
# Poissons Ratio (z) = -0.09404 0.33692
#
# Static dielectric constant tensor:
#      x y z
#    x 1.945830 0.000000 0.000000 
#    y 0.000000 1.944450 0.000000 
#    z 0.000000 0.000000 0.751600 
# 
# From -- ./inp_files/25019.got.cif
#   From: 2010.05.17/outbox.cif.g08.bks.cpg/sg54_13_cif.got.tgz:25019.got - 2010.06.03 13:09:01.
