data_PCOD9423683
_publ_section_title
;
Structure prediction by ZEFSAII (Michael W. Deem and Ramdas Pophale) SiO2 
 PCOD9423683
Probable space group: P C C A
;
_chemical_formula_sum "Si O2"
_cell_formula_units_Z 36
_cell_length_a 8.818803
_cell_length_b 19.166736
_cell_length_c 9.842636
_cell_angle_alpha 90.000000
_cell_angle_beta 90.000000
_cell_angle_gamma 90.000000
_cell_volume 1663.677819
_symmetry_space_group_name_H-M "P C C A"
_symmetry_group_IT_number 54
_symmetry_cell_setting 'orthorhombic'
loop_
_space_group_symop_operation_xyz
x,y,z
1/2-x,-y,z
1/2+x,-y,1/2-z
-x,y,1/2-z
-x,-y,-z
1/2+x,y,-z
1/2-x,y,1/2+z
x,-y,1/2+z
loop_
_atom_site_type_symbol
_atom_site_label
_atom_site_fract_x
_atom_site_fract_y
_atom_site_fract_z
Si Si1 0.250000 0.500000 0.483417
Si Si2 0.096626 0.041029 0.613398
Si Si3 0.996903 0.597023 0.397899
Si Si4 0.081891 0.717973 0.605953
Si Si5 0.898377 0.202254 0.886526
O O1 0.379477 0.464501 0.394136
O O2 0.162078 0.440184 0.567759
O O3 0.140975 0.121526 0.586206
O O4 0.000000 0.041255 0.750000
O O5 0.250000 0.000000 0.635316
O O6 0.000000 0.000000 0.500000
O O7 0.000000 0.631547 0.250000
O O8 0.052582 0.648851 0.515678
O O9 0.253672 0.745775 0.623058
O O10 0.000000 0.709115 0.750000
O O11 0.996394 0.775124 0.515665
O O12 0.000000 0.205744 0.750000
#
# Coordination Sequence:
#
# PCOD9423683 Si02
#       5
#     4   8   8   8   8
#     4  10  24  42  68  98 128 168 216 264 320 386
#     4  11  24  42  67  98 132 172 221 277 337 400
#     4  11  24  44  68  96 131 170 214 266 323 385
#     4  12  26  43  67  98 134 177 226 275 331 397
#     4  11  25  45  67  95 133 177 223 275 335 402
#
# _framework density 21.638805999999999
#
# number of rings (size 3 to 8) (size 9 to 14) (size 15 to 20)
#    0.000    0.889    0.000    6.000    0.000   16.000 
#    0.000    0.000    0.000    0.000    0.000    0.000 
#    0.000    0.000    0.000    0.000    0.000    0.000 
#
# Total GULP energy -201354.589305 kJ/mol
# GULP energy per Si atom -5593.183036 kJ/mol
# Density = 2.158956 g / cm^3
# Si number density = 21.638806 Si / 1000 Ang^3
#
#
#
# Elastic Constant Matrix: (Units=GPa)
#
#
# Indices 1 2 3 4 5 6 
#
# 1 146.1277 48.1150 36.0794 0.0000 0.0000 0.0000
# 2 48.1150 133.7894 40.4743 0.0000 0.0000 0.0000
# 3 36.0794 40.4743 141.0711 0.0000 0.0000 0.0000
# 4 0.0000 0.0000 0.0000 24.9924 0.0000 0.0000
# 5 0.0000 0.0000 0.0000 0.0000 27.0351 0.0000
# 6 0.0000 0.0000 0.0000 0.0000 0.0000 46.1297
#
#
#
# Elastic Compliance Matrix: (Units=1/GPa)
#
#
# Indices 1 2 3 4 5 6 
#
# 1 0.007985 -0.002468 -0.001334 0.000000 0.000000 0.000000
# 2 -0.002468 0.008948 -0.001936 0.000000 0.000000 0.000000
# 3 -0.001334 -0.001936 0.007985 0.000000 0.000000 0.000000
# 4 0.000000 0.000000 0.000000 0.040012 0.000000 0.000000
# 5 0.000000 0.000000 0.000000 0.000000 0.036989 0.000000
# 6 0.000000 0.000000 0.000000 0.000000 0.000000 0.021678
#
#
# Mechanical properties :
#
#
# Convention : Reuss Voigt Hill
#
# Bulk Modulus (GPa) = 74.39435 74.48061 74.43748
# Shear Modulus (GPa) = 35.82823 39.38608 37.60716
#
# Velocity S-wave (km/s) = 4.07349 4.27096 4.17340
# Velocity P-wave (km/s) = 7.52191 7.66917 7.59590
#
# Compressibility (1/GPa) = 0.01344188
#
# Stress axis : x y z
#
# Youngs Moduli (GPa) = 125.22796 111.76010 125.23068
#
# Poissons Ratio (x) = 0.27585 0.16708
# Poissons Ratio (y) = 0.30909 0.24244
# Poissons Ratio (z) = 0.16707 0.21636
#
# Static dielectric constant tensor:
#      x y z
#    x 1.801850 0.000000 0.000000 
#    y 0.000000 1.823840 0.000000 
#    z 0.000000 0.000000 1.751930 
# 
# From -- ./inp_files/2473.got.cif
#   From: 2010.05.17/outbox.cif.g08.bks.cpg/sg54_2_cif.got.tgz:2473.got - 2010.06.03 13:09:01.
