data_PCOD9423005
_publ_section_title
;
Structure prediction by ZEFSAII (Michael W. Deem and Ramdas Pophale) SiO2 
 PCOD9423005
Probable space group: P C C A
;
_chemical_formula_sum "Si O2"
_cell_formula_units_Z 48
_cell_length_a 8.289463
_cell_length_b 12.497319
_cell_length_c 22.448223
_cell_angle_alpha 90.000000
_cell_angle_beta 90.000000
_cell_angle_gamma 90.000000
_cell_volume 2325.547534
_symmetry_space_group_name_H-M "P C C A"
_symmetry_group_IT_number 54
_symmetry_cell_setting 'orthorhombic'
loop_
_space_group_symop_operation_xyz
x,y,z
1/2-x,-y,z
1/2+x,-y,1/2-z
-x,y,1/2-z
-x,-y,-z
1/2+x,y,-z
1/2-x,y,1/2+z
x,-y,1/2+z
loop_
_atom_site_type_symbol
_atom_site_label
_atom_site_fract_x
_atom_site_fract_y
_atom_site_fract_z
Si Si1 0.030979 0.669438 0.036760
Si Si2 0.533069 0.344049 0.814304
Si Si3 0.250000 0.500000 0.607032
Si Si4 0.954500 0.892870 0.073630
Si Si5 0.812486 0.379142 0.082567
Si Si6 0.250000 0.000000 0.324636
Si Si7 0.000000 0.860433 0.750000
Si Si8 0.250000 0.000000 0.522108
O O1 0.130518 0.574029 0.068030
O O2 0.064272 0.786985 0.062837
O O3 0.844265 0.670318 0.053590
O O4 0.052036 0.646283 0.966820
O O5 0.500000 0.396662 0.750000
O O6 0.651535 0.417639 0.851959
O O7 0.372692 0.336747 0.854478
O O8 0.583287 0.223826 0.796278
O O9 0.091944 0.981046 0.061502
O O10 0.859116 0.920848 0.133959
O O11 0.815145 0.907900 0.023181
O O12 0.750000 0.500000 0.090048
O O13 0.370428 0.930944 0.284288
#
# Coordination Sequence:
#
# PCOD9423005 Si02
#       8
#     8   8   4   8   8   4   4   4
#     4  12  24  38  67 105 136 177 214 278 352 421
#     4  10  26  45  66  93 131 183 229 280 330 396
#     4  12  24  42  64  98 140 172 226 270 342 414
#     4  10  22  40  68 101 135 176 219 277 359 413
#     4  12  22  42  66  95 143 178 220 277 332 407
#     4  11  24  47  70  94 132 173 236 301 346 408
#     4  10  26  48  68  96 126 180 240 290 342 396
#     4   9  20  41  64 100 138 169 218 279 338 430
#
# _framework density 20.6403
#
# number of rings (size 3 to 8) (size 9 to 14) (size 15 to 20)
#    0.500    0.667    2.500    3.500    1.167    6.000 
#    0.000    0.000    0.000    0.000    0.000    0.000 
#    0.000    0.000    0.000    0.000    0.000    0.000 
#
# Total GULP energy -267383.576089 kJ/mol
# GULP energy per Si atom -5570.491169 kJ/mol
# Density = 2.059332 g / cm^3
# Si number density = 20.640300 Si / 1000 Ang^3
#
#
#
# Elastic Constant Matrix: (Units=GPa)
#
#
# Indices 1 2 3 4 5 6 
#
# 1 90.5684 18.5907 57.1918 0.0000 0.0000 0.0000
# 2 18.5907 111.0784 49.2962 0.0000 0.0000 0.0000
# 3 57.1918 49.2962 147.7016 0.0000 0.0000 0.0000
# 4 0.0000 0.0000 0.0000 16.0806 0.0000 0.0000
# 5 0.0000 0.0000 0.0000 0.0000 38.0853 0.0000
# 6 0.0000 0.0000 0.0000 0.0000 0.0000 25.6357
#
#
#
# Elastic Compliance Matrix: (Units=1/GPa)
#
#
# Indices 1 2 3 4 5 6 
#
# 1 0.014616 0.000077 -0.005685 0.000000 0.000000 0.000000
# 2 0.000077 0.010568 -0.003557 0.000000 0.000000 0.000000
# 3 -0.005685 -0.003557 0.010159 0.000000 0.000000 0.000000
# 4 0.000000 0.000000 0.000000 0.062187 0.000000 0.000000
# 5 0.000000 0.000000 0.000000 0.000000 0.026257 0.000000
# 6 0.000000 0.000000 0.000000 0.000000 0.000000 0.039008
#
#
# Mechanical properties :
#
#
# Convention : Reuss Voigt Hill
#
# Bulk Modulus (GPa) = 58.78029 66.61176 62.69603
# Shear Modulus (GPa) = 26.76725 30.91163 28.83944
#
# Velocity S-wave (km/s) = 3.60508 3.87413 3.74202
# Velocity P-wave (km/s) = 6.77267 7.23564 7.00798
#
# Compressibility (1/GPa) = 0.01701251
#
# Stress axis : x y z
#
# Youngs Moduli (GPa) = 68.42044 94.62187 98.43626
#
# Poissons Ratio (x) = -0.00727 0.55960
# Poissons Ratio (y) = -0.00526 0.35014
# Poissons Ratio (z) = 0.38897 0.33657
#
# Static dielectric constant tensor:
#      x y z
#    x 1.788600 0.000000 0.000000 
#    y 0.000000 1.932310 0.000000 
#    z 0.000000 0.000000 1.708700 
# 
# From -- ./inp_files/23577.got.cif
#   From: 2010.05.17/outbox.cif.g08.bks.cpg/sg54_12_cif.got.tgz:23577.got - 2010.06.03 13:09:01.
