data_PCOD9423183
_publ_section_title
;
Structure prediction by ZEFSAII (Michael W. Deem and Ramdas Pophale) SiO2 
 PCOD9423183
Probable space group: P C C A
;
_chemical_formula_sum "Si O2"
_cell_formula_units_Z 40
_cell_length_a 11.123323
_cell_length_b 16.419369
_cell_length_c 9.143632
_cell_angle_alpha 90.000000
_cell_angle_beta 90.000000
_cell_angle_gamma 90.000000
_cell_volume 1669.974157
_symmetry_space_group_name_H-M "P C C A"
_symmetry_group_IT_number 54
_symmetry_cell_setting 'orthorhombic'
loop_
_space_group_symop_operation_xyz
x,y,z
1/2-x,-y,z
1/2+x,-y,1/2-z
-x,y,1/2-z
-x,-y,-z
1/2+x,y,-z
1/2-x,y,1/2+z
x,-y,1/2+z
loop_
_atom_site_type_symbol
_atom_site_label
_atom_site_fract_x
_atom_site_fract_y
_atom_site_fract_z
Si Si1 0.806838 0.136155 0.401177
Si Si2 0.837421 0.359114 0.907461
Si Si3 0.000000 0.469979 0.750000
Si Si4 0.250000 0.500000 0.409659
Si Si5 0.750718 0.248477 0.645689
Si Si6 0.917190 0.964426 0.376909
O O1 0.836573 0.188097 0.548105
O O2 0.816791 0.195630 0.265759
O O3 0.671147 0.104978 0.431400
O O4 0.855673 0.050451 0.338034
O O5 0.954741 0.412738 0.882060
O O6 0.808593 0.318210 0.750173
O O7 0.743692 0.422499 0.981105
O O8 0.837329 0.288394 0.027060
O O9 0.873502 0.508753 0.688071
O O10 0.000000 0.931630 0.250000
O O11 0.000000 0.000000 0.500000
#
# Coordination Sequence:
#
# PCOD9423183 Si02
#       6
#     8   8   4   4   8   8
#     4  10  22  43  63  97 145 182 242 305 360 448
#     4  11  24  47  73 107 146 192 247 302 381 460
#     4  12  26  50  82 112 150 198 256 320 376 472
#     4  12  26  52  82 114 150 200 256 314 382 462
#     4  10  22  45  68  98 151 189 235 302 386 445
#     4  11  22  39  66  96 129 189 251 298 359 430
#
# _framework density 23.952468
#
# number of rings (size 3 to 8) (size 9 to 14) (size 15 to 20)
#    0.000    1.200    2.000    3.600    0.000    3.200 
#   18.000    2.000    0.000    0.000    0.000    0.000 
#    0.000    0.000    0.000    0.000    0.000    0.000 
#
# Total GULP energy -222687.350941 kJ/mol
# GULP energy per Si atom -5567.183774 kJ/mol
# Density = 2.389795 g / cm^3
# Si number density = 23.952468 Si / 1000 Ang^3
#
#
#
# Elastic Constant Matrix: (Units=GPa)
#
#
# Indices 1 2 3 4 5 6 
#
# 1 67.6194 12.1907 31.2381 0.0000 0.0000 0.0000
# 2 12.1907 106.3623 38.3330 0.0000 0.0000 0.0000
# 3 31.2381 38.3330 142.4465 0.0000 0.0000 0.0000
# 4 0.0000 0.0000 0.0000 71.7503 0.0000 0.0000
# 5 0.0000 0.0000 0.0000 0.0000 7726.6845 0.0000
# 6 0.0000 0.0000 0.0000 0.0000 0.0000 18.0233
#
#
#
# Elastic Compliance Matrix: (Units=1/GPa)
#
#
# Indices 1 2 3 4 5 6 
#
# 1 0.016496 -0.000650 -0.003443 0.000000 0.000000 0.000000
# 2 -0.000650 0.010437 -0.002666 0.000000 0.000000 0.000000
# 3 -0.003443 -0.002666 0.008493 0.000000 0.000000 0.000000
# 4 0.000000 0.000000 0.000000 0.013937 0.000000 0.000000
# 5 0.000000 0.000000 0.000000 0.000000 0.000129 0.000000
# 6 0.000000 0.000000 0.000000 0.000000 0.000000 0.055484
#
#
# Mechanical properties :
#
#
# Convention : Reuss Voigt Hill
#
# Bulk Modulus (GPa) = 45.64447 53.32798 49.48622
# Shear Modulus (GPa) = 39.74667 1578.93607 809.34137
#
# Velocity S-wave (km/s) = 4.07799 25.70266 18.40186
# Velocity P-wave (km/s) = 6.42425 30.05242 21.73038
#
# Compressibility (1/GPa) = 0.02190846
#
# Stress axis : x y z
#
# Youngs Moduli (GPa) = 60.61992 95.81105 117.74934
#
# Poissons Ratio (x) = 0.06228 0.40537
# Poissons Ratio (y) = 0.03940 0.31394
# Poissons Ratio (z) = 0.20869 0.25545
#
# Static dielectric constant tensor:
#      x y z
#    x 1.914150 0.000000 0.000000 
#    y 0.000000 1.903650 0.000000 
#    z 0.000000 0.000000 1.905100 
# 
# From -- ./inp_files/2957.got.cif
#   From: 2010.05.17/outbox.cif.g08.bks.cpg/sg54_2_cif.got.tgz:2957.got - 2010.06.03 13:09:01.
