data_PCOD9423692
_publ_section_title
;
Structure prediction by ZEFSAII (Michael W. Deem and Ramdas Pophale) SiO2 
 PCOD9423692
Probable space group: P C C A
;
_chemical_formula_sum "Si O2"
_cell_formula_units_Z 48
_cell_length_a 18.983225
_cell_length_b 10.213769
_cell_length_c 11.283331
_cell_angle_alpha 90.000000
_cell_angle_beta 90.000000
_cell_angle_gamma 90.000000
_cell_volume 2187.728151
_symmetry_space_group_name_H-M "P C C A"
_symmetry_group_IT_number 54
_symmetry_cell_setting 'orthorhombic'
loop_
_space_group_symop_operation_xyz
x,y,z
1/2-x,-y,z
1/2+x,-y,1/2-z
-x,y,1/2-z
-x,-y,-z
1/2+x,y,-z
1/2-x,y,1/2+z
x,-y,1/2+z
loop_
_atom_site_type_symbol
_atom_site_label
_atom_site_fract_x
_atom_site_fract_y
_atom_site_fract_z
Si Si1 0.173806 0.777002 0.240039
Si Si2 0.198547 0.619034 0.704468
Si Si3 0.909797 0.913186 0.080104
Si Si4 0.942687 0.401612 0.145349
Si Si5 0.123654 0.359975 0.968165
Si Si6 0.060544 0.179739 0.546679
O O1 0.253388 0.750578 0.201124
O O2 0.144820 0.904877 0.310397
O O3 0.161206 0.672178 0.344463
O O4 0.118579 0.759824 0.133973
O O5 0.250000 0.500000 0.734393
O O6 0.133053 0.627227 0.793629
O O7 0.168546 0.584880 0.574667
O O8 0.893170 0.789948 0.994093
O O9 0.908674 0.050772 0.016418
O O10 0.990159 0.872422 0.112975
O O11 0.935083 0.536901 0.072097
O O12 0.957630 0.284423 0.054588
O O13 0.000000 0.412009 0.250000
#
# Coordination Sequence:
#
# PCOD9423692 Si02
#       6
#     8   8   8   8   8   8
#     4  10  24  42  73  98 136 183 236 285 347 416
#     4  12  24  44  69 101 143 186 227 293 361 422
#     4   9  23  44  68 103 137 187 231 284 351 418
#     4  12  28  43  69 110 140 179 238 292 350 425
#     4  10  25  43  68  99 137 179 236 283 353 415
#     4  11  23  44  74 100 145 187 230 290 352 421
#
# _framework density 21.940569
#
# number of rings (size 3 to 8) (size 9 to 14) (size 15 to 20)
#    1.000    0.333    1.667    2.500    7.000    5.333 
#    0.000    5.000    0.000    0.000    0.000    0.000 
#    0.000    0.000    0.000    0.000    0.000    0.000 
#
# Total GULP energy -267446.545853 kJ/mol
# GULP energy per Si atom -5571.803039 kJ/mol
# Density = 2.189063 g / cm^3
# Si number density = 21.940569 Si / 1000 Ang^3
#
#
#
# Elastic Constant Matrix: (Units=GPa)
#
#
# Indices 1 2 3 4 5 6 
#
# 1 91.7958 -0.6374 53.1502 0.0000 0.0000 0.0000
# 2 -0.6374 77.5036 39.4362 0.0000 0.0000 0.0000
# 3 53.1502 39.4362 98.6034 0.0000 0.0000 0.0000
# 4 0.0000 0.0000 0.0000 -37.2261 0.0000 0.0000
# 5 0.0000 0.0000 0.0000 0.0000 24.8958 0.0000
# 6 0.0000 0.0000 0.0000 0.0000 0.0000 17.5761
#
#
#
# Elastic Compliance Matrix: (Units=1/GPa)
#
#
# Indices 1 2 3 4 5 6 
#
# 1 0.018057 0.006404 -0.012295 0.000000 0.000000 0.000000
# 2 0.006404 0.018471 -0.010839 0.000000 0.000000 0.000000
# 3 -0.012295 -0.010839 0.021104 0.000000 0.000000 0.000000
# 4 0.000000 0.000000 0.000000 -0.026863 0.000000 0.000000
# 5 0.000000 0.000000 0.000000 0.000000 0.040167 0.000000
# 6 0.000000 0.000000 0.000000 0.000000 0.000000 0.056896
#
#
# Mechanical properties :
#
#
# Convention : Reuss Voigt Hill
#
# Bulk Modulus (GPa) = 41.36986 50.20010 45.78498
# Shear Modulus (GPa) = 29.52490 12.77940 21.15215
#
# Velocity S-wave (km/s) = 3.67233 2.41603 3.10831
# Velocity P-wave (km/s) = 6.07270 5.54190 5.81336
#
# Compressibility (1/GPa) = 0.02417219
#
# Stress axis : x y z
#
# Youngs Moduli (GPa) = 55.38071 54.13965 47.38434
#
# Poissons Ratio (x) = -0.34673 0.58257
# Poissons Ratio (y) = -0.35468 0.51362
# Poissons Ratio (z) = 0.68088 0.58685
#
# Static dielectric constant tensor:
#      x y z
#    x 1.850490 0.000000 0.000000 
#    y 0.000000 1.823860 0.000000 
#    z 0.000000 0.000000 1.629810 
# 
# From -- ./inp_files/8937.got.cif
#   From: 2010.05.17/outbox.cif.g08.bks.cpg/sg54_5_cif.got.tgz:8937.got - 2010.06.03 13:09:01.
