data_PCOD9423916
_publ_section_title
;
Structure prediction by ZEFSAII (Michael W. Deem and Ramdas Pophale) SiO2 
 PCOD9423916
Probable space group: P C C A
;
_chemical_formula_sum "Si O2"
_cell_formula_units_Z 20
_cell_length_a 11.362981
_cell_length_b 7.717700
_cell_length_c 9.744039
_cell_angle_alpha 90.000000
_cell_angle_beta 90.000000
_cell_angle_gamma 90.000000
_cell_volume 854.514009
_symmetry_space_group_name_H-M "P C C A"
_symmetry_group_IT_number 54
_symmetry_cell_setting 'orthorhombic'
loop_
_space_group_symop_operation_xyz
x,y,z
1/2-x,-y,z
1/2+x,-y,1/2-z
-x,y,1/2-z
-x,-y,-z
1/2+x,y,-z
1/2-x,y,1/2+z
x,-y,1/2+z
loop_
_atom_site_type_symbol
_atom_site_label
_atom_site_fract_x
_atom_site_fract_y
_atom_site_fract_z
Si Si1 0.000000 0.832090 0.250000
Si Si2 0.373793 0.169468 0.784507
Si Si3 0.298322 0.692932 0.570445
O O1 0.924389 0.722331 0.356344
O O2 0.909948 0.970914 0.180811
O O3 0.500000 0.254210 0.750000
O O4 0.294312 0.186613 0.650528
O O5 0.312834 0.258802 0.912406
O O6 0.250000 0.500000 0.586313
#
# Coordination Sequence:
#
# PCOD9423916 Si02
#       3
#     4   8   8
#     4  10  26  46  78 104 154 200 254 300 376 452
#     4  10  27  47  74 109 156 201 250 298 379 453
#     4  12  26  47  77 113 152 196 254 315 371 439
#
# _framework density 23.405117000000001
#
# number of rings (size 3 to 8) (size 9 to 14) (size 15 to 20)
#    1.200    0.000    0.000    3.600    8.400    4.800 
#    0.000    0.000    0.000    0.000    0.000    0.000 
#    0.000    0.000    0.000    0.000    0.000    0.000 
#
# Total GULP energy -111903.289711 kJ/mol
# GULP energy per Si atom -5595.164486 kJ/mol
# Density = 2.335185 g / cm^3
# Si number density = 23.405117 Si / 1000 Ang^3
#
#
#
# Elastic Constant Matrix: (Units=GPa)
#
#
# Indices 1 2 3 4 5 6 
#
# 1 115.0348 49.1116 61.7584 0.0000 0.0000 0.0000
# 2 49.1116 143.3520 30.6556 0.0000 0.0000 0.0000
# 3 61.7584 30.6556 117.4942 0.0000 0.0000 0.0000
# 4 0.0000 0.0000 0.0000 58.9778 0.0000 0.0000
# 5 0.0000 0.0000 0.0000 0.0000 47.8870 0.0000
# 6 0.0000 0.0000 0.0000 0.0000 0.0000 38.5653
#
#
#
# Elastic Compliance Matrix: (Units=1/GPa)
#
#
# Indices 1 2 3 4 5 6 
#
# 1 0.013418 -0.003271 -0.006199 0.000000 0.000000 0.000000
# 2 -0.003271 0.008186 -0.000416 0.000000 0.000000 0.000000
# 3 -0.006199 -0.000416 0.011878 0.000000 0.000000 0.000000
# 4 0.000000 0.000000 0.000000 0.016956 0.000000 0.000000
# 5 0.000000 0.000000 0.000000 0.000000 0.020882 0.000000
# 6 0.000000 0.000000 0.000000 0.000000 0.000000 0.025930
#
#
# Mechanical properties :
#
#
# Convention : Reuss Voigt Hill
#
# Bulk Modulus (GPa) = 72.94985 73.21470 73.08228
# Shear Modulus (GPa) = 41.12099 44.70970 42.91534
#
# Velocity S-wave (km/s) = 4.19611 4.37539 4.28669
# Velocity P-wave (km/s) = 7.39679 7.54153 7.46951
#
# Compressibility (1/GPa) = 0.01370805
#
# Stress axis : x y z
#
# Youngs Moduli (GPa) = 74.52811 122.16670 84.18781
#
# Poissons Ratio (x) = 0.39962 0.52190
# Poissons Ratio (y) = 0.24379 0.03505
# Poissons Ratio (z) = 0.46202 0.05086
#
# Static dielectric constant tensor:
#      x y z
#    x 1.926170 0.000000 0.000000 
#    y 0.000000 1.908410 0.000000 
#    z 0.000000 0.000000 1.804660 
# 
# From -- ./inp_files/2598.got.cif
#   From: 2010.05.17/outbox.cif.g08.bks.cpg/sg54_2_cif.got.tgz:2598.got - 2010.06.03 13:09:01.
