data_PCOD9423444
_publ_section_title
;
Structure prediction by ZEFSAII (Michael W. Deem and Ramdas Pophale) SiO2 
 PCOD9423444
Probable space group: P C C A
;
_chemical_formula_sum "Si O2"
_cell_formula_units_Z 48
_cell_length_a 17.583268
_cell_length_b 9.276420
_cell_length_c 14.601027
_cell_angle_alpha 90.000000
_cell_angle_beta 90.000000
_cell_angle_gamma 90.000000
_cell_volume 2381.570286
_symmetry_space_group_name_H-M "P C C A"
_symmetry_group_IT_number 54
_symmetry_cell_setting 'orthorhombic'
loop_
_space_group_symop_operation_xyz
x,y,z
1/2-x,-y,z
1/2+x,-y,1/2-z
-x,y,1/2-z
-x,-y,-z
1/2+x,y,-z
1/2-x,y,1/2+z
x,-y,1/2+z
loop_
_atom_site_type_symbol
_atom_site_label
_atom_site_fract_x
_atom_site_fract_y
_atom_site_fract_z
Si Si1 0.460388 0.651373 0.020792
Si Si2 0.049726 0.915844 0.925460
Si Si3 0.288672 0.649134 0.062065
Si Si4 0.213728 0.149987 0.419491
Si Si5 0.233533 0.669034 0.264814
Si Si6 0.067755 0.796269 0.322059
O O1 0.507149 0.763004 0.084666
O O2 0.378447 0.627406 0.066133
O O3 0.500000 0.500000 0.000000
O O4 0.448529 0.723774 0.920671
O O5 0.132438 0.876158 0.964134
O O6 0.065653 0.030357 0.843543
O O7 0.000000 0.000000 0.000000
O O8 0.250000 0.500000 0.031514
O O9 0.252563 0.690918 0.158797
O O10 0.269453 0.770255 0.988734
O O11 0.208323 0.245684 0.329300
O O12 0.250000 0.000000 0.392577
O O13 0.250000 0.500000 0.282739
O O14 0.148910 0.730786 0.287968
O O15 0.000000 0.765432 0.250000
#
# Coordination Sequence:
#
# PCOD9423444 Si02
#       6
#     8   8   8   8   8   8
#     4  11  24  44  70 105 137 185 235 290 362 427
#     4  10  23  42  65  96 135 176 227 278 355 422
#     4  11  25  44  69 101 140 183 235 289 355 420
#     4  12  22  44  70  97 135 182 230 291 348 420
#     4  11  26  44  67 102 137 181 238 288 352 421
#     4  11  25  45  67  98 141 180 232 293 362 426
#
# _framework density 20.154769999999999
#
# number of rings (size 3 to 8) (size 9 to 14) (size 15 to 20)
#    0.000    1.000    3.333    2.500   11.667    2.000 
#    0.000    0.833    0.000    0.000    0.000    0.000 
#    0.000    0.000    0.000    0.000    0.000    0.000 
#
# Total GULP energy -267936.403461 kJ/mol
# GULP energy per Si atom -5582.008405 kJ/mol
# Density = 2.010890 g / cm^3
# Si number density = 20.154770 Si / 1000 Ang^3
#
#
#
# Elastic Constant Matrix: (Units=GPa)
#
#
# Indices 1 2 3 4 5 6 
#
# 1 140.8328 39.9135 7.0405 0.0000 0.0000 0.0000
# 2 39.9135 131.5742 35.2299 0.0000 0.0000 0.0000
# 3 7.0405 35.2299 66.3471 0.0000 0.0000 0.0000
# 4 0.0000 0.0000 0.0000 -11.7700 0.0000 0.0000
# 5 0.0000 0.0000 0.0000 0.0000 27.7808 0.0000
# 6 0.0000 0.0000 0.0000 0.0000 0.0000 71.3741
#
#
#
# Elastic Compliance Matrix: (Units=1/GPa)
#
#
# Indices 1 2 3 4 5 6 
#
# 1 0.007783 -0.002494 0.000499 0.000000 0.000000 0.000000
# 2 -0.002494 0.009659 -0.004864 0.000000 0.000000 0.000000
# 3 0.000499 -0.004864 0.017602 0.000000 0.000000 0.000000
# 4 0.000000 0.000000 0.000000 -0.084962 0.000000 0.000000
# 5 0.000000 0.000000 0.000000 0.000000 0.035996 0.000000
# 6 0.000000 0.000000 0.000000 0.000000 0.000000 0.014011
#
#
# Mechanical properties :
#
#
# Convention : Reuss Voigt Hill
#
# Bulk Modulus (GPa) = 46.89540 55.90244 51.39892
# Shear Modulus (GPa) = 239.03044 34.58166 136.80605
#
# Velocity S-wave (km/s) = 10.90206 4.14672 8.24773
# Velocity P-wave (km/s) = 13.48300 7.12207 10.78228
#
# Compressibility (1/GPa) = 0.02132405
#
# Stress axis : x y z
#
# Youngs Moduli (GPa) = 128.49127 103.52570 56.81076
#
# Poissons Ratio (x) = 0.25824 -0.02833
# Poissons Ratio (y) = 0.32051 0.27635
# Poissons Ratio (z) = -0.06407 0.50359
#
# Static dielectric constant tensor:
#      x y z
#    x 1.683220 0.000000 0.000000 
#    y 0.000000 1.722110 0.000000 
#    z 0.000000 0.000000 1.662540 
# 
# From -- ./inp_files/14108.got.cif
#   From: 2010.05.17/outbox.cif.g08.bks.cpg/sg54_8_cif.got.tgz:14108.got - 2010.06.03 13:09:01.
