data_PCOD9423693
_publ_section_title
;
Structure prediction by ZEFSAII (Michael W. Deem and Ramdas Pophale) SiO2 
 PCOD9423693
Probable space group: P C C A
;
_chemical_formula_sum "Si O2"
_cell_formula_units_Z 20
_cell_length_a 9.053697
_cell_length_b 9.872160
_cell_length_c 9.025951
_cell_angle_alpha 90.000000
_cell_angle_beta 90.000000
_cell_angle_gamma 90.000000
_cell_volume 806.735397
_symmetry_space_group_name_H-M "P C C A"
_symmetry_group_IT_number 54
_symmetry_cell_setting 'orthorhombic'
loop_
_space_group_symop_operation_xyz
x,y,z
1/2-x,-y,z
1/2+x,-y,1/2-z
-x,y,1/2-z
-x,-y,-z
1/2+x,y,-z
1/2-x,y,1/2+z
x,-y,1/2+z
loop_
_atom_site_type_symbol
_atom_site_label
_atom_site_fract_x
_atom_site_fract_y
_atom_site_fract_z
Si Si1 0.500000 0.506610 0.750000
Si Si2 0.649358 0.371270 0.496423
Si Si3 0.393793 0.083634 0.887941
O O1 0.517243 0.406832 0.610675
O O2 0.381706 0.609209 0.677597
O O3 0.750000 0.500000 0.538929
O O4 0.676526 0.216397 0.532741
O O5 0.500000 0.117375 0.750000
O O6 0.250000 0.000000 0.838277
O O7 0.500000 0.000000 0.000000
#
# Coordination Sequence:
#
# PCOD9423693 Si02
#       3
#     4   8   8
#     4  10  24  42  74 104 148 184 260 312 388 444
#     4  11  25  46  76 110 146 204 259 323 386 467
#     4  12  30  52  79 116 162 213 264 325 405 482
#
# _framework density 24.791277999999998
#
# number of rings (size 3 to 8) (size 9 to 14) (size 15 to 20)
#    0.000    0.800    2.000    2.400   14.000    6.400 
#    0.000    0.000    0.000    0.000    0.000    0.000 
#    0.000    0.000    0.000    0.000    0.000    0.000 
#
# Total GULP energy -111391.048310 kJ/mol
# GULP energy per Si atom -5569.552415 kJ/mol
# Density = 2.473485 g / cm^3
# Si number density = 24.791278 Si / 1000 Ang^3
#
#
#
# Elastic Constant Matrix: (Units=GPa)
#
#
# Indices 1 2 3 4 5 6 
#
# 1 74.2874 46.9125 8.3934 0.0000 0.0000 0.0000
# 2 46.9125 178.5174 40.4890 0.0000 0.0000 0.0000
# 3 8.3934 40.4890 123.3177 0.0000 0.0000 0.0000
# 4 0.0000 0.0000 0.0000 25.5725 0.0000 0.0000
# 5 0.0000 0.0000 0.0000 0.0000 29.5398 0.0000
# 6 0.0000 0.0000 0.0000 0.0000 0.0000 31.1485
#
#
#
# Elastic Compliance Matrix: (Units=1/GPa)
#
#
# Indices 1 2 3 4 5 6 
#
# 1 0.016151 -0.004316 0.000318 0.000000 0.000000 0.000000
# 2 -0.004316 0.007206 -0.002072 0.000000 0.000000 0.000000
# 3 0.000318 -0.002072 0.008768 0.000000 0.000000 0.000000
# 4 0.000000 0.000000 0.000000 0.039104 0.000000 0.000000
# 5 0.000000 0.000000 0.000000 0.000000 0.033853 0.000000
# 6 0.000000 0.000000 0.000000 0.000000 0.000000 0.032104
#
#
# Mechanical properties :
#
#
# Convention : Reuss Voigt Hill
#
# Bulk Modulus (GPa) = 50.04098 63.07913 56.56006
# Shear Modulus (GPa) = 32.05354 35.94067 33.99710
#
# Velocity S-wave (km/s) = 3.59964 3.81166 3.70717
# Velocity P-wave (km/s) = 6.12416 6.69858 6.41780
#
# Compressibility (1/GPa) = 0.01998362
#
# Stress axis : x y z
#
# Youngs Moduli (GPa) = 61.91505 138.77336 114.05305
#
# Poissons Ratio (x) = 0.59901 -0.03626
# Poissons Ratio (y) = 0.26725 0.23634
# Poissons Ratio (z) = -0.01968 0.28756
#
# Static dielectric constant tensor:
#      x y z
#    x 13.279230 0.000000 0.000000 
#    y 0.000000 2.030100 0.000000 
#    z 0.000000 0.000000 2.076520 
# 
# From -- ./inp_files/2619.got.cif
#   From: 2010.05.17/outbox.cif.g08.bks.cpg/sg54_2_cif.got.tgz:2619.got - 2010.06.03 13:09:01.
