data_PCOD9423066
_publ_section_title
;
Structure prediction by ZEFSAII (Michael W. Deem and Ramdas Pophale) SiO2 
 PCOD9423066
Probable space group: P C C A
;
_chemical_formula_sum "Si O2"
_cell_formula_units_Z 32
_cell_length_a 13.588149
_cell_length_b 5.030707
_cell_length_c 18.876284
_cell_angle_alpha 90.000000
_cell_angle_beta 90.000000
_cell_angle_gamma 90.000000
_cell_volume 1290.344952
_symmetry_space_group_name_H-M "P C C A"
_symmetry_group_IT_number 54
_symmetry_cell_setting 'orthorhombic'
loop_
_space_group_symop_operation_xyz
x,y,z
1/2-x,-y,z
1/2+x,-y,1/2-z
-x,y,1/2-z
-x,-y,-z
1/2+x,y,-z
1/2-x,y,1/2+z
x,-y,1/2+z
loop_
_atom_site_type_symbol
_atom_site_label
_atom_site_fract_x
_atom_site_fract_y
_atom_site_fract_z
Si Si1 0.609483 0.982716 0.469324
Si Si2 0.681838 0.240736 0.260596
Si Si3 0.929274 0.474827 0.887492
Si Si4 0.653466 0.681018 0.605002
O O1 0.607681 0.769302 0.405397
O O2 0.663299 0.863394 0.536532
O O3 0.500000 0.000000 0.500000
O O4 0.628897 0.275877 0.440612
O O5 0.750000 0.500000 0.255843
O O6 0.595724 0.343687 0.311987
O O7 0.648249 0.169882 0.180845
O O8 0.750000 0.000000 0.287148
O O9 0.047048 0.465604 0.900424
O O10 0.750000 0.500000 0.606573
#
# Coordination Sequence:
#
# PCOD9423066 Si02
#       4
#     8   8   8   8
#     4  10  22  41  66  94 128 170 218 271 332 398
#     4  11  25  43  64  95 131 174 224 272 329 396
#     4  11  23  44  67  95 133 175 219 273 337 403
#     4  10  23  42  67  98 132 171 221 276 335 399
#
# _framework density 24.799572000000001
#
# number of rings (size 3 to 8) (size 9 to 14) (size 15 to 20)
#    0.000    1.500    0.000    5.250    0.000   15.000 
#    0.000   12.500    0.000    0.000    0.000    0.000 
#    0.000    0.000    0.000    0.000    0.000    0.000 
#
# Total GULP energy -178949.055864 kJ/mol
# GULP energy per Si atom -5592.157996 kJ/mol
# Density = 2.474313 g / cm^3
# Si number density = 24.799572 Si / 1000 Ang^3
#
#
#
# Elastic Constant Matrix: (Units=GPa)
#
#
# Indices 1 2 3 4 5 6 
#
# 1 127.7978 39.5046 53.8945 0.0000 0.0000 0.0000
# 2 39.5046 115.9624 14.9372 0.0000 0.0000 0.0000
# 3 53.8945 14.9372 120.6947 0.0000 0.0000 0.0000
# 4 0.0000 0.0000 0.0000 16.8890 0.0000 0.0000
# 5 0.0000 0.0000 0.0000 0.0000 -63.6703 0.0000
# 6 0.0000 0.0000 0.0000 0.0000 0.0000 29.7221
#
#
#
# Elastic Compliance Matrix: (Units=1/GPa)
#
#
# Indices 1 2 3 4 5 6 
#
# 1 0.010606 -0.003052 -0.004358 0.000000 0.000000 0.000000
# 2 -0.003052 0.009641 0.000170 0.000000 0.000000 0.000000
# 3 -0.004358 0.000170 0.010211 0.000000 0.000000 0.000000
# 4 0.000000 0.000000 0.000000 0.059210 0.000000 0.000000
# 5 0.000000 0.000000 0.000000 0.000000 -0.015706 0.000000
# 6 0.000000 0.000000 0.000000 0.000000 0.000000 0.033645
#
#
# Mechanical properties :
#
#
# Convention : Reuss Voigt Hill
#
# Bulk Modulus (GPa) = 62.59074 64.56973 63.58023
# Shear Modulus (GPa) = 39.24205 13.66271 26.45238
#
# Velocity S-wave (km/s) = 3.98221 2.34973 3.26950
# Velocity P-wave (km/s) = 6.81450 5.78401 6.32029
#
# Compressibility (1/GPa) = 0.01597680
#
# Stress axis : x y z
#
# Youngs Moduli (GPa) = 94.28430 103.72050 97.93782
#
# Poissons Ratio (x) = 0.31653 0.42685
# Poissons Ratio (y) = 0.28774 -0.01660
# Poissons Ratio (z) = 0.41093 -0.01758
#
# Static dielectric constant tensor:
#      x y z
#    x 1.987910 0.000000 0.000000 
#    y 0.000000 1.935310 0.000000 
#    z 0.000000 0.000000 2.051680 
# 
# From -- ./inp_files/17593.got.cif
#   From: 2010.05.17/outbox.cif.g08.bks.cpg/sg54_9_cif.got.tgz:17593.got - 2010.06.03 13:09:01.
