data_PCOD9423070
_publ_section_title
;
Structure prediction by ZEFSAII (Michael W. Deem and Ramdas Pophale) SiO2 
 PCOD9423070
Probable space group: P C C A
;
_chemical_formula_sum "Si O2"
_cell_formula_units_Z 40
_cell_length_a 14.876385
_cell_length_b 5.378647
_cell_length_c 23.859513
_cell_angle_alpha 90.000000
_cell_angle_beta 90.000000
_cell_angle_gamma 90.000000
_cell_volume 1909.114723
_symmetry_space_group_name_H-M "P C C A"
_symmetry_group_IT_number 54
_symmetry_cell_setting 'orthorhombic'
loop_
_space_group_symop_operation_xyz
x,y,z
1/2-x,-y,z
1/2+x,-y,1/2-z
-x,y,1/2-z
-x,-y,-z
1/2+x,y,-z
1/2-x,y,1/2+z
x,-y,1/2+z
loop_
_atom_site_type_symbol
_atom_site_label
_atom_site_fract_x
_atom_site_fract_y
_atom_site_fract_z
Si Si1 0.824930 0.293243 0.711234
Si Si2 0.402519 0.056858 0.392080
Si Si3 0.000000 0.569502 0.750000
Si Si4 0.546815 0.552553 0.059123
Si Si5 0.073532 0.812542 0.642621
Si Si6 0.750000 0.000000 0.316207
O O1 0.750000 0.500000 0.695225
O O2 0.842623 0.083153 0.663815
O O3 0.797179 0.187229 0.772010
O O4 0.922543 0.417649 0.718672
O O5 0.394551 0.313784 0.424909
O O6 0.395361 0.806256 0.429557
O O7 0.507270 0.037235 0.373322
O O8 0.050276 0.737584 0.705456
O O9 0.463583 0.599379 0.101885
O O10 0.500000 0.500000 0.000000
O O11 0.177007 0.873552 0.644150
#
# Coordination Sequence:
#
# PCOD9423070 Si02
#       6
#     8   8   4   8   8   4
#     4  12  24  37  64  96 147 187 233 282 365 432
#     4  10  22  41  66  98 132 176 232 292 344 422
#     4  12  20  46  58 100 138 188 222 288 340 452
#     4  10  22  43  71  98 125 184 242 287 356 420
#     4  10  23  37  66  96 142 175 235 282 356 420
#     4  12  24  36  58 108 134 190 222 290 352 446
#
# _framework density 20.952121000000002
#
# number of rings (size 3 to 8) (size 9 to 14) (size 15 to 20)
#    1.200    0.000    4.000    3.000    2.800    0.000 
#    0.000    0.000    0.000    3.600    0.000    0.000 
#    0.000    0.000    0.000    0.000    0.000    0.000 
#
# Total GULP energy -222979.547285 kJ/mol
# GULP energy per Si atom -5574.488682 kJ/mol
# Density = 2.090443 g / cm^3
# Si number density = 20.952121 Si / 1000 Ang^3
#
#
#
# Elastic Constant Matrix: (Units=GPa)
#
#
# Indices 1 2 3 4 5 6 
#
# 1 76.8314 19.3332 -9.9311 0.0000 0.0000 0.0000
# 2 19.3332 126.2689 18.8808 0.0000 0.0000 0.0000
# 3 -9.9311 18.8808 62.5592 0.0000 0.0000 0.0000
# 4 0.0000 0.0000 0.0000 16.5348 0.0000 0.0000
# 5 0.0000 0.0000 0.0000 0.0000 12.3106 0.0000
# 6 0.0000 0.0000 0.0000 0.0000 0.0000 17.2960
#
#
#
# Elastic Compliance Matrix: (Units=1/GPa)
#
#
# Indices 1 2 3 4 5 6 
#
# 1 0.014061 -0.002604 0.003018 0.000000 0.000000 0.000000
# 2 -0.002604 0.008776 -0.003062 0.000000 0.000000 0.000000
# 3 0.003018 -0.003062 0.017388 0.000000 0.000000 0.000000
# 4 0.000000 0.000000 0.000000 0.060478 0.000000 0.000000
# 5 0.000000 0.000000 0.000000 0.000000 0.081231 0.000000
# 6 0.000000 0.000000 0.000000 0.000000 0.000000 0.057817
#
#
# Mechanical properties :
#
#
# Convention : Reuss Voigt Hill
#
# Bulk Modulus (GPa) = 28.62964 35.80281 32.21622
# Shear Modulus (GPa) = 19.47867 25.05338 22.26602
#
# Velocity S-wave (km/s) = 3.05237 3.46171 3.26346
# Velocity P-wave (km/s) = 5.11044 5.75351 5.44148
#
# Compressibility (1/GPa) = 0.03492884
#
# Stress axis : x y z
#
# Youngs Moduli (GPa) = 71.11910 113.94444 57.51047
#
# Poissons Ratio (x) = 0.29673 -0.17357
# Poissons Ratio (y) = 0.18521 0.17610
# Poissons Ratio (z) = -0.21464 0.34891
#
# Static dielectric constant tensor:
#      x y z
#    x 6.470460 0.000000 0.000000 
#    y 0.000000 1.895940 0.000000 
#    z 0.000000 0.000000 1.758210 
# 
# From -- ./inp_files/26365.got.cif
#   From: 2010.05.17/outbox.cif.g08.bks.cpg/sg54_14_cif.got.tgz:26365.got - 2010.06.03 13:09:01.
