data_PCOD9423088
_publ_section_title
;
Structure prediction by ZEFSAII (Michael W. Deem and Ramdas Pophale) SiO2 
 PCOD9423088
Probable space group: P C C A
;
_chemical_formula_sum "Si O2"
_cell_formula_units_Z 40
_cell_length_a 8.861727
_cell_length_b 8.686473
_cell_length_c 23.088412
_cell_angle_alpha 90.000000
_cell_angle_beta 90.000000
_cell_angle_gamma 90.000000
_cell_volume 1777.280207
_symmetry_space_group_name_H-M "P C C A"
_symmetry_group_IT_number 54
_symmetry_cell_setting 'orthorhombic'
loop_
_space_group_symop_operation_xyz
x,y,z
1/2-x,-y,z
1/2+x,-y,1/2-z
-x,y,1/2-z
-x,-y,-z
1/2+x,y,-z
1/2-x,y,1/2+z
x,-y,1/2+z
loop_
_atom_site_type_symbol
_atom_site_label
_atom_site_fract_x
_atom_site_fract_y
_atom_site_fract_z
Si Si1 0.607282 0.397701 0.957236
Si Si2 0.050562 0.775233 0.661864
Si Si3 0.591288 0.095738 0.160400
Si Si4 0.612633 0.111513 0.034308
Si Si5 0.740530 0.318077 0.737336
O O1 0.750000 0.500000 0.939844
O O2 0.542500 0.311528 0.899997
O O3 0.500000 0.500000 0.000000
O O4 0.660377 0.255260 0.996490
O O5 0.200644 0.736295 0.697882
O O6 0.906160 0.718151 0.698064
O O7 0.032129 0.960378 0.663327
O O8 0.562243 0.168598 0.097343
O O9 0.621479 0.227628 0.207376
O O10 0.750000 0.000000 0.163470
O O11 0.750000 0.000000 0.046356
O O12 0.500000 0.000000 0.000000
O O13 0.750000 0.500000 0.737894
#
# Coordination Sequence:
#
# PCOD9423088 Si02
#       5
#     8   8   8   8   8
#     4  12  27  42  71 108 147 187 241 300 367 430
#     4  10  22  45  64 100 140 180 238 297 354 445
#     4   9  20  39  71  91 132 181 233 282 359 429
#     4  11  22  42  68 102 139 184 229 289 353 430
#     4  10  22  41  71  94 135 183 236 299 361 422
#
# _framework density 22.506298000000001
#
# number of rings (size 3 to 8) (size 9 to 14) (size 15 to 20)
#    0.000    1.600    2.000    1.800    8.400    0.000 
#    0.000   17.000    8.800    0.000    0.000    0.000 
#    0.000    0.000    0.000    0.000    0.000    0.000 
#
# Total GULP energy -223264.434127 kJ/mol
# GULP energy per Si atom -5581.610853 kJ/mol
# Density = 2.245507 g / cm^3
# Si number density = 22.506298 Si / 1000 Ang^3
#
#
#
# Elastic Constant Matrix: (Units=GPa)
#
#
# Indices 1 2 3 4 5 6 
#
# 1 39.4783 24.3490 34.0908 0.0000 0.0000 0.0000
# 2 24.3490 142.8914 66.6050 0.0000 0.0000 0.0000
# 3 34.0908 66.6050 155.8218 0.0000 0.0000 0.0000
# 4 0.0000 0.0000 0.0000 26.8609 0.0000 0.0000
# 5 0.0000 0.0000 0.0000 0.0000 21.4556 0.0000
# 6 0.0000 0.0000 0.0000 0.0000 0.0000 22.8531
#
#
#
# Elastic Compliance Matrix: (Units=1/GPa)
#
#
# Indices 1 2 3 4 5 6 
#
# 1 0.032067 -0.002740 -0.005844 0.000000 0.000000 0.000000
# 2 -0.002740 0.008974 -0.003236 0.000000 0.000000 0.000000
# 3 -0.005844 -0.003236 0.009080 0.000000 0.000000 0.000000
# 4 0.000000 0.000000 0.000000 0.037229 0.000000 0.000000
# 5 0.000000 0.000000 0.000000 0.000000 0.046608 0.000000
# 6 0.000000 0.000000 0.000000 0.000000 0.000000 0.043758
#
#
# Mechanical properties :
#
#
# Convention : Reuss Voigt Hill
#
# Bulk Modulus (GPa) = 37.76595 65.36455 51.56525
# Shear Modulus (GPa) = 23.78879 28.44370 26.11624
#
# Velocity S-wave (km/s) = 3.25466 3.55887 3.41016
# Velocity P-wave (km/s) = 5.56240 6.78183 6.20216
#
# Compressibility (1/GPa) = 0.02647888
#
# Stress axis : x y z
#
# Youngs Moduli (GPa) = 31.18450 111.43610 110.13742
#
# Poissons Ratio (x) = 0.30535 0.64369
# Poissons Ratio (y) = 0.08545 0.35644
# Poissons Ratio (z) = 0.18226 0.36064
#
# Static dielectric constant tensor:
#      x y z
#    x 1.885330 0.000000 0.000000 
#    y 0.000000 1.845630 0.000000 
#    z 0.000000 0.000000 1.920330 
# 
# From -- ./inp_files/23277.got.cif
#   From: 2010.05.17/outbox.cif.g08.bks.cpg/sg54_12_cif.got.tgz:23277.got - 2010.06.03 13:09:01.
