data_PCOD9423067
_publ_section_title
;
Structure prediction by ZEFSAII (Michael W. Deem and Ramdas Pophale) SiO2 
 PCOD9423067
Probable space group: P C C A
;
_chemical_formula_sum "Si O2"
_cell_formula_units_Z 44
_cell_length_a 9.016583
_cell_length_b 8.774738
_cell_length_c 25.570026
_cell_angle_alpha 90.000000
_cell_angle_beta 90.000000
_cell_angle_gamma 90.000000
_cell_volume 2023.053242
_symmetry_space_group_name_H-M "P C C A"
_symmetry_group_IT_number 54
_symmetry_cell_setting 'orthorhombic'
loop_
_space_group_symop_operation_xyz
x,y,z
1/2-x,-y,z
1/2+x,-y,1/2-z
-x,y,1/2-z
-x,-y,-z
1/2+x,y,-z
1/2-x,y,1/2+z
x,-y,1/2+z
loop_
_atom_site_type_symbol
_atom_site_label
_atom_site_fract_x
_atom_site_fract_y
_atom_site_fract_z
Si Si1 0.320998 0.661449 0.793874
Si Si2 0.500000 0.092363 0.250000
Si Si3 0.077553 0.533235 0.654811
Si Si4 0.048343 0.159559 0.337169
Si Si5 0.091362 0.425935 0.453937
Si Si6 0.592701 0.079979 0.545911
O O1 0.250000 0.500000 0.775716
O O2 0.362214 0.789869 0.751692
O O3 0.472404 0.597249 0.820232
O O4 0.209332 0.753949 0.832439
O O5 0.474928 0.981610 0.298834
O O6 0.250000 0.500000 0.652617
O O7 0.055153 0.699760 0.680613
O O8 0.008263 0.559417 0.597547
O O9 0.022968 0.096982 0.395860
O O10 0.250000 0.500000 0.443640
O O11 0.118976 0.253201 0.470136
O O12 0.000000 0.500000 0.500000
O O13 0.750000 0.000000 0.552366
O O14 0.500000 0.000000 0.500000
#
# Coordination Sequence:
#
# PCOD9423067 Si02
#       6
#     8   4   8   8   8   8
#     4  10  23  43  67  94 130 177 220 272 339 403
#     4  12  24  40  72 100 128 174 228 280 334 408
#     4  10  22  41  66  95 131 175 224 274 329 401
#     4  10  24  46  67  97 136 178 222 274 342 405
#     4  11  22  39  64  94 129 173 225 279 333 398
#     4  11  23  42  67  96 132 173 216 270 334 397
#
# _framework density 21.749303999999999
#
# number of rings (size 3 to 8) (size 9 to 14) (size 15 to 20)
#    0.000    1.455    0.000    6.000    0.000    9.455 
#    0.000    1.818    0.000    1.091    0.000    0.000 
#    0.000    0.000    0.000    0.000    0.000    0.000 
#
# Total GULP energy -245719.911185 kJ/mol
# GULP energy per Si atom -5584.543436 kJ/mol
# Density = 2.169980 g / cm^3
# Si number density = 21.749304 Si / 1000 Ang^3
#
#
#
# Elastic Constant Matrix: (Units=GPa)
#
#
# Indices 1 2 3 4 5 6 
#
# 1 148.7294 66.7114 28.9897 0.0000 0.0000 0.0000
# 2 66.7114 180.6733 69.3280 0.0000 0.0000 0.0000
# 3 28.9897 69.3280 88.8049 0.0000 0.0000 0.0000
# 4 0.0000 0.0000 0.0000 42.7683 0.0000 0.0000
# 5 0.0000 0.0000 0.0000 0.0000 32.3668 0.0000
# 6 0.0000 0.0000 0.0000 0.0000 0.0000 40.0154
#
#
#
# Elastic Compliance Matrix: (Units=1/GPa)
#
#
# Indices 1 2 3 4 5 6 
#
# 1 0.008070 -0.002811 -0.000440 0.000000 0.000000 0.000000
# 2 -0.002811 0.008881 -0.006016 0.000000 0.000000 0.000000
# 3 -0.000440 -0.006016 0.016101 0.000000 0.000000 0.000000
# 4 0.000000 0.000000 0.000000 0.023382 0.000000 0.000000
# 5 0.000000 0.000000 0.000000 0.000000 0.030896 0.000000
# 6 0.000000 0.000000 0.000000 0.000000 0.000000 0.024990
#
#
# Mechanical properties :
#
#
# Convention : Reuss Voigt Hill
#
# Bulk Modulus (GPa) = 68.87705 83.14066 76.00885
# Shear Modulus (GPa) = 36.84794 39.90865 38.37830
#
# Velocity S-wave (km/s) = 4.12055 4.28827 4.20524
# Velocity P-wave (km/s) = 7.37400 7.92646 7.65522
#
# Compressibility (1/GPa) = 0.01451862
#
# Stress axis : x y z
#
# Youngs Moduli (GPa) = 123.91213 112.59847 62.10960
#
# Poissons Ratio (x) = 0.31652 0.02733
# Poissons Ratio (y) = 0.34832 0.37363
# Poissons Ratio (z) = 0.05452 0.67735
#
# Static dielectric constant tensor:
#      x y z
#    x 1.805300 0.000000 0.000000 
#    y 0.000000 1.757950 0.000000 
#    z 0.000000 0.000000 1.820530 
# 
# From -- ./inp_files/27626.got.cif
#   From: 2010.05.17/outbox.cif.g08.bks.cpg/sg54_14_cif.got.tgz:27626.got - 2010.06.03 13:09:01.
