data_PCOD9423835
_publ_section_title
;
Structure prediction by ZEFSAII (Michael W. Deem and Ramdas Pophale) SiO2 
 PCOD9423835
Probable space group: P C C A
;
_chemical_formula_sum "Si O2"
_cell_formula_units_Z 44
_cell_length_a 15.927862
_cell_length_b 13.189538
_cell_length_c 9.228019
_cell_angle_alpha 90.000000
_cell_angle_beta 90.000000
_cell_angle_gamma 90.000000
_cell_volume 1938.632762
_symmetry_space_group_name_H-M "P C C A"
_symmetry_group_IT_number 54
_symmetry_cell_setting 'orthorhombic'
loop_
_space_group_symop_operation_xyz
x,y,z
1/2-x,-y,z
1/2+x,-y,1/2-z
-x,y,1/2-z
-x,-y,-z
1/2+x,y,-z
1/2-x,y,1/2+z
x,-y,1/2+z
loop_
_atom_site_type_symbol
_atom_site_label
_atom_site_fract_x
_atom_site_fract_y
_atom_site_fract_z
Si Si1 0.903374 0.135375 0.284034
Si Si2 0.323714 0.068046 0.227814
Si Si3 0.195163 0.226374 0.487678
Si Si4 0.123470 0.751499 0.426341
Si Si5 0.000000 0.543552 0.750000
Si Si6 0.952534 0.630989 0.447798
O O1 0.851812 0.173176 0.145284
O O2 0.889369 0.214242 0.410192
O O3 0.000000 0.137410 0.250000
O O4 0.882748 0.020351 0.330938
O O5 0.372519 0.146110 0.330222
O O6 0.250000 0.000000 0.299286
O O7 0.283830 0.136952 0.101696
O O8 0.278453 0.283027 0.428317
O O9 0.127369 0.296752 0.568477
O O10 0.042453 0.680532 0.400220
O O11 0.956336 0.606407 0.620936
O O12 0.942761 0.469614 0.850239
#
# Coordination Sequence:
#
# PCOD9423835 Si02
#       6
#     8   8   8   8   4   8
#     4  12  25  40  62  96 141 192 236 277 321 390
#     4  12  25  39  60  98 145 187 238 272 323 380
#     4  12  24  43  67  99 140 186 226 281 333 409
#     4  12  24  43  67  99 140 186 226 281 333 409
#     4  10  24  48  74  96 132 164 222 304 356 428
#     4  11  24  46  71 100 130 174 225 286 366 405
#
# _framework density 22.696408999999999
#
# number of rings (size 3 to 8) (size 9 to 14) (size 15 to 20)
#    0.000    0.364    5.455    3.273    2.545    1.455 
#    0.000    5.455    0.000    0.000    0.000    0.000 
#    0.000    0.000    0.000    0.000    0.000    0.000 
#
# Total GULP energy -245712.885947 kJ/mol
# GULP energy per Si atom -5584.383772 kJ/mol
# Density = 2.264475 g / cm^3
# Si number density = 22.696409 Si / 1000 Ang^3
#
#
#
# Elastic Constant Matrix: (Units=GPa)
#
#
# Indices 1 2 3 4 5 6 
#
# 1 141.1500 41.3843 4.0293 0.0000 0.0000 0.0000
# 2 41.3843 68.3249 8.2489 0.0000 0.0000 0.0000
# 3 4.0293 8.2489 54.4071 0.0000 0.0000 0.0000
# 4 0.0000 0.0000 0.0000 51.8526 0.0000 0.0000
# 5 0.0000 0.0000 0.0000 0.0000 29.7578 0.0000
# 6 0.0000 0.0000 0.0000 0.0000 0.0000 148.8356
#
#
#
# Elastic Compliance Matrix: (Units=1/GPa)
#
#
# Indices 1 2 3 4 5 6 
#
# 1 0.008616 -0.005237 0.000156 0.000000 0.000000 0.000000
# 2 -0.005237 0.018093 -0.002355 0.000000 0.000000 0.000000
# 3 0.000156 -0.002355 0.018725 0.000000 0.000000 0.000000
# 4 0.000000 0.000000 0.000000 0.019285 0.000000 0.000000
# 5 0.000000 0.000000 0.000000 0.000000 0.033605 0.000000
# 6 0.000000 0.000000 0.000000 0.000000 0.000000 0.006719
#
#
# Mechanical properties :
#
#
# Convention : Reuss Voigt Hill
#
# Bulk Modulus (GPa) = 32.72186 41.24521 36.98353
# Shear Modulus (GPa) = 38.43114 60.10385 49.26750
#
# Velocity S-wave (km/s) = 4.11940 5.15162 4.66415
# Velocity P-wave (km/s) = 6.08888 7.32103 6.73320
#
# Compressibility (1/GPa) = 0.03056061
#
# Stress axis : x y z
#
# Youngs Moduli (GPa) = 116.06612 55.27125 53.40315
#
# Poissons Ratio (x) = 0.28948 -0.00833
# Poissons Ratio (y) = 0.60788 0.12578
# Poissons Ratio (z) = -0.01811 0.13018
#
# Static dielectric constant tensor:
#      x y z
#    x 2.279030 0.000000 0.000000 
#    y 0.000000 1.857250 0.000000 
#    z 0.000000 0.000000 1.867300 
# 
# From -- ./inp_files/4133.got.cif
#   From: 2010.05.17/outbox.cif.g08.bks.cpg/sg54_3_cif.got.tgz:4133.got - 2010.06.03 13:09:01.
