data_PCOD9423450
_publ_section_title
;
Structure prediction by ZEFSAII (Michael W. Deem and Ramdas Pophale) SiO2 
 PCOD9423450
Probable space group: P C C A
;
_chemical_formula_sum "Si O2"
_cell_formula_units_Z 60
_cell_length_a 8.489397
_cell_length_b 12.291302
_cell_length_c 27.142138
_cell_angle_alpha 90.000000
_cell_angle_beta 90.000000
_cell_angle_gamma 90.000000
_cell_volume 2832.166538
_symmetry_space_group_name_H-M "P C C A"
_symmetry_group_IT_number 54
_symmetry_cell_setting 'orthorhombic'
loop_
_space_group_symop_operation_xyz
x,y,z
1/2-x,-y,z
1/2+x,-y,1/2-z
-x,y,1/2-z
-x,-y,-z
1/2+x,y,-z
1/2-x,y,1/2+z
x,-y,1/2+z
loop_
_atom_site_type_symbol
_atom_site_label
_atom_site_fract_x
_atom_site_fract_y
_atom_site_fract_z
Si Si1 0.470060 0.753104 0.501858
Si Si2 0.205011 0.125356 0.062516
Si Si3 0.927458 0.322383 0.665987
Si Si4 0.743576 0.162844 0.243077
Si Si5 0.426700 0.456967 0.700661
Si Si6 0.293016 0.265584 0.655127
Si Si7 0.500000 0.010857 0.750000
Si Si8 0.228170 0.629299 0.435810
O O1 0.567400 0.849948 0.476364
O O2 0.350382 0.805385 0.540683
O O3 0.377576 0.689244 0.459307
O O4 0.584749 0.669470 0.529507
O O5 0.160660 0.177890 0.114867
O O6 0.250000 0.000000 0.066820
O O7 0.849820 0.240476 0.705715
O O8 0.815578 0.332116 0.618982
O O9 0.960483 0.441891 0.688086
O O10 0.104887 0.287153 0.650516
O O11 0.811773 0.227812 0.288763
O O12 0.884717 0.090922 0.219597
O O13 0.625617 0.076392 0.269771
O O14 0.250000 0.500000 0.711400
O O15 0.500000 0.407240 0.750000
O O16 0.397901 0.375187 0.655055
O O17 0.250000 0.500000 0.436697
#
# Coordination Sequence:
#
# PCOD9423450 Si02
#       8
#     8   8   8   8   8   8   4   8
#     4  10  24  48  68 102 134 175 223 293 339 417
#     4  11  24  44  75  98 133 175 229 281 347 402
#     4  11  22  43  68  98 140 180 225 282 336 407
#     4  11  23  44  68  96 142 178 229 282 336 402
#     4  10  23  42  66  95 137 190 220 279 341 402
#     4  11  23  41  65 100 138 172 226 275 343 408
#     4  10  24  40  68  92 132 190 230 274 336 392
#     4  11  24  43  71 101 138 179 223 280 351 418
#
# _framework density 21.185193000000002
#
# number of rings (size 3 to 8) (size 9 to 14) (size 15 to 20)
#    0.000    1.333    2.667    2.400    4.667    2.667 
#    0.000    0.000    2.933    0.000    0.000    0.000 
#    0.000    0.000    0.000    0.000    0.000    0.000 
#
# Total GULP energy -334850.628800 kJ/mol
# GULP energy per Si atom -5580.843813 kJ/mol
# Density = 2.113697 g / cm^3
# Si number density = 21.185193 Si / 1000 Ang^3
#
#
#
# Elastic Constant Matrix: (Units=GPa)
#
#
# Indices 1 2 3 4 5 6 
#
# 1 69.9824 39.9954 31.5467 0.0000 0.0000 0.0000
# 2 39.9954 128.7921 49.7563 0.0000 0.0000 0.0000
# 3 31.5467 49.7563 111.2670 0.0000 0.0000 0.0000
# 4 0.0000 0.0000 0.0000 22.5805 0.0000 0.0000
# 5 0.0000 0.0000 0.0000 0.0000 23.7074 0.0000
# 6 0.0000 0.0000 0.0000 0.0000 0.0000 34.4802
#
#
#
# Elastic Compliance Matrix: (Units=1/GPa)
#
#
# Indices 1 2 3 4 5 6 
#
# 1 0.018266 -0.004438 -0.003194 0.000000 0.000000 0.000000
# 2 -0.004438 0.010464 -0.003421 0.000000 0.000000 0.000000
# 3 -0.003194 -0.003421 0.011423 0.000000 0.000000 0.000000
# 4 0.000000 0.000000 0.000000 0.044286 0.000000 0.000000
# 5 0.000000 0.000000 0.000000 0.000000 0.042181 0.000000
# 6 0.000000 0.000000 0.000000 0.000000 0.000000 0.029002
#
#
# Mechanical properties :
#
#
# Convention : Reuss Voigt Hill
#
# Bulk Modulus (GPa) = 55.41391 61.40426 58.40908
# Shear Modulus (GPa) = 27.21175 28.73648 27.97412
#
# Velocity S-wave (km/s) = 3.58784 3.68699 3.63775
# Velocity P-wave (km/s) = 6.58613 6.86823 6.72866
#
# Compressibility (1/GPa) = 0.01804601
#
# Stress axis : x y z
#
# Youngs Moduli (GPa) = 54.74768 95.56198 87.54412
#
# Poissons Ratio (x) = 0.42413 0.27962
# Poissons Ratio (y) = 0.24299 0.29950
# Poissons Ratio (z) = 0.17486 0.32693
#
# Static dielectric constant tensor:
#      x y z
#    x 1.799850 0.000000 0.000000 
#    y 0.000000 1.797900 0.000000 
#    z 0.000000 0.000000 1.735700 
# 
# From -- ./inp_files/25932.got.cif
#   From: 2010.05.17/outbox.cif.g08.bks.cpg/sg54_13_cif.got.tgz:25932.got - 2010.06.03 13:09:01.
