data_PCOD9423298
_publ_section_title
;
Structure prediction by ZEFSAII (Michael W. Deem and Ramdas Pophale) SiO2 
 PCOD9423298
Probable space group: P C C A
;
_chemical_formula_sum "Si O2"
_cell_formula_units_Z 36
_cell_length_a 10.672654
_cell_length_b 5.484863
_cell_length_c 25.689008
_cell_angle_alpha 90.000000
_cell_angle_beta 90.000000
_cell_angle_gamma 90.000000
_cell_volume 1503.784307
_symmetry_space_group_name_H-M "P C C A"
_symmetry_group_IT_number 54
_symmetry_cell_setting 'orthorhombic'
loop_
_space_group_symop_operation_xyz
x,y,z
1/2-x,-y,z
1/2+x,-y,1/2-z
-x,y,1/2-z
-x,-y,-z
1/2+x,y,-z
1/2-x,y,1/2+z
x,-y,1/2+z
loop_
_atom_site_type_symbol
_atom_site_label
_atom_site_fract_x
_atom_site_fract_y
_atom_site_fract_z
Si Si1 0.620710 0.143576 0.844312
Si Si2 0.625086 0.165293 0.505719
Si Si3 0.372895 0.164007 0.880908
Si Si4 0.674507 0.741937 0.231842
Si Si5 0.750000 0.500000 0.921471
O O1 0.500528 0.012840 0.869375
O O2 0.595073 0.210234 0.784388
O O3 0.655480 0.359600 0.883255
O O4 0.750000 0.000000 0.843621
O O5 0.616531 0.288665 0.562898
O O6 0.658833 0.346355 0.459274
O O7 0.750000 0.000000 0.506359
O O8 0.500000 0.000000 0.500000
O O9 0.366574 0.317292 0.827638
O O10 0.250000 0.000000 0.883285
O O11 0.750000 0.500000 0.247707
O O12 0.750000 0.000000 0.226583
#
# Coordination Sequence:
#
# PCOD9423298 Si02
#       5
#     8   8   8   8   4
#     4  11  23  45  71 102 140 189 246 301 370 459
#     4  11  25  45  68 103 145 191 250 306 372 452
#     4  10  23  44  69 102 142 188 237 316 368 443
#     4  10  22  45  71 107 143 189 243 303 376 446
#     4  12  24  42  72 102 138 202 238 312 370 460
#
# _framework density 23.939603000000002
#
# number of rings (size 3 to 8) (size 9 to 14) (size 15 to 20)
#    0.000    1.333    1.111    4.000    1.556    3.556 
#   16.000    4.444    0.000    0.000    0.000    0.000 
#    0.000    0.000    0.000    0.000    0.000    0.000 
#
# Total GULP energy -200640.948503 kJ/mol
# GULP energy per Si atom -5573.359681 kJ/mol
# Density = 2.388512 g / cm^3
# Si number density = 23.939603 Si / 1000 Ang^3
#
#
#
# Elastic Constant Matrix: (Units=GPa)
#
#
# Indices 1 2 3 4 5 6 
#
# 1 158.5151 31.3814 54.3778 0.0000 0.0000 0.0000
# 2 31.3814 60.8427 49.4862 0.0000 0.0000 0.0000
# 3 54.3778 49.4862 261.8150 0.0000 0.0000 0.0000
# 4 0.0000 0.0000 0.0000 145.7219 0.0000 0.0000
# 5 0.0000 0.0000 0.0000 0.0000 36.4745 0.0000
# 6 0.0000 0.0000 0.0000 0.0000 0.0000 21.7681
#
#
#
# Elastic Compliance Matrix: (Units=1/GPa)
#
#
# Indices 1 2 3 4 5 6 
#
# 1 0.007216 -0.002958 -0.000940 0.000000 0.000000 0.000000
# 2 -0.002958 0.020634 -0.003286 0.000000 0.000000 0.000000
# 3 -0.000940 -0.003286 0.004636 0.000000 0.000000 0.000000
# 4 0.000000 0.000000 0.000000 0.006862 0.000000 0.000000
# 5 0.000000 0.000000 0.000000 0.000000 0.027416 0.000000
# 6 0.000000 0.000000 0.000000 0.000000 0.000000 0.045939
#
#
# Mechanical properties :
#
#
# Convention : Reuss Voigt Hill
#
# Bulk Modulus (GPa) = 55.18914 83.51818 69.35366
# Shear Modulus (GPa) = 37.56291 63.85472 50.70882
#
# Velocity S-wave (km/s) = 3.96545 5.17022 4.60738
# Velocity P-wave (km/s) = 6.63852 8.40264 7.57213
#
# Compressibility (1/GPa) = 0.01811951
#
# Stress axis : x y z
#
# Youngs Moduli (GPa) = 138.57164 48.46410 215.71607
#
# Poissons Ratio (x) = 0.14334 0.20273
# Poissons Ratio (y) = 0.40986 0.70879
# Poissons Ratio (z) = 0.13023 0.15924
#
# Static dielectric constant tensor:
#      x y z
#    x 2.058530 0.000000 0.000000 
#    y 0.000000 1.859250 0.000000 
#    z 0.000000 0.000000 1.950120 
# 
# From -- ./inp_files/23858.got.cif
#   From: 2010.05.17/outbox.cif.g08.bks.cpg/sg54_12_cif.got.tgz:23858.got - 2010.06.03 13:09:01.
