data_PCOD9423727
_publ_section_title
;
Structure prediction by ZEFSAII (Michael W. Deem and Ramdas Pophale) SiO2 
 PCOD9423727
Probable space group: P C C A
;
_chemical_formula_sum "Si O2"
_cell_formula_units_Z 28
_cell_length_a 21.430477
_cell_length_b 6.394097
_cell_length_c 10.007904
_cell_angle_alpha 90.000000
_cell_angle_beta 90.000000
_cell_angle_gamma 90.000000
_cell_volume 1371.368561
_symmetry_space_group_name_H-M "P C C A"
_symmetry_group_IT_number 54
_symmetry_cell_setting 'orthorhombic'
loop_
_space_group_symop_operation_xyz
x,y,z
1/2-x,-y,z
1/2+x,-y,1/2-z
-x,y,1/2-z
-x,-y,-z
1/2+x,y,-z
1/2-x,y,1/2+z
x,-y,1/2+z
loop_
_atom_site_type_symbol
_atom_site_label
_atom_site_fract_x
_atom_site_fract_y
_atom_site_fract_z
Si Si1 0.250000 0.000000 0.378455
Si Si2 0.846328 0.328862 0.522204
Si Si3 0.457070 0.039367 0.372169
Si Si4 0.856572 0.712445 0.717074
O O1 0.286985 0.175149 0.462642
O O2 0.198015 0.115485 0.290827
O O3 0.904845 0.204167 0.583882
O O4 0.839704 0.535464 0.610242
O O5 0.858880 0.374364 0.366961
O O6 0.500000 0.113319 0.250000
O O7 0.500000 0.000000 0.500000
O O8 0.420062 0.831492 0.324258
#
# Coordination Sequence:
#
# PCOD9423727 Si02
#       4
#     4   8   8   8
#     4  10  24  44  68  92 132 166 218 266 322 376
#     4  11  25  42  67  97 129 169 215 265 321 382
#     4  11  24  45  66  94 133 171 212 263 319 380
#     4  11  25  42  67  98 128 170 215 265 321 381
#
# _framework density 20.417558
#
# number of rings (size 3 to 8) (size 9 to 14) (size 15 to 20)
#    0.000    1.143    2.857    1.714    4.000    9.143 
#    0.000    0.000    0.000    0.000    0.000    0.000 
#    0.000    0.000    0.000    0.000    0.000    0.000 
#
# Total GULP energy -156573.534082 kJ/mol
# GULP energy per Si atom -5591.911931 kJ/mol
# Density = 2.037109 g / cm^3
# Si number density = 20.417558 Si / 1000 Ang^3
#
#
#
# Elastic Constant Matrix: (Units=GPa)
#
#
# Indices 1 2 3 4 5 6 
#
# 1 111.7873 21.2500 41.2110 0.0000 0.0000 0.0000
# 2 21.2500 80.6265 45.3279 0.0000 0.0000 0.0000
# 3 41.2110 45.3279 184.1548 0.0000 0.0000 0.0000
# 4 0.0000 0.0000 0.0000 25.3841 0.0000 0.0000
# 5 0.0000 0.0000 0.0000 0.0000 19.5291 0.0000
# 6 0.0000 0.0000 0.0000 0.0000 0.0000 17.5528
#
#
#
# Elastic Compliance Matrix: (Units=1/GPa)
#
#
# Indices 1 2 3 4 5 6 
#
# 1 0.009922 -0.001586 -0.001830 0.000000 0.000000 0.000000
# 2 -0.001586 0.014648 -0.003251 0.000000 0.000000 0.000000
# 3 -0.001830 -0.003251 0.006640 0.000000 0.000000 0.000000
# 4 0.000000 0.000000 0.000000 0.039395 0.000000 0.000000
# 5 0.000000 0.000000 0.000000 0.000000 0.051206 0.000000
# 6 0.000000 0.000000 0.000000 0.000000 0.000000 0.056971
#
#
# Mechanical properties :
#
#
# Convention : Reuss Voigt Hill
#
# Bulk Modulus (GPa) = 55.93929 65.79404 60.86667
# Shear Modulus (GPa) = 25.24317 30.41186 27.82752
#
# Velocity S-wave (km/s) = 3.51999 3.86359 3.69578
# Velocity P-wave (km/s) = 6.63156 7.22477 6.93451
#
# Compressibility (1/GPa) = 0.01787652
#
# Stress axis : x y z
#
# Youngs Moduli (GPa) = 100.78933 68.26687 150.60657
#
# Poissons Ratio (x) = 0.10829 0.27559
# Poissons Ratio (y) = 0.15987 0.48956
# Poissons Ratio (z) = 0.18443 0.22191
#
# Static dielectric constant tensor:
#      x y z
#    x 1.718440 0.000000 0.000000 
#    y 0.000000 1.722250 0.000000 
#    z 0.000000 0.000000 1.694610 
# 
# From -- ./inp_files/5376.got.cif
#   From: 2010.05.17/outbox.cif.g08.bks.cpg/sg54_3_cif.got.tgz:5376.got - 2010.06.03 13:09:01.
