data_PCOD9423802
_publ_section_title
;
Structure prediction by ZEFSAII (Michael W. Deem and Ramdas Pophale) SiO2 
 PCOD9423802
Probable space group: P C C A
;
_chemical_formula_sum "Si O2"
_cell_formula_units_Z 40
_cell_length_a 22.567616
_cell_length_b 8.032540
_cell_length_c 9.079338
_cell_angle_alpha 90.000000
_cell_angle_beta 90.000000
_cell_angle_gamma 90.000000
_cell_volume 1645.859522
_symmetry_space_group_name_H-M "P C C A"
_symmetry_group_IT_number 54
_symmetry_cell_setting 'orthorhombic'
loop_
_space_group_symop_operation_xyz
x,y,z
1/2-x,-y,z
1/2+x,-y,1/2-z
-x,y,1/2-z
-x,-y,-z
1/2+x,y,-z
1/2-x,y,1/2+z
x,-y,1/2+z
loop_
_atom_site_type_symbol
_atom_site_label
_atom_site_fract_x
_atom_site_fract_y
_atom_site_fract_z
Si Si1 0.637723 0.364085 0.186631
Si Si2 0.430934 0.497141 0.031372
Si Si3 0.704316 0.148626 0.398110
Si Si4 0.000000 0.051035 0.750000
Si Si5 0.750000 0.500000 0.030993
Si Si6 0.582377 0.142577 0.526015
O O1 0.598278 0.454739 0.312265
O O2 0.596716 0.340077 0.043769
O O3 0.667652 0.201637 0.253658
O O4 0.692964 0.470391 0.130768
O O5 0.500000 0.500000 0.000000
O O6 0.411093 0.336676 0.938339
O O7 0.735683 0.324918 0.446242
O O8 0.650082 0.088578 0.501935
O O9 0.750000 0.000000 0.378719
O O10 0.954049 0.945677 0.653073
O O11 0.958762 0.138073 0.875869
#
# Coordination Sequence:
#
# PCOD9423802 Si02
#       6
#     8   8   8   4   4   8
#     4  11  24  46  75 112 151 198 258 319 380 467
#     4  11  25  43  77 112 148 197 256 319 394 465
#     4  11  27  50  75 113 153 209 260 324 389 460
#     4  10  24  46  72 106 154 194 252 324 386 470
#     4  12  24  50  76 108 152 200 264 324 380 468
#     4  10  24  47  71 107 149 199 255 317 392 467
#
# _framework density 24.30341
#
# number of rings (size 3 to 8) (size 9 to 14) (size 15 to 20)
#    0.000    1.200    4.000    1.200    8.400    5.600 
#    7.200    0.000    0.000    0.000    0.000    0.000 
#    0.000    0.000    0.000    0.000    0.000    0.000 
#
# Total GULP energy -223286.840972 kJ/mol
# GULP energy per Si atom -5582.171024 kJ/mol
# Density = 2.424809 g / cm^3
# Si number density = 24.303410 Si / 1000 Ang^3
#
#
#
# Elastic Constant Matrix: (Units=GPa)
#
#
# Indices 1 2 3 4 5 6 
#
# 1 -489.2594 -651.2094 88.9339 0.0000 0.0000 0.0000
# 2 -651.2094 -625.4599 105.6623 0.0000 0.0000 0.0000
# 3 88.9339 105.6623 89.8664 0.0000 0.0000 0.0000
# 4 0.0000 0.0000 0.0000 31.0241 0.0000 0.0000
# 5 0.0000 0.0000 0.0000 0.0000 -41.2310 0.0000
# 6 0.0000 0.0000 0.0000 0.0000 0.0000 55.7739
#
#
#
# Elastic Compliance Matrix: (Units=1/GPa)
#
#
# Indices 1 2 3 4 5 6 
#
# 1 0.005416 -0.005460 0.001060 0.000000 0.000000 0.000000
# 2 -0.005460 0.004170 0.000500 0.000000 0.000000 0.000000
# 3 0.001060 0.000500 0.009491 0.000000 0.000000 0.000000
# 4 0.000000 0.000000 0.000000 0.032233 0.000000 0.000000
# 5 0.000000 0.000000 0.000000 0.000000 -0.024254 0.000000
# 6 0.000000 0.000000 0.000000 0.000000 0.000000 0.017930
#
#
# Mechanical properties :
#
#
# Convention : Reuss Voigt Hill
#
# Bulk Modulus (GPa) = 88.67627 -215.34215 -63.33294
# Shear Modulus (GPa) = 88.42339 -28.76926 29.82707
#
# Velocity S-wave (km/s) = 6.03839 -3.44431 3.50705
# Velocity P-wave (km/s) = 9.22944 10.22818 3.11715
#
# Compressibility (1/GPa) = 0.01127697
#
# Stress axis : x y z
#
# Youngs Moduli (GPa) = 184.63496 239.78326 105.36273
#
# Poissons Ratio (x) = 1.30922 -0.11167
# Poissons Ratio (y) = 1.00811 -0.05267
# Poissons Ratio (z) = -0.19568 -0.11987
#
# Static dielectric constant tensor:
#      x y z
#    x 4.324880 0.000000 0.000000 
#    y 0.000000 1.957080 0.000000 
#    z 0.000000 0.000000 2.259980 
# 
# From -- ./inp_files/5061.got.cif
#   From: 2010.05.17/outbox.cif.g08.bks.cpg/sg54_3_cif.got.tgz:5061.got - 2010.06.03 13:09:01.
