data_PCOD9423346
_publ_section_title
;
Structure prediction by ZEFSAII (Michael W. Deem and Ramdas Pophale) SiO2 
 PCOD9423346
Probable space group: P C C A
;
_chemical_formula_sum "Si O2"
_cell_formula_units_Z 40
_cell_length_a 8.756919
_cell_length_b 8.980274
_cell_length_c 23.499254
_cell_angle_alpha 90.000000
_cell_angle_beta 90.000000
_cell_angle_gamma 90.000000
_cell_volume 1847.970337
_symmetry_space_group_name_H-M "P C C A"
_symmetry_group_IT_number 54
_symmetry_cell_setting 'orthorhombic'
loop_
_space_group_symop_operation_xyz
x,y,z
1/2-x,-y,z
1/2+x,-y,1/2-z
-x,y,1/2-z
-x,-y,-z
1/2+x,y,-z
1/2-x,y,1/2+z
x,-y,1/2+z
loop_
_atom_site_type_symbol
_atom_site_label
_atom_site_fract_x
_atom_site_fract_y
_atom_site_fract_z
Si Si1 0.011401 0.632030 0.324706
Si Si2 0.495811 0.852338 0.422048
Si Si3 0.569725 0.483396 0.562114
Si Si4 0.250000 0.000000 0.504668
Si Si5 0.250000 0.500000 0.747566
Si Si6 0.930089 0.974848 0.309573
O O1 0.894152 0.511394 0.296201
O O2 0.955605 0.798273 0.314364
O O3 0.017294 0.602942 0.391507
O O4 0.177049 0.615641 0.293868
O O5 0.475315 0.677779 0.413791
O O6 0.652186 0.891760 0.455020
O O7 0.363152 0.908999 0.464072
O O8 0.495734 0.941020 0.362977
O O9 0.750000 0.500000 0.557186
O O10 0.500000 0.500000 0.500000
O O11 0.000000 0.028524 0.250000
O O12 0.750000 0.000000 0.310361
#
# Coordination Sequence:
#
# PCOD9423346 Si02
#       6
#     8   8   8   4   4   8
#     4  11  26  47  77 109 149 194 250 304 376 446
#     4  11  26  46  76 105 148 194 243 312 367 441
#     4  12  29  46  74 110 148 196 252 303 371 450
#     4  10  24  46  74 106 148 190 242 302 382 434
#     4  10  22  48  78 100 150 192 234 310 370 434
#     4  12  29  49  74 110 152 195 251 307 371 448
#
# _framework density 21.645368000000001
#
# number of rings (size 3 to 8) (size 9 to 14) (size 15 to 20)
#    0.000    0.800    4.000    1.200   14.000    1.600 
#    0.000    0.000    0.000    0.000    0.000    0.000 
#    0.000    0.000    0.000    0.000    0.000    0.000 
#
# Total GULP energy -223433.805721 kJ/mol
# GULP energy per Si atom -5585.845143 kJ/mol
# Density = 2.159610 g / cm^3
# Si number density = 21.645368 Si / 1000 Ang^3
#
#
#
# Elastic Constant Matrix: (Units=GPa)
#
#
# Indices 1 2 3 4 5 6 
#
# 1 93.8658 48.4325 46.3871 0.0000 0.0000 0.0000
# 2 48.4325 106.2195 40.6737 0.0000 0.0000 0.0000
# 3 46.3871 40.6737 192.1276 0.0000 0.0000 0.0000
# 4 0.0000 0.0000 0.0000 52.0167 0.0000 0.0000
# 5 0.0000 0.0000 0.0000 0.0000 157.8408 0.0000
# 6 0.0000 0.0000 0.0000 0.0000 0.0000 31.1820
#
#
#
# Elastic Compliance Matrix: (Units=1/GPa)
#
#
# Indices 1 2 3 4 5 6 
#
# 1 0.014839 -0.005870 -0.002340 0.000000 0.000000 0.000000
# 2 -0.005870 0.012567 -0.001243 0.000000 0.000000 0.000000
# 3 -0.002340 -0.001243 0.006033 0.000000 0.000000 0.000000
# 4 0.000000 0.000000 0.000000 0.019225 0.000000 0.000000
# 5 0.000000 0.000000 0.000000 0.000000 0.006335 0.000000
# 6 0.000000 0.000000 0.000000 0.000000 0.000000 0.032070
#
#
# Mechanical properties :
#
#
# Convention : Reuss Voigt Hill
#
# Bulk Modulus (GPa) = 68.81140 73.68885 71.25012
# Shear Modulus (GPa) = 43.54687 65.32253 54.43470
#
# Velocity S-wave (km/s) = 4.49021 5.49946 5.02026
# Velocity P-wave (km/s) = 7.66434 8.62804 8.16042
#
# Compressibility (1/GPa) = 0.01453248
#
# Stress axis : x y z
#
# Youngs Moduli (GPa) = 67.39184 79.57352 165.75435
#
# Poissons Ratio (x) = 0.46709 0.38786
# Poissons Ratio (y) = 0.39558 0.20607
# Poissons Ratio (z) = 0.15769 0.09893
#
# Static dielectric constant tensor:
#      x y z
#    x 1.796480 0.000000 0.000000 
#    y 0.000000 1.768470 0.000000 
#    z 0.000000 0.000000 1.784470 
# 
# From -- ./inp_files/23318.got.cif
#   From: 2010.05.17/outbox.cif.g08.bks.cpg/sg54_12_cif.got.tgz:23318.got - 2010.06.03 13:09:01.
