data_PCOD9423721
_publ_section_title
;
Structure prediction by ZEFSAII (Michael W. Deem and Ramdas Pophale) SiO2 
 PCOD9423721
Probable space group: P C C A
;
_chemical_formula_sum "Si O2"
_cell_formula_units_Z 52
_cell_length_a 21.563216
_cell_length_b 4.934211
_cell_length_c 20.694601
_cell_angle_alpha 90.000000
_cell_angle_beta 90.000000
_cell_angle_gamma 90.000000
_cell_volume 2201.852932
_symmetry_space_group_name_H-M "P C C A"
_symmetry_group_IT_number 54
_symmetry_cell_setting 'orthorhombic'
loop_
_space_group_symop_operation_xyz
x,y,z
1/2-x,-y,z
1/2+x,-y,1/2-z
-x,y,1/2-z
-x,-y,-z
1/2+x,y,-z
1/2-x,y,1/2+z
x,-y,1/2+z
loop_
_atom_site_type_symbol
_atom_site_label
_atom_site_fract_x
_atom_site_fract_y
_atom_site_fract_z
Si Si1 0.559381 0.857213 0.029654
Si Si2 0.821526 0.044811 0.772153
Si Si3 0.382036 0.576150 0.169798
Si Si4 0.091726 0.087042 0.838658
Si Si5 0.290597 0.725834 0.917145
Si Si6 0.378515 0.360523 0.521182
Si Si7 0.500000 0.562332 0.750000
O O1 0.571594 0.544286 0.017075
O O2 0.561156 0.905201 0.106332
O O3 0.611171 0.040973 0.993188
O O4 0.500000 0.000000 0.000000
O O5 0.842723 0.344697 0.792889
O O6 0.865834 0.941622 0.714483
O O7 0.750000 0.000000 0.756570
O O8 0.842378 0.849736 0.829151
O O9 0.448959 0.591359 0.205756
O O10 0.387907 0.533573 0.093418
O O11 0.145625 0.244817 0.877447
O O12 0.040617 0.257065 0.799806
O O13 0.250000 0.500000 0.882262
O O14 0.313030 0.600534 0.985582
O O15 0.250000 0.000000 0.921642
#
# Coordination Sequence:
#
# PCOD9423721 Si02
#       7
#     8   8   8   8   8   8   4
#     4  11  23  41  68  97 130 168 210 268 330 395
#     4  11  25  43  66  94 131 178 225 276 327 390
#     4  11  25  44  67  99 136 179 224 273 336 399
#     4  10  24  44  67  98 131 172 223 270 332 398
#     4  11  24  43  69  97 131 173 221 282 341 401
#     4  11  24  42  65  98 131 168 218 270 334 395
#     4  10  24  44  68  98 138 182 224 276 332 406
#
# _framework density 23.616472000000002
#
# number of rings (size 3 to 8) (size 9 to 14) (size 15 to 20)
#    0.000    1.231    0.000    5.077    0.000   17.846 
#    0.000    0.000    0.000    0.000    0.000    0.000 
#    0.000    0.000    0.000    0.000    0.000    0.000 
#
# Total GULP energy -290390.491431 kJ/mol
# GULP energy per Si atom -5584.432528 kJ/mol
# Density = 2.356272 g / cm^3
# Si number density = 23.616472 Si / 1000 Ang^3
#
#
#
# Elastic Constant Matrix: (Units=GPa)
#
#
# Indices 1 2 3 4 5 6 
#
# 1 145.0975 30.6784 34.6690 0.0000 0.0000 0.0000
# 2 30.6784 76.1976 -0.7812 0.0000 0.0000 0.0000
# 3 34.6690 -0.7812 120.0331 0.0000 0.0000 0.0000
# 4 0.0000 0.0000 0.0000 30.1512 0.0000 0.0000
# 5 0.0000 0.0000 0.0000 0.0000 25.1486 0.0000
# 6 0.0000 0.0000 0.0000 0.0000 0.0000 27.3813
#
#
#
# Elastic Compliance Matrix: (Units=1/GPa)
#
#
# Indices 1 2 3 4 5 6 
#
# 1 0.008160 -0.003310 -0.002378 0.000000 0.000000 0.000000
# 2 -0.003310 0.014467 0.001050 0.000000 0.000000 0.000000
# 3 -0.002378 0.001050 0.009025 0.000000 0.000000 0.000000
# 4 0.000000 0.000000 0.000000 0.033166 0.000000 0.000000
# 5 0.000000 0.000000 0.000000 0.000000 0.039764 0.000000
# 6 0.000000 0.000000 0.000000 0.000000 0.000000 0.036521
#
#
# Mechanical properties :
#
#
# Convention : Reuss Voigt Hill
#
# Bulk Modulus (GPa) = 44.69097 52.27339 48.48218
# Shear Modulus (GPa) = 31.67812 34.98702 33.33257
#
# Velocity S-wave (km/s) = 3.66643 3.85316 3.76095
# Velocity P-wave (km/s) = 6.07357 6.47905 6.27959
#
# Compressibility (1/GPa) = 0.02237589
#
# Stress axis : x y z
#
# Youngs Moduli (GPa) = 122.54935 69.12241 110.80560
#
# Poissons Ratio (x) = 0.22878 0.26354
# Poissons Ratio (y) = 0.40560 -0.11636
# Poissons Ratio (z) = 0.29147 -0.07259
#
# Static dielectric constant tensor:
#      x y z
#    x 1.381470 0.000000 0.000000 
#    y 0.000000 2.004880 0.000000 
#    z 0.000000 0.000000 1.950210 
# 
# From -- ./inp_files/22144.got.cif
#   From: 2010.05.17/outbox.cif.g08.bks.cpg/sg54_12_cif.got.tgz:22144.got - 2010.06.03 13:09:01.
