data_PCOD9423854
_publ_section_title
;
Structure prediction by ZEFSAII (Michael W. Deem and Ramdas Pophale) SiO2 
 PCOD9423854
Probable space group: P C C A
;
_chemical_formula_sum "Si O2"
_cell_formula_units_Z 32
_cell_length_a 7.958754
_cell_length_b 5.587359
_cell_length_c 28.168539
_cell_angle_alpha 90.000000
_cell_angle_beta 90.000000
_cell_angle_gamma 90.000000
_cell_volume 1252.610304
_symmetry_space_group_name_H-M "P C C A"
_symmetry_group_IT_number 54
_symmetry_cell_setting 'orthorhombic'
loop_
_space_group_symop_operation_xyz
x,y,z
1/2-x,-y,z
1/2+x,-y,1/2-z
-x,y,1/2-z
-x,-y,-z
1/2+x,y,-z
1/2-x,y,1/2+z
x,-y,1/2+z
loop_
_atom_site_type_symbol
_atom_site_label
_atom_site_fract_x
_atom_site_fract_y
_atom_site_fract_z
Si Si1 0.020319 0.642596 0.343914
Si Si2 0.250000 0.000000 0.890852
Si Si3 0.250000 0.500000 0.500997
Si Si4 0.025294 0.296323 0.068877
Si Si5 0.500000 0.347329 0.750000
Si Si6 0.750000 0.000000 0.303092
O O1 0.045963 0.512930 0.294128
O O2 0.879561 0.846686 0.334680
O O3 0.958750 0.450743 0.383056
O O4 0.190708 0.774089 0.360376
O O5 0.417603 0.061015 0.920144
O O6 0.397547 0.561466 0.465097
O O7 0.306746 0.291189 0.537546
O O8 0.352770 0.179372 0.730328
#
# Coordination Sequence:
#
# PCOD9423854 Si02
#       6
#     8   4   4   8   4   4
#     4  12  28  49  76 114 156 198 253 319 372 466
#     4  12  26  47  77 112 154 208 253 310 401 448
#     4  10  24  50  74 106 156 200 260 326 380 436
#     4  11  25  48  74 111 154 201 256 326 371 461
#     4  12  30  52  78 112 152 196 254 314 378 468
#     4  12  30  49  79 112 148 208 251 306 399 456
#
# _framework density 25.546652000000002
#
# number of rings (size 3 to 8) (size 9 to 14) (size 15 to 20)
#    0.000    0.500    2.500    3.000    7.000   16.000 
#    0.000    0.000    0.000    0.000    0.000    0.000 
#    0.000    0.000    0.000    0.000    0.000    0.000 
#
# Total GULP energy -179397.744030 kJ/mol
# GULP energy per Si atom -5606.179501 kJ/mol
# Density = 2.548851 g / cm^3
# Si number density = 25.546652 Si / 1000 Ang^3
#
#
#
# Elastic Constant Matrix: (Units=GPa)
#
#
# Indices 1 2 3 4 5 6 
#
# 1 64.2708 2.8768 19.0603 0.0000 0.0000 0.0000
# 2 2.8768 76.6306 31.8193 0.0000 0.0000 0.0000
# 3 19.0603 31.8193 161.4877 0.0000 0.0000 0.0000
# 4 0.0000 0.0000 0.0000 26.4207 0.0000 0.0000
# 5 0.0000 0.0000 0.0000 0.0000 -178.2840 0.0000
# 6 0.0000 0.0000 0.0000 0.0000 0.0000 38.2799
#
#
#
# Elastic Compliance Matrix: (Units=1/GPa)
#
#
# Indices 1 2 3 4 5 6 
#
# 1 0.016126 0.000201 -0.001943 0.000000 0.000000 0.000000
# 2 0.000201 0.014215 -0.002825 0.000000 0.000000 0.000000
# 3 -0.001943 -0.002825 0.006978 0.000000 0.000000 0.000000
# 4 0.000000 0.000000 0.000000 0.037849 0.000000 0.000000
# 5 0.000000 0.000000 0.000000 0.000000 -0.005609 0.000000
# 6 0.000000 0.000000 0.000000 0.000000 0.000000 0.026123
#
#
# Mechanical properties :
#
#
# Convention : Reuss Voigt Hill
#
# Bulk Modulus (GPa) = 35.47731 45.54465 40.51098
# Shear Modulus (GPa) = 43.77846 -6.14116 18.81865
#
# Velocity S-wave (km/s) = 4.14414 -1.55213 2.71705
# Velocity P-wave (km/s) = 6.06761 3.82813 5.07299
#
# Compressibility (1/GPa) = 0.02818703
#
# Stress axis : x y z
#
# Youngs Moduli (GPa) = 62.01016 70.34856 143.30074
#
# Poissons Ratio (x) = -0.01417 0.27844
# Poissons Ratio (y) = -0.01249 0.40478
# Poissons Ratio (z) = 0.12049 0.19871
#
# Static dielectric constant tensor:
#      x y z
#    x 2.121530 0.000000 0.000000 
#    y 0.000000 2.058530 0.000000 
#    z 0.000000 0.000000 1.979180 
# 
# From -- ./inp_files/27459.got.cif
#   From: 2010.05.17/outbox.cif.g08.bks.cpg/sg54_14_cif.got.tgz:27459.got - 2010.06.03 13:09:01.
