data_PCOD9423359
_publ_section_title
;
Structure prediction by ZEFSAII (Michael W. Deem and Ramdas Pophale) SiO2 
 PCOD9423359
Probable space group: P C C A
;
_chemical_formula_sum "Si O2"
_cell_formula_units_Z 60
_cell_length_a 22.032518
_cell_length_b 21.524336
_cell_length_c 5.280676
_cell_angle_alpha 90.000000
_cell_angle_beta 90.000000
_cell_angle_gamma 90.000000
_cell_volume 2504.283075
_symmetry_space_group_name_H-M "P C C A"
_symmetry_group_IT_number 54
_symmetry_cell_setting 'orthorhombic'
loop_
_space_group_symop_operation_xyz
x,y,z
1/2-x,-y,z
1/2+x,-y,1/2-z
-x,y,1/2-z
-x,-y,-z
1/2+x,y,-z
1/2-x,y,1/2+z
x,-y,1/2+z
loop_
_atom_site_type_symbol
_atom_site_label
_atom_site_fract_x
_atom_site_fract_y
_atom_site_fract_z
Si Si1 0.562329 0.229189 0.666259
Si Si2 0.834654 0.762571 0.057538
Si Si3 0.123248 0.873991 0.177857
Si Si4 0.573199 0.536841 0.728959
Si Si5 0.282534 0.344088 0.704545
Si Si6 0.180983 0.976805 0.851542
Si Si7 0.000000 0.044301 0.750000
Si Si8 0.114280 0.336011 0.566135
O O1 0.500000 0.200669 0.750000
O O2 0.596264 0.181213 0.490203
O O3 0.557291 0.294704 0.521823
O O4 0.601258 0.241403 0.913872
O O5 0.833548 0.835087 0.129204
O O6 0.842403 0.713592 0.288576
O O7 0.787633 0.730919 0.860964
O O8 0.167179 0.914195 0.998539
O O9 0.062235 0.913607 0.250475
O O10 0.500000 0.540283 0.750000
O O11 0.592004 0.505710 0.466633
O O12 0.598104 0.605752 0.767127
O O13 0.259565 0.367744 0.434479
O O14 0.348945 0.357573 0.816956
O O15 0.250000 0.000000 0.813276
O O16 0.154683 0.023698 0.067702
O O17 0.000000 0.000000 0.500000
#
# Coordination Sequence:
#
# PCOD9423359 Si02
#       8
#     8   8   8   8   8   8   4   8
#     4  10  23  38  66 102 140 180 225 290 347 421
#     4  10  23  41  66 102 134 180 226 293 355 419
#     4  11  24  43  66  96 139 169 236 285 351 434
#     4  10  24  41  66 103 146 191 236 281 341 418
#     4  11  22  43  67  98 135 179 231 286 358 414
#     4  10  23  45  67  91 122 168 216 277 341 408
#     4  12  28  44  70  94 128 190 226 282 356 426
#     4  10  23  41  68 101 140 188 235 288 355 419
#
# _framework density 23.958953999999999
#
# number of rings (size 3 to 8) (size 9 to 14) (size 15 to 20)
#    0.000    1.600    1.333    1.600   10.267    1.600 
#    4.800    0.000    0.000    2.400    0.000    0.000 
#    0.000    0.000    0.000    0.000    0.000    0.000 
#
# Total GULP energy -334566.824191 kJ/mol
# GULP energy per Si atom -5576.113737 kJ/mol
# Density = 2.390442 g / cm^3
# Si number density = 23.958954 Si / 1000 Ang^3
#
#
#
# Elastic Constant Matrix: (Units=GPa)
#
#
# Indices 1 2 3 4 5 6 
#
# 1 51.3511 23.7781 20.0913 0.0000 0.0000 0.0000
# 2 23.7781 115.6368 23.4759 0.0000 0.0000 0.0000
# 3 20.0913 23.4759 125.3653 0.0000 0.0000 0.0000
# 4 0.0000 0.0000 0.0000 34.9551 0.0000 0.0000
# 5 0.0000 0.0000 0.0000 0.0000 30.2633 0.0000
# 6 0.0000 0.0000 0.0000 0.0000 0.0000 16.0916
#
#
#
# Elastic Compliance Matrix: (Units=1/GPa)
#
#
# Indices 1 2 3 4 5 6 
#
# 1 0.022457 -0.004041 -0.002842 0.000000 0.000000 0.000000
# 2 -0.004041 0.009717 -0.001172 0.000000 0.000000 0.000000
# 3 -0.002842 -0.001172 0.008652 0.000000 0.000000 0.000000
# 4 0.000000 0.000000 0.000000 0.028608 0.000000 0.000000
# 5 0.000000 0.000000 0.000000 0.000000 0.033043 0.000000
# 6 0.000000 0.000000 0.000000 0.000000 0.000000 0.062144
#
#
# Mechanical properties :
#
#
# Convention : Reuss Voigt Hill
#
# Bulk Modulus (GPa) = 40.46103 47.44932 43.95517
# Shear Modulus (GPa) = 26.45935 31.26253 28.86094
#
# Velocity S-wave (km/s) = 3.32680 3.61617 3.47450
# Velocity P-wave (km/s) = 5.62860 6.10598 5.87214
#
# Compressibility (1/GPa) = 0.02471514
#
# Stress axis : x y z
#
# Youngs Moduli (GPa) = 44.52971 102.91694 115.58465
#
# Poissons Ratio (x) = 0.41586 0.32853
# Poissons Ratio (y) = 0.17993 0.13546
# Poissons Ratio (z) = 0.12657 0.12061
#
# Static dielectric constant tensor:
#      x y z
#    x 1.986920 0.000000 0.000000 
#    y 0.000000 1.991980 0.000000 
#    z 0.000000 0.000000 1.989280 
# 
# From -- ./inp_files/1703.got.cif
#   From: 2010.05.17/outbox.cif.g08.bks.cpg/sg54_1_cif.got.tgz:1703.got - 2010.06.03 13:09:01.
