data_PCOD9423779
_publ_section_title
;
Structure prediction by ZEFSAII (Michael W. Deem and Ramdas Pophale) SiO2 
 PCOD9423779
Probable space group: P C C A
;
_chemical_formula_sum "Si O2"
_cell_formula_units_Z 32
_cell_length_a 15.982749
_cell_length_b 10.802620
_cell_length_c 7.656614
_cell_angle_alpha 90.000000
_cell_angle_beta 90.000000
_cell_angle_gamma 90.000000
_cell_volume 1321.957009
_symmetry_space_group_name_H-M "P C C A"
_symmetry_group_IT_number 54
_symmetry_cell_setting 'orthorhombic'
loop_
_space_group_symop_operation_xyz
x,y,z
1/2-x,-y,z
1/2+x,-y,1/2-z
-x,y,1/2-z
-x,-y,-z
1/2+x,y,-z
1/2-x,y,1/2+z
x,-y,1/2+z
loop_
_atom_site_type_symbol
_atom_site_label
_atom_site_fract_x
_atom_site_fract_y
_atom_site_fract_z
Si Si1 0.093633 0.735477 0.453266
Si Si2 0.595120 0.736573 0.955120
Si Si3 0.746429 0.864135 0.115339
Si Si4 0.684773 0.388853 0.748899
O O1 0.091640 0.702042 0.248323
O O2 0.162223 0.844189 0.469826
O O3 0.129263 0.629269 0.579498
O O4 0.263211 0.739860 0.268377
O O5 0.627145 0.624648 0.077729
O O6 0.500338 0.770508 0.006187
O O7 0.662168 0.845147 0.998829
O O8 0.750000 0.000000 0.195675
O O9 0.750000 0.500000 0.751950
#
# Coordination Sequence:
#
# PCOD9423779 Si02
#       4
#     8   8   8   8
#     4  11  21  45  75 108 153 200 254 314 383 453
#     4   9  24  43  73 114 149 200 256 316 378 458
#     4  10  24  46  75 110 153 204 255 317 380 444
#     4  10  24  45  73 109 150 199 251 314 384 457
#
# _framework density 24.206536
#
# number of rings (size 3 to 8) (size 9 to 14) (size 15 to 20)
#    1.500    0.500    0.000    2.250    0.000    7.000 
#    0.000    3.750   11.000    0.000    0.000    0.000 
#    0.000    0.000    0.000    0.000    0.000    0.000 
#
# Total GULP energy -178428.771497 kJ/mol
# GULP energy per Si atom -5575.899109 kJ/mol
# Density = 2.415144 g / cm^3
# Si number density = 24.206536 Si / 1000 Ang^3
#
#
#
# Elastic Constant Matrix: (Units=GPa)
#
#
# Indices 1 2 3 4 5 6 
#
# 1 247.4935 75.1608 54.9255 0.0000 0.0000 0.0000
# 2 75.1608 162.0310 58.1338 0.0000 0.0000 0.0000
# 3 54.9255 58.1338 96.8851 0.0000 0.0000 0.0000
# 4 0.0000 0.0000 0.0000 23.0346 0.0000 0.0000
# 5 0.0000 0.0000 0.0000 0.0000 39.8743 0.0000
# 6 0.0000 0.0000 0.0000 0.0000 0.0000 18.0809
#
#
#
# Elastic Compliance Matrix: (Units=1/GPa)
#
#
# Indices 1 2 3 4 5 6 
#
# 1 0.004942 -0.001640 -0.001817 0.000000 0.000000 0.000000
# 2 -0.001640 0.008409 -0.004116 0.000000 0.000000 0.000000
# 3 -0.001817 -0.004116 0.013821 0.000000 0.000000 0.000000
# 4 0.000000 0.000000 0.000000 0.043413 0.000000 0.000000
# 5 0.000000 0.000000 0.000000 0.000000 0.025079 0.000000
# 6 0.000000 0.000000 0.000000 0.000000 0.000000 0.055307
#
#
# Mechanical properties :
#
#
# Convention : Reuss Voigt Hill
#
# Bulk Modulus (GPa) = 83.15708 98.09445 90.62576
# Shear Modulus (GPa) = 29.38980 37.41062 33.40021
#
# Velocity S-wave (km/s) = 3.48821 3.93552 3.71860
# Velocity P-wave (km/s) = 7.11697 7.82707 7.48045
#
# Compressibility (1/GPa) = 0.01202543
#
# Stress axis : x y z
#
# Youngs Moduli (GPa) = 202.34698 118.91649 72.35136
#
# Poissons Ratio (x) = 0.19507 0.13149
# Poissons Ratio (y) = 0.33192 0.29779
# Poissons Ratio (z) = 0.36775 0.48944
#
# Static dielectric constant tensor:
#      x y z
#    x 1.966050 0.000000 0.000000 
#    y 0.000000 1.905710 0.000000 
#    z 0.000000 0.000000 2.069420 
# 
# From -- ./inp_files/7245.got.cif
#   From: 2010.05.17/outbox.cif.g08.bks.cpg/sg54_4_cif.got.tgz:7245.got - 2010.06.03 13:09:01.
