data_PCOD9423327
_publ_section_title
;
Structure prediction by ZEFSAII (Michael W. Deem and Ramdas Pophale) SiO2 
 PCOD9423327
Probable space group: P C C A
;
_chemical_formula_sum "Si O2"
_cell_formula_units_Z 56
_cell_length_a 19.690898
_cell_length_b 11.339706
_cell_length_c 10.596082
_cell_angle_alpha 90.000000
_cell_angle_beta 90.000000
_cell_angle_gamma 90.000000
_cell_volume 2365.988492
_symmetry_space_group_name_H-M "P C C A"
_symmetry_group_IT_number 54
_symmetry_cell_setting 'orthorhombic'
loop_
_space_group_symop_operation_xyz
x,y,z
1/2-x,-y,z
1/2+x,-y,1/2-z
-x,y,1/2-z
-x,-y,-z
1/2+x,y,-z
1/2-x,y,1/2+z
x,-y,1/2+z
loop_
_atom_site_type_symbol
_atom_site_label
_atom_site_fract_x
_atom_site_fract_y
_atom_site_fract_z
Si Si1 0.970351 0.759380 0.608846
Si Si2 0.901650 0.627585 0.996569
Si Si3 0.632884 0.633024 0.968845
Si Si4 0.066730 0.008653 0.337384
Si Si5 0.737966 0.742459 0.433399
Si Si6 0.212259 0.877910 0.817295
Si Si7 0.420193 0.748558 0.770721
O O1 0.900959 0.685541 0.595364
O O2 0.960833 0.894722 0.560706
O O3 0.000000 0.763046 0.750000
O O4 0.026985 0.688766 0.532552
O O5 0.897978 0.495127 0.947804
O O6 0.839616 0.704900 0.947530
O O7 0.894525 0.638695 0.147062
O O8 0.612610 0.731448 0.865417
O O9 0.713425 0.631142 0.959854
O O10 0.132832 0.085738 0.295396
O O11 0.000000 0.996380 0.250000
O O12 0.092364 0.873454 0.342487
O O13 0.766501 0.830228 0.543334
O O14 0.740472 0.793298 0.292190
O O15 0.250000 0.000000 0.800979
O O16 0.500000 0.737152 0.750000
#
# Coordination Sequence:
#
# PCOD9423327 Si02
#       7
#     8   8   8   8   8   8   8
#     4  11  24  45  71 104 135 187 237 287 354 417
#     4  12  27  44  73 101 143 190 234 294 349 428
#     4  12  26  46  72 101 145 189 236 293 347 430
#     4  10  22  46  73 106 142 181 238 302 353 427
#     4  12  26  46  68 105 143 186 244 288 365 424
#     4  12  25  46  74 102 146 189 237 299 363 437
#     4  11  25  46  69 109 140 182 237 293 360 413
#
# _framework density 23.668754
#
# number of rings (size 3 to 8) (size 9 to 14) (size 15 to 20)
#    0.000    0.571    2.857    5.571    2.000    0.571 
#    5.143    2.857    0.000    0.000    0.000    0.000 
#    0.000    0.000    0.000    0.000    0.000    0.000 
#
# Total GULP energy -312398.319348 kJ/mol
# GULP energy per Si atom -5578.541417 kJ/mol
# Density = 2.361488 g / cm^3
# Si number density = 23.668754 Si / 1000 Ang^3
#
#
#
# Elastic Constant Matrix: (Units=GPa)
#
#
# Indices 1 2 3 4 5 6 
#
# 1 88.5678 20.8058 -11.2613 0.0000 0.0000 0.0000
# 2 20.8058 115.8579 10.3571 0.0000 0.0000 0.0000
# 3 -11.2613 10.3571 68.4838 0.0000 0.0000 0.0000
# 4 0.0000 0.0000 0.0000 21.8271 0.0000 0.0000
# 5 0.0000 0.0000 0.0000 0.0000 17.8974 0.0000
# 6 0.0000 0.0000 0.0000 0.0000 0.0000 21.8698
#
#
#
# Elastic Compliance Matrix: (Units=1/GPa)
#
#
# Indices 1 2 3 4 5 6 
#
# 1 0.012153 -0.002393 0.002360 0.000000 0.000000 0.000000
# 2 -0.002393 0.009221 -0.001788 0.000000 0.000000 0.000000
# 3 0.002360 -0.001788 0.015261 0.000000 0.000000 0.000000
# 4 0.000000 0.000000 0.000000 0.045815 0.000000 0.000000
# 5 0.000000 0.000000 0.000000 0.000000 0.055874 0.000000
# 6 0.000000 0.000000 0.000000 0.000000 0.000000 0.045725
#
#
# Mechanical properties :
#
#
# Convention : Reuss Voigt Hill
#
# Bulk Modulus (GPa) = 30.31007 34.74584 32.52796
# Shear Modulus (GPa) = 25.16504 29.18605 27.17554
#
# Velocity S-wave (km/s) = 3.26424 3.51537 3.39213
# Velocity P-wave (km/s) = 5.20007 5.58471 5.39582
#
# Compressibility (1/GPa) = 0.03299234
#
# Stress axis : x y z
#
# Youngs Moduli (GPa) = 82.28310 108.44899 65.52840
#
# Poissons Ratio (x) = 0.25957 -0.15467
# Poissons Ratio (y) = 0.19694 0.11717
# Poissons Ratio (z) = -0.19422 0.19392
#
# Static dielectric constant tensor:
#      x y z
#    x 1.955120 0.000000 0.000000 
#    y 0.000000 1.918760 0.000000 
#    z 0.000000 0.000000 1.944300 
# 
# From -- ./inp_files/9531.got.cif
#   From: 2010.05.17/outbox.cif.g08.bks.cpg/sg54_5_cif.got.tgz:9531.got - 2010.06.03 13:09:01.
