data_PCOD9423443
_publ_section_title
;
Structure prediction by ZEFSAII (Michael W. Deem and Ramdas Pophale) SiO2 
 PCOD9423443
Probable space group: P C C A
;
_chemical_formula_sum "Si O2"
_cell_formula_units_Z 40
_cell_length_a 9.287241
_cell_length_b 14.011341
_cell_length_c 13.173324
_cell_angle_alpha 90.000000
_cell_angle_beta 90.000000
_cell_angle_gamma 90.000000
_cell_volume 1714.201188
_symmetry_space_group_name_H-M "P C C A"
_symmetry_group_IT_number 54
_symmetry_cell_setting 'orthorhombic'
loop_
_space_group_symop_operation_xyz
x,y,z
1/2-x,-y,z
1/2+x,-y,1/2-z
-x,y,1/2-z
-x,-y,-z
1/2+x,y,-z
1/2-x,y,1/2+z
x,-y,1/2+z
loop_
_atom_site_type_symbol
_atom_site_label
_atom_site_fract_x
_atom_site_fract_y
_atom_site_fract_z
Si Si1 0.983071 0.701898 0.488279
Si Si2 0.790031 0.897279 0.770771
Si Si3 0.021119 0.904672 0.930084
Si Si4 0.709584 0.389236 0.872782
Si Si5 0.148738 0.287891 0.792923
O O1 0.935801 0.811321 0.507916
O O2 0.056204 0.641044 0.578936
O O3 0.118526 0.709106 0.410743
O O4 0.843592 0.654388 0.437461
O O5 0.886029 0.863386 0.864967
O O6 0.670658 0.820350 0.744719
O O7 0.870309 0.919833 0.664124
O O8 0.750000 0.000000 0.810686
O O9 0.000000 0.000000 0.000000
O O10 0.750000 0.500000 0.869090
O O11 0.723414 0.345389 0.759263
O O12 0.000000 0.328445 0.750000
#
# Coordination Sequence:
#
# PCOD9423443 Si02
#       5
#     8   8   8   8   8
#     4  11  23  44  71  98 136 180 225 281 345 404
#     4  11  24  40  64  96 134 176 222 272 329 401
#     4  11  25  41  66 100 133 179 222 270 331 410
#     4  11  24  44  68 100 132 174 229 287 343 403
#     4  10  23  42  65  93 132 174 217 276 337 400
#
# _framework density 23.334484
#
# number of rings (size 3 to 8) (size 9 to 14) (size 15 to 20)
#    0.000    1.200    2.000    3.000    8.400    3.200 
#    0.000    8.000    0.000    0.000    0.000    0.000 
#    0.000    0.000    0.000    0.000    0.000    0.000 
#
# Total GULP energy -223079.619512 kJ/mol
# GULP energy per Si atom -5576.990488 kJ/mol
# Density = 2.328137 g / cm^3
# Si number density = 23.334484 Si / 1000 Ang^3
#
#
#
# Elastic Constant Matrix: (Units=GPa)
#
#
# Indices 1 2 3 4 5 6 
#
# 1 52.4348 -9.0378 15.1876 0.0000 0.0000 0.0000
# 2 -9.0378 110.0121 -7.5806 0.0000 0.0000 0.0000
# 3 15.1876 -7.5806 58.1624 0.0000 0.0000 0.0000
# 4 0.0000 0.0000 0.0000 65.5066 0.0000 0.0000
# 5 0.0000 0.0000 0.0000 0.0000 4.0525 0.0000
# 6 0.0000 0.0000 0.0000 0.0000 0.0000 28.3586
#
#
#
# Elastic Compliance Matrix: (Units=1/GPa)
#
#
# Indices 1 2 3 4 5 6 
#
# 1 0.020828 0.001348 -0.005263 0.000000 0.000000 0.000000
# 2 0.001348 0.009260 0.000855 0.000000 0.000000 0.000000
# 3 -0.005263 0.000855 0.018679 0.000000 0.000000 0.000000
# 4 0.000000 0.000000 0.000000 0.015266 0.000000 0.000000
# 5 0.000000 0.000000 0.000000 0.000000 0.246760 0.000000
# 6 0.000000 0.000000 0.000000 0.000000 0.000000 0.035263
#
#
# Mechanical properties :
#
#
# Convention : Reuss Voigt Hill
#
# Bulk Modulus (GPa) = 23.44828 24.19419 23.82123
# Shear Modulus (GPa) = 13.64666 34.38621 24.01644
#
# Velocity S-wave (km/s) = 2.42095 3.84294 3.21163
# Velocity P-wave (km/s) = 4.22909 5.48470 4.89730
#
# Compressibility (1/GPa) = 0.04264705
#
# Stress axis : x y z
#
# Youngs Moduli (GPa) = 48.01197 107.99621 53.53625
#
# Poissons Ratio (x) = -0.14563 0.28176
# Poissons Ratio (y) = -0.06474 -0.04576
# Poissons Ratio (z) = 0.25269 -0.09231
#
# Static dielectric constant tensor:
#      x y z
#    x 1.646040 0.000000 0.000000 
#    y 0.000000 1.241010 0.000000 
#    z 0.000000 0.000000 1.952440 
# 
# From -- ./inp_files/11504.got.cif
#   From: 2010.05.17/outbox.cif.g08.bks.cpg/sg54_6_cif.got.tgz:11504.got - 2010.06.03 13:09:01.
