data_PCOD9423255
_publ_section_title
;
Structure prediction by ZEFSAII (Michael W. Deem and Ramdas Pophale) SiO2 
 PCOD9423255
Probable space group: P C C A
;
_chemical_formula_sum "Si O2"
_cell_formula_units_Z 64
_cell_length_a 26.130799
_cell_length_b 5.988921
_cell_length_c 19.607738
_cell_angle_alpha 90.000000
_cell_angle_beta 90.000000
_cell_angle_gamma 90.000000
_cell_volume 3068.518662
_symmetry_space_group_name_H-M "P C C A"
_symmetry_group_IT_number 54
_symmetry_cell_setting 'orthorhombic'
loop_
_space_group_symop_operation_xyz
x,y,z
1/2-x,-y,z
1/2+x,-y,1/2-z
-x,y,1/2-z
-x,-y,-z
1/2+x,y,-z
1/2-x,y,1/2+z
x,-y,1/2+z
loop_
_atom_site_type_symbol
_atom_site_label
_atom_site_fract_x
_atom_site_fract_y
_atom_site_fract_z
Si Si1 0.276663 0.746344 0.368241
Si Si2 0.578589 0.350378 0.317796
Si Si3 0.855472 0.175654 0.012001
Si Si4 0.957224 0.900535 0.050599
Si Si5 0.354038 0.739106 0.246693
Si Si6 0.923712 0.563237 0.950445
Si Si7 0.045565 0.989394 0.290596
Si Si8 0.356444 0.044814 0.614946
O O1 0.250000 0.500000 0.378493
O O2 0.316253 0.770578 0.429829
O O3 0.310142 0.708440 0.300801
O O4 0.250000 0.000000 0.363579
O O5 0.618449 0.522501 0.284562
O O6 0.549075 0.459294 0.382915
O O7 0.551634 0.235597 0.253941
O O8 0.608583 0.150294 0.354508
O O9 0.882352 0.391314 0.979611
O O10 0.827275 0.049136 0.949915
O O11 0.902813 0.025163 0.038974
O O12 0.967932 0.937797 0.130795
O O13 0.951860 0.654168 0.017763
O O14 0.000000 0.000000 0.000000
O O15 0.400770 0.880465 0.280983
O O16 0.329444 0.858940 0.180820
O O17 0.894347 0.770145 0.916001
O O18 0.000000 0.116777 0.250000
#
# Coordination Sequence:
#
# PCOD9423255 Si02
#       8
#     8   8   8   8   8   8   8   8
#     4  12  30  48  79 111 146 194 258 312 383 456
#     4   9  20  39  67  97 130 186 234 295 369 431
#     4  10  22  44  70 103 138 188 234 312 368 443
#     4  11  25  39  66  99 147 189 244 297 373 454
#     4  10  22  44  71  99 144 188 236 311 368 440
#     4   9  20  39  69  94 135 181 235 292 369 434
#     4  11  25  39  64 100 146 189 246 298 373 452
#     4   8  18  38  72  92 131 175 229 281 377 422
#
# _framework density 20.856971999999999
#
# number of rings (size 3 to 8) (size 9 to 14) (size 15 to 20)
#    0.000    2.000    1.250    0.000   19.250    1.000 
#    0.000    0.625    0.000    0.000    0.000    0.000 
#    0.000    0.000    0.000    0.000    0.000    0.000 
#
# Total GULP energy -356293.219336 kJ/mol
# GULP energy per Si atom -5567.081552 kJ/mol
# Density = 2.080950 g / cm^3
# Si number density = 20.856972 Si / 1000 Ang^3
#
#
#
# Elastic Constant Matrix: (Units=GPa)
#
#
# Indices 1 2 3 4 5 6 
#
# 1 72.2594 33.4430 48.6977 0.0000 0.0000 0.0000
# 2 33.4430 94.6539 41.0814 0.0000 0.0000 0.0000
# 3 48.6977 41.0814 194.2142 0.0000 0.0000 0.0000
# 4 0.0000 0.0000 0.0000 24.3489 0.0000 0.0000
# 5 0.0000 0.0000 0.0000 0.0000 35.1545 0.0000
# 6 0.0000 0.0000 0.0000 0.0000 0.0000 22.1787
#
#
#
# Elastic Compliance Matrix: (Units=1/GPa)
#
#
# Indices 1 2 3 4 5 6 
#
# 1 0.018581 -0.005002 -0.003601 0.000000 0.000000 0.000000
# 2 -0.005002 0.012979 -0.001491 0.000000 0.000000 0.000000
# 3 -0.003601 -0.001491 0.006367 0.000000 0.000000 0.000000
# 4 0.000000 0.000000 0.000000 0.041070 0.000000 0.000000
# 5 0.000000 0.000000 0.000000 0.000000 0.028446 0.000000
# 6 0.000000 0.000000 0.000000 0.000000 0.000000 0.045088
#
#
# Mechanical properties :
#
#
# Convention : Reuss Voigt Hill
#
# Bulk Modulus (GPa) = 56.37302 67.50799 61.94051
# Shear Modulus (GPa) = 27.99037 32.19677 30.09357
#
# Velocity S-wave (km/s) = 3.66733 3.93325 3.80261
# Velocity P-wave (km/s) = 6.70965 7.28455 7.00300
#
# Compressibility (1/GPa) = 0.01773898
#
# Stress axis : x y z
#
# Youngs Moduli (GPa) = 53.81875 77.04530 157.05253
#
# Poissons Ratio (x) = 0.38539 0.56554
# Poissons Ratio (y) = 0.26921 0.23420
# Poissons Ratio (z) = 0.19380 0.11489
#
# Static dielectric constant tensor:
#      x y z
#    x 1.755450 0.000000 0.000000 
#    y 0.000000 1.854090 0.000000 
#    z 0.000000 0.000000 1.763100 
# 
# From -- ./inp_files/19350.got.cif
#   From: 2010.05.17/outbox.cif.g08.bks.cpg/sg54_10_cif.got.tgz:19350.got - 2010.06.03 13:09:01.
