data_PCOD9423805
_publ_section_title
;
Structure prediction by ZEFSAII (Michael W. Deem and Ramdas Pophale) SiO2 
 PCOD9423805
Probable space group: P C C A
;
_chemical_formula_sum "Si O2"
_cell_formula_units_Z 36
_cell_length_a 15.084893
_cell_length_b 10.983265
_cell_length_c 9.075534
_cell_angle_alpha 90.000000
_cell_angle_beta 90.000000
_cell_angle_gamma 90.000000
_cell_volume 1503.646973
_symmetry_space_group_name_H-M "P C C A"
_symmetry_group_IT_number 54
_symmetry_cell_setting 'orthorhombic'
loop_
_space_group_symop_operation_xyz
x,y,z
1/2-x,-y,z
1/2+x,-y,1/2-z
-x,y,1/2-z
-x,-y,-z
1/2+x,y,-z
1/2-x,y,1/2+z
x,-y,1/2+z
loop_
_atom_site_type_symbol
_atom_site_label
_atom_site_fract_x
_atom_site_fract_y
_atom_site_fract_z
Si Si1 0.389270 0.162767 0.373274
Si Si2 0.325356 0.595945 0.581226
Si Si3 0.409896 0.950799 0.170815
Si Si4 0.211060 0.749708 0.818408
Si Si5 0.000000 0.623603 0.250000
O O1 0.419030 0.071157 0.498698
O O2 0.289397 0.193273 0.414841
O O3 0.448355 0.283286 0.359856
O O4 0.390287 0.089377 0.219211
O O5 0.250000 0.500000 0.531940
O O6 0.268468 0.670054 0.703228
O O7 0.346688 0.671336 0.432755
O O8 0.418742 0.558852 0.661049
O O9 0.500000 0.916158 0.250000
O O10 0.339002 0.857639 0.237630
#
# Coordination Sequence:
#
# PCOD9423805 Si02
#       5
#     8   8   8   8   4
#     4  11  24  41  65 104 139 191 223 277 347 417
#     4  11  24  48  71  99 132 184 238 299 354 412
#     4  12  24  39  66 101 141 180 227 274 345 421
#     4  11  24  43  68  97 142 176 236 286 345 415
#     4  10  24  46  74 100 146 180 232 296 356 414
#
# _framework density 23.941789
#
# number of rings (size 3 to 8) (size 9 to 14) (size 15 to 20)
#    0.000    0.889    3.333    3.333    6.222    1.778 
#    2.000    5.556    0.000    0.000    0.000    0.000 
#    0.000    0.000    0.000    0.000    0.000    0.000 
#
# Total GULP energy -201101.205916 kJ/mol
# GULP energy per Si atom -5586.144609 kJ/mol
# Density = 2.388730 g / cm^3
# Si number density = 23.941789 Si / 1000 Ang^3
#
#
#
# Elastic Constant Matrix: (Units=GPa)
#
#
# Indices 1 2 3 4 5 6 
#
# 1 115.7624 1.8413 -7.4782 0.0000 0.0000 0.0000
# 2 1.8413 24.7546 -2.4855 0.0000 0.0000 0.0000
# 3 -7.4782 -2.4855 75.2477 0.0000 0.0000 0.0000
# 4 0.0000 0.0000 0.0000 16.4541 0.0000 0.0000
# 5 0.0000 0.0000 0.0000 0.0000 13.3370 0.0000
# 6 0.0000 0.0000 0.0000 0.0000 0.0000 38.1513
#
#
#
# Elastic Compliance Matrix: (Units=1/GPa)
#
#
# Indices 1 2 3 4 5 6 
#
# 1 0.008702 -0.000562 0.000846 0.000000 0.000000 0.000000
# 2 -0.000562 0.040567 0.001284 0.000000 0.000000 0.000000
# 3 0.000846 0.001284 0.013416 0.000000 0.000000 0.000000
# 4 0.000000 0.000000 0.000000 0.060775 0.000000 0.000000
# 5 0.000000 0.000000 0.000000 0.000000 0.074979 0.000000
# 6 0.000000 0.000000 0.000000 0.000000 0.000000 0.026211
#
#
# Mechanical properties :
#
#
# Convention : Reuss Voigt Hill
#
# Bulk Modulus (GPa) = 15.19265 22.16888 18.68076
# Shear Modulus (GPa) = 20.53764 28.51428 24.52596
#
# Velocity S-wave (km/s) = 2.93203 3.45481 3.20410
# Velocity P-wave (km/s) = 4.22159 5.01935 4.63765
#
# Compressibility (1/GPa) = 0.06582129
#
# Stress axis : x y z
#
# Youngs Moduli (GPa) = 114.91615 24.65041 74.53811
#
# Poissons Ratio (x) = 0.01386 -0.06308
# Poissons Ratio (y) = 0.06462 -0.09571
# Poissons Ratio (z) = -0.09725 -0.03165
#
# Static dielectric constant tensor:
#      x y z
#    x 1.992490 0.000000 0.000000 
#    y 0.000000 2.013480 0.000000 
#    z 0.000000 0.000000 2.031120 
# 
# From -- ./inp_files/8159.got.cif
#   From: 2010.05.17/outbox.cif.g08.bks.cpg/sg54_5_cif.got.tgz:8159.got - 2010.06.03 13:09:01.
