data_PCOD9423507
_publ_section_title
;
Structure prediction by ZEFSAII (Michael W. Deem and Ramdas Pophale) SiO2 
 PCOD9423507
Probable space group: P C C A
;
_chemical_formula_sum "Si O2"
_cell_formula_units_Z 32
_cell_length_a 11.109832
_cell_length_b 4.900020
_cell_length_c 24.438934
_cell_angle_alpha 90.000000
_cell_angle_beta 90.000000
_cell_angle_gamma 90.000000
_cell_volume 1330.416440
_symmetry_space_group_name_H-M "P C C A"
_symmetry_group_IT_number 54
_symmetry_cell_setting 'orthorhombic'
loop_
_space_group_symop_operation_xyz
x,y,z
1/2-x,-y,z
1/2+x,-y,1/2-z
-x,y,1/2-z
-x,-y,-z
1/2+x,y,-z
1/2-x,y,1/2+z
x,-y,1/2+z
loop_
_atom_site_type_symbol
_atom_site_label
_atom_site_fract_x
_atom_site_fract_y
_atom_site_fract_z
Si Si1 0.500000 0.291823 0.750000
Si Si2 0.035279 0.761110 0.629908
Si Si3 0.250000 0.000000 0.561853
Si Si4 0.750000 0.500000 0.011065
Si Si5 0.250000 0.500000 0.798318
Si Si6 0.892669 0.244676 0.608336
O O1 0.471138 0.144245 0.693064
O O2 0.370384 0.435182 0.763608
O O3 0.154545 0.848863 0.600012
O O4 0.003186 0.442712 0.626365
O O5 0.931116 0.935368 0.601129
O O6 0.300197 0.751097 0.524971
O O7 0.654480 0.362311 0.051572
O O8 0.297833 0.722100 0.842170
#
# Coordination Sequence:
#
# PCOD9423507 Si02
#       6
#     4   8   4   4   4   8
#     4  10  24  44  72 100 142 182 220 282 340 392
#     4  11  25  42  65  98 135 175 225 278 334 408
#     4  12  26  40  64 102 130 166 226 286 342 390
#     4  11  24  43  68  94 132 175 222 287 344 392
#     4   9  22  43  70 102 132 179 230 273 332 404
#     4  10  23  44  66  93 131 180 228 264 331 422
#
# _framework density 24.052619
#
# number of rings (size 3 to 8) (size 9 to 14) (size 15 to 20)
#    0.000    1.500    0.000    3.000    0.000   25.000 
#    0.000    0.000    0.000    0.000    0.000    0.000 
#    0.000    0.000    0.000    0.000    0.000    0.000 
#
# Total GULP energy -178765.040155 kJ/mol
# GULP energy per Si atom -5586.407505 kJ/mol
# Density = 2.399787 g / cm^3
# Si number density = 24.052619 Si / 1000 Ang^3
#
#
#
# Elastic Constant Matrix: (Units=GPa)
#
#
# Indices 1 2 3 4 5 6 
#
# 1 135.6388 27.2578 48.7406 0.0000 0.0000 0.0000
# 2 27.2578 96.3558 32.2409 0.0000 0.0000 0.0000
# 3 48.7406 32.2409 138.3750 0.0000 0.0000 0.0000
# 4 0.0000 0.0000 0.0000 -51.6385 0.0000 0.0000
# 5 0.0000 0.0000 0.0000 0.0000 -178.6966 0.0000
# 6 0.0000 0.0000 0.0000 0.0000 0.0000 35.6047
#
#
#
# Elastic Compliance Matrix: (Units=1/GPa)
#
#
# Indices 1 2 3 4 5 6 
#
# 1 0.008649 -0.001548 -0.002686 0.000000 0.000000 0.000000
# 2 -0.001548 0.011533 -0.002142 0.000000 0.000000 0.000000
# 3 -0.002686 -0.002142 0.008672 0.000000 0.000000 0.000000
# 4 0.000000 0.000000 0.000000 -0.019365 0.000000 0.000000
# 5 0.000000 0.000000 0.000000 0.000000 -0.005596 0.000000
# 6 0.000000 0.000000 0.000000 0.000000 0.000000 0.028086
#
#
# Mechanical properties :
#
#
# Convention : Reuss Voigt Hill
#
# Bulk Modulus (GPa) = 62.10328 65.20537 63.65432
# Shear Modulus (GPa) = 99.80763 -21.47073 39.16845
#
# Velocity S-wave (km/s) = 6.44869 -2.99098 4.03978
# Velocity P-wave (km/s) = 9.01794 3.90389 6.94851
#
# Compressibility (1/GPa) = 0.01610221
#
# Stress axis : x y z
#
# Youngs Moduli (GPa) = 115.62457 86.70942 115.31650
#
# Poissons Ratio (x) = 0.13422 0.30971
# Poissons Ratio (y) = 0.17898 0.24699
# Poissons Ratio (z) = 0.31053 0.18572
#
# Static dielectric constant tensor:
#      x y z
#    x 1.929410 0.000000 0.000000 
#    y 0.000000 2.277210 0.000000 
#    z 0.000000 0.000000 1.913040 
# 
# From -- ./inp_files/20910.got.cif
#   From: 2010.05.17/outbox.cif.g08.bks.cpg/sg54_11_cif.got.tgz:20910.got - 2010.06.03 13:09:01.
