data_PCOD9423980
_publ_section_title
;
Structure prediction by ZEFSAII (Michael W. Deem and Ramdas Pophale) SiO2 
 PCOD9423980
Probable space group: P C C A
;
_chemical_formula_sum "Si O2"
_cell_formula_units_Z 48
_cell_length_a 8.964893
_cell_length_b 15.867507
_cell_length_c 16.078388
_cell_angle_alpha 90.000000
_cell_angle_beta 90.000000
_cell_angle_gamma 90.000000
_cell_volume 2287.158771
_symmetry_space_group_name_H-M "P C C A"
_symmetry_group_IT_number 54
_symmetry_cell_setting 'orthorhombic'
loop_
_space_group_symop_operation_xyz
x,y,z
1/2-x,-y,z
1/2+x,-y,1/2-z
-x,y,1/2-z
-x,-y,-z
1/2+x,y,-z
1/2-x,y,1/2+z
x,-y,1/2+z
loop_
_atom_site_type_symbol
_atom_site_label
_atom_site_fract_x
_atom_site_fract_y
_atom_site_fract_z
Si Si1 0.883762 0.142203 0.812294
Si Si2 0.149818 0.417776 0.691697
Si Si3 0.799146 0.729095 0.708071
Si Si4 0.248259 0.091770 0.025038
Si Si5 0.473332 0.796041 0.429754
Si Si6 0.531616 0.700053 0.589191
O O1 0.760178 0.186716 0.754525
O O2 0.840038 0.084812 0.889070
O O3 0.960160 0.222366 0.858094
O O4 0.000000 0.100382 0.750000
O O5 0.250000 0.500000 0.681643
O O6 0.262953 0.347241 0.729330
O O7 0.072812 0.379095 0.609787
O O8 0.000000 0.428553 0.750000
O O9 0.949551 0.755967 0.660633
O O10 0.694261 0.697620 0.630274
O O11 0.093639 0.130318 0.056941
O O12 0.250000 0.000000 0.984930
O O13 0.322625 0.159854 0.963889
O O14 0.524719 0.724090 0.493608
#
# Coordination Sequence:
#
# PCOD9423980 Si02
#       6
#     8   8   8   8   8   8
#     4   8  17  36  57  75 108 150 192 232 291 352
#     4   9  18  36  58  86 119 150 195 245 299 348
#     4   9  17  35  59  81 110 153 197 236 282 354
#     4  11  23  38  56  85 115 151 192 249 304 345
#     4  11  20  37  60  82 115 149 204 237 288 363
#     4   8  16  34  59  78 107 159 188 225 293 356
#
# _framework density 20.986737000000002
#
# number of rings (size 3 to 8) (size 9 to 14) (size 15 to 20)
#    0.000    2.667    1.667    2.500    0.000    0.667 
#   12.000    0.833    0.000    4.000    0.000    0.000 
#    0.000    0.000    0.000    0.000    0.000    0.000 
#
# Total GULP energy -267379.901408 kJ/mol
# GULP energy per Si atom -5570.414613 kJ/mol
# Density = 2.093897 g / cm^3
# Si number density = 20.986737 Si / 1000 Ang^3
#
#
#
# Elastic Constant Matrix: (Units=GPa)
#
#
# Indices 1 2 3 4 5 6 
#
# 1 53.9842 14.3256 -9.4654 0.0000 0.0000 0.0000
# 2 14.3256 76.4183 -0.3336 0.0000 0.0000 0.0000
# 3 -9.4654 -0.3336 61.5071 0.0000 0.0000 0.0000
# 4 0.0000 0.0000 0.0000 7.8851 0.0000 0.0000
# 5 0.0000 0.0000 0.0000 0.0000 14.5525 0.0000
# 6 0.0000 0.0000 0.0000 0.0000 0.0000 25.5948
#
#
#
# Elastic Compliance Matrix: (Units=1/GPa)
#
#
# Indices 1 2 3 4 5 6 
#
# 1 0.020056 -0.003746 0.003066 0.000000 0.000000 0.000000
# 2 -0.003746 0.013786 -0.000502 0.000000 0.000000 0.000000
# 3 0.003066 -0.000502 0.016727 0.000000 0.000000 0.000000
# 4 0.000000 0.000000 0.000000 0.126821 0.000000 0.000000
# 5 0.000000 0.000000 0.000000 0.000000 0.068717 0.000000
# 6 0.000000 0.000000 0.000000 0.000000 0.000000 0.039071
#
#
# Mechanical properties :
#
#
# Convention : Reuss Voigt Hill
#
# Bulk Modulus (GPa) = 20.74469 22.32919 21.53694
# Shear Modulus (GPa) = 16.46853 22.09868 19.28360
#
# Velocity S-wave (km/s) = 2.80431 3.24849 3.03454
# Velocity P-wave (km/s) = 4.51571 4.97323 4.74998
#
# Compressibility (1/GPa) = 0.04820511
#
# Stress axis : x y z
#
# Youngs Moduli (GPa) = 49.86118 72.53743 59.78209
#
# Poissons Ratio (x) = 0.27175 -0.18330
# Poissons Ratio (y) = 0.18680 0.03000
# Poissons Ratio (z) = -0.15288 0.03640
#
# Static dielectric constant tensor:
#      x y z
#    x 1.915640 0.000000 0.000000 
#    y 0.000000 1.732070 0.000000 
#    z 0.000000 0.000000 1.752320 
# 
# From -- ./inp_files/16635.got.cif
#   From: 2010.05.17/outbox.cif.g08.bks.cpg/sg54_9_cif.got.tgz:16635.got - 2010.06.03 13:09:01.
