data_PCOD9423741
_publ_section_title
;
Structure prediction by ZEFSAII (Michael W. Deem and Ramdas Pophale) SiO2 
 PCOD9423741
Probable space group: P C C A
;
_chemical_formula_sum "Si O2"
_cell_formula_units_Z 32
_cell_length_a 10.021184
_cell_length_b 14.778749
_cell_length_c 9.269429
_cell_angle_alpha 90.000000
_cell_angle_beta 90.000000
_cell_angle_gamma 90.000000
_cell_volume 1372.807654
_symmetry_space_group_name_H-M "P C C A"
_symmetry_group_IT_number 54
_symmetry_cell_setting 'orthorhombic'
loop_
_space_group_symop_operation_xyz
x,y,z
1/2-x,-y,z
1/2+x,-y,1/2-z
-x,y,1/2-z
-x,-y,-z
1/2+x,y,-z
1/2-x,y,1/2+z
x,-y,1/2+z
loop_
_atom_site_type_symbol
_atom_site_label
_atom_site_fract_x
_atom_site_fract_y
_atom_site_fract_z
Si Si1 0.023451 0.592123 0.415317
Si Si2 0.353285 0.880842 0.043668
Si Si3 0.750000 0.000000 0.695510
Si Si4 0.794344 0.297294 0.064540
Si Si5 0.500000 0.773350 0.250000
O O1 0.911985 0.663897 0.465555
O O2 0.000000 0.571851 0.250000
O O3 0.000000 0.500000 0.500000
O O4 0.170160 0.634509 0.433415
O O5 0.702159 0.924731 0.308732
O O6 0.484923 0.833893 0.106446
O O7 0.263517 0.799197 0.984915
O O8 0.356419 0.954890 0.915644
O O9 0.867950 0.285087 0.220097
#
# Coordination Sequence:
#
# PCOD9423741 Si02
#       5
#     8   8   4   8   4
#     4  12  30  50  82 117 154 201 259 321 391 478
#     4  11  23  46  71 110 154 207 260 330 383 468
#     4  10  24  44  70 110 154 202 278 320 392 452
#     4  12  26  50  82 112 160 206 262 319 401 467
#     4  12  24  44  80 112 152 212 260 322 394 472
#
# _framework density 23.309892999999999
#
# number of rings (size 3 to 8) (size 9 to 14) (size 15 to 20)
#    0.000    0.500    5.000    2.250    1.750    3.000 
#    0.000    0.000    0.000    0.000    0.000    0.000 
#    0.000    0.000    0.000    0.000    0.000    0.000 
#
# Total GULP energy -178965.234303 kJ/mol
# GULP energy per Si atom -5592.663572 kJ/mol
# Density = 2.325684 g / cm^3
# Si number density = 23.309893 Si / 1000 Ang^3
#
#
#
# Elastic Constant Matrix: (Units=GPa)
#
#
# Indices 1 2 3 4 5 6 
#
# 1 128.2515 44.0939 27.4966 0.0000 0.0000 0.0000
# 2 44.0939 129.1986 53.8192 0.0000 0.0000 0.0000
# 3 27.4966 53.8192 147.8697 0.0000 0.0000 0.0000
# 4 0.0000 0.0000 0.0000 43.3838 0.0000 0.0000
# 5 0.0000 0.0000 0.0000 0.0000 44.3860 0.0000
# 6 0.0000 0.0000 0.0000 0.0000 0.0000 -14.9236
#
#
#
# Elastic Compliance Matrix: (Units=1/GPa)
#
#
# Indices 1 2 3 4 5 6 
#
# 1 0.008886 -0.002763 -0.000647 0.000000 0.000000 0.000000
# 2 -0.002763 0.009983 -0.003119 0.000000 0.000000 0.000000
# 3 -0.000647 -0.003119 0.008018 0.000000 0.000000 0.000000
# 4 0.000000 0.000000 0.000000 0.023050 0.000000 0.000000
# 5 0.000000 0.000000 0.000000 0.000000 0.022530 0.000000
# 6 0.000000 0.000000 0.000000 0.000000 0.000000 -0.067008
#
#
# Mechanical properties :
#
#
# Convention : Reuss Voigt Hill
#
# Bulk Modulus (GPa) = 72.31684 72.90436 72.61060
# Shear Modulus (GPa) = 216.20186 33.22989 124.71587
#
# Velocity S-wave (km/s) = 9.64119 3.77977 7.32254
# Velocity P-wave (km/s) = 12.45103 7.09880 10.13462
#
# Compressibility (1/GPa) = 0.01382804
#
# Stress axis : x y z
#
# Youngs Moduli (GPa) = 112.53850 100.17487 124.71446
#
# Poissons Ratio (x) = 0.27681 0.08064
# Poissons Ratio (y) = 0.31098 0.38904
# Poissons Ratio (z) = 0.07277 0.31249
#
# Static dielectric constant tensor:
#      x y z
#    x 1.924600 0.000000 0.000000 
#    y 0.000000 1.960320 0.000000 
#    z 0.000000 0.000000 1.904360 
# 
# From -- ./inp_files/6814.got.cif
#   From: 2010.05.17/outbox.cif.g08.bks.cpg/sg54_4_cif.got.tgz:6814.got - 2010.06.03 13:09:01.
