data_PCOD9423038
_publ_section_title
;
Structure prediction by ZEFSAII (Michael W. Deem and Ramdas Pophale) SiO2 
 PCOD9423038
Probable space group: P C C A
;
_chemical_formula_sum "Si O2"
_cell_formula_units_Z 60
_cell_length_a 18.221050
_cell_length_b 18.252608
_cell_length_c 8.798853
_cell_angle_alpha 90.000000
_cell_angle_beta 90.000000
_cell_angle_gamma 90.000000
_cell_volume 2926.337339
_symmetry_space_group_name_H-M "P C C A"
_symmetry_group_IT_number 54
_symmetry_cell_setting 'orthorhombic'
loop_
_space_group_symop_operation_xyz
x,y,z
1/2-x,-y,z
1/2+x,-y,1/2-z
-x,y,1/2-z
-x,-y,-z
1/2+x,y,-z
1/2-x,y,1/2+z
x,-y,1/2+z
loop_
_atom_site_type_symbol
_atom_site_label
_atom_site_fract_x
_atom_site_fract_y
_atom_site_fract_z
Si Si1 0.061020 0.809597 0.627096
Si Si2 0.427508 0.707105 0.832579
Si Si3 0.750000 0.500000 0.311503
Si Si4 0.809103 0.282403 0.914439
Si Si5 0.419158 0.973372 0.040849
Si Si6 0.700817 0.395499 0.050454
Si Si7 0.315024 0.059492 0.257794
Si Si8 0.784937 0.202882 0.208649
O O1 0.055178 0.771481 0.458700
O O2 0.062326 0.897814 0.625047
O O3 0.140837 0.796985 0.697549
O O4 0.000000 0.783995 0.750000
O O5 0.500000 0.675329 0.750000
O O6 0.384231 0.726913 0.676423
O O7 0.370746 0.655083 0.925040
O O8 0.711846 0.441003 0.203673
O O9 0.806399 0.456053 0.418199
O O10 0.754383 0.273709 0.774457
O O11 0.776285 0.352416 0.002895
O O12 0.800156 0.215650 0.032446
O O13 0.371888 0.036302 0.125453
O O14 0.365893 0.948782 0.904884
O O15 0.500000 0.000000 0.000000
O O16 0.270563 0.135632 0.263105
O O17 0.250000 0.000000 0.256106
#
# Coordination Sequence:
#
# PCOD9423038 Si02
#       8
#     8   8   4   8   8   8   8   8
#     4  12  26  48  67 101 140 190 239 301 380 431
#     4  12  26  46  71 110 150 189 241 305 364 427
#     4  10  22  40  78 110 148 186 244 276 338 432
#     4  12  22  43  71 103 140 182 241 290 353 420
#     4  12  27  47  66  95 137 185 236 302 370 445
#     4  11  21  43  72 110 144 189 234 284 339 417
#     4  12  26  43  66  96 130 175 240 299 366 431
#     4  12  24  40  70  99 133 183 241 309 357 434
#
# _framework density 20.503446
#
# number of rings (size 3 to 8) (size 9 to 14) (size 15 to 20)
#    0.000    0.267    5.333    4.000    1.867    2.133 
#    0.000    0.667    0.000    0.000    0.000    0.000 
#    0.000    0.000    0.000    0.000    0.000    0.000 
#
# Total GULP energy -334211.441081 kJ/mol
# GULP energy per Si atom -5570.190685 kJ/mol
# Density = 2.045678 g / cm^3
# Si number density = 20.503446 Si / 1000 Ang^3
#
#
#
# Elastic Constant Matrix: (Units=GPa)
#
#
# Indices 1 2 3 4 5 6 
#
# 1 111.7209 32.4041 33.8663 0.0000 0.0000 0.0000
# 2 32.4041 67.4394 32.7773 0.0000 0.0000 0.0000
# 3 33.8663 32.7773 107.1656 0.0000 0.0000 0.0000
# 4 0.0000 0.0000 0.0000 -4.3690 0.0000 0.0000
# 5 0.0000 0.0000 0.0000 0.0000 46.7903 0.0000
# 6 0.0000 0.0000 0.0000 0.0000 0.0000 4.3588
#
#
#
# Elastic Compliance Matrix: (Units=1/GPa)
#
#
# Indices 1 2 3 4 5 6 
#
# 1 0.010805 -0.004149 -0.002146 0.000000 0.000000 0.000000
# 2 -0.004149 0.019010 -0.004503 0.000000 0.000000 0.000000
# 3 -0.002146 -0.004503 0.011387 0.000000 0.000000 0.000000
# 4 0.000000 0.000000 0.000000 -0.228883 0.000000 0.000000
# 5 0.000000 0.000000 0.000000 0.000000 0.021372 0.000000
# 6 0.000000 0.000000 0.000000 0.000000 0.000000 0.229422
#
#
# Mechanical properties :
#
#
# Convention : Reuss Voigt Hill
#
# Bulk Modulus (GPa) = 51.00370 53.82458 52.41414
# Shear Modulus (GPa) = 54.79855 21.84123 38.31989
#
# Velocity S-wave (km/s) = 5.17538 3.26735 4.32782
# Velocity P-wave (km/s) = 7.78732 6.36731 7.11284
#
# Compressibility (1/GPa) = 0.01960642
#
# Stress axis : x y z
#
# Youngs Moduli (GPa) = 92.55340 52.60304 87.82134
#
# Poissons Ratio (x) = 0.21824 0.18842
# Poissons Ratio (y) = 0.38398 0.39549
# Poissons Ratio (z) = 0.19858 0.23689
#
# Static dielectric constant tensor:
#      x y z
#    x 1.924400 0.000000 0.000000 
#    y 0.000000 1.686710 0.000000 
#    z 0.000000 0.000000 1.775360 
# 
# From -- ./inp_files/4357.got.cif
#   From: 2010.05.17/outbox.cif.g08.bks.cpg/sg54_3_cif.got.tgz:4357.got - 2010.06.03 13:09:01.
