data_PCOD9423566
_publ_section_title
;
Structure prediction by ZEFSAII (Michael W. Deem and Ramdas Pophale) SiO2 
 PCOD9423566
Probable space group: P C C A
;
_chemical_formula_sum "Si O2"
_cell_formula_units_Z 60
_cell_length_a 11.228708
_cell_length_b 12.920911
_cell_length_c 18.834812
_cell_angle_alpha 90.000000
_cell_angle_beta 90.000000
_cell_angle_gamma 90.000000
_cell_volume 2732.651274
_symmetry_space_group_name_H-M "P C C A"
_symmetry_group_IT_number 54
_symmetry_cell_setting 'orthorhombic'
loop_
_space_group_symop_operation_xyz
x,y,z
1/2-x,-y,z
1/2+x,-y,1/2-z
-x,y,1/2-z
-x,-y,-z
1/2+x,y,-z
1/2-x,y,1/2+z
x,-y,1/2+z
loop_
_atom_site_type_symbol
_atom_site_label
_atom_site_fract_x
_atom_site_fract_y
_atom_site_fract_z
Si Si1 0.330645 0.750079 0.626989
Si Si2 0.186783 0.393599 0.218410
Si Si3 0.357867 0.193664 0.507695
Si Si4 0.981501 0.622978 0.486108
Si Si5 0.058938 0.335826 0.354194
Si Si6 0.880997 0.964167 0.299007
Si Si7 0.021346 0.110050 0.385866
Si Si8 0.750000 0.000000 0.076220
O O1 0.275974 0.695567 0.695594
O O2 0.224138 0.779396 0.574215
O O3 0.406961 0.666138 0.581217
O O4 0.384627 0.856277 0.657313
O O5 0.250000 0.500000 0.202503
O O6 0.152765 0.384443 0.300775
O O7 0.067913 0.381679 0.170829
O O8 0.398731 0.306139 0.478718
O O9 0.482254 0.142794 0.534737
O O10 0.289364 0.105407 0.464432
O O11 0.921568 0.652159 0.562077
O O12 0.000000 0.500000 0.500000
O O13 0.051018 0.212914 0.342385
O O14 0.000000 0.964945 0.250000
O O15 0.750000 0.000000 0.269461
O O16 0.907403 0.053754 0.355293
O O17 0.132228 0.034662 0.383776
#
# Coordination Sequence:
#
# PCOD9423566 Si02
#       8
#     8   8   8   8   8   8   8   4
#     4  12  24  45  74 106 149 196 253 314 390 462
#     4  11  23  45  75  96 141 193 246 303 384 453
#     4  11  21  42  68 103 149 198 247 314 383 468
#     4  11  24  45  72 108 149 193 255 323 391 457
#     4  10  23  46  70 104 136 195 245 300 378 469
#     4  12  27  47  74 110 153 208 260 324 396 480
#     4  11  23  42  70  98 150 196 247 306 383 461
#     4  12  24  38  68 112 150 192 252 310 394 466
#
# _framework density 21.956699
#
# number of rings (size 3 to 8) (size 9 to 14) (size 15 to 20)
#    0.000    0.800    4.000    4.400    4.667    0.000 
#    9.600    0.000    0.000    0.000    0.000    0.000 
#    0.000    0.000    0.000    0.000    0.000    0.000 
#
# Total GULP energy -334664.852065 kJ/mol
# GULP energy per Si atom -5577.747534 kJ/mol
# Density = 2.190672 g / cm^3
# Si number density = 21.956699 Si / 1000 Ang^3
#
#
#
# Elastic Constant Matrix: (Units=GPa)
#
#
# Indices 1 2 3 4 5 6 
#
# 1 82.8383 44.1770 26.6718 0.0000 0.0000 0.0000
# 2 44.1770 142.9722 16.3065 0.0000 0.0000 0.0000
# 3 26.6718 16.3065 60.7818 0.0000 0.0000 0.0000
# 4 0.0000 0.0000 0.0000 30.0846 0.0000 0.0000
# 5 0.0000 0.0000 0.0000 0.0000 -15.2355 0.0000
# 6 0.0000 0.0000 0.0000 0.0000 0.0000 30.1391
#
#
#
# Elastic Compliance Matrix: (Units=1/GPa)
#
#
# Indices 1 2 3 4 5 6 
#
# 1 0.016328 -0.004361 -0.005995 0.000000 0.000000 0.000000
# 2 -0.004361 0.008380 -0.000334 0.000000 0.000000 0.000000
# 3 -0.005995 -0.000334 0.019173 0.000000 0.000000 0.000000
# 4 0.000000 0.000000 0.000000 0.033240 0.000000 0.000000
# 5 0.000000 0.000000 0.000000 0.000000 -0.065636 0.000000
# 6 0.000000 0.000000 0.000000 0.000000 0.000000 0.033179
#
#
# Mechanical properties :
#
#
# Convention : Reuss Voigt Hill
#
# Bulk Modulus (GPa) = 44.44561 51.21143 47.82852
# Shear Modulus (GPa) = 67.98625 22.29345 45.13985
#
# Velocity S-wave (km/s) = 5.57055 3.18989 4.53908
# Velocity P-wave (km/s) = 7.85245 6.07797 7.02149
#
# Compressibility (1/GPa) = 0.02249941
#
# Stress axis : x y z
#
# Youngs Moduli (GPa) = 61.24543 119.32994 52.15785
#
# Poissons Ratio (x) = 0.52044 0.31267
# Poissons Ratio (y) = 0.26711 0.01744
# Poissons Ratio (z) = 0.36715 0.03990
#
# Static dielectric constant tensor:
#      x y z
#    x 1.832540 0.000000 0.000000 
#    y 0.000000 1.799880 0.000000 
#    z 0.000000 0.000000 1.858450 
# 
# From -- ./inp_files/21224.got.cif
#   From: 2010.05.17/outbox.cif.g08.bks.cpg/sg54_11_cif.got.tgz:21224.got - 2010.06.03 13:09:01.
