data_PCOD9423347
_publ_section_title
;
Structure prediction by ZEFSAII (Michael W. Deem and Ramdas Pophale) SiO2 
 PCOD9423347
Probable space group: P C C A
;
_chemical_formula_sum "Si O2"
_cell_formula_units_Z 56
_cell_length_a 8.442911
_cell_length_b 14.338960
_cell_length_c 21.357060
_cell_angle_alpha 90.000000
_cell_angle_beta 90.000000
_cell_angle_gamma 90.000000
_cell_volume 2585.540424
_symmetry_space_group_name_H-M "P C C A"
_symmetry_group_IT_number 54
_symmetry_cell_setting 'orthorhombic'
loop_
_space_group_symop_operation_xyz
x,y,z
1/2-x,-y,z
1/2+x,-y,1/2-z
-x,y,1/2-z
-x,-y,-z
1/2+x,y,-z
1/2-x,y,1/2+z
x,-y,1/2+z
loop_
_atom_site_type_symbol
_atom_site_label
_atom_site_fract_x
_atom_site_fract_y
_atom_site_fract_z
Si Si1 0.250000 0.000000 0.944138
Si Si2 0.407990 0.178965 0.465701
Si Si3 0.000000 0.070541 0.750000
Si Si4 0.517901 0.083281 0.849832
Si Si5 0.181482 0.598290 0.810953
Si Si6 0.329594 0.597842 0.159910
Si Si7 0.768560 0.798417 0.170960
Si Si8 0.746007 0.222367 0.915639
O O1 0.157722 0.076825 0.984574
O O2 0.391992 0.039220 0.899676
O O3 0.311452 0.192600 0.401905
O O4 0.366277 0.243023 0.524500
O O5 0.587724 0.190611 0.444858
O O6 0.123647 0.136872 0.785383
O O7 0.937994 0.999253 0.802823
O O8 0.409030 0.164072 0.818340
O O9 0.665443 0.137828 0.878053
O O10 0.250000 0.500000 0.831718
O O11 0.170261 0.594593 0.735501
O O12 0.287111 0.689467 0.818377
O O13 0.018316 0.609920 0.849382
O O14 0.250000 0.500000 0.138774
O O15 0.244659 0.687025 0.128867
#
# Coordination Sequence:
#
# PCOD9423347 Si02
#       8
#     4   8   4   8   8   8   8   8
#     4  10  22  50  62  98 134 186 236 282 330 422
#     4  11  26  46  68  97 136 189 233 291 347 412
#     4  12  24  38  70 106 148 184 224 290 350 424
#     4  11  23  42  66  99 145 185 231 285 348 415
#     4  10  23  43  76 103 141 183 222 297 355 420
#     4  10  24  45  70 108 137 178 231 285 360 428
#     4  11  24  44  68 104 146 182 237 287 350 422
#     4  12  27  45  73  99 137 186 244 293 349 424
#
# _framework density 21.658915
#
# number of rings (size 3 to 8) (size 9 to 14) (size 15 to 20)
#    0.000    1.143    4.286    1.714    6.000    5.143 
#    0.000    1.429    0.000    0.000    0.000    0.000 
#    0.000    0.000    0.000    0.000    0.000    0.000 
#
# Total GULP energy -312664.661551 kJ/mol
# GULP energy per Si atom -5583.297528 kJ/mol
# Density = 2.160962 g / cm^3
# Si number density = 21.658915 Si / 1000 Ang^3
#
#
#
# Elastic Constant Matrix: (Units=GPa)
#
#
# Indices 1 2 3 4 5 6 
#
# 1 74.0089 47.3630 29.6841 0.0000 0.0000 0.0000
# 2 47.3630 149.9418 41.3817 0.0000 0.0000 0.0000
# 3 29.6841 41.3817 68.1663 0.0000 0.0000 0.0000
# 4 0.0000 0.0000 0.0000 1.7359 0.0000 0.0000
# 5 0.0000 0.0000 0.0000 0.0000 22.5160 0.0000
# 6 0.0000 0.0000 0.0000 0.0000 0.0000 20.9941
#
#
#
# Elastic Compliance Matrix: (Units=1/GPa)
#
#
# Indices 1 2 3 4 5 6 
#
# 1 0.018455 -0.004338 -0.005403 0.000000 0.000000 0.000000
# 2 -0.004338 0.009031 -0.003593 0.000000 0.000000 0.000000
# 3 -0.005403 -0.003593 0.019204 0.000000 0.000000 0.000000
# 4 0.000000 0.000000 0.000000 0.576081 0.000000 0.000000
# 5 0.000000 0.000000 0.000000 0.000000 0.044413 0.000000
# 6 0.000000 0.000000 0.000000 0.000000 0.000000 0.047632
#
#
# Mechanical properties :
#
#
# Convention : Reuss Voigt Hill
#
# Bulk Modulus (GPa) = 49.94665 58.77497 54.36081
# Shear Modulus (GPa) = 6.68305 20.62841 13.65573
#
# Velocity S-wave (km/s) = 1.75849 3.08948 2.51368
# Velocity P-wave (km/s) = 5.21859 6.31839 5.79464
#
# Compressibility (1/GPa) = 0.02002136
#
# Stress axis : x y z
#
# Youngs Moduli (GPa) = 54.18466 110.72462 52.07175
#
# Poissons Ratio (x) = 0.48038 0.28134
# Poissons Ratio (y) = 0.23508 0.18712
# Poissons Ratio (z) = 0.29276 0.39788
#
# Static dielectric constant tensor:
#      x y z
#    x 1.829780 0.000000 0.000000 
#    y 0.000000 1.839060 0.000000 
#    z 0.000000 0.000000 1.839340 
# 
# From -- ./inp_files/20601.got.cif
#   From: 2010.05.17/outbox.cif.g08.bks.cpg/sg54_11_cif.got.tgz:20601.got - 2010.06.03 13:09:01.
