data_PCOD9423824
_publ_section_title
;
Structure prediction by ZEFSAII (Michael W. Deem and Ramdas Pophale) SiO2 
 PCOD9423824
Probable space group: P C C A
;
_chemical_formula_sum "Si O2"
_cell_formula_units_Z 32
_cell_length_a 12.653479
_cell_length_b 9.715713
_cell_length_c 9.110749
_cell_angle_alpha 90.000000
_cell_angle_beta 90.000000
_cell_angle_gamma 90.000000
_cell_volume 1120.053347
_symmetry_space_group_name_H-M "P C C A"
_symmetry_group_IT_number 54
_symmetry_cell_setting 'orthorhombic'
loop_
_space_group_symop_operation_xyz
x,y,z
1/2-x,-y,z
1/2+x,-y,1/2-z
-x,y,1/2-z
-x,-y,-z
1/2+x,y,-z
1/2-x,y,1/2+z
x,-y,1/2+z
loop_
_atom_site_type_symbol
_atom_site_label
_atom_site_fract_x
_atom_site_fract_y
_atom_site_fract_z
Si Si1 0.810349 0.360678 0.208178
Si Si2 0.000000 0.000000 0.500000
Si Si3 0.837952 0.099772 0.766207
Si Si4 0.500000 0.476365 0.250000
Si Si5 0.478693 0.741596 0.509257
O O1 0.750000 0.500000 0.175429
O O2 0.725609 0.243970 0.244671
O O3 0.907374 0.422393 0.308364
O O4 0.878207 0.320003 0.067875
O O5 0.893808 0.032925 0.625912
O O6 0.961387 0.148580 0.412606
O O7 0.927414 0.129526 0.890873
O O8 0.750000 0.000000 0.825433
O O9 0.473990 0.369654 0.380911
#
# Coordination Sequence:
#
# PCOD9423824 Si02
#       5
#     8   4   8   4   8
#     4  12  26  45  75 111 153 210 272 341 414 515
#     4   8  22  48  72 110 152 208 262 346 418 502
#     4  10  24  47  75 111 155 202 276 336 428 509
#     4  12  26  46  76 112 160 214 276 344 422 514
#     4  10  25  45  72 110 154 206 266 339 419 491
#
# _framework density 28.570067999999999
#
# number of rings (size 3 to 8) (size 9 to 14) (size 15 to 20)
#    1.500    0.000    2.500    0.750    7.000    5.000 
#    0.000    0.000    0.000    0.000    0.000    0.000 
#    0.000    0.000    0.000    0.000    0.000    0.000 
#
# Total GULP energy -178386.950305 kJ/mol
# GULP energy per Si atom -5574.592197 kJ/mol
# Density = 2.850504 g / cm^3
# Si number density = 28.570068 Si / 1000 Ang^3
#
#
#
# Elastic Constant Matrix: (Units=GPa)
#
#
# Indices 1 2 3 4 5 6 
#
# 1 153.9808 35.7971 20.3453 0.0000 0.0000 0.0000
# 2 35.7971 244.3183 16.1725 0.0000 0.0000 0.0000
# 3 20.3453 16.1725 113.3568 0.0000 0.0000 0.0000
# 4 0.0000 0.0000 0.0000 55.5586 0.0000 0.0000
# 5 0.0000 0.0000 0.0000 0.0000 52.9833 0.0000
# 6 0.0000 0.0000 0.0000 0.0000 0.0000 32.1795
#
#
#
# Elastic Compliance Matrix: (Units=1/GPa)
#
#
# Indices 1 2 3 4 5 6 
#
# 1 0.006856 -0.000932 -0.001098 0.000000 0.000000 0.000000
# 2 -0.000932 0.004259 -0.000440 0.000000 0.000000 0.000000
# 3 -0.001098 -0.000440 0.009082 0.000000 0.000000 0.000000
# 4 0.000000 0.000000 0.000000 0.017999 0.000000 0.000000
# 5 0.000000 0.000000 0.000000 0.000000 0.018874 0.000000
# 6 0.000000 0.000000 0.000000 0.000000 0.000000 0.031076
#
#
# Mechanical properties :
#
#
# Convention : Reuss Voigt Hill
#
# Bulk Modulus (GPa) = 65.54514 72.92063 69.23289
# Shear Modulus (GPa) = 50.93212 57.43367 54.18290
#
# Velocity S-wave (km/s) = 4.22679 4.48847 4.35960
# Velocity P-wave (km/s) = 6.84198 7.24159 7.04462
#
# Compressibility (1/GPa) = 0.01525666
#
# Stress axis : x y z
#
# Youngs Moduli (GPa) = 145.85816 234.81311 110.11376
#
# Poissons Ratio (x) = 0.21882 0.12086
# Poissons Ratio (y) = 0.13592 0.04849
# Poissons Ratio (z) = 0.16009 0.10340
#
# Static dielectric constant tensor:
#      x y z
#    x 2.330550 0.000000 0.000000 
#    y 0.000000 2.338850 0.000000 
#    z 0.000000 0.000000 3.111480 
# 
# From -- ./inp_files/7979.got.cif
#   From: 2010.05.17/outbox.cif.g08.bks.cpg/sg54_4_cif.got.tgz:7979.got - 2010.06.03 13:09:01.
