data_PCOD9423180
_publ_section_title
;
Structure prediction by ZEFSAII (Michael W. Deem and Ramdas Pophale) SiO2 
 PCOD9423180
Probable space group: P C C A
;
_chemical_formula_sum "Si O2"
_cell_formula_units_Z 32
_cell_length_a 12.422464
_cell_length_b 14.535819
_cell_length_c 8.597866
_cell_angle_alpha 90.000000
_cell_angle_beta 90.000000
_cell_angle_gamma 90.000000
_cell_volume 1552.522581
_symmetry_space_group_name_H-M "P C C A"
_symmetry_group_IT_number 54
_symmetry_cell_setting 'orthorhombic'
loop_
_space_group_symop_operation_xyz
x,y,z
1/2-x,-y,z
1/2+x,-y,1/2-z
-x,y,1/2-z
-x,-y,-z
1/2+x,y,-z
1/2-x,y,1/2+z
x,-y,1/2+z
loop_
_atom_site_type_symbol
_atom_site_label
_atom_site_fract_x
_atom_site_fract_y
_atom_site_fract_z
Si Si1 0.000000 0.229177 0.250000
Si Si2 0.380821 0.579503 0.791513
Si Si3 0.591817 0.926782 0.050759
Si Si4 0.665379 0.618334 0.348830
Si Si5 0.250000 0.000000 0.688098
O O1 0.966070 0.166194 0.103551
O O2 0.901641 0.294254 0.296785
O O3 0.500000 0.610489 0.750000
O O4 0.370724 0.471110 0.750665
O O5 0.291256 0.628771 0.686811
O O6 0.355437 0.595527 0.971593
O O7 0.657879 0.957603 0.203633
O O8 0.500000 0.000000 0.000000
O O9 0.684989 0.927790 0.919665
#
# Coordination Sequence:
#
# PCOD9423180 Si02
#       5
#     4   8   8   8   4
#     4  12  26  42  72 106 150 176 262 296 344 444
#     4  11  23  45  72  97 149 195 232 291 384 416
#     4  11  22  46  70 102 137 186 223 298 362 424
#     4  11  25  42  72 105 139 193 244 301 354 440
#     4  10  22  42  78  94 130 190 232 266 380 436
#
# _framework density 20.611613999999999
#
# number of rings (size 3 to 8) (size 9 to 14) (size 15 to 20)
#    0.000    1.000    3.750    3.750    3.500    2.000 
#    0.000    0.000    0.000    0.000    0.000    0.000 
#    0.000    0.000    0.000    0.000    0.000    0.000 
#
# Total GULP energy -178894.389114 kJ/mol
# GULP energy per Si atom -5590.449660 kJ/mol
# Density = 2.056470 g / cm^3
# Si number density = 20.611614 Si / 1000 Ang^3
#
#
#
# Elastic Constant Matrix: (Units=GPa)
#
#
# Indices 1 2 3 4 5 6 
#
# 1 208.4118 78.1645 76.5599 0.0000 0.0000 0.0000
# 2 78.1645 103.1004 60.8759 0.0000 0.0000 0.0000
# 3 76.5599 60.8759 139.3905 0.0000 0.0000 0.0000
# 4 0.0000 0.0000 0.0000 -59.4443 0.0000 0.0000
# 5 0.0000 0.0000 0.0000 0.0000 44.2253 0.0000
# 6 0.0000 0.0000 0.0000 0.0000 0.0000 36.5797
#
#
#
# Elastic Compliance Matrix: (Units=1/GPa)
#
#
# Indices 1 2 3 4 5 6 
#
# 1 0.007132 -0.004169 -0.002096 0.000000 0.000000 0.000000
# 2 -0.004169 0.015507 -0.004482 0.000000 0.000000 0.000000
# 3 -0.002096 -0.004482 0.010283 0.000000 0.000000 0.000000
# 4 0.000000 0.000000 0.000000 -0.016822 0.000000 0.000000
# 5 0.000000 0.000000 0.000000 0.000000 0.022612 0.000000
# 6 0.000000 0.000000 0.000000 0.000000 0.000000 0.027338
#
#
# Mechanical properties :
#
#
# Convention : Reuss Voigt Hill
#
# Bulk Modulus (GPa) = 87.52016 98.01149 92.76583
# Shear Modulus (GPa) = 54.73285 19.95896 37.34590
#
# Velocity S-wave (km/s) = 5.15868 3.11518 4.26124
# Velocity P-wave (km/s) = 8.83382 7.78421 8.32558
#
# Compressibility (1/GPa) = 0.01142594
#
# Stress axis : x y z
#
# Youngs Moduli (GPa) = 140.21402 64.48818 97.24701
#
# Poissons Ratio (x) = 0.26886 0.20387
# Poissons Ratio (y) = 0.58458 0.43589
# Poissons Ratio (z) = 0.29394 0.28906
#
# Static dielectric constant tensor:
#      x y z
#    x 1.768920 0.000000 0.000000 
#    y 0.000000 1.719610 0.000000 
#    z 0.000000 0.000000 1.734340 
# 
# From -- ./inp_files/2822.got.cif
#   From: 2010.05.17/outbox.cif.g08.bks.cpg/sg54_2_cif.got.tgz:2822.got - 2010.06.03 13:09:01.
