data_PCOD9423673
_publ_section_title
;
Structure prediction by ZEFSAII (Michael W. Deem and Ramdas Pophale) SiO2 
 PCOD9423673
Probable space group: P C C A
;
_chemical_formula_sum "Si O2"
_cell_formula_units_Z 60
_cell_length_a 17.774298
_cell_length_b 6.233274
_cell_length_c 25.975673
_cell_angle_alpha 90.000000
_cell_angle_beta 90.000000
_cell_angle_gamma 90.000000
_cell_volume 2877.898571
_symmetry_space_group_name_H-M "P C C A"
_symmetry_group_IT_number 54
_symmetry_cell_setting 'orthorhombic'
loop_
_space_group_symop_operation_xyz
x,y,z
1/2-x,-y,z
1/2+x,-y,1/2-z
-x,y,1/2-z
-x,-y,-z
1/2+x,y,-z
1/2-x,y,1/2+z
x,-y,1/2+z
loop_
_atom_site_type_symbol
_atom_site_label
_atom_site_fract_x
_atom_site_fract_y
_atom_site_fract_z
Si Si1 0.553313 0.201242 0.016966
Si Si2 0.399786 0.068076 0.377064
Si Si3 0.750000 0.000000 0.185728
Si Si4 0.912921 0.551521 0.436271
Si Si5 0.333912 0.904026 0.628311
Si Si6 0.307972 0.337794 0.232758
Si Si7 0.532590 0.243870 0.854063
Si Si8 0.049152 0.583098 0.292776
O O1 0.608400 0.138305 0.063750
O O2 0.488655 0.347059 0.041658
O O3 0.598073 0.344018 0.974330
O O4 0.500000 0.000000 0.000000
O O5 0.323830 0.986476 0.349955
O O6 0.431973 0.263181 0.341314
O O7 0.462153 0.881912 0.378180
O O8 0.765657 0.804420 0.224533
O O9 0.855635 0.741690 0.418997
O O10 0.935670 0.449002 0.382866
O O11 0.335900 0.792602 0.684177
O O12 0.250000 0.000000 0.620444
O O13 0.398402 0.081091 0.638374
O O14 0.250000 0.500000 0.208741
O O15 0.372967 0.458168 0.263723
O O16 0.494541 0.363903 0.805697
O O17 0.000000 0.708870 0.250000
#
# Coordination Sequence:
#
# PCOD9423673 Si02
#       8
#     8   8   4   8   8   8   8   8
#     4  11  21  43  76 102 136 177 242 305 368 428
#     4  11  22  43  69 101 139 183 238 295 366 437
#     4  10  24  42  68 100 144 188 230 300 364 442
#     4  11  23  41  70 104 130 185 240 294 363 429
#     4  12  27  42  69 102 150 192 240 296 369 445
#     4  11  24  44  63  99 139 196 230 283 369 430
#     4  12  22  42  68 100 133 185 236 294 353 427
#     4  11  24  38  65 100 138 176 243 289 345 443
#
# _framework density 20.848545999999999
#
# number of rings (size 3 to 8) (size 9 to 14) (size 15 to 20)
#    0.000    0.800    4.667    2.400    3.733    2.667 
#    0.000    0.000    8.800    0.000    0.000    0.000 
#    0.000    0.000    0.000    0.000    0.000    0.000 
#
# Total GULP energy -334162.324901 kJ/mol
# GULP energy per Si atom -5569.372082 kJ/mol
# Density = 2.080109 g / cm^3
# Si number density = 20.848546 Si / 1000 Ang^3
#
#
#
# Elastic Constant Matrix: (Units=GPa)
#
#
# Indices 1 2 3 4 5 6 
#
# 1 117.8415 54.2144 42.4513 0.0000 0.0000 0.0000
# 2 54.2144 80.9145 28.4982 0.0000 0.0000 0.0000
# 3 42.4513 28.4982 98.4185 0.0000 0.0000 0.0000
# 4 0.0000 0.0000 0.0000 14.7222 0.0000 0.0000
# 5 0.0000 0.0000 0.0000 0.0000 22.8333 0.0000
# 6 0.0000 0.0000 0.0000 0.0000 0.0000 26.1018
#
#
#
# Elastic Compliance Matrix: (Units=1/GPa)
#
#
# Indices 1 2 3 4 5 6 
#
# 1 0.013272 -0.007657 -0.003508 0.000000 0.000000 0.000000
# 2 -0.007657 0.018180 -0.001961 0.000000 0.000000 0.000000
# 3 -0.003508 -0.001961 0.012242 0.000000 0.000000 0.000000
# 4 0.000000 0.000000 0.000000 0.067925 0.000000 0.000000
# 5 0.000000 0.000000 0.000000 0.000000 0.043796 0.000000
# 6 0.000000 0.000000 0.000000 0.000000 0.000000 0.038312
#
#
# Mechanical properties :
#
#
# Convention : Reuss Voigt Hill
#
# Bulk Modulus (GPa) = 57.33473 60.83359 59.08416
# Shear Modulus (GPa) = 22.14420 24.19882 23.17151
#
# Velocity S-wave (km/s) = 3.26259 3.41059 3.33741
# Velocity P-wave (km/s) = 6.46165 6.68967 6.57665
#
# Compressibility (1/GPa) = 0.01744144
#
# Stress axis : x y z
#
# Youngs Moduli (GPa) = 75.34417 55.00502 81.68899
#
# Poissons Ratio (x) = 0.42120 0.28653
# Poissons Ratio (y) = 0.57694 0.16022
# Poissons Ratio (z) = 0.26427 0.10788
#
# Static dielectric constant tensor:
#      x y z
#    x 1.753700 0.000000 0.000000 
#    y 0.000000 1.808410 0.000000 
#    z 0.000000 0.000000 1.800680 
# 
# From -- ./inp_files/26651.got.cif
#   From: 2010.05.17/outbox.cif.g08.bks.cpg/sg54_14_cif.got.tgz:26651.got - 2010.06.03 13:09:01.
