data_PCOD9423438
_publ_section_title
;
Structure prediction by ZEFSAII (Michael W. Deem and Ramdas Pophale) SiO2 
 PCOD9423438
Probable space group: P C C A
;
_chemical_formula_sum "Si O2"
_cell_formula_units_Z 40
_cell_length_a 13.522774
_cell_length_b 13.690972
_cell_length_c 9.462142
_cell_angle_alpha 90.000000
_cell_angle_beta 90.000000
_cell_angle_gamma 90.000000
_cell_volume 1751.820215
_symmetry_space_group_name_H-M "P C C A"
_symmetry_group_IT_number 54
_symmetry_cell_setting 'orthorhombic'
loop_
_space_group_symop_operation_xyz
x,y,z
1/2-x,-y,z
1/2+x,-y,1/2-z
-x,y,1/2-z
-x,-y,-z
1/2+x,y,-z
1/2-x,y,1/2+z
x,-y,1/2+z
loop_
_atom_site_type_symbol
_atom_site_label
_atom_site_fract_x
_atom_site_fract_y
_atom_site_fract_z
Si Si1 0.772245 0.276257 0.623327
Si Si2 0.924491 0.022122 0.372080
Si Si3 0.619176 0.570082 0.152259
Si Si4 0.426686 0.617622 0.028717
Si Si5 0.774825 0.849622 0.388119
O O1 0.721830 0.382210 0.609345
O O2 0.873292 0.289562 0.537447
O O3 0.711396 0.191643 0.545242
O O4 0.779131 0.242687 0.783460
O O5 0.861520 0.923074 0.343099
O O6 0.000000 0.052036 0.250000
O O7 0.832618 0.097525 0.388153
O O8 0.000000 0.000000 0.500000
O O9 0.537843 0.639024 0.076863
O O10 0.616110 0.576570 0.322179
O O11 0.585365 0.466392 0.090070
#
# Coordination Sequence:
#
# PCOD9423438 Si02
#       5
#     8   8   8   8   8
#     4  12  23  41  65  97 137 168 212 285 329 378
#     4  11  24  47  72  93 132 179 213 271 345 403
#     4  10  23  42  64  92 131 178 225 263 325 390
#     4  10  23  42  64  92 130 180 222 267 321 394
#     4  11  26  42  66 105 131 165 233 274 328 419
#
# _framework density 22.833392
#
# number of rings (size 3 to 8) (size 9 to 14) (size 15 to 20)
#    0.000    1.200    2.000    3.000    2.800    9.600 
#    0.000    0.000    0.000    0.000    0.000    0.000 
#    0.000    0.000    0.000    0.000    0.000    0.000 
#
# Total GULP energy -223156.726146 kJ/mol
# GULP energy per Si atom -5578.918154 kJ/mol
# Density = 2.278142 g / cm^3
# Si number density = 22.833392 Si / 1000 Ang^3
#
#
#
# Elastic Constant Matrix: (Units=GPa)
#
#
# Indices 1 2 3 4 5 6 
#
# 1 101.9305 14.8468 27.8937 0.0000 0.0000 0.0000
# 2 14.8468 49.7508 -8.1666 0.0000 0.0000 0.0000
# 3 27.8937 -8.1666 75.7239 0.0000 0.0000 0.0000
# 4 0.0000 0.0000 0.0000 30.1031 0.0000 0.0000
# 5 0.0000 0.0000 0.0000 0.0000 27.6341 0.0000
# 6 0.0000 0.0000 0.0000 0.0000 0.0000 33.9807
#
#
#
# Elastic Compliance Matrix: (Units=1/GPa)
#
#
# Indices 1 2 3 4 5 6 
#
# 1 0.011746 -0.004292 -0.004790 0.000000 0.000000 0.000000
# 2 -0.004292 0.022030 0.003957 0.000000 0.000000 0.000000
# 3 -0.004790 0.003957 0.015397 0.000000 0.000000 0.000000
# 4 0.000000 0.000000 0.000000 0.033219 0.000000 0.000000
# 5 0.000000 0.000000 0.000000 0.000000 0.036187 0.000000
# 6 0.000000 0.000000 0.000000 0.000000 0.000000 0.029428
#
#
# Mechanical properties :
#
#
# Convention : Reuss Voigt Hill
#
# Bulk Modulus (GPa) = 25.69073 32.95032 29.32052
# Shear Modulus (GPa) = 29.20003 31.19901 30.19952
#
# Velocity S-wave (km/s) = 3.57995 3.70046 3.64071
# Velocity P-wave (km/s) = 5.32578 5.72014 5.52648
#
# Compressibility (1/GPa) = 0.03892455
#
# Stress axis : x y z
#
# Youngs Moduli (GPa) = 85.13215 45.39182 64.94794
#
# Poissons Ratio (x) = 0.19481 0.31108
# Poissons Ratio (y) = 0.36536 -0.25698
# Poissons Ratio (z) = 0.40776 -0.17961
#
# Static dielectric constant tensor:
#      x y z
#    x 1.900340 0.000000 0.000000 
#    y 0.000000 1.877140 0.000000 
#    z 0.000000 0.000000 1.816310 
# 
# From -- ./inp_files/3424.got.cif
#   From: 2010.05.17/outbox.cif.g08.bks.cpg/sg54_2_cif.got.tgz:3424.got - 2010.06.03 13:09:01.
