data_PCOD9423319
_publ_section_title
;
Structure prediction by ZEFSAII (Michael W. Deem and Ramdas Pophale) SiO2 
 PCOD9423319
Probable space group: P C C A
;
_chemical_formula_sum "Si O2"
_cell_formula_units_Z 40
_cell_length_a 17.353974
_cell_length_b 6.041765
_cell_length_c 15.808026
_cell_angle_alpha 90.000000
_cell_angle_beta 90.000000
_cell_angle_gamma 90.000000
_cell_volume 1657.449912
_symmetry_space_group_name_H-M "P C C A"
_symmetry_group_IT_number 54
_symmetry_cell_setting 'orthorhombic'
loop_
_space_group_symop_operation_xyz
x,y,z
1/2-x,-y,z
1/2+x,-y,1/2-z
-x,y,1/2-z
-x,-y,-z
1/2+x,y,-z
1/2-x,y,1/2+z
x,-y,1/2+z
loop_
_atom_site_type_symbol
_atom_site_label
_atom_site_fract_x
_atom_site_fract_y
_atom_site_fract_z
Si Si1 0.500000 0.477961 0.750000
Si Si2 0.857606 0.801810 0.454121
Si Si3 0.250000 0.500000 0.159259
Si Si4 0.750000 0.000000 0.090971
Si Si5 0.000000 0.000000 0.500000
Si Si6 0.399788 0.843203 0.837270
Si Si7 0.121702 0.176936 0.184972
O O1 0.437823 0.624183 0.799818
O O2 0.548871 0.338396 0.817823
O O3 0.815855 0.622546 0.395953
O O4 0.800905 0.845114 0.531040
O O5 0.944076 0.777173 0.485301
O O6 0.866967 0.032679 0.399816
O O7 0.200281 0.309463 0.204096
O O8 0.690177 0.156052 0.139508
O O9 0.947149 0.072235 0.582176
O O10 0.401283 0.015199 0.760125
#
# Coordination Sequence:
#
# PCOD9423319 Si02
#       7
#     4   8   4   4   4   8   8
#     4  12  26  46  74 112 138 198 262 298 376 454
#     4  11  23  48  69 104 144 198 239 314 372 448
#     4  12  24  42  78 104 142 194 260 298 378 446
#     4  10  24  46  66 104 152 190 236 318 378 426
#     4  10  22  46  70  96 152 188 232 306 376 432
#     4  11  25  46  72 104 149 191 246 307 370 448
#     4  12  25  44  74 104 143 194 246 312 359 450
#
# _framework density 24.133458999999998
#
# number of rings (size 3 to 8) (size 9 to 14) (size 15 to 20)
#    0.000    0.800    2.000    5.400    5.600    0.000 
#   10.800    6.000    0.000    0.000    0.000    0.000 
#    0.000    0.000    0.000    0.000    0.000    0.000 
#
# Total GULP energy -222789.818508 kJ/mol
# GULP energy per Si atom -5569.745463 kJ/mol
# Density = 2.407853 g / cm^3
# Si number density = 24.133459 Si / 1000 Ang^3
#
#
#
# Elastic Constant Matrix: (Units=GPa)
#
#
# Indices 1 2 3 4 5 6 
#
# 1 119.1372 46.6886 45.1432 0.0000 0.0000 0.0000
# 2 46.6886 84.8214 32.3929 0.0000 0.0000 0.0000
# 3 45.1432 32.3929 76.2355 0.0000 0.0000 0.0000
# 4 0.0000 0.0000 0.0000 56.4272 0.0000 0.0000
# 5 0.0000 0.0000 0.0000 0.0000 68.0879 0.0000
# 6 0.0000 0.0000 0.0000 0.0000 0.0000 48.3910
#
#
#
# Elastic Compliance Matrix: (Units=1/GPa)
#
#
# Indices 1 2 3 4 5 6 
#
# 1 0.012231 -0.004735 -0.005231 0.000000 0.000000 0.000000
# 2 -0.004735 0.015906 -0.003955 0.000000 0.000000 0.000000
# 3 -0.005231 -0.003955 0.017895 0.000000 0.000000 0.000000
# 4 0.000000 0.000000 0.000000 0.017722 0.000000 0.000000
# 5 0.000000 0.000000 0.000000 0.000000 0.014687 0.000000
# 6 0.000000 0.000000 0.000000 0.000000 0.000000 0.020665
#
#
# Mechanical properties :
#
#
# Convention : Reuss Voigt Hill
#
# Bulk Modulus (GPa) = 54.97128 58.73817 56.85472
# Shear Modulus (GPa) = 37.59074 44.97917 41.28495
#
# Velocity S-wave (km/s) = 3.95095 4.32182 4.14054
# Velocity P-wave (km/s) = 6.60612 7.02111 6.81677
#
# Compressibility (1/GPa) = 0.01819132
#
# Stress axis : x y z
#
# Youngs Moduli (GPa) = 81.75721 62.86932 55.88082
#
# Poissons Ratio (x) = 0.29768 0.29231
# Poissons Ratio (y) = 0.38711 0.22100
# Poissons Ratio (z) = 0.42767 0.24863
#
# Static dielectric constant tensor:
#      x y z
#    x 1.988210 0.000000 0.000000 
#    y 0.000000 2.007340 0.000000 
#    z 0.000000 0.000000 1.995750 
# 
# From -- ./inp_files/18444.got.cif
#   From: 2010.05.17/outbox.cif.g08.bks.cpg/sg54_10_cif.got.tgz:18444.got - 2010.06.03 13:09:01.
