data_PCOD9423249
_publ_section_title
;
Structure prediction by ZEFSAII (Michael W. Deem and Ramdas Pophale) SiO2 
 PCOD9423249
Probable space group: P C C A
;
_chemical_formula_sum "Si O2"
_cell_formula_units_Z 40
_cell_length_a 27.626907
_cell_length_b 5.547070
_cell_length_c 11.019149
_cell_angle_alpha 90.000000
_cell_angle_beta 90.000000
_cell_angle_gamma 90.000000
_cell_volume 1688.666811
_symmetry_space_group_name_H-M "P C C A"
_symmetry_group_IT_number 54
_symmetry_cell_setting 'orthorhombic'
loop_
_space_group_symop_operation_xyz
x,y,z
1/2-x,-y,z
1/2+x,-y,1/2-z
-x,y,1/2-z
-x,-y,-z
1/2+x,y,-z
1/2-x,y,1/2+z
x,-y,1/2+z
loop_
_atom_site_type_symbol
_atom_site_label
_atom_site_fract_x
_atom_site_fract_y
_atom_site_fract_z
Si Si1 0.904011 0.403068 0.851605
Si Si2 0.500000 0.431846 0.750000
Si Si3 0.664605 0.206723 0.930584
Si Si4 0.676821 0.158788 0.207326
Si Si5 0.250000 0.500000 0.175504
Si Si6 0.969919 0.240291 0.023047
O O1 0.957890 0.400300 0.799849
O O2 0.885538 0.649473 0.912347
O O3 0.867095 0.335719 0.746625
O O4 0.916323 0.230902 0.965660
O O5 0.467957 0.258232 0.832959
O O6 0.707386 0.402233 0.910179
O O7 0.671101 0.039285 0.812822
O O8 0.672065 0.098448 0.065203
O O9 0.726586 0.296576 0.238604
O O10 0.000000 0.500000 0.000000
O O11 0.000000 0.000000 0.000000
#
# Coordination Sequence:
#
# PCOD9423249 Si02
#       6
#     8   4   8   8   4   8
#     4  10  24  45  65 101 141 193 244 303 369 444
#     4  10  22  44  68  94 138 190 246 304 364 426
#     4  11  25  45  70 108 142 189 238 306 375 457
#     4  11  25  44  73 103 146 183 241 297 374 450
#     4  10  24  46  74 102 140 186 236 302 370 458
#     4  10  23  41  64  97 133 185 243 302 362 428
#
# _framework density 23.687325999999999
#
# number of rings (size 3 to 8) (size 9 to 14) (size 15 to 20)
#    0.000    1.600    0.000    2.400    5.600   14.400 
#    0.000    0.000    0.000    0.000    0.000    0.000 
#    0.000    0.000    0.000    0.000    0.000    0.000 
#
# Total GULP energy -222748.245312 kJ/mol
# GULP energy per Si atom -5568.706133 kJ/mol
# Density = 2.363341 g / cm^3
# Si number density = 23.687326 Si / 1000 Ang^3
#
#
#
# Elastic Constant Matrix: (Units=GPa)
#
#
# Indices 1 2 3 4 5 6 
#
# 1 93.1411 7.4152 14.5586 0.0000 0.0000 0.0000
# 2 7.4152 86.8858 24.3595 0.0000 0.0000 0.0000
# 3 14.5586 24.3595 122.1085 0.0000 0.0000 0.0000
# 4 0.0000 0.0000 0.0000 15.6185 0.0000 0.0000
# 5 0.0000 0.0000 0.0000 0.0000 26.6648 0.0000
# 6 0.0000 0.0000 0.0000 0.0000 0.0000 45.3245
#
#
#
# Elastic Compliance Matrix: (Units=1/GPa)
#
#
# Indices 1 2 3 4 5 6 
#
# 1 0.010970 -0.000603 -0.001188 0.000000 0.000000 0.000000
# 2 -0.000603 0.012224 -0.002367 0.000000 0.000000 0.000000
# 3 -0.001188 -0.002367 0.008803 0.000000 0.000000 0.000000
# 4 0.000000 0.000000 0.000000 0.064027 0.000000 0.000000
# 5 0.000000 0.000000 0.000000 0.000000 0.037503 0.000000
# 6 0.000000 0.000000 0.000000 0.000000 0.000000 0.022063
#
#
# Mechanical properties :
#
#
# Convention : Reuss Voigt Hill
#
# Bulk Modulus (GPa) = 42.22536 43.86689 43.04612
# Shear Modulus (GPa) = 29.10369 34.57501 31.83935
#
# Velocity S-wave (km/s) = 3.50903 3.82467 3.67024
# Velocity P-wave (km/s) = 5.85513 6.16956 6.01440
#
# Compressibility (1/GPa) = 0.02368245
#
# Stress axis : x y z
#
# Youngs Moduli (GPa) = 91.15721 81.80366 113.59541
#
# Poissons Ratio (x) = 0.04935 0.13490
# Poissons Ratio (y) = 0.05499 0.26885
# Poissons Ratio (z) = 0.10826 0.19361
#
# Static dielectric constant tensor:
#      x y z
#    x 1.826050 0.000000 0.000000 
#    y 0.000000 1.864050 0.000000 
#    z 0.000000 0.000000 2.210980 
# 
# From -- ./inp_files/10197.got.cif
#   From: 2010.05.17/outbox.cif.g08.bks.cpg/sg54_6_cif.got.tgz:10197.got - 2010.06.03 13:09:01.
