data_PCOD9423269
_publ_section_title
;
Structure prediction by ZEFSAII (Michael W. Deem and Ramdas Pophale) SiO2 
 PCOD9423269
Probable space group: P C C A
;
_chemical_formula_sum "Si O2"
_cell_formula_units_Z 40
_cell_length_a 8.403832
_cell_length_b 14.131643
_cell_length_c 15.080034
_cell_angle_alpha 90.000000
_cell_angle_beta 90.000000
_cell_angle_gamma 90.000000
_cell_volume 1790.904139
_symmetry_space_group_name_H-M "P C C A"
_symmetry_group_IT_number 54
_symmetry_cell_setting 'orthorhombic'
loop_
_space_group_symop_operation_xyz
x,y,z
1/2-x,-y,z
1/2+x,-y,1/2-z
-x,y,1/2-z
-x,-y,-z
1/2+x,y,-z
1/2-x,y,1/2+z
x,-y,1/2+z
loop_
_atom_site_type_symbol
_atom_site_label
_atom_site_fract_x
_atom_site_fract_y
_atom_site_fract_z
Si Si1 0.426591 0.467121 0.343338
Si Si2 0.819035 0.109414 0.111375
Si Si3 0.176347 0.102131 0.712048
Si Si4 0.129726 0.409139 0.034505
Si Si5 0.834610 0.809038 0.942440
O O1 0.250000 0.500000 0.321771
O O2 0.500000 0.433711 0.250000
O O3 0.511916 0.557813 0.387584
O O4 0.428456 0.401164 0.431582
O O5 0.784923 0.145253 0.210343
O O6 0.001463 0.136928 0.086705
O O7 0.750000 0.000000 0.110619
O O8 0.708729 0.160618 0.040878
O O9 0.193646 0.157388 0.621849
O O10 0.000000 0.093524 0.750000
O O11 0.250000 0.000000 0.693022
O O12 0.250000 0.500000 0.031307
O O13 0.171581 0.303821 0.060937
#
# Coordination Sequence:
#
# PCOD9423269 Si02
#       5
#     8   8   8   8   8
#     4  10  22  44  72  97 136 186 234 299 365 418
#     4  11  24  43  69 106 143 185 238 299 365 437
#     4  11  23  46  74 106 145 186 238 301 362 439
#     4  10  25  47  69 102 145 187 247 304 353 436
#     4  12  25  44  73 103 145 193 238 296 371 437
#
# _framework density 22.335089
#
# number of rings (size 3 to 8) (size 9 to 14) (size 15 to 20)
#    0.000    1.200    0.000    6.000    8.400    2.400 
#    3.600    0.000    0.000    0.000    0.000    0.000 
#    0.000    0.000    0.000    0.000    0.000    0.000 
#
# Total GULP energy -223097.874567 kJ/mol
# GULP energy per Si atom -5577.446864 kJ/mol
# Density = 2.228425 g / cm^3
# Si number density = 22.335089 Si / 1000 Ang^3
#
#
#
# Elastic Constant Matrix: (Units=GPa)
#
#
# Indices 1 2 3 4 5 6 
#
# 1 96.9919 35.3171 19.4331 0.0000 0.0000 0.0000
# 2 35.3171 113.4378 31.0627 0.0000 0.0000 0.0000
# 3 19.4331 31.0627 102.1459 0.0000 0.0000 0.0000
# 4 0.0000 0.0000 0.0000 129.1452 0.0000 0.0000
# 5 0.0000 0.0000 0.0000 0.0000 49.2661 0.0000
# 6 0.0000 0.0000 0.0000 0.0000 0.0000 17.5318
#
#
#
# Elastic Compliance Matrix: (Units=1/GPa)
#
#
# Indices 1 2 3 4 5 6 
#
# 1 0.011768 -0.003328 -0.001227 0.000000 0.000000 0.000000
# 2 -0.003328 0.010557 -0.002577 0.000000 0.000000 0.000000
# 3 -0.001227 -0.002577 0.010807 0.000000 0.000000 0.000000
# 4 0.000000 0.000000 0.000000 0.007743 0.000000 0.000000
# 5 0.000000 0.000000 0.000000 0.000000 0.020298 0.000000
# 6 0.000000 0.000000 0.000000 0.000000 0.000000 0.057039
#
#
# Mechanical properties :
#
#
# Convention : Reuss Voigt Hill
#
# Bulk Modulus (GPa) = 52.99943 53.80018 53.39980
# Shear Modulus (GPa) = 36.03205 54.30614 45.16909
#
# Velocity S-wave (km/s) = 4.02088 4.93630 4.50192
# Velocity P-wave (km/s) = 6.73331 7.52525 7.14027
#
# Compressibility (1/GPa) = 0.01886813
#
# Stress axis : x y z
#
# Youngs Moduli (GPa) = 84.97875 94.72203 92.53184
#
# Poissons Ratio (x) = 0.31521 0.11352
# Poissons Ratio (y) = 0.28279 0.23849
# Poissons Ratio (z) = 0.10425 0.24413
#
# Static dielectric constant tensor:
#      x y z
#    x 1.892670 0.000000 0.000000 
#    y 0.000000 1.856000 0.000000 
#    z 0.000000 0.000000 1.802710 
# 
# From -- ./inp_files/11509.got.cif
#   From: 2010.05.17/outbox.cif.g08.bks.cpg/sg54_6_cif.got.tgz:11509.got - 2010.06.03 13:09:01.
