data_PCOD9423220
_publ_section_title
;
Structure prediction by ZEFSAII (Michael W. Deem and Ramdas Pophale) SiO2 
 PCOD9423220
Probable space group: P C C A
;
_chemical_formula_sum "Si O2"
_cell_formula_units_Z 52
_cell_length_a 20.180297
_cell_length_b 5.892123
_cell_length_c 21.200607
_cell_angle_alpha 90.000000
_cell_angle_beta 90.000000
_cell_angle_gamma 90.000000
_cell_volume 2520.853768
_symmetry_space_group_name_H-M "P C C A"
_symmetry_group_IT_number 54
_symmetry_cell_setting 'orthorhombic'
loop_
_space_group_symop_operation_xyz
x,y,z
1/2-x,-y,z
1/2+x,-y,1/2-z
-x,y,1/2-z
-x,-y,-z
1/2+x,y,-z
1/2-x,y,1/2+z
x,-y,1/2+z
loop_
_atom_site_type_symbol
_atom_site_label
_atom_site_fract_x
_atom_site_fract_y
_atom_site_fract_z
Si Si1 0.048276 0.653690 0.073641
Si Si2 0.942601 0.620075 0.800960
Si Si3 0.712002 0.750724 0.607226
Si Si4 0.250000 0.000000 0.159054
Si Si5 0.415114 0.285430 0.480950
Si Si6 0.184207 0.345634 0.750647
Si Si7 0.377549 0.056509 0.610126
O O1 0.032545 0.498114 0.134351
O O2 0.980196 0.784121 0.058184
O O3 0.110883 0.793480 0.098325
O O4 0.070166 0.537775 0.007911
O O5 0.880789 0.483317 0.770400
O O6 0.915685 0.857421 0.828177
O O7 0.000000 0.641124 0.750000
O O8 0.750000 0.500000 0.600880
O O9 0.651371 0.741246 0.558461
O O10 0.682170 0.745616 0.678074
O O11 0.750000 0.000000 0.600195
O O12 0.297859 0.144803 0.203000
O O13 0.198230 0.135182 0.116328
O O14 0.407821 0.156055 0.546486
O O15 0.250000 0.500000 0.747632
#
# Coordination Sequence:
#
# PCOD9423220 Si02
#       7
#     8   8   8   4   8   8   8
#     4  10  22  44  64  94 135 177 228 293 350 422
#     4  11  23  41  66 100 133 179 234 287 355 430
#     4  11  26  45  69 102 139 184 237 292 354 423
#     4  12  22  40  66  94 134 172 226 286 352 418
#     4  10  24  43  66  95 134 180 231 289 353 420
#     4  11  22  44  65  92 137 177 225 291 356 416
#     4  11  24  40  68  99 131 179 229 287 354 414
#
# _framework density 20.627932000000001
#
# number of rings (size 3 to 8) (size 9 to 14) (size 15 to 20)
#    0.000    1.231    3.846    1.385    3.231    0.615 
#    8.308    0.000    0.000    0.000    0.000    0.000 
#    0.000    0.000    0.000    0.000    0.000    0.000 
#
# Total GULP energy -289625.640406 kJ/mol
# GULP energy per Si atom -5569.723854 kJ/mol
# Density = 2.058098 g / cm^3
# Si number density = 20.627932 Si / 1000 Ang^3
#
#
#
# Elastic Constant Matrix: (Units=GPa)
#
#
# Indices 1 2 3 4 5 6 
#
# 1 124.0391 30.6255 76.9801 0.0000 0.0000 0.0000
# 2 30.6255 51.5212 25.4237 0.0000 0.0000 0.0000
# 3 76.9801 25.4237 110.8729 0.0000 0.0000 0.0000
# 4 0.0000 0.0000 0.0000 12.1526 0.0000 0.0000
# 5 0.0000 0.0000 0.0000 0.0000 45.3568 0.0000
# 6 0.0000 0.0000 0.0000 0.0000 0.0000 24.8126
#
#
#
# Elastic Compliance Matrix: (Units=1/GPa)
#
#
# Indices 1 2 3 4 5 6 
#
# 1 0.014946 -0.004244 -0.009404 0.000000 0.000000 0.000000
# 2 -0.004244 0.023091 -0.002348 0.000000 0.000000 0.000000
# 3 -0.009404 -0.002348 0.016087 0.000000 0.000000 0.000000
# 4 0.000000 0.000000 0.000000 0.082287 0.000000 0.000000
# 5 0.000000 0.000000 0.000000 0.000000 0.022047 0.000000
# 6 0.000000 0.000000 0.000000 0.000000 0.000000 0.040302
#
#
# Mechanical properties :
#
#
# Convention : Reuss Voigt Hill
#
# Bulk Modulus (GPa) = 45.18401 61.38798 53.28600
# Shear Modulus (GPa) = 20.99692 26.69132 23.84412
#
# Velocity S-wave (km/s) = 3.19390 3.60104 3.40356
# Velocity P-wave (km/s) = 5.96265 6.86398 6.42913
#
# Compressibility (1/GPa) = 0.02213172
#
# Stress axis : x y z
#
# Youngs Moduli (GPa) = 66.90733 43.30704 62.16141
#
# Poissons Ratio (x) = 0.18379 0.58457
# Poissons Ratio (y) = 0.28394 0.14598
# Poissons Ratio (z) = 0.62920 0.10170
#
# Static dielectric constant tensor:
#      x y z
#    x 1.795780 0.000000 0.000000 
#    y 0.000000 1.923470 0.000000 
#    z 0.000000 0.000000 1.722030 
# 
# From -- ./inp_files/22153.got.cif
#   From: 2010.05.17/outbox.cif.g08.bks.cpg/sg54_12_cif.got.tgz:22153.got - 2010.06.03 13:09:01.
