data_PCOD9423213
_publ_section_title
;
Structure prediction by ZEFSAII (Michael W. Deem and Ramdas Pophale) SiO2 
 PCOD9423213
Probable space group: P C C A
;
_chemical_formula_sum "Si O2"
_cell_formula_units_Z 60
_cell_length_a 10.659515
_cell_length_b 8.742085
_cell_length_c 30.281909
_cell_angle_alpha 90.000000
_cell_angle_beta 90.000000
_cell_angle_gamma 90.000000
_cell_volume 2821.861667
_symmetry_space_group_name_H-M "P C C A"
_symmetry_group_IT_number 54
_symmetry_cell_setting 'orthorhombic'
loop_
_space_group_symop_operation_xyz
x,y,z
1/2-x,-y,z
1/2+x,-y,1/2-z
-x,y,1/2-z
-x,-y,-z
1/2+x,y,-z
1/2-x,y,1/2+z
x,-y,1/2+z
loop_
_atom_site_type_symbol
_atom_site_label
_atom_site_fract_x
_atom_site_fract_y
_atom_site_fract_z
Si Si1 0.615940 0.912693 0.103851
Si Si2 0.963094 0.223614 0.632781
Si Si3 0.000000 0.962271 0.750000
Si Si4 0.402323 0.646997 0.958946
Si Si5 0.883896 0.571405 0.314276
Si Si6 0.937244 0.281050 0.186838
Si Si7 0.828815 0.762852 0.227524
Si Si8 0.125246 0.292819 0.479310
O O1 0.606069 0.776283 0.139042
O O2 0.597587 0.840137 0.055930
O O3 0.750000 0.000000 0.106832
O O4 0.523104 0.047599 0.119065
O O5 0.894400 0.302447 0.591698
O O6 0.887896 0.246326 0.678534
O O7 0.088687 0.310570 0.646194
O O8 0.979448 0.853427 0.791843
O O9 0.119689 0.070749 0.757990
O O10 0.404939 0.463068 0.960710
O O11 0.276905 0.703001 0.984730
O O12 0.529986 0.716036 0.979592
O O13 0.750000 0.500000 0.322383
O O14 0.875313 0.654802 0.266939
O O15 0.989648 0.439487 0.313839
O O16 0.815695 0.277348 0.218611
#
# Coordination Sequence:
#
# PCOD9423213 Si02
#       8
#     8   8   4   8   8   8   8   8
#     4  12  21  45  71 108 135 178 239 293 350 425
#     4  12  24  45  68 102 139 179 232 299 346 424
#     4  12  22  40  60 100 136 176 222 294 350 406
#     4  10  22  44  73 104 142 184 234 287 358 420
#     4  12  29  47  65 100 141 190 244 299 359 420
#     4  12  25  43  71  97 131 188 238 289 349 422
#     4  12  24  43  66  97 140 181 236 292 351 420
#     4  10  22  43  72 106 141 183 229 293 351 432
#
# _framework density 21.262559
#
# number of rings (size 3 to 8) (size 9 to 14) (size 15 to 20)
#    0.000    0.533    5.333    2.000    5.600    1.600 
#    7.200    0.667    0.000    0.000    0.000    0.000 
#    0.000    0.000    0.000    0.000    0.000    0.000 
#
# Total GULP energy -335133.656358 kJ/mol
# GULP energy per Si atom -5585.560939 kJ/mol
# Density = 2.121416 g / cm^3
# Si number density = 21.262559 Si / 1000 Ang^3
#
#
#
# Elastic Constant Matrix: (Units=GPa)
#
#
# Indices 1 2 3 4 5 6 
#
# 1 84.8421 35.1223 35.0499 0.0000 0.0000 0.0000
# 2 35.1223 120.1849 40.5939 0.0000 0.0000 0.0000
# 3 35.0499 40.5939 80.5602 0.0000 0.0000 0.0000
# 4 0.0000 0.0000 0.0000 38.4905 0.0000 0.0000
# 5 0.0000 0.0000 0.0000 0.0000 23.3025 0.0000
# 6 0.0000 0.0000 0.0000 0.0000 0.0000 25.6882
#
#
#
# Elastic Compliance Matrix: (Units=1/GPa)
#
#
# Indices 1 2 3 4 5 6 
#
# 1 0.015030 -0.002631 -0.005213 0.000000 0.000000 0.000000
# 2 -0.002631 0.010488 -0.004140 0.000000 0.000000 0.000000
# 3 -0.005213 -0.004140 0.016767 0.000000 0.000000 0.000000
# 4 0.000000 0.000000 0.000000 0.025980 0.000000 0.000000
# 5 0.000000 0.000000 0.000000 0.000000 0.042914 0.000000
# 6 0.000000 0.000000 0.000000 0.000000 0.000000 0.038928
#
#
# Mechanical properties :
#
#
# Convention : Reuss Voigt Hill
#
# Bulk Modulus (GPa) = 54.59744 56.34660 55.47202
# Shear Modulus (GPa) = 27.74984 29.15098 28.45041
#
# Velocity S-wave (km/s) = 3.61654 3.70672 3.66191
# Velocity P-wave (km/s) = 6.57059 6.69908 6.63514
#
# Compressibility (1/GPa) = 0.01831588
#
# Stress axis : x y z
#
# Youngs Moduli (GPa) = 66.53568 95.34883 59.64009
#
# Poissons Ratio (x) = 0.25090 0.31091
# Poissons Ratio (y) = 0.17508 0.24690
# Poissons Ratio (z) = 0.34685 0.39473
#
# Static dielectric constant tensor:
#      x y z
#    x 1.867920 0.000000 0.000000 
#    y 0.000000 1.812660 0.000000 
#    z 0.000000 0.000000 1.735900 
# 
# From -- ./inp_files/26303.got.cif
#   From: 2010.05.17/outbox.cif.g08.bks.cpg/sg54_14_cif.got.tgz:26303.got - 2010.06.03 13:09:01.
