data_PCOD9423150
_publ_section_title
;
Structure prediction by ZEFSAII (Michael W. Deem and Ramdas Pophale) SiO2 
 PCOD9423150
Probable space group: P C C A
;
_chemical_formula_sum "Si O2"
_cell_formula_units_Z 60
_cell_length_a 14.729523
_cell_length_b 16.070607
_cell_length_c 10.878035
_cell_angle_alpha 90.000000
_cell_angle_beta 90.000000
_cell_angle_gamma 90.000000
_cell_volume 2574.965505
_symmetry_space_group_name_H-M "P C C A"
_symmetry_group_IT_number 54
_symmetry_cell_setting 'orthorhombic'
loop_
_space_group_symop_operation_xyz
x,y,z
1/2-x,-y,z
1/2+x,-y,1/2-z
-x,y,1/2-z
-x,-y,-z
1/2+x,y,-z
1/2-x,y,1/2+z
x,-y,1/2+z
loop_
_atom_site_type_symbol
_atom_site_label
_atom_site_fract_x
_atom_site_fract_y
_atom_site_fract_z
Si Si1 0.750000 0.000000 0.050054
Si Si2 0.134849 0.278792 0.025313
Si Si3 0.025989 0.779134 0.122254
Si Si4 0.096889 0.563679 0.814335
Si Si5 0.298453 0.822212 0.498989
Si Si6 0.046298 0.968191 0.374222
Si Si7 0.349834 0.524769 0.054060
Si Si8 0.105237 0.246759 0.285550
O O1 0.731058 0.915888 0.973842
O O2 0.844737 0.981172 0.121666
O O3 0.032309 0.264933 0.982439
O O4 0.214435 0.233689 0.951203
O O5 0.143252 0.376619 0.038334
O O6 0.154194 0.235973 0.156105
O O7 0.981214 0.870734 0.125617
O O8 0.000000 0.736367 0.250000
O O9 0.133346 0.783910 0.100080
O O10 0.092177 0.521379 0.947924
O O11 0.142631 0.510897 0.702284
O O12 0.129929 0.659103 0.829620
O O13 0.000000 0.574117 0.750000
O O14 0.366557 0.821915 0.382364
O O15 0.000000 0.003966 0.250000
O O16 0.000000 0.000000 0.500000
O O17 0.250000 0.500000 0.014789
O O18 0.000000 0.242612 0.250000
#
# Coordination Sequence:
#
# PCOD9423150 Si02
#       8
#     4   8   8   8   8   8   8   8
#     4  12  26  44  72 110 134 192 240 294 380 440
#     4  11  25  44  69  99 137 184 236 278 359 424
#     4  11  25  47  67 101 141 177 231 297 349 418
#     4  10  22  42  68  99 137 179 234 280 352 419
#     4  12  25  44  71 101 140 181 235 294 355 422
#     4  11  25  47  70 100 142 182 232 298 357 433
#     4  11  23  43  66 100 138 180 228 293 348 422
#     4  10  22  43  70  98 133 185 235 285 341 428
#
# _framework density 23.301283000000002
#
# number of rings (size 3 to 8) (size 9 to 14) (size 15 to 20)
#    0.000    1.067    4.000    1.600    1.867    3.733 
#    4.800    0.000    0.000    0.000    0.000    0.000 
#    0.000    0.000    0.000    0.000    0.000    0.000 
#
# Total GULP energy -334720.516847 kJ/mol
# GULP energy per Si atom -5578.675281 kJ/mol
# Density = 2.324825 g / cm^3
# Si number density = 23.301283 Si / 1000 Ang^3
#
#
#
# Elastic Constant Matrix: (Units=GPa)
#
#
# Indices 1 2 3 4 5 6 
#
# 1 113.5348 5.7933 16.7779 0.0000 0.0000 0.0000
# 2 5.7933 46.9337 16.3682 0.0000 0.0000 0.0000
# 3 16.7779 16.3682 98.5910 0.0000 0.0000 0.0000
# 4 0.0000 0.0000 0.0000 19.8092 0.0000 0.0000
# 5 0.0000 0.0000 0.0000 0.0000 26.0362 0.0000
# 6 0.0000 0.0000 0.0000 0.0000 0.0000 28.8862
#
#
#
# Elastic Compliance Matrix: (Units=1/GPa)
#
#
# Indices 1 2 3 4 5 6 
#
# 1 0.009052 -0.000616 -0.001438 0.000000 0.000000 0.000000
# 2 -0.000616 0.022658 -0.003657 0.000000 0.000000 0.000000
# 3 -0.001438 -0.003657 0.010995 0.000000 0.000000 0.000000
# 4 0.000000 0.000000 0.000000 0.050482 0.000000 0.000000
# 5 0.000000 0.000000 0.000000 0.000000 0.038408 0.000000
# 6 0.000000 0.000000 0.000000 0.000000 0.000000 0.034619
#
#
# Mechanical properties :
#
#
# Convention : Reuss Voigt Hill
#
# Bulk Modulus (GPa) = 31.96631 37.43756 34.70194
# Shear Modulus (GPa) = 26.58692 29.62098 28.10395
#
# Velocity S-wave (km/s) = 3.38154 3.56928 3.47668
# Velocity P-wave (km/s) = 5.38469 5.75221 5.57149
#
# Compressibility (1/GPa) = 0.03128294
#
# Stress axis : x y z
#
# Youngs Moduli (GPa) = 110.47496 44.13449 90.95222
#
# Poissons Ratio (x) = 0.02718 0.13081
# Poissons Ratio (y) = 0.06802 0.33260
# Poissons Ratio (z) = 0.15888 0.16140
#
# Static dielectric constant tensor:
#      x y z
#    x 2.204420 0.000000 0.000000 
#    y 0.000000 1.783370 0.000000 
#    z 0.000000 0.000000 2.025850 
# 
# From -- ./inp_files/8523.got.cif
#   From: 2010.05.17/outbox.cif.g08.bks.cpg/sg54_5_cif.got.tgz:8523.got - 2010.06.03 13:09:01.
