data_PCOD9423391
_publ_section_title
;
Structure prediction by ZEFSAII (Michael W. Deem and Ramdas Pophale) SiO2 
 PCOD9423391
Probable space group: P C C A
;
_chemical_formula_sum "Si O2"
_cell_formula_units_Z 56
_cell_length_a 10.560115
_cell_length_b 16.721922
_cell_length_c 14.736211
_cell_angle_alpha 90.000000
_cell_angle_beta 90.000000
_cell_angle_gamma 90.000000
_cell_volume 2602.199999
_symmetry_space_group_name_H-M "P C C A"
_symmetry_group_IT_number 54
_symmetry_cell_setting 'orthorhombic'
loop_
_space_group_symop_operation_xyz
x,y,z
1/2-x,-y,z
1/2+x,-y,1/2-z
-x,y,1/2-z
-x,-y,-z
1/2+x,y,-z
1/2-x,y,1/2+z
x,-y,1/2+z
loop_
_atom_site_type_symbol
_atom_site_label
_atom_site_fract_x
_atom_site_fract_y
_atom_site_fract_z
Si Si1 0.211459 0.148782 0.028465
Si Si2 0.481837 0.078971 0.059048
Si Si3 0.251559 0.675033 0.977909
Si Si4 0.433886 0.465539 0.408879
Si Si5 0.871577 0.629461 0.691425
Si Si6 0.817823 0.414280 0.842279
Si Si7 0.878805 0.037075 0.301863
O O1 0.360980 0.128134 0.021354
O O2 0.165198 0.100312 0.119168
O O3 0.195834 0.243574 0.020353
O O4 0.117913 0.119577 0.948550
O O5 0.440321 0.042506 0.153952
O O6 0.500000 0.000000 0.000000
O O7 0.350257 0.609387 0.940103
O O8 0.155950 0.688274 0.893120
O O9 0.191280 0.632560 0.063931
O O10 0.500000 0.500000 0.500000
O O11 0.375886 0.542313 0.357520
O O12 0.536036 0.432890 0.339037
O O13 0.754815 0.629692 0.761572
O O14 0.000000 0.641169 0.750000
O O15 0.750000 0.500000 0.851930
O O16 0.000000 0.073762 0.250000
O O17 0.750000 0.000000 0.257089
#
# Coordination Sequence:
#
# PCOD9423391 Si02
#       7
#     8   8   8   8   8   8   8
#     4  10  23  40  67 100 141 181 222 279 356 423
#     4   9  19  40  66  96 127 173 223 264 323 410
#     4  12  26  42  65  99 140 179 225 292 364 421
#     4  12  23  42  67  91 129 179 242 293 350 411
#     4  12  25  42  70  99 127 180 249 297 349 416
#     4  12  23  41  65  94 127 177 235 298 344 414
#     4   9  19  39  69 103 135 174 228 279 329 409
#
# _framework density 21.520251999999999
#
# number of rings (size 3 to 8) (size 9 to 14) (size 15 to 20)
#    0.000    1.143    4.286    2.571    2.000    2.286 
#    0.000    7.857    0.000    1.714    0.000    0.000 
#    0.000    0.000    0.000    0.000    0.000    0.000 
#
# Total GULP energy -312116.331001 kJ/mol
# GULP energy per Si atom -5573.505911 kJ/mol
# Density = 2.147127 g / cm^3
# Si number density = 21.520252 Si / 1000 Ang^3
#
#
#
# Elastic Constant Matrix: (Units=GPa)
#
#
# Indices 1 2 3 4 5 6 
#
# 1 63.3192 11.5124 50.4841 0.0000 0.0000 0.0000
# 2 11.5124 64.7068 15.5078 0.0000 0.0000 0.0000
# 3 50.4841 15.5078 117.3733 0.0000 0.0000 0.0000
# 4 0.0000 0.0000 0.0000 13.0860 0.0000 0.0000
# 5 0.0000 0.0000 0.0000 0.0000 47.3576 0.0000
# 6 0.0000 0.0000 0.0000 0.0000 0.0000 14.5167
#
#
#
# Elastic Compliance Matrix: (Units=1/GPa)
#
#
# Indices 1 2 3 4 5 6 
#
# 1 0.024254 -0.001874 -0.010184 0.000000 0.000000 0.000000
# 2 -0.001874 0.016105 -0.001322 0.000000 0.000000 0.000000
# 3 -0.010184 -0.001322 0.013075 0.000000 0.000000 0.000000
# 4 0.000000 0.000000 0.000000 0.076418 0.000000 0.000000
# 5 0.000000 0.000000 0.000000 0.000000 0.021116 0.000000
# 6 0.000000 0.000000 0.000000 0.000000 0.000000 0.068886
#
#
# Mechanical properties :
#
#
# Convention : Reuss Voigt Hill
#
# Bulk Modulus (GPa) = 37.49155 44.48976 40.99066
# Shear Modulus (GPa) = 19.56918 26.18506 22.87712
#
# Velocity S-wave (km/s) = 3.01879 3.49200 3.26398
# Velocity P-wave (km/s) = 5.44152 6.08088 5.77006
#
# Compressibility (1/GPa) = 0.02667267
#
# Stress axis : x y z
#
# Youngs Moduli (GPa) = 41.23098 62.09427 76.48284
#
# Poissons Ratio (x) = 0.11638 0.77892
# Poissons Ratio (y) = 0.07728 0.10108
# Poissons Ratio (z) = 0.41990 0.08207
#
# Static dielectric constant tensor:
#      x y z
#    x 1.736200 0.000000 0.000000 
#    y 0.000000 1.850340 0.000000 
#    z 0.000000 0.000000 1.793600 
# 
# From -- ./inp_files/12727.got.cif
#   From: 2010.05.17/outbox.cif.g08.bks.cpg/sg54_7_cif.got.tgz:12727.got - 2010.06.03 13:09:01.
