data_PCOD9423253
_publ_section_title
;
Structure prediction by ZEFSAII (Michael W. Deem and Ramdas Pophale) SiO2 
 PCOD9423253
Probable space group: P C C A
;
_chemical_formula_sum "Si O2"
_cell_formula_units_Z 48
_cell_length_a 9.724328
_cell_length_b 17.814893
_cell_length_c 12.207254
_cell_angle_alpha 90.000000
_cell_angle_beta 90.000000
_cell_angle_gamma 90.000000
_cell_volume 2114.758594
_symmetry_space_group_name_H-M "P C C A"
_symmetry_group_IT_number 54
_symmetry_cell_setting 'orthorhombic'
loop_
_space_group_symop_operation_xyz
x,y,z
1/2-x,-y,z
1/2+x,-y,1/2-z
-x,y,1/2-z
-x,-y,-z
1/2+x,y,-z
1/2-x,y,1/2+z
x,-y,1/2+z
loop_
_atom_site_type_symbol
_atom_site_label
_atom_site_fract_x
_atom_site_fract_y
_atom_site_fract_z
Si Si1 0.752675 0.413055 0.390443
Si Si2 0.500000 0.072070 0.250000
Si Si3 0.853412 0.291411 0.562210
Si Si4 0.561572 0.085016 0.005825
Si Si5 0.250000 0.000000 0.131441
Si Si6 0.090117 0.776737 0.929066
Si Si7 0.500000 0.359920 0.250000
Si Si8 0.500000 0.340691 0.750000
O O1 0.750000 0.500000 0.422469
O O2 0.785059 0.359886 0.494617
O O3 0.601501 0.401939 0.335111
O O4 0.881428 0.390512 0.309497
O O5 0.546301 0.109958 0.133840
O O6 0.372420 0.022932 0.210993
O O7 0.749721 0.223222 0.543930
O O8 0.887474 0.312389 0.684910
O O9 0.000122 0.267959 0.516711
O O10 0.477487 0.141900 0.928285
O O11 0.500000 0.000000 0.000000
O O12 0.707256 0.068717 0.947684
O O13 0.076114 0.719274 0.828364
#
# Coordination Sequence:
#
# PCOD9423253 Si02
#       8
#     8   4   8   8   4   8   4   4
#     4  11  24  44  73 109 149 192 251 315 371 453
#     4  10  22  44  70 101 145 186 246 306 376 448
#     4  11  25  45  68 104 145 192 245 304 377 450
#     4  10  24  43  71 106 146 193 250 313 375 450
#     4  10  22  44  70 108 150 190 258 306 384 450
#     4  11  24  45  70 100 149 189 246 309 374 447
#     4  12  23  45  74 103 149 196 254 304 375 467
#     4  10  23  47  70 106 146 200 252 294 397 451
#
# _framework density 22.697627000000001
#
# number of rings (size 3 to 8) (size 9 to 14) (size 15 to 20)
#    0.000    1.333    3.333    1.000    4.667    4.667 
#    3.000    0.000    0.000    0.000    0.000    0.000 
#    0.000    0.000    0.000    0.000    0.000    0.000 
#
# Total GULP energy -267548.395678 kJ/mol
# GULP energy per Si atom -5573.924910 kJ/mol
# Density = 2.264597 g / cm^3
# Si number density = 22.697627 Si / 1000 Ang^3
#
#
#
# Elastic Constant Matrix: (Units=GPa)
#
#
# Indices 1 2 3 4 5 6 
#
# 1 128.4629 25.8712 40.9189 0.0000 0.0000 0.0000
# 2 25.8712 125.0014 26.5161 0.0000 0.0000 0.0000
# 3 40.9189 26.5161 71.6634 0.0000 0.0000 0.0000
# 4 0.0000 0.0000 0.0000 -2.6797 0.0000 0.0000
# 5 0.0000 0.0000 0.0000 0.0000 39.2859 0.0000
# 6 0.0000 0.0000 0.0000 0.0000 0.0000 33.4297
#
#
#
# Elastic Compliance Matrix: (Units=1/GPa)
#
#
# Indices 1 2 3 4 5 6 
#
# 1 0.009606 -0.000895 -0.005154 0.000000 0.000000 0.000000
# 2 -0.000895 0.008765 -0.002732 0.000000 0.000000 0.000000
# 3 -0.005154 -0.002732 0.017908 0.000000 0.000000 0.000000
# 4 0.000000 0.000000 0.000000 -0.373175 0.000000 0.000000
# 5 0.000000 0.000000 0.000000 0.000000 0.025454 0.000000
# 6 0.000000 0.000000 0.000000 0.000000 0.000000 0.029914
#
#
# Mechanical properties :
#
#
# Convention : Reuss Voigt Hill
#
# Bulk Modulus (GPa) = 53.42728 56.86001 55.14364
# Shear Modulus (GPa) = -19.40034 29.46194 5.03080
#
# Velocity S-wave (km/s) = -2.92675 3.60671 1.49039
# Velocity P-wave (km/s) = 3.48836 6.51536 5.22583
#
# Compressibility (1/GPa) = 0.01871703
#
# Stress axis : x y z
#
# Youngs Moduli (GPa) = 104.09914 114.09458 55.84154
#
# Poissons Ratio (x) = 0.10210 0.28780
# Poissons Ratio (y) = 0.09316 0.15256
# Poissons Ratio (z) = 0.53652 0.31171
#
# Static dielectric constant tensor:
#      x y z
#    x 2.030460 0.000000 0.000000 
#    y 0.000000 1.848950 0.000000 
#    z 0.000000 0.000000 2.006300 
# 
# From -- ./inp_files/11800.got.cif
#   From: 2010.05.17/outbox.cif.g08.bks.cpg/sg54_6_cif.got.tgz:11800.got - 2010.06.03 13:09:01.
