data_PCOD9423661
_publ_section_title
;
Structure prediction by ZEFSAII (Michael W. Deem and Ramdas Pophale) SiO2 
 PCOD9423661
Probable space group: P C C A
;
_chemical_formula_sum "Si O2"
_cell_formula_units_Z 40
_cell_length_a 12.015477
_cell_length_b 17.765689
_cell_length_c 8.718249
_cell_angle_alpha 90.000000
_cell_angle_beta 90.000000
_cell_angle_gamma 90.000000
_cell_volume 1861.025570
_symmetry_space_group_name_H-M "P C C A"
_symmetry_group_IT_number 54
_symmetry_cell_setting 'orthorhombic'
loop_
_space_group_symop_operation_xyz
x,y,z
1/2-x,-y,z
1/2+x,-y,1/2-z
-x,y,1/2-z
-x,-y,-z
1/2+x,y,-z
1/2-x,y,1/2+z
x,-y,1/2+z
loop_
_atom_site_type_symbol
_atom_site_label
_atom_site_fract_x
_atom_site_fract_y
_atom_site_fract_z
Si Si1 0.339845 0.596054 0.167507
Si Si2 0.376462 0.233294 0.746918
Si Si3 0.114538 0.441037 0.813294
Si Si4 0.134537 0.051674 0.732462
Si Si5 0.755307 0.146966 0.010866
O O1 0.378823 0.679374 0.204167
O O2 0.383862 0.530840 0.281293
O O3 0.209501 0.592881 0.205478
O O4 0.365168 0.574590 0.991915
O O5 0.500000 0.203464 0.750000
O O6 0.311904 0.183698 0.625424
O O7 0.315894 0.215645 0.904798
O O8 0.000000 0.409870 0.750000
O O9 0.152628 0.092448 0.567290
O O10 0.168720 0.105887 0.874682
O O11 0.000000 0.029511 0.750000
O O12 0.250000 0.000000 0.733434
#
# Coordination Sequence:
#
# PCOD9423661 Si02
#       5
#     8   8   8   8   8
#     4  11  23  39  61  92 120 164 218 263 323 389
#     4  11  23  42  65  89 126 170 213 262 319 380
#     4  11  23  40  61  87 126 162 209 274 330 378
#     4  11  24  43  69 100 134 171 213 261 315 376
#     4  10  24  42  64  96 131 168 213 260 313 380
#
# _framework density 21.493524000000001
#
# number of rings (size 3 to 8) (size 9 to 14) (size 15 to 20)
#    0.000    1.200    0.000    6.600    0.000    9.600 
#    0.000    5.000    0.000    0.000    0.000    0.000 
#    0.000    0.000    0.000    0.000    0.000    0.000 
#
# Total GULP energy -223086.161598 kJ/mol
# GULP energy per Si atom -5577.154040 kJ/mol
# Density = 2.144460 g / cm^3
# Si number density = 21.493524 Si / 1000 Ang^3
#
#
#
# Elastic Constant Matrix: (Units=GPa)
#
#
# Indices 1 2 3 4 5 6 
#
# 1 176.9974 32.3275 48.1889 0.0000 0.0000 0.0000
# 2 32.3275 47.4820 48.9235 0.0000 0.0000 0.0000
# 3 48.1889 48.9235 100.1449 0.0000 0.0000 0.0000
# 4 0.0000 0.0000 0.0000 18.7359 0.0000 0.0000
# 5 0.0000 0.0000 0.0000 0.0000 20.1945 0.0000
# 6 0.0000 0.0000 0.0000 0.0000 0.0000 -116.5654
#
#
#
# Elastic Compliance Matrix: (Units=1/GPa)
#
#
# Indices 1 2 3 4 5 6 
#
# 1 0.006643 -0.002475 -0.001987 0.000000 0.000000 0.000000
# 2 -0.002475 0.043328 -0.019976 0.000000 0.000000 0.000000
# 3 -0.001987 -0.019976 0.020701 0.000000 0.000000 0.000000
# 4 0.000000 0.000000 0.000000 0.053373 0.000000 0.000000
# 5 0.000000 0.000000 0.000000 0.000000 0.049518 0.000000
# 6 0.000000 0.000000 0.000000 0.000000 0.000000 -0.008579
#
#
# Mechanical properties :
#
#
# Convention : Reuss Voigt Hill
#
# Bulk Modulus (GPa) = 45.88230 64.83379 55.35805
# Shear Modulus (GPa) = 22.61148 -2.51469 10.04839
#
# Velocity S-wave (km/s) = 3.24699 -1.08283 2.16454
# Velocity P-wave (km/s) = 5.95405 5.35411 5.66203
#
# Compressibility (1/GPa) = 0.02179490
#
# Stress axis : x y z
#
# Youngs Moduli (GPa) = 150.53587 23.07966 48.30759
#
# Poissons Ratio (x) = 0.05712 0.09601
# Poissons Ratio (y) = 0.37258 0.96499
# Poissons Ratio (z) = 0.29918 0.46104
#
# Static dielectric constant tensor:
#      x y z
#    x 1.870580 0.000000 0.000000 
#    y 0.000000 1.800580 0.000000 
#    z 0.000000 0.000000 1.735440 
# 
# From -- ./inp_files/2933.got.cif
#   From: 2010.05.17/outbox.cif.g08.bks.cpg/sg54_2_cif.got.tgz:2933.got - 2010.06.03 13:09:01.
