data_PCOD9423050
_publ_section_title
;
Structure prediction by ZEFSAII (Michael W. Deem and Ramdas Pophale) SiO2 
 PCOD9423050
Probable space group: P C C A
;
_chemical_formula_sum "Si O2"
_cell_formula_units_Z 40
_cell_length_a 25.165311
_cell_length_b 4.960459
_cell_length_c 15.285162
_cell_angle_alpha 90.000000
_cell_angle_beta 90.000000
_cell_angle_gamma 90.000000
_cell_volume 1908.069600
_symmetry_space_group_name_H-M "P C C A"
_symmetry_group_IT_number 54
_symmetry_cell_setting 'orthorhombic'
loop_
_space_group_symop_operation_xyz
x,y,z
1/2-x,-y,z
1/2+x,-y,1/2-z
-x,y,1/2-z
-x,-y,-z
1/2+x,y,-z
1/2-x,y,1/2+z
x,-y,1/2+z
loop_
_atom_site_type_symbol
_atom_site_label
_atom_site_fract_x
_atom_site_fract_y
_atom_site_fract_z
Si Si1 0.905725 0.805055 0.593412
Si Si2 0.496509 0.550263 0.644839
Si Si3 0.858090 0.077219 0.753682
Si Si4 0.191617 0.599342 0.825489
Si Si5 0.068245 0.046898 0.089275
O O1 0.847200 0.667855 0.593366
O O2 0.915964 0.985492 0.509510
O O3 0.950237 0.577599 0.605039
O O4 0.902355 0.982807 0.682233
O O5 0.500000 0.543476 0.750000
O O6 0.480559 0.846656 0.613149
O O7 0.450181 0.347882 0.611616
O O8 0.838796 0.372958 0.730555
O O9 0.883880 0.038266 0.847192
O O10 0.810583 0.869688 0.732475
O O11 0.250000 0.500000 0.848084
#
# Coordination Sequence:
#
# PCOD9423050 Si02
#       5
#     8   8   8   8   8
#     4  10  25  38  65  93 127 163 216 252 318 373
#     4  12  23  39  61  92 132 169 206 248 314 381
#     4  10  22  41  64  90 126 163 210 258 316 373
#     4  10  22  43  68  87 121 166 210 268 325 366
#     4  12  24  39  63  93 132 165 206 256 309 382
#
# _framework density 20.963597
#
# number of rings (size 3 to 8) (size 9 to 14) (size 15 to 20)
#    1.200    0.000    2.000    4.800    5.600    0.000 
#    0.000    1.000    4.400    0.000    0.000    0.000 
#    0.000    0.000    0.000    0.000    0.000    0.000 
#
# Total GULP energy -223621.789400 kJ/mol
# GULP energy per Si atom -5590.544735 kJ/mol
# Density = 2.091588 g / cm^3
# Si number density = 20.963597 Si / 1000 Ang^3
#
#
#
# Elastic Constant Matrix: (Units=GPa)
#
#
# Indices 1 2 3 4 5 6 
#
# 1 87.5029 -4.2006 17.7121 0.0000 0.0000 0.0000
# 2 -4.2006 72.2685 11.9046 0.0000 0.0000 0.0000
# 3 17.7121 11.9046 93.9274 0.0000 0.0000 0.0000
# 4 0.0000 0.0000 0.0000 5.4908 0.0000 0.0000
# 5 0.0000 0.0000 0.0000 0.0000 10.4449 0.0000
# 6 0.0000 0.0000 0.0000 0.0000 0.0000 31.3841
#
#
#
# Elastic Compliance Matrix: (Units=1/GPa)
#
#
# Indices 1 2 3 4 5 6 
#
# 1 0.011965 0.001090 -0.002394 0.000000 0.000000 0.000000
# 2 0.001090 0.014232 -0.002009 0.000000 0.000000 0.000000
# 3 -0.002394 -0.002009 0.011353 0.000000 0.000000 0.000000
# 4 0.000000 0.000000 0.000000 0.182122 0.000000 0.000000
# 5 0.000000 0.000000 0.000000 0.000000 0.095741 0.000000
# 6 0.000000 0.000000 0.000000 0.000000 0.000000 0.031863
#
#
# Mechanical properties :
#
#
# Convention : Reuss Voigt Hill
#
# Bulk Modulus (GPa) = 32.33952 33.83675 33.08814
# Shear Modulus (GPa) = 13.72832 24.68281 19.20556
#
# Velocity S-wave (km/s) = 2.56181 3.43507 3.03006
# Velocity P-wave (km/s) = 4.92042 5.64878 5.29713
#
# Compressibility (1/GPa) = 0.03092192
#
# Stress axis : x y z
#
# Youngs Moduli (GPa) = 83.57582 70.26604 88.08474
#
# Poissons Ratio (x) = -0.07658 0.21091
# Poissons Ratio (y) = -0.09109 0.17699
# Poissons Ratio (z) = 0.20012 0.14118
#
# Static dielectric constant tensor:
#      x y z
#    x 1.776830 0.000000 0.000000 
#    y 0.000000 1.763500 0.000000 
#    z 0.000000 0.000000 1.713690 
# 
# From -- ./inp_files/14808.got.cif
#   From: 2010.05.17/outbox.cif.g08.bks.cpg/sg54_8_cif.got.tgz:14808.got - 2010.06.03 13:09:01.
