data_PCOD9423210
_publ_section_title
;
Structure prediction by ZEFSAII (Michael W. Deem and Ramdas Pophale) SiO2 
 PCOD9423210
Probable space group: P C C A
;
_chemical_formula_sum "Si O2"
_cell_formula_units_Z 44
_cell_length_a 11.996139
_cell_length_b 11.127073
_cell_length_c 16.195410
_cell_angle_alpha 90.000000
_cell_angle_beta 90.000000
_cell_angle_gamma 90.000000
_cell_volume 2161.794331
_symmetry_space_group_name_H-M "P C C A"
_symmetry_group_IT_number 54
_symmetry_cell_setting 'orthorhombic'
loop_
_space_group_symop_operation_xyz
x,y,z
1/2-x,-y,z
1/2+x,-y,1/2-z
-x,y,1/2-z
-x,-y,-z
1/2+x,y,-z
1/2-x,y,1/2+z
x,-y,1/2+z
loop_
_atom_site_type_symbol
_atom_site_label
_atom_site_fract_x
_atom_site_fract_y
_atom_site_fract_z
Si Si1 0.500000 0.124551 0.750000
Si Si2 0.112907 0.475332 0.690125
Si Si3 0.844325 0.924761 0.191344
Si Si4 0.059285 0.281975 0.101481
Si Si5 0.489552 0.125963 0.046924
Si Si6 0.805483 0.219169 0.850800
O O1 0.489875 0.211695 0.828073
O O2 0.399786 0.029583 0.752812
O O3 0.250000 0.500000 0.717207
O O4 0.076402 0.578889 0.625453
O O5 0.128254 0.345008 0.650542
O O6 0.000000 0.472214 0.750000
O O7 0.927289 0.872141 0.124610
O O8 0.805923 0.825578 0.256348
O O9 0.750000 0.000000 0.144912
O O10 0.182918 0.232245 0.114840
O O11 0.012679 0.236620 0.014720
O O12 0.369609 0.132096 0.088195
O O13 0.500000 0.000000 0.000000
#
# Coordination Sequence:
#
# PCOD9423210 Si02
#       6
#     4   8   8   8   8   8
#     4  12  20  40  60  94 122 168 212 262 334 398
#     4  10  22  43  71  98 132 182 231 283 340 403
#     4  12  23  38  65  91 127 171 215 267 338 402
#     4  11  24  41  67  93 134 172 220 280 333 404
#     4  12  25  38  61  96 133 168 217 272 336 410
#     4  11  24  44  64  94 134 171 222 281 336 404
#
# _framework density 20.353463000000001
#
# number of rings (size 3 to 8) (size 9 to 14) (size 15 to 20)
#    0.000    0.727    6.364    1.091    2.545    0.727 
#    0.000    1.818    0.000    3.273    0.000    0.000 
#    0.000    0.000    0.000    0.000    0.000    0.000 
#
# Total GULP energy -245003.087756 kJ/mol
# GULP energy per Si atom -5568.251994 kJ/mol
# Density = 2.030714 g / cm^3
# Si number density = 20.353463 Si / 1000 Ang^3
#
#
#
# Elastic Constant Matrix: (Units=GPa)
#
#
# Indices 1 2 3 4 5 6 
#
# 1 51.6898 3.4933 10.3899 0.0000 0.0000 0.0000
# 2 3.4933 39.9267 13.6885 0.0000 0.0000 0.0000
# 3 10.3899 13.6885 83.4918 0.0000 0.0000 0.0000
# 4 0.0000 0.0000 0.0000 27.4362 0.0000 0.0000
# 5 0.0000 0.0000 0.0000 0.0000 0.1433 0.0000
# 6 0.0000 0.0000 0.0000 0.0000 0.0000 24.6074
#
#
#
# Elastic Compliance Matrix: (Units=1/GPa)
#
#
# Indices 1 2 3 4 5 6 
#
# 1 0.019876 -0.000944 -0.002319 0.000000 0.000000 0.000000
# 2 -0.000944 0.026582 -0.004241 0.000000 0.000000 0.000000
# 3 -0.002319 -0.004241 0.012961 0.000000 0.000000 0.000000
# 4 0.000000 0.000000 0.000000 0.036448 0.000000 0.000000
# 5 0.000000 0.000000 0.000000 0.000000 6.976534 0.000000
# 6 0.000000 0.000000 0.000000 0.000000 0.000000 0.040638
#
#
# Mechanical properties :
#
#
# Convention : Reuss Voigt Hill
#
# Bulk Modulus (GPa) = 22.51613 25.58351 24.04982
# Shear Modulus (GPa) = 0.70000 20.27316 10.48658
#
# Velocity S-wave (km/s) = 0.58708 3.15946 2.27232
# Velocity P-wave (km/s) = 3.39796 5.08984 4.32739
#
# Compressibility (1/GPa) = 0.04441260
#
# Stress axis : x y z
#
# Youngs Moduli (GPa) = 50.31183 37.61887 77.15441
#
# Poissons Ratio (x) = 0.03552 0.17889
# Poissons Ratio (y) = 0.04750 0.32719
# Poissons Ratio (z) = 0.11665 0.15953
#
# Static dielectric constant tensor:
#      x y z
#    x 1.962150 0.000000 0.000000 
#    y 0.000000 1.731090 0.000000 
#    z 0.000000 0.000000 1.705190 
# 
# From -- ./inp_files/17206.got.cif
#   From: 2010.05.17/outbox.cif.g08.bks.cpg/sg54_9_cif.got.tgz:17206.got - 2010.06.03 13:09:01.
