data_PCOD9423193
_publ_section_title
;
Structure prediction by ZEFSAII (Michael W. Deem and Ramdas Pophale) SiO2 
 PCOD9423193
Probable space group: P C C A
;
_chemical_formula_sum "Si O2"
_cell_formula_units_Z 48
_cell_length_a 8.404434
_cell_length_b 10.327125
_cell_length_c 28.395991
_cell_angle_alpha 90.000000
_cell_angle_beta 90.000000
_cell_angle_gamma 90.000000
_cell_volume 2464.591434
_symmetry_space_group_name_H-M "P C C A"
_symmetry_group_IT_number 54
_symmetry_cell_setting 'orthorhombic'
loop_
_space_group_symop_operation_xyz
x,y,z
1/2-x,-y,z
1/2+x,-y,1/2-z
-x,y,1/2-z
-x,-y,-z
1/2+x,y,-z
1/2-x,y,1/2+z
x,-y,1/2+z
loop_
_atom_site_type_symbol
_atom_site_label
_atom_site_fract_x
_atom_site_fract_y
_atom_site_fract_z
Si Si1 0.443244 0.007119 0.104341
Si Si2 0.557215 0.263225 0.937377
Si Si3 0.608128 0.602509 0.796562
Si Si4 0.893467 0.899547 0.296405
Si Si5 0.436904 0.474415 0.392643
Si Si6 0.065436 0.247320 0.542545
O O1 0.486414 0.059845 0.155962
O O2 0.490342 0.110379 0.064497
O O3 0.250000 0.000000 0.104459
O O4 0.496141 0.862762 0.092077
O O5 0.519835 0.394073 0.909915
O O6 0.746182 0.257204 0.947329
O O7 0.469885 0.259039 0.987566
O O8 0.750000 0.500000 0.792979
O O9 0.500000 0.595822 0.750000
O O10 0.665162 0.751432 0.802189
O O11 0.505491 0.568185 0.842438
O O12 0.000000 0.905070 0.250000
O O13 0.750000 0.000000 0.291211
O O14 0.250000 0.500000 0.390236
O O15 0.477834 0.362183 0.429859
#
# Coordination Sequence:
#
# PCOD9423193 Si02
#       6
#     8   8   8   8   8   8
#     4   9  20  39  63  91 124 165 206 257 317 374
#     4  11  23  39  65  92 125 169 210 261 319 377
#     4  11  24  44  69  97 131 166 209 261 313 375
#     4  10  22  43  66  96 128 164 208 255 311 377
#     4  12  25  42  62  93 127 168 215 261 314 374
#     4  11  21  41  63  91 128 165 212 262 315 374
#
# _framework density 19.475845
#
# number of rings (size 3 to 8) (size 9 to 14) (size 15 to 20)
#    0.000    1.333    1.667    4.000    4.667    0.667 
#    6.000    2.500    0.000    0.000    0.000    0.000 
#    0.000    0.000    0.000    0.000    0.000    0.000 
#
# Total GULP energy -268363.523645 kJ/mol
# GULP energy per Si atom -5590.906743 kJ/mol
# Density = 1.943152 g / cm^3
# Si number density = 19.475845 Si / 1000 Ang^3
#
#
#
# Elastic Constant Matrix: (Units=GPa)
#
#
# Indices 1 2 3 4 5 6 
#
# 1 62.5578 35.1983 10.3782 0.0000 0.0000 0.0000
# 2 35.1983 165.3510 64.5069 0.0000 0.0000 0.0000
# 3 10.3782 64.5069 123.1722 0.0000 0.0000 0.0000
# 4 0.0000 0.0000 0.0000 30.9947 0.0000 0.0000
# 5 0.0000 0.0000 0.0000 0.0000 15.2457 0.0000
# 6 0.0000 0.0000 0.0000 0.0000 0.0000 -19.1070
#
#
#
# Elastic Compliance Matrix: (Units=1/GPa)
#
#
# Indices 1 2 3 4 5 6 
#
# 1 0.018198 -0.004117 0.000623 0.000000 0.000000 0.000000
# 2 -0.004117 0.008532 -0.004121 0.000000 0.000000 0.000000
# 3 0.000623 -0.004121 0.010225 0.000000 0.000000 0.000000
# 4 0.000000 0.000000 0.000000 0.032264 0.000000 0.000000
# 5 0.000000 0.000000 0.000000 0.000000 0.065592 0.000000
# 6 0.000000 0.000000 0.000000 0.000000 0.000000 -0.052337
#
#
# Mechanical properties :
#
#
# Convention : Reuss Voigt Hill
#
# Bulk Modulus (GPa) = 46.03245 63.47200 54.75223
# Shear Modulus (GPa) = 47.64337 21.49316 34.56827
#
# Velocity S-wave (km/s) = 4.95135 3.32562 4.21756
# Velocity P-wave (km/s) = 7.50832 6.88529 7.20354
#
# Compressibility (1/GPa) = 0.02172380
#
# Stress axis : x y z
#
# Youngs Moduli (GPa) = 54.95037 117.20674 97.80243
#
# Poissons Ratio (x) = 0.48251 -0.06090
# Poissons Ratio (y) = 0.22622 0.40308
# Poissons Ratio (z) = -0.03422 0.48306
#
# Static dielectric constant tensor:
#      x y z
#    x 1.659460 0.000000 0.000000 
#    y 0.000000 1.672050 0.000000 
#    z 0.000000 0.000000 1.665150 
# 
# From -- ./inp_files/27765.got.cif
#   From: 2010.05.17/outbox.cif.g08.bks.cpg/sg54_14_cif.got.tgz:27765.got - 2010.06.03 13:09:01.
