data_PCOD9423446
_publ_section_title
;
Structure prediction by ZEFSAII (Michael W. Deem and Ramdas Pophale) SiO2 
 PCOD9423446
Probable space group: P C C A
;
_chemical_formula_sum "Si O2"
_cell_formula_units_Z 52
_cell_length_a 10.680606
_cell_length_b 8.363940
_cell_length_c 26.526308
_cell_angle_alpha 90.000000
_cell_angle_beta 90.000000
_cell_angle_gamma 90.000000
_cell_volume 2369.646760
_symmetry_space_group_name_H-M "P C C A"
_symmetry_group_IT_number 54
_symmetry_cell_setting 'orthorhombic'
loop_
_space_group_symop_operation_xyz
x,y,z
1/2-x,-y,z
1/2+x,-y,1/2-z
-x,y,1/2-z
-x,-y,-z
1/2+x,y,-z
1/2-x,y,1/2+z
x,-y,1/2+z
loop_
_atom_site_type_symbol
_atom_site_label
_atom_site_fract_x
_atom_site_fract_y
_atom_site_fract_z
Si Si1 0.523785 0.315709 0.987322
Si Si2 0.330498 0.144328 0.335770
Si Si3 0.959169 0.091430 0.919120
Si Si4 0.299976 0.763438 0.084415
Si Si5 0.004255 0.426078 0.804210
Si Si6 0.646028 0.620885 0.106790
Si Si7 0.250000 0.500000 0.657163
O O1 0.668632 0.303466 0.970574
O O2 0.436712 0.301430 0.937292
O O3 0.500000 0.500000 0.000000
O O4 0.501055 0.175267 0.028103
O O5 0.427993 0.089385 0.379559
O O6 0.414528 0.262465 0.301497
O O7 0.224905 0.247602 0.363692
O O8 0.250000 0.000000 0.311838
O O9 0.845017 0.208136 0.905581
O O10 0.883608 0.923811 0.916382
O O11 0.328338 0.625699 0.123961
O O12 0.856616 0.404681 0.813564
O O13 0.000000 0.512472 0.750000
O O14 0.070328 0.520533 0.850434
O O15 0.750000 0.500000 0.084369
#
# Coordination Sequence:
#
# PCOD9423446 Si02
#       7
#     8   8   8   8   8   8   4
#     4  12  23  39  64  96 137 186 239 285 346 421
#     4  11  24  46  69  96 145 188 224 283 364 434
#     4  11  25  42  64 100 136 189 236 285 349 428
#     4  11  24  43  64  94 138 180 241 290 354 413
#     4  11  25  46  74 109 133 180 243 298 363 426
#     4  10  23  42  65  97 137 185 232 287 354 415
#     4  12  22  46  74  96 138 182 234 308 348 424
#
# _framework density 21.944198
#
# number of rings (size 3 to 8) (size 9 to 14) (size 15 to 20)
#    0.000    0.923    3.077    4.154    7.538    0.000 
#    0.000    2.308    0.000    0.000    0.000    0.000 
#    0.000    0.000    0.000    0.000    0.000    0.000 
#
# Total GULP energy -289605.372310 kJ/mol
# GULP energy per Si atom -5569.334083 kJ/mol
# Density = 2.189425 g / cm^3
# Si number density = 21.944198 Si / 1000 Ang^3
#
#
#
# Elastic Constant Matrix: (Units=GPa)
#
#
# Indices 1 2 3 4 5 6 
#
# 1 116.6271 31.4621 29.5144 0.0000 0.0000 0.0000
# 2 31.4621 55.6488 0.5855 0.0000 0.0000 0.0000
# 3 29.5144 0.5855 71.5857 0.0000 0.0000 0.0000
# 4 0.0000 0.0000 0.0000 4.0350 0.0000 0.0000
# 5 0.0000 0.0000 0.0000 0.0000 45.3243 0.0000
# 6 0.0000 0.0000 0.0000 0.0000 0.0000 32.4547
#
#
#
# Elastic Compliance Matrix: (Units=1/GPa)
#
#
# Indices 1 2 3 4 5 6 
#
# 1 0.011502 -0.006454 -0.004689 0.000000 0.000000 0.000000
# 2 -0.006454 0.021592 0.002484 0.000000 0.000000 0.000000
# 3 -0.004689 0.002484 0.015882 0.000000 0.000000 0.000000
# 4 0.000000 0.000000 0.000000 0.247834 0.000000 0.000000
# 5 0.000000 0.000000 0.000000 0.000000 0.022063 0.000000
# 6 0.000000 0.000000 0.000000 0.000000 0.000000 0.030812
#
#
# Mechanical properties :
#
#
# Convention : Reuss Voigt Hill
#
# Bulk Modulus (GPa) = 31.58651 40.77617 36.18134
# Shear Modulus (GPa) = 13.24305 28.51612 20.87958
#
# Velocity S-wave (km/s) = 2.45926 3.60875 3.08796
# Velocity P-wave (km/s) = 4.74228 5.99885 5.40719
#
# Compressibility (1/GPa) = 0.03165909
#
# Stress axis : x y z
#
# Youngs Moduli (GPa) = 86.94122 46.31277 62.96288
#
# Poissons Ratio (x) = 0.29888 0.29526
# Poissons Ratio (y) = 0.56108 -0.15641
# Poissons Ratio (z) = 0.40771 -0.11505
#
# Static dielectric constant tensor:
#      x y z
#    x 1.924550 0.000000 0.000000 
#    y 0.000000 1.757890 0.000000 
#    z 0.000000 0.000000 2.020310 
# 
# From -- ./inp_files/26231.got.cif
#   From: 2010.05.17/outbox.cif.g08.bks.cpg/sg54_14_cif.got.tgz:26231.got - 2010.06.03 13:09:01.
