data_PCOD9423875
_publ_section_title
;
Structure prediction by ZEFSAII (Michael W. Deem and Ramdas Pophale) SiO2 
 PCOD9423875
Probable space group: P C C A
;
_chemical_formula_sum "Si O2"
_cell_formula_units_Z 32
_cell_length_a 10.147916
_cell_length_b 14.549766
_cell_length_c 9.460720
_cell_angle_alpha 90.000000
_cell_angle_beta 90.000000
_cell_angle_gamma 90.000000
_cell_volume 1396.873446
_symmetry_space_group_name_H-M "P C C A"
_symmetry_group_IT_number 54
_symmetry_cell_setting 'orthorhombic'
loop_
_space_group_symop_operation_xyz
x,y,z
1/2-x,-y,z
1/2+x,-y,1/2-z
-x,y,1/2-z
-x,-y,-z
1/2+x,y,-z
1/2-x,y,1/2+z
x,-y,1/2+z
loop_
_atom_site_type_symbol
_atom_site_label
_atom_site_fract_x
_atom_site_fract_y
_atom_site_fract_z
Si Si1 0.589500 0.411998 0.976192
Si Si2 0.598051 0.043721 0.385005
Si Si3 0.239962 0.648656 0.776253
Si Si4 0.607946 0.745759 0.978847
O O1 0.693822 0.410149 0.101654
O O2 0.525810 0.310481 0.994796
O O3 0.500000 0.500000 0.000000
O O4 0.641858 0.412060 0.817088
O O5 0.500000 0.039185 0.250000
O O6 0.611148 0.149641 0.432637
O O7 0.750000 0.000000 0.372520
O O8 0.500000 0.000000 0.500000
O O9 0.330739 0.690339 0.653650
O O10 0.178403 0.730776 0.869881
#
# Coordination Sequence:
#
# PCOD9423875 Si02
#       4
#     8   8   8   8
#     4  11  25  46  74 110 150 202 257 314 388 471
#     4  12  30  51  83 119 161 212 275 342 418 495
#     4  10  25  45  74 103 152 194 253 318 387 465
#     4  11  26  46  75 108 151 198 257 322 397 474
#
# _framework density 22.908301999999999
#
# number of rings (size 3 to 8) (size 9 to 14) (size 15 to 20)
#    0.000    1.000    0.000    3.750   14.000   10.000 
#    0.000    3.750    0.000    0.000    0.000    0.000 
#    0.000    0.000    0.000    0.000    0.000    0.000 
#
# Total GULP energy -178608.594280 kJ/mol
# GULP energy per Si atom -5581.518571 kJ/mol
# Density = 2.285616 g / cm^3
# Si number density = 22.908302 Si / 1000 Ang^3
#
#
#
# Elastic Constant Matrix: (Units=GPa)
#
#
# Indices 1 2 3 4 5 6 
#
# 1 134.6114 65.2096 80.3196 0.0000 0.0000 0.0000
# 2 65.2096 144.4362 48.6980 0.0000 0.0000 0.0000
# 3 80.3196 48.6980 222.4129 0.0000 0.0000 0.0000
# 4 0.0000 0.0000 0.0000 27.8968 0.0000 0.0000
# 5 0.0000 0.0000 0.0000 0.0000 48.9475 0.0000
# 6 0.0000 0.0000 0.0000 0.0000 0.0000 26.6303
#
#
#
# Elastic Compliance Matrix: (Units=1/GPa)
#
#
# Indices 1 2 3 4 5 6 
#
# 1 0.011280 -0.004016 -0.003194 0.000000 0.000000 0.000000
# 2 -0.004016 0.008905 -0.000500 0.000000 0.000000 0.000000
# 3 -0.003194 -0.000500 0.005759 0.000000 0.000000 0.000000
# 4 0.000000 0.000000 0.000000 0.035846 0.000000 0.000000
# 5 0.000000 0.000000 0.000000 0.000000 0.020430 0.000000
# 6 0.000000 0.000000 0.000000 0.000000 0.000000 0.037551
#
#
# Mechanical properties :
#
#
# Convention : Reuss Voigt Hill
#
# Bulk Modulus (GPa) = 95.01277 98.87942 96.94610
# Shear Modulus (GPa) = 36.04923 41.17714 38.61319
#
# Velocity S-wave (km/s) = 3.97121 4.24427 4.11000
# Velocity P-wave (km/s) = 7.91155 8.20215 8.05816
#
# Compressibility (1/GPa) = 0.01052490
#
# Stress axis : x y z
#
# Youngs Moduli (GPa) = 88.65182 112.29769 173.63889
#
# Poissons Ratio (x) = 0.45095 0.55466
# Poissons Ratio (y) = 0.35600 0.08674
# Poissons Ratio (z) = 0.28318 0.05610
#
# Static dielectric constant tensor:
#      x y z
#    x 0.671150 0.000000 0.000000 
#    y 0.000000 1.864660 0.000000 
#    z 0.000000 0.000000 1.999350 
# 
# From -- ./inp_files/2792.got.cif
#   From: 2010.05.17/outbox.cif.g08.bks.cpg/sg54_2_cif.got.tgz:2792.got - 2010.06.03 13:09:01.
