data_PCOD9423024
_publ_section_title
;
Structure prediction by ZEFSAII (Michael W. Deem and Ramdas Pophale) SiO2 
 PCOD9423024
Probable space group: P C C A
;
_chemical_formula_sum "Si O2"
_cell_formula_units_Z 36
_cell_length_a 18.143716
_cell_length_b 5.509802
_cell_length_c 16.161464
_cell_angle_alpha 90.000000
_cell_angle_beta 90.000000
_cell_angle_gamma 90.000000
_cell_volume 1615.633802
_symmetry_space_group_name_H-M "P C C A"
_symmetry_group_IT_number 54
_symmetry_cell_setting 'orthorhombic'
loop_
_space_group_symop_operation_xyz
x,y,z
1/2-x,-y,z
1/2+x,-y,1/2-z
-x,y,1/2-z
-x,-y,-z
1/2+x,y,-z
1/2-x,y,1/2+z
x,-y,1/2+z
loop_
_atom_site_type_symbol
_atom_site_label
_atom_site_fract_x
_atom_site_fract_y
_atom_site_fract_z
Si Si1 0.750000 0.500000 0.620993
Si Si2 0.882795 0.146812 0.331489
Si Si3 0.990438 0.772741 0.412455
Si Si4 0.500000 0.459666 0.750000
Si Si5 0.879978 0.399900 0.494441
Si Si6 0.750000 0.000000 0.726548
O O1 0.819919 0.477438 0.560304
O O2 0.753720 0.749533 0.674211
O O3 0.925360 0.310975 0.265344
O O4 0.848536 0.297631 0.407882
O O5 0.949128 0.998916 0.373453
O O6 0.821948 0.990876 0.285096
O O7 0.010328 0.611925 0.332802
O O8 0.932511 0.622858 0.468151
O O9 0.065519 0.798575 0.463409
#
# Coordination Sequence:
#
# PCOD9423024 Si02
#       6
#     4   8   8   4   8   4
#     4  12  30  50  74 108 154 196 248 308 370 454
#     4  11  25  43  75 102 146 191 245 304 367 444
#     4  10  22  43  70 103 140 187 246 301 366 438
#     4  10  22  40  70 108 138 190 232 312 352 446
#     4  10  25  43  72 101 144 189 248 298 375 431
#     4  12  32  46  74 108 152 196 246 304 380 434
#
# _framework density 22.282276
#
# number of rings (size 3 to 8) (size 9 to 14) (size 15 to 20)
#    0.000    1.333    0.000    2.667   18.667    0.000 
#    0.000    0.000    0.000    0.000    0.000    0.000 
#    0.000    0.000    0.000    0.000    0.000    0.000 
#
# Total GULP energy -201327.900483 kJ/mol
# GULP energy per Si atom -5592.441680 kJ/mol
# Density = 2.223156 g / cm^3
# Si number density = 22.282276 Si / 1000 Ang^3
#
#
#
# Elastic Constant Matrix: (Units=GPa)
#
#
# Indices 1 2 3 4 5 6 
#
# 1 85.8694 27.1957 85.9107 0.0000 0.0000 0.0000
# 2 27.1957 81.0418 40.4506 0.0000 0.0000 0.0000
# 3 85.9107 40.4506 108.2459 0.0000 0.0000 0.0000
# 4 0.0000 0.0000 0.0000 169.8974 0.0000 0.0000
# 5 0.0000 0.0000 0.0000 0.0000 -34.6608 0.0000
# 6 0.0000 0.0000 0.0000 0.0000 0.0000 -16.6191
#
#
#
# Elastic Compliance Matrix: (Units=1/GPa)
#
#
# Indices 1 2 3 4 5 6 
#
# 1 0.057737 0.004299 -0.047430 0.000000 0.000000 0.000000
# 2 0.004299 0.015489 -0.009200 0.000000 0.000000 0.000000
# 3 -0.047430 -0.009200 0.050320 0.000000 0.000000 0.000000
# 4 0.000000 0.000000 0.000000 0.005886 0.000000 0.000000
# 5 0.000000 0.000000 0.000000 0.000000 -0.028851 0.000000
# 6 0.000000 0.000000 0.000000 0.000000 0.000000 -0.060172
#
#
# Mechanical properties :
#
#
# Convention : Reuss Voigt Hill
#
# Bulk Modulus (GPa) = 52.95746 64.69677 58.82711
# Shear Modulus (GPa) = 33.03247 31.83016 32.43132
#
# Velocity S-wave (km/s) = 3.85444 3.78365 3.81921
# Velocity P-wave (km/s) = 6.60509 6.94162 6.77544
#
# Compressibility (1/GPa) = 0.01888308
#
# Stress axis : x y z
#
# Youngs Moduli (GPa) = 17.31979 64.56342 19.87285
#
# Poissons Ratio (x) = -0.27754 0.94258
# Poissons Ratio (y) = -0.07445 0.18283
# Poissons Ratio (z) = 0.82149 0.59397
#
# Static dielectric constant tensor:
#      x y z
#    x 1.774460 0.000000 0.000000 
#    y 0.000000 1.879220 0.000000 
#    z 0.000000 0.000000 1.823660 
# 
# From -- ./inp_files/14482.got.cif
#   From: 2010.05.17/outbox.cif.g08.bks.cpg/sg54_8_cif.got.tgz:14482.got - 2010.06.03 13:09:01.
