data_PCOD9423539
_publ_section_title
;
Structure prediction by ZEFSAII (Michael W. Deem and Ramdas Pophale) SiO2 
 PCOD9423539
Probable space group: P C C A
;
_chemical_formula_sum "Si O2"
_cell_formula_units_Z 56
_cell_length_a 8.985118
_cell_length_b 21.287162
_cell_length_c 11.696808
_cell_angle_alpha 90.000000
_cell_angle_beta 90.000000
_cell_angle_gamma 90.000000
_cell_volume 2237.221124
_symmetry_space_group_name_H-M "P C C A"
_symmetry_group_IT_number 54
_symmetry_cell_setting 'orthorhombic'
loop_
_space_group_symop_operation_xyz
x,y,z
1/2-x,-y,z
1/2+x,-y,1/2-z
-x,y,1/2-z
-x,-y,-z
1/2+x,y,-z
1/2-x,y,1/2+z
x,-y,1/2+z
loop_
_atom_site_type_symbol
_atom_site_label
_atom_site_fract_x
_atom_site_fract_y
_atom_site_fract_z
Si Si1 0.371418 0.876197 0.430740
Si Si2 0.471618 0.352595 0.481020
Si Si3 0.635445 0.454235 0.322257
Si Si4 0.934815 0.218002 0.879953
Si Si5 0.627202 0.957636 0.438233
Si Si6 0.674645 0.230685 0.742595
Si Si7 0.803192 0.365849 0.151288
O O1 0.449913 0.841453 0.538542
O O2 0.515974 0.909978 0.375091
O O3 0.239766 0.921820 0.474747
O O4 0.299064 0.823515 0.350125
O O5 0.552134 0.402564 0.398180
O O6 0.513901 0.281921 0.441956
O O7 0.298114 0.363887 0.463007
O O8 0.528655 0.366058 0.608063
O O9 0.750000 0.500000 0.386933
O O10 0.500000 0.485131 0.250000
O O11 0.741876 0.419561 0.231291
O O12 0.756714 0.218374 0.860375
O O13 0.000000 0.213998 0.750000
O O14 0.750000 0.000000 0.370894
O O15 0.500000 0.000000 0.500000
O O16 0.500000 0.234994 0.750000
O O17 0.731475 0.298825 0.706306
#
# Coordination Sequence:
#
# PCOD9423539 Si02
#       7
#     8   8   8   8   8   8   8
#     4  11  22  39  66  95 127 169 224 267 327 400
#     4  11  23  41  64  92 134 173 214 273 341 389
#     4  10  23  45  66  91 130 178 224 269 328 403
#     4  12  22  39  64  92 138 171 209 277 345 390
#     4   9  20  40  67  91 125 178 216 261 326 386
#     4  12  25  37  62 101 135 168 221 274 339 404
#     4  11  24  41  63  94 132 173 214 274 336 392
#
# _framework density 25.031054000000001
#
# number of rings (size 3 to 8) (size 9 to 14) (size 15 to 20)
#    0.000    1.143    4.286    2.143    2.000    2.286 
#    0.000    2.857    0.000   60.000    0.000    0.000 
#    0.000    0.000    0.000    0.000    0.000    0.000 
#
# Total GULP energy -313085.295676 kJ/mol
# GULP energy per Si atom -5590.808851 kJ/mol
# Density = 2.497408 g / cm^3
# Si number density = 25.031054 Si / 1000 Ang^3
#
#
#
# Elastic Constant Matrix: (Units=GPa)
#
#
# Indices 1 2 3 4 5 6 
#
# 1 121.1690 46.3485 9.1955 0.0000 0.0000 0.0000
# 2 46.3485 88.8483 14.4999 0.0000 0.0000 0.0000
# 3 9.1955 14.4999 49.1144 0.0000 0.0000 0.0000
# 4 0.0000 0.0000 0.0000 -205.2611 0.0000 0.0000
# 5 0.0000 0.0000 0.0000 0.0000 44.3611 0.0000
# 6 0.0000 0.0000 0.0000 0.0000 0.0000 22.5323
#
#
#
# Elastic Compliance Matrix: (Units=1/GPa)
#
#
# Indices 1 2 3 4 5 6 
#
# 1 0.010316 -0.005323 -0.000360 0.000000 0.000000 0.000000
# 2 -0.005323 0.014571 -0.003305 0.000000 0.000000 0.000000
# 3 -0.000360 -0.003305 0.021404 0.000000 0.000000 0.000000
# 4 0.000000 0.000000 0.000000 -0.004872 0.000000 0.000000
# 5 0.000000 0.000000 0.000000 0.000000 0.022542 0.000000
# 6 0.000000 0.000000 0.000000 0.000000 0.000000 0.044381
#
#
# Mechanical properties :
#
#
# Convention : Reuss Voigt Hill
#
# Bulk Modulus (GPa) = 35.31681 44.35774 39.83728
# Shear Modulus (GPa) = 36.83048 -15.06769 10.88139
#
# Velocity S-wave (km/s) = 3.84003 -2.45615 2.08725
# Velocity P-wave (km/s) = 5.81386 3.11705 4.66460
#
# Compressibility (1/GPa) = 0.02831513
#
# Stress axis : x y z
#
# Youngs Moduli (GPa) = 96.93392 68.62825 46.72062
#
# Poissons Ratio (x) = 0.36530 0.01682
# Poissons Ratio (y) = 0.51596 0.15442
# Poissons Ratio (z) = 0.03490 0.22683
#
# Static dielectric constant tensor:
#      x y z
#    x 2.000800 0.000000 0.000000 
#    y 0.000000 2.087220 0.000000 
#    z 0.000000 0.000000 2.026560 
# 
# From -- ./inp_files/11862.got.cif
#   From: 2010.05.17/outbox.cif.g08.bks.cpg/sg54_6_cif.got.tgz:11862.got - 2010.06.03 13:09:01.
