data_PCOD9423876
_publ_section_title
;
Structure prediction by ZEFSAII (Michael W. Deem and Ramdas Pophale) SiO2 
 PCOD9423876
Probable space group: P C C A
;
_chemical_formula_sum "Si O2"
_cell_formula_units_Z 56
_cell_length_a 18.621507
_cell_length_b 13.965673
_cell_length_c 8.870572
_cell_angle_alpha 90.000000
_cell_angle_beta 90.000000
_cell_angle_gamma 90.000000
_cell_volume 2306.897609
_symmetry_space_group_name_H-M "P C C A"
_symmetry_group_IT_number 54
_symmetry_cell_setting 'orthorhombic'
loop_
_space_group_symop_operation_xyz
x,y,z
1/2-x,-y,z
1/2+x,-y,1/2-z
-x,y,1/2-z
-x,-y,-z
1/2+x,y,-z
1/2-x,y,1/2+z
x,-y,1/2+z
loop_
_atom_site_type_symbol
_atom_site_label
_atom_site_fract_x
_atom_site_fract_y
_atom_site_fract_z
Si Si1 0.936375 0.309271 0.633797
Si Si2 0.825124 0.618571 0.367610
Si Si3 0.810804 0.679532 0.712718
Si Si4 0.276196 0.893181 0.310454
Si Si5 0.581707 0.039063 0.738628
Si Si6 0.432342 0.438504 0.643092
Si Si7 0.625626 0.122008 0.047049
O O1 0.867579 0.321203 0.741450
O O2 0.952249 0.396592 0.520764
O O3 0.915815 0.220357 0.530008
O O4 0.000000 0.293249 0.750000
O O5 0.813118 0.665583 0.531808
O O6 0.747337 0.609842 0.290956
O O7 0.877016 0.526290 0.381813
O O8 0.788344 0.787464 0.761785
O O9 0.887293 0.644280 0.772054
O O10 0.357787 0.911577 0.367372
O O11 0.210150 0.872869 0.421674
O O12 0.250000 0.000000 0.247769
O O13 0.500000 0.071962 0.750000
O O14 0.586879 0.930127 0.687140
O O15 0.613594 0.058960 0.901018
O O16 0.500000 0.460996 0.750000
#
# Coordination Sequence:
#
# PCOD9423876 Si02
#       7
#     8   8   8   8   8   8   8
#     4  12  26  46  77 110 151 205 255 322 394 481
#     4  12  27  48  78 111 155 200 263 323 400 478
#     4  12  26  48  78 113 155 210 259 325 397 480
#     4  10  25  45  75 111 154 207 265 324 392 469
#     4  11  25  45  74 110 153 208 264 334 391 467
#     4  12  28  52  77 115 156 201 261 331 407 482
#     4  11  25  47  72 109 158 203 271 323 395 475
#
# _framework density 24.275026
#
# number of rings (size 3 to 8) (size 9 to 14) (size 15 to 20)
#    0.000    0.571    1.429    5.143    2.000   13.714 
#    0.000    1.429    0.000    0.000    0.000    0.000 
#    0.000    0.000    0.000    0.000    0.000    0.000 
#
# Total GULP energy -312675.204975 kJ/mol
# GULP energy per Si atom -5583.485803 kJ/mol
# Density = 2.421978 g / cm^3
# Si number density = 24.275026 Si / 1000 Ang^3
#
#
#
# Elastic Constant Matrix: (Units=GPa)
#
#
# Indices 1 2 3 4 5 6 
#
# 1 153.0736 25.3501 34.6223 0.0000 0.0000 0.0000
# 2 25.3501 143.5123 46.2325 0.0000 0.0000 0.0000
# 3 34.6223 46.2325 134.0968 0.0000 0.0000 0.0000
# 4 0.0000 0.0000 0.0000 39.8274 0.0000 0.0000
# 5 0.0000 0.0000 0.0000 0.0000 27.4503 0.0000
# 6 0.0000 0.0000 0.0000 0.0000 0.0000 26.7362
#
#
#
# Elastic Compliance Matrix: (Units=1/GPa)
#
#
# Indices 1 2 3 4 5 6 
#
# 1 0.007007 -0.000737 -0.001555 0.000000 0.000000 0.000000
# 2 -0.000737 0.007916 -0.002539 0.000000 0.000000 0.000000
# 3 -0.001555 -0.002539 0.008734 0.000000 0.000000 0.000000
# 4 0.000000 0.000000 0.000000 0.025108 0.000000 0.000000
# 5 0.000000 0.000000 0.000000 0.000000 0.036429 0.000000
# 6 0.000000 0.000000 0.000000 0.000000 0.000000 0.037402
#
#
# Mechanical properties :
#
#
# Convention : Reuss Voigt Hill
#
# Bulk Modulus (GPa) = 71.45238 71.45472 71.45355
# Shear Modulus (GPa) = 36.51670 40.43464 38.47567
#
# Velocity S-wave (km/s) = 3.88273 4.08571 3.98551
# Velocity P-wave (km/s) = 7.04267 7.19422 7.11885
#
# Compressibility (1/GPa) = 0.01399533
#
# Stress axis : x y z
#
# Youngs Moduli (GPa) = 142.72421 126.32452 114.49282
#
# Poissons Ratio (x) = 0.09306 0.17804
# Poissons Ratio (y) = 0.10514 0.29070
# Poissons Ratio (z) = 0.22194 0.32074
#
# Static dielectric constant tensor:
#      x y z
#    x 2.085350 0.000000 0.000000 
#    y 0.000000 2.020590 0.000000 
#    z 0.000000 0.000000 1.955770 
# 
# From -- ./inp_files/4818.got.cif
#   From: 2010.05.17/outbox.cif.g08.bks.cpg/sg54_3_cif.got.tgz:4818.got - 2010.06.03 13:09:01.
