data_PCOD9423041
_publ_section_title
;
Structure prediction by ZEFSAII (Michael W. Deem and Ramdas Pophale) SiO2 
 PCOD9423041
Probable space group: P C C A
;
_chemical_formula_sum "Si O2"
_cell_formula_units_Z 52
_cell_length_a 12.243599
_cell_length_b 14.645951
_cell_length_c 12.385905
_cell_angle_alpha 90.000000
_cell_angle_beta 90.000000
_cell_angle_gamma 90.000000
_cell_volume 2221.029969
_symmetry_space_group_name_H-M "P C C A"
_symmetry_group_IT_number 54
_symmetry_cell_setting 'orthorhombic'
loop_
_space_group_symop_operation_xyz
x,y,z
1/2-x,-y,z
1/2+x,-y,1/2-z
-x,y,1/2-z
-x,-y,-z
1/2+x,y,-z
1/2-x,y,1/2+z
x,-y,1/2+z
loop_
_atom_site_type_symbol
_atom_site_label
_atom_site_fract_x
_atom_site_fract_y
_atom_site_fract_z
Si Si1 0.370448 0.709087 0.867274
Si Si2 0.369709 0.242504 0.941215
Si Si3 0.500000 0.195924 0.750000
Si Si4 0.509349 0.885792 0.567394
Si Si5 0.630934 0.955809 0.366973
Si Si6 0.652660 0.441697 0.958895
Si Si7 0.142083 0.381159 0.638198
O O1 0.248545 0.746519 0.889037
O O2 0.447479 0.796729 0.873424
O O3 0.390952 0.635386 0.962733
O O4 0.617376 0.658158 0.745776
O O5 0.459066 0.256646 0.848487
O O6 0.374931 0.311504 0.040542
O O7 0.407528 0.145675 0.991093
O O8 0.402261 0.128365 0.710617
O O9 0.606675 0.918545 0.488301
O O10 0.460338 0.965129 0.639496
O O11 0.750000 0.000000 0.350857
O O12 0.750000 0.500000 0.021065
O O13 0.726580 0.396652 0.865483
O O14 0.411937 0.477522 0.101061
#
# Coordination Sequence:
#
# PCOD9423041 Si02
#       7
#     8   8   4   8   8   8   8
#     4  11  20  38  70  94 128 180 224 284 331 385
#     4  10  22  41  58  94 133 166 221 275 332 400
#     4  10  24  40  64  94 128 176 218 262 354 428
#     4  10  23  39  65  99 128 169 231 277 333 420
#     4  10  22  44  65  92 135 173 215 285 349 406
#     4   7  18  35  59  95 130 171 221 267 340 399
#     4   8  19  34  62  93 127 170 222 272 321 398
#
# _framework density 23.412561
#
# number of rings (size 3 to 8) (size 9 to 14) (size 15 to 20)
#    0.923    1.538    0.000    0.923    2.154    9.231 
#    0.000    2.308    0.000    5.538    0.000    0.000 
#    0.000    0.000    0.000    0.000    0.000    0.000 
#
# Total GULP energy -290087.602497 kJ/mol
# GULP energy per Si atom -5578.607740 kJ/mol
# Density = 2.335927 g / cm^3
# Si number density = 23.412561 Si / 1000 Ang^3
#
#
#
# Elastic Constant Matrix: (Units=GPa)
#
#
# Indices 1 2 3 4 5 6 
#
# 1 90.5671 21.7264 30.1917 0.0000 0.0000 0.0000
# 2 21.7264 99.7926 58.4101 0.0000 0.0000 0.0000
# 3 30.1917 58.4101 130.9862 0.0000 0.0000 0.0000
# 4 0.0000 0.0000 0.0000 23.0718 0.0000 0.0000
# 5 0.0000 0.0000 0.0000 0.0000 12.1706 0.0000
# 6 0.0000 0.0000 0.0000 0.0000 0.0000 49.3129
#
#
#
# Elastic Compliance Matrix: (Units=1/GPa)
#
#
# Indices 1 2 3 4 5 6 
#
# 1 0.012095 -0.001355 -0.002183 0.000000 0.000000 0.000000
# 2 -0.001355 0.013712 -0.005802 0.000000 0.000000 0.000000
# 3 -0.002183 -0.005802 0.010725 0.000000 0.000000 0.000000
# 4 0.000000 0.000000 0.000000 0.043343 0.000000 0.000000
# 5 0.000000 0.000000 0.000000 0.000000 0.082165 0.000000
# 6 0.000000 0.000000 0.000000 0.000000 0.000000 0.020279
#
#
# Mechanical properties :
#
#
# Convention : Reuss Voigt Hill
#
# Bulk Modulus (GPa) = 56.02259 60.22247 58.12253
# Shear Modulus (GPa) = 24.16049 30.97891 27.56970
#
# Velocity S-wave (km/s) = 3.21588 3.64149 3.43528
# Velocity P-wave (km/s) = 6.14569 6.59233 6.37292
#
# Compressibility (1/GPa) = 0.01784994
#
# Stress axis : x y z
#
# Youngs Moduli (GPa) = 82.68215 72.92935 93.24032
#
# Poissons Ratio (x) = 0.09883 0.20358
# Poissons Ratio (y) = 0.11205 0.54099
# Poissons Ratio (z) = 0.18053 0.42315
#
# Static dielectric constant tensor:
#      x y z
#    x 1.996980 0.000000 0.000000 
#    y 0.000000 1.930610 0.000000 
#    z 0.000000 0.000000 1.867680 
# 
# From -- ./inp_files/12792.got.cif
#   From: 2010.05.17/outbox.cif.g08.bks.cpg/sg54_7_cif.got.tgz:12792.got - 2010.06.03 13:09:01.
