data_PCOD9423151
_publ_section_title
;
Structure prediction by ZEFSAII (Michael W. Deem and Ramdas Pophale) SiO2 
 PCOD9423151
Probable space group: P C C A
;
_chemical_formula_sum "Si O2"
_cell_formula_units_Z 32
_cell_length_a 5.126327
_cell_length_b 18.348027
_cell_length_c 14.336704
_cell_angle_alpha 90.000000
_cell_angle_beta 90.000000
_cell_angle_gamma 90.000000
_cell_volume 1348.481507
_symmetry_space_group_name_H-M "P C C A"
_symmetry_group_IT_number 54
_symmetry_cell_setting 'orthorhombic'
loop_
_space_group_symop_operation_xyz
x,y,z
1/2-x,-y,z
1/2+x,-y,1/2-z
-x,y,1/2-z
-x,-y,-z
1/2+x,y,-z
1/2-x,y,1/2+z
x,-y,1/2+z
loop_
_atom_site_type_symbol
_atom_site_label
_atom_site_fract_x
_atom_site_fract_y
_atom_site_fract_z
Si Si1 0.749343 0.172578 0.188094
Si Si2 0.000999 0.548669 0.361785
Si Si3 0.508495 0.965373 0.104438
Si Si4 0.005683 0.290710 0.556061
O O1 0.500000 0.142757 0.250000
O O2 0.900278 0.118210 0.114144
O O3 0.000000 0.194992 0.250000
O O4 0.608500 0.238064 0.134733
O O5 0.250000 0.500000 0.384218
O O6 0.750000 0.500000 0.384419
O O7 0.000000 0.562548 0.250000
O O8 0.012686 0.625561 0.412848
O O9 0.750000 0.000000 0.155748
O O10 0.250000 0.000000 0.144939
O O11 0.500000 0.000000 0.000000
O O12 0.305964 0.277422 0.529564
#
# Coordination Sequence:
#
# PCOD9423151 Si02
#       4
#     8   8   8   8
#     4  12  27  47  73 106 149 191 247 304 364 444
#     4  10  22  42  69 100 141 192 244 301 364 428
#     4  10  23  42  73 102 136 184 227 302 357 443
#     4  12  27  43  71 104 146 196 240 302 365 434
#
# _framework density 23.730395000000001
#
# number of rings (size 3 to 8) (size 9 to 14) (size 15 to 20)
#    0.000    1.000    0.000    5.250    7.000    8.000 
#    0.000    0.000    0.000    0.000    0.000    0.000 
#    0.000    0.000    0.000    0.000    0.000    0.000 
#
# Total GULP energy -178519.991582 kJ/mol
# GULP energy per Si atom -5578.749737 kJ/mol
# Density = 2.367638 g / cm^3
# Si number density = 23.730395 Si / 1000 Ang^3
#
#
#
# Elastic Constant Matrix: (Units=GPa)
#
#
# Indices 1 2 3 4 5 6 
#
# 1 213.2416 50.3622 31.3923 0.0000 0.0000 0.0000
# 2 50.3622 144.7250 45.8999 0.0000 0.0000 0.0000
# 3 31.3923 45.8999 114.5848 0.0000 0.0000 0.0000
# 4 0.0000 0.0000 0.0000 37.7483 0.0000 0.0000
# 5 0.0000 0.0000 0.0000 0.0000 46.9708 0.0000
# 6 0.0000 0.0000 0.0000 0.0000 0.0000 73.0579
#
#
#
# Elastic Compliance Matrix: (Units=1/GPa)
#
#
# Indices 1 2 3 4 5 6 
#
# 1 0.005172 -0.001547 -0.000797 0.000000 0.000000 0.000000
# 2 -0.001547 0.008378 -0.002932 0.000000 0.000000 0.000000
# 3 -0.000797 -0.002932 0.010120 0.000000 0.000000 0.000000
# 4 0.000000 0.000000 0.000000 0.026491 0.000000 0.000000
# 5 0.000000 0.000000 0.000000 0.000000 0.021290 0.000000
# 6 0.000000 0.000000 0.000000 0.000000 0.000000 0.013688
#
#
# Mechanical properties :
#
#
# Convention : Reuss Voigt Hill
#
# Bulk Modulus (GPa) = 76.23491 80.87335 78.55413
# Shear Modulus (GPa) = 49.96770 54.54854 52.25812
#
# Velocity S-wave (km/s) = 4.59371 4.79965 4.69781
# Velocity P-wave (km/s) = 7.76733 8.05417 7.91205
#
# Compressibility (1/GPa) = 0.01311735
#
# Stress axis : x y z
#
# Youngs Moduli (GPa) = 193.33922 119.36120 98.81269
#
# Poissons Ratio (x) = 0.18465 0.07879
# Poissons Ratio (y) = 0.29909 0.28974
# Poissons Ratio (z) = 0.15416 0.34999
#
# Static dielectric constant tensor:
#      x y z
#    x 1.910240 0.000000 0.000000 
#    y 0.000000 1.802010 0.000000 
#    z 0.000000 0.000000 1.934760 
# 
# From -- ./inp_files/10753.got.cif
#   From: 2010.05.17/outbox.cif.g08.bks.cpg/sg54_6_cif.got.tgz:10753.got - 2010.06.03 13:09:01.
