data_PCOD9423515
_publ_section_title
;
Structure prediction by ZEFSAII (Michael W. Deem and Ramdas Pophale) SiO2 
 PCOD9423515
Probable space group: P C C A
;
_chemical_formula_sum "Si O2"
_cell_formula_units_Z 28
_cell_length_a 8.515526
_cell_length_b 7.883028
_cell_length_c 17.275319
_cell_angle_alpha 90.000000
_cell_angle_beta 90.000000
_cell_angle_gamma 90.000000
_cell_volume 1159.659858
_symmetry_space_group_name_H-M "P C C A"
_symmetry_group_IT_number 54
_symmetry_cell_setting 'orthorhombic'
loop_
_space_group_symop_operation_xyz
x,y,z
1/2-x,-y,z
1/2+x,-y,1/2-z
-x,y,1/2-z
-x,-y,-z
1/2+x,y,-z
1/2-x,y,1/2+z
x,-y,1/2+z
loop_
_atom_site_type_symbol
_atom_site_label
_atom_site_fract_x
_atom_site_fract_y
_atom_site_fract_z
Si Si1 0.634957 0.160918 0.689883
Si Si2 0.055570 0.176446 0.035684
Si Si3 0.643956 0.351834 0.421819
Si Si4 0.750000 0.500000 0.272492
O O1 0.500000 0.105317 0.750000
O O2 0.557841 0.206325 0.608165
O O3 0.702149 0.335814 0.724547
O O4 0.750000 0.000000 0.681145
O O5 0.231071 0.197672 0.069039
O O6 0.011420 0.304654 0.966406
O O7 0.000000 0.000000 0.000000
O O8 0.750000 0.500000 0.458462
O O9 0.623310 0.422704 0.334767
#
# Coordination Sequence:
#
# PCOD9423515 Si02
#       4
#     8   8   8   4
#     4  12  27  48  74 112 147 197 249 311 383 447
#     4  12  25  46  73 107 144 192 248 307 370 447
#     4  10  23  44  69 101 138 189 241 297 369 438
#     4  10  26  46  74 100 154 192 242 308 370 448
#
# _framework density 24.145012000000001
#
# number of rings (size 3 to 8) (size 9 to 14) (size 15 to 20)
#    0.857    0.000    2.857    3.429    6.000    1.143 
#    5.143    0.000    0.000    0.000    0.000    0.000 
#    0.000    0.000    0.000    0.000    0.000    0.000 
#
# Total GULP energy -156360.517078 kJ/mol
# GULP energy per Si atom -5584.304181 kJ/mol
# Density = 2.409006 g / cm^3
# Si number density = 24.145012 Si / 1000 Ang^3
#
#
#
# Elastic Constant Matrix: (Units=GPa)
#
#
# Indices 1 2 3 4 5 6 
#
# 1 59.7018 23.4719 20.1572 0.0000 0.0000 0.0000
# 2 23.4719 105.4091 30.1475 0.0000 0.0000 0.0000
# 3 20.1572 30.1475 136.7906 0.0000 0.0000 0.0000
# 4 0.0000 0.0000 0.0000 30.0173 0.0000 0.0000
# 5 0.0000 0.0000 0.0000 0.0000 -1.3460 0.0000
# 6 0.0000 0.0000 0.0000 0.0000 0.0000 43.6380
#
#
#
# Elastic Compliance Matrix: (Units=1/GPa)
#
#
# Indices 1 2 3 4 5 6 
#
# 1 0.018845 -0.003631 -0.001977 0.000000 0.000000 0.000000
# 2 -0.003631 0.010825 -0.001851 0.000000 0.000000 0.000000
# 3 -0.001977 -0.001851 0.008010 0.000000 0.000000 0.000000
# 4 0.000000 0.000000 0.000000 0.033314 0.000000 0.000000
# 5 0.000000 0.000000 0.000000 0.000000 -0.742925 0.000000
# 6 0.000000 0.000000 0.000000 0.000000 0.000000 0.022916
#
#
# Mechanical properties :
#
#
# Convention : Reuss Voigt Hill
#
# Bulk Modulus (GPa) = 43.93175 49.93940 46.93557
# Shear Modulus (GPa) = -7.98069 29.67018 10.84474
#
# Velocity S-wave (km/s) = -1.82002 3.50927 2.12162
# Velocity P-wave (km/s) = 3.71723 6.09492 5.04806
#
# Compressibility (1/GPa) = 0.02276258
#
# Stress axis : x y z
#
# Youngs Moduli (GPa) = 53.06496 92.38175 124.85035
#
# Poissons Ratio (x) = 0.33543 0.24679
# Poissons Ratio (y) = 0.19267 0.23105
# Poissons Ratio (z) = 0.10489 0.17096
#
# Static dielectric constant tensor:
#      x y z
#    x 1.971750 0.000000 0.000000 
#    y 0.000000 2.007240 0.000000 
#    z 0.000000 0.000000 1.915250 
# 
# From -- ./inp_files/16155.got.cif
#   From: 2010.05.17/outbox.cif.g08.bks.cpg/sg54_9_cif.got.tgz:16155.got - 2010.06.03 13:09:01.
