data_PCOD9423890
_publ_section_title
;
Structure prediction by ZEFSAII (Michael W. Deem and Ramdas Pophale) SiO2 
 PCOD9423890
Probable space group: P C C A
;
_chemical_formula_sum "Si O2"
_cell_formula_units_Z 32
_cell_length_a 7.762352
_cell_length_b 14.442130
_cell_length_c 11.370477
_cell_angle_alpha 90.000000
_cell_angle_beta 90.000000
_cell_angle_gamma 90.000000
_cell_volume 1274.686149
_symmetry_space_group_name_H-M "P C C A"
_symmetry_group_IT_number 54
_symmetry_cell_setting 'orthorhombic'
loop_
_space_group_symop_operation_xyz
x,y,z
1/2-x,-y,z
1/2+x,-y,1/2-z
-x,y,1/2-z
-x,-y,-z
1/2+x,y,-z
1/2-x,y,1/2+z
x,-y,1/2+z
loop_
_atom_site_type_symbol
_atom_site_label
_atom_site_fract_x
_atom_site_fract_y
_atom_site_fract_z
Si Si1 0.000000 0.948135 0.250000
Si Si2 0.223111 0.828001 0.109752
Si Si3 0.425037 0.303227 0.470488
Si Si4 0.750000 0.000000 0.064657
Si Si5 0.871675 0.410120 0.138593
O O1 0.169913 0.887724 0.221510
O O2 0.071003 0.002915 0.361176
O O3 0.371858 0.754136 0.087810
O O4 0.249734 0.906227 0.010825
O O5 0.057165 0.763333 0.092646
O O6 0.267169 0.327287 0.384521
O O7 0.513122 0.395815 0.520823
O O8 0.750000 0.500000 0.146873
O O9 0.000000 0.407845 0.250000
#
# Coordination Sequence:
#
# PCOD9423890 Si02
#       5
#     4   8   8   4   8
#     4  12  26  40  72  94 144 200 240 298 362 400
#     4  11  24  45  67 106 141 192 247 292 350 420
#     4  10  25  47  73 103 149 181 234 303 348 425
#     4  12  26  44  64 106 146 192 246 298 350 416
#     4  11  26  48  77 111 142 184 231 291 368 444
#
# _framework density 25.104219000000001
#
# number of rings (size 3 to 8) (size 9 to 14) (size 15 to 20)
#    0.000    1.000    2.500    2.250    7.000    5.000 
#    2.250    0.000    0.000    0.000    0.000    0.000 
#    0.000    0.000    0.000    0.000    0.000    0.000 
#
# Total GULP energy -178722.004984 kJ/mol
# GULP energy per Si atom -5585.062656 kJ/mol
# Density = 2.504708 g / cm^3
# Si number density = 25.104219 Si / 1000 Ang^3
#
#
#
# Elastic Constant Matrix: (Units=GPa)
#
#
# Indices 1 2 3 4 5 6 
#
# 1 98.2172 41.4061 33.6102 0.0000 0.0000 0.0000
# 2 41.4061 131.7498 37.0691 0.0000 0.0000 0.0000
# 3 33.6102 37.0691 70.1180 0.0000 0.0000 0.0000
# 4 0.0000 0.0000 0.0000 15.4267 0.0000 0.0000
# 5 0.0000 0.0000 0.0000 0.0000 40.3989 0.0000
# 6 0.0000 0.0000 0.0000 0.0000 0.0000 11.6420
#
#
#
# Elastic Compliance Matrix: (Units=1/GPa)
#
#
# Indices 1 2 3 4 5 6 
#
# 1 0.012966 -0.002733 -0.004770 0.000000 0.000000 0.000000
# 2 -0.002733 0.009492 -0.003708 0.000000 0.000000 0.000000
# 3 -0.004770 -0.003708 0.018509 0.000000 0.000000 0.000000
# 4 0.000000 0.000000 0.000000 0.064823 0.000000 0.000000
# 5 0.000000 0.000000 0.000000 0.000000 0.024753 0.000000
# 6 0.000000 0.000000 0.000000 0.000000 0.000000 0.085896
#
#
# Mechanical properties :
#
#
# Convention : Reuss Voigt Hill
#
# Bulk Modulus (GPa) = 53.92539 58.25064 56.08802
# Shear Modulus (GPa) = 20.40457 26.02685 23.21571
#
# Velocity S-wave (km/s) = 2.85405 3.22336 3.04431
# Velocity P-wave (km/s) = 5.69105 6.09157 5.89471
#
# Compressibility (1/GPa) = 0.01854414
#
# Stress axis : x y z
#
# Youngs Moduli (GPa) = 77.12473 105.34759 54.02836
#
# Poissons Ratio (x) = 0.28789 0.25774
# Poissons Ratio (y) = 0.21076 0.20036
# Poissons Ratio (z) = 0.36791 0.39067
#
# Static dielectric constant tensor:
#      x y z
#    x 2.045150 0.000000 0.000000 
#    y 0.000000 1.992350 0.000000 
#    z 0.000000 0.000000 2.052590 
# 
# From -- ./inp_files/6761.got.cif
#   From: 2010.05.17/outbox.cif.g08.bks.cpg/sg54_4_cif.got.tgz:6761.got - 2010.06.03 13:09:01.
