data_PCOD9423209
_publ_section_title
;
Structure prediction by ZEFSAII (Michael W. Deem and Ramdas Pophale) SiO2 
 PCOD9423209
Probable space group: P C C A
;
_chemical_formula_sum "Si O2"
_cell_formula_units_Z 40
_cell_length_a 8.102674
_cell_length_b 7.156854
_cell_length_c 28.090040
_cell_angle_alpha 90.000000
_cell_angle_beta 90.000000
_cell_angle_gamma 90.000000
_cell_volume 1628.931724
_symmetry_space_group_name_H-M "P C C A"
_symmetry_group_IT_number 54
_symmetry_cell_setting 'orthorhombic'
loop_
_space_group_symop_operation_xyz
x,y,z
1/2-x,-y,z
1/2+x,-y,1/2-z
-x,y,1/2-z
-x,-y,-z
1/2+x,y,-z
1/2-x,y,1/2+z
x,-y,1/2+z
loop_
_atom_site_type_symbol
_atom_site_label
_atom_site_fract_x
_atom_site_fract_y
_atom_site_fract_z
Si Si1 0.004315 0.150286 0.042293
Si Si2 0.020870 0.701449 0.365948
Si Si3 0.250000 0.000000 0.380386
Si Si4 0.750000 0.000000 0.830541
Si Si5 0.084463 0.623504 0.699346
Si Si6 0.850820 0.681182 0.459315
O O1 0.895758 0.082009 0.086097
O O2 0.196684 0.180982 0.050909
O O3 0.911439 0.314908 0.013692
O O4 0.000000 0.000000 0.000000
O O5 0.870494 0.844104 0.353757
O O6 0.009205 0.497569 0.341982
O O7 0.003198 0.689511 0.423079
O O8 0.179703 0.823294 0.352039
O O9 0.875541 0.844412 0.807619
O O10 0.250000 0.500000 0.701762
O O11 0.000000 0.601528 0.750000
O O12 0.750000 0.500000 0.446644
#
# Coordination Sequence:
#
# PCOD9423209 Si02
#       6
#     8   8   4   4   8   8
#     4  12  22  40  64  96 135 187 243 298 350 417
#     4  11  24  43  66 107 143 187 238 296 359 433
#     4  12  24  39  69 100 142 194 246 296 363 419
#     4  10  22  43  71 100 136 190 226 284 363 431
#     4  10  24  47  75 106 143 180 232 293 361 439
#     4  12  23  40  64  93 138 182 240 303 361 420
#
# _framework density 24.555972000000001
#
# number of rings (size 3 to 8) (size 9 to 14) (size 15 to 20)
#    0.000    0.800    4.000    3.600    0.000    4.800 
#    0.000    3.000    0.000    0.000    0.000    0.000 
#    0.000    0.000    0.000    0.000    0.000    0.000 
#
# Total GULP energy -223057.481693 kJ/mol
# GULP energy per Si atom -5576.437042 kJ/mol
# Density = 2.450008 g / cm^3
# Si number density = 24.555972 Si / 1000 Ang^3
#
#
#
# Elastic Constant Matrix: (Units=GPa)
#
#
# Indices 1 2 3 4 5 6 
#
# 1 61.6795 32.9764 17.9161 0.0000 0.0000 0.0000
# 2 32.9764 159.5101 32.5162 0.0000 0.0000 0.0000
# 3 17.9161 32.5162 70.0931 0.0000 0.0000 0.0000
# 4 0.0000 0.0000 0.0000 -4.2915 0.0000 0.0000
# 5 0.0000 0.0000 0.0000 0.0000 50.2317 0.0000
# 6 0.0000 0.0000 0.0000 0.0000 0.0000 35.8362
#
#
#
# Elastic Compliance Matrix: (Units=1/GPa)
#
#
# Indices 1 2 3 4 5 6 
#
# 1 0.018908 -0.003229 -0.003335 0.000000 0.000000 0.000000
# 2 -0.003229 0.007475 -0.002642 0.000000 0.000000 0.000000
# 3 -0.003335 -0.002642 0.016345 0.000000 0.000000 0.000000
# 4 0.000000 0.000000 0.000000 -0.233019 0.000000 0.000000
# 5 0.000000 0.000000 0.000000 0.000000 0.019908 0.000000
# 6 0.000000 0.000000 0.000000 0.000000 0.000000 0.027905
#
#
# Mechanical properties :
#
#
# Convention : Reuss Voigt Hill
#
# Bulk Modulus (GPa) = 41.12639 50.90001 46.01320
# Shear Modulus (GPa) = -43.11833 30.21355 -6.45239
#
# Velocity S-wave (km/s) = -4.19492 3.51150 -1.62275
# Velocity P-wave (km/s) = 2.58432 6.10033 3.90739
#
# Compressibility (1/GPa) = 0.02431529
#
# Stress axis : x y z
#
# Youngs Moduli (GPa) = 52.88768 133.77137 61.18073
#
# Poissons Ratio (x) = 0.43196 0.20404
# Poissons Ratio (y) = 0.17078 0.16167
# Poissons Ratio (z) = 0.17638 0.35349
#
# Static dielectric constant tensor:
#      x y z
#    x 23.964630 0.000000 0.000000 
#    y 0.000000 2.294710 0.000000 
#    z 0.000000 0.000000 1.975890 
# 
# From -- ./inp_files/27590.got.cif
#   From: 2010.05.17/outbox.cif.g08.bks.cpg/sg54_14_cif.got.tgz:27590.got - 2010.06.03 13:09:01.
