data_PCOD9423810
_publ_section_title
;
Structure prediction by ZEFSAII (Michael W. Deem and Ramdas Pophale) SiO2 
 PCOD9423810
Probable space group: P C C A
;
_chemical_formula_sum "Si O2"
_cell_formula_units_Z 40
_cell_length_a 12.926806
_cell_length_b 9.077991
_cell_length_c 14.332687
_cell_angle_alpha 90.000000
_cell_angle_beta 90.000000
_cell_angle_gamma 90.000000
_cell_volume 1681.932629
_symmetry_space_group_name_H-M "P C C A"
_symmetry_group_IT_number 54
_symmetry_cell_setting 'orthorhombic'
loop_
_space_group_symop_operation_xyz
x,y,z
1/2-x,-y,z
1/2+x,-y,1/2-z
-x,y,1/2-z
-x,-y,-z
1/2+x,y,-z
1/2-x,y,1/2+z
x,-y,1/2+z
loop_
_atom_site_type_symbol
_atom_site_label
_atom_site_fract_x
_atom_site_fract_y
_atom_site_fract_z
Si Si1 0.750000 0.500000 0.825683
Si Si2 0.000000 0.413980 0.750000
Si Si3 0.559867 0.830667 0.622208
Si Si4 0.137027 0.718946 0.033649
Si Si5 0.611286 0.346730 0.672092
Si Si6 0.500000 0.927881 0.250000
Si Si7 0.250000 0.000000 0.974453
O O1 0.680105 0.410676 0.753992
O O2 0.817318 0.390737 0.889615
O O3 0.921797 0.291599 0.703767
O O4 0.985664 0.539737 0.669261
O O5 0.485526 0.749649 0.547913
O O6 0.662286 0.910621 0.584663
O O7 0.486319 0.958579 0.665260
O O8 0.157224 0.657842 0.930295
O O9 0.194571 0.875262 0.035040
O O10 0.582697 0.184252 0.707055
#
# Coordination Sequence:
#
# PCOD9423810 Si02
#       7
#     4   4   8   8   8   4   4
#     4  12  28  48  74 120 156 212 260 336 398 480
#     4  10  24  46  76 104 158 200 256 330 392 464
#     4  11  25  50  73 114 151 210 250 334 395 468
#     4  12  28  49  80 112 160 203 273 328 401 481
#     4  11  25  47  73 113 150 208 257 324 391 480
#     4  10  24  46  76 104 158 198 254 322 388 470
#     4  12  28  44  80 112 152 206 268 326 400 490
#
# _framework density 23.782167000000001
#
# number of rings (size 3 to 8) (size 9 to 14) (size 15 to 20)
#    0.000    0.800    4.000    1.200    8.400    2.400 
#    0.000    0.000    0.000    0.000    0.000    0.000 
#    0.000    0.000    0.000    0.000    0.000    0.000 
#
# Total GULP energy -222775.711356 kJ/mol
# GULP energy per Si atom -5569.392784 kJ/mol
# Density = 2.372804 g / cm^3
# Si number density = 23.782167 Si / 1000 Ang^3
#
#
#
# Elastic Constant Matrix: (Units=GPa)
#
#
# Indices 1 2 3 4 5 6 
#
# 1 103.0252 36.6522 54.7862 0.0000 0.0000 0.0000
# 2 36.6522 144.8011 55.2708 0.0000 0.0000 0.0000
# 3 54.7862 55.2708 138.7002 0.0000 0.0000 0.0000
# 4 0.0000 0.0000 0.0000 51.6287 0.0000 0.0000
# 5 0.0000 0.0000 0.0000 0.0000 30.6237 0.0000
# 6 0.0000 0.0000 0.0000 0.0000 0.0000 45.7341
#
#
#
# Elastic Compliance Matrix: (Units=1/GPa)
#
#
# Indices 1 2 3 4 5 6 
#
# 1 0.012563 -0.001517 -0.004358 0.000000 0.000000 0.000000
# 2 -0.001517 0.008328 -0.002720 0.000000 0.000000 0.000000
# 3 -0.004358 -0.002720 0.010015 0.000000 0.000000 0.000000
# 4 0.000000 0.000000 0.000000 0.019369 0.000000 0.000000
# 5 0.000000 0.000000 0.000000 0.000000 0.032654 0.000000
# 6 0.000000 0.000000 0.000000 0.000000 0.000000 0.021866
#
#
# Mechanical properties :
#
#
# Convention : Reuss Voigt Hill
#
# Bulk Modulus (GPa) = 72.89820 75.54944 74.22382
# Shear Modulus (GPa) = 39.50796 41.58512 40.54654
#
# Velocity S-wave (km/s) = 4.08026 4.18614 4.13354
# Velocity P-wave (km/s) = 7.27441 7.42976 7.35249
#
# Compressibility (1/GPa) = 0.01371776
#
# Stress axis : x y z
#
# Youngs Moduli (GPa) = 79.59582 120.07740 99.85018
#
# Poissons Ratio (x) = 0.18210 0.43517
# Poissons Ratio (y) = 0.12071 0.27155
# Poissons Ratio (z) = 0.34690 0.32656
#
# Static dielectric constant tensor:
#      x y z
#    x 2.176390 0.000000 0.000000 
#    y 0.000000 1.914990 0.000000 
#    z 0.000000 0.000000 1.917740 
# 
# From -- ./inp_files/13309.got.cif
#   From: 2010.05.17/outbox.cif.g08.bks.cpg/sg54_7_cif.got.tgz:13309.got - 2010.06.03 13:09:01.
