data_PCOD9423136
_publ_section_title
;
Structure prediction by ZEFSAII (Michael W. Deem and Ramdas Pophale) SiO2 
 PCOD9423136
Probable space group: P C C A
;
_chemical_formula_sum "Si O2"
_cell_formula_units_Z 32
_cell_length_a 8.967082
_cell_length_b 8.476423
_cell_length_c 17.405521
_cell_angle_alpha 90.000000
_cell_angle_beta 90.000000
_cell_angle_gamma 90.000000
_cell_volume 1322.972418
_symmetry_space_group_name_H-M "P C C A"
_symmetry_group_IT_number 54
_symmetry_cell_setting 'orthorhombic'
loop_
_space_group_symop_operation_xyz
x,y,z
1/2-x,-y,z
1/2+x,-y,1/2-z
-x,y,1/2-z
-x,-y,-z
1/2+x,y,-z
1/2-x,y,1/2+z
x,-y,1/2+z
loop_
_atom_site_type_symbol
_atom_site_label
_atom_site_fract_x
_atom_site_fract_y
_atom_site_fract_z
Si Si1 0.055543 0.238115 0.527540
Si Si2 0.750000 0.000000 0.889670
Si Si3 0.245743 0.809485 0.891691
Si Si4 0.750000 0.500000 0.383562
Si Si5 0.658980 0.260982 0.771597
O O1 0.121108 0.069626 0.556634
O O2 0.095938 0.239568 0.437567
O O3 0.151933 0.380099 0.565634
O O4 0.885580 0.243783 0.555568
O O5 0.772471 0.857574 0.832006
O O6 0.249884 0.731692 0.807564
O O7 0.250000 0.000000 0.881791
O O8 0.859480 0.416849 0.322003
O O9 0.500000 0.192296 0.750000
#
# Coordination Sequence:
#
# PCOD9423136 Si02
#       5
#     8   4   8   4   8
#     4  11  26  45  71 104 147 187 240 298 358 441
#     4  10  22  42  68 100 138 178 238 294 344 424
#     4  12  25  44  75 108 142 190 245 304 358 423
#     4  10  28  46  66 104 144 192 236 294 370 428
#     4  11  25  43  71 100 141 182 236 292 360 421
#
# _framework density 24.187957999999998
#
# number of rings (size 3 to 8) (size 9 to 14) (size 15 to 20)
#    0.000    1.000    2.500    2.250   10.500    4.000 
#    0.000    0.000    0.000    0.000    0.000    0.000 
#    0.000    0.000    0.000    0.000    0.000    0.000 
#
# Total GULP energy -178935.891529 kJ/mol
# GULP energy per Si atom -5591.746610 kJ/mol
# Density = 2.413290 g / cm^3
# Si number density = 24.187958 Si / 1000 Ang^3
#
#
#
# Elastic Constant Matrix: (Units=GPa)
#
#
# Indices 1 2 3 4 5 6 
#
# 1 79.6494 5.0225 23.6129 0.0000 0.0000 0.0000
# 2 5.0225 58.4937 53.2291 0.0000 0.0000 0.0000
# 3 23.6129 53.2291 149.3474 0.0000 0.0000 0.0000
# 4 0.0000 0.0000 0.0000 32.3101 0.0000 0.0000
# 5 0.0000 0.0000 0.0000 0.0000 -89.0209 0.0000
# 6 0.0000 0.0000 0.0000 0.0000 0.0000 23.5805
#
#
#
# Elastic Compliance Matrix: (Units=1/GPa)
#
#
# Indices 1 2 3 4 5 6 
#
# 1 0.013223 0.001135 -0.002495 0.000000 0.000000 0.000000
# 2 0.001135 0.025400 -0.009232 0.000000 0.000000 0.000000
# 3 -0.002495 -0.009232 0.010381 0.000000 0.000000 0.000000
# 4 0.000000 0.000000 0.000000 0.030950 0.000000 0.000000
# 5 0.000000 0.000000 0.000000 0.000000 -0.011233 0.000000
# 6 0.000000 0.000000 0.000000 0.000000 0.000000 0.042408
#
#
# Mechanical properties :
#
#
# Convention : Reuss Voigt Hill
#
# Bulk Modulus (GPa) = 35.94635 50.13550 43.04093
# Shear Modulus (GPa) = 35.31427 7.08235 21.19831
#
# Velocity S-wave (km/s) = 3.82513 1.71301 2.96362
# Velocity P-wave (km/s) = 5.86535 4.96840 5.43541
#
# Compressibility (1/GPa) = 0.02781924
#
# Stress axis : x y z
#
# Youngs Moduli (GPa) = 75.62463 39.37061 96.33170
#
# Poissons Ratio (x) = -0.04470 0.24038
# Poissons Ratio (y) = -0.08586 0.88936
# Poissons Ratio (z) = 0.18871 0.36348
#
# Static dielectric constant tensor:
#      x y z
#    x 1.985160 0.000000 0.000000 
#    y 0.000000 2.057470 0.000000 
#    z 0.000000 0.000000 1.928020 
# 
# From -- ./inp_files/20048.got.cif
#   From: 2010.05.17/outbox.cif.g08.bks.cpg/sg54_11_cif.got.tgz:20048.got - 2010.06.03 13:09:01.
