data_PCOD9423437
_publ_section_title
;
Structure prediction by ZEFSAII (Michael W. Deem and Ramdas Pophale) SiO2 
 PCOD9423437
Probable space group: P C C A
;
_chemical_formula_sum "Si O2"
_cell_formula_units_Z 40
_cell_length_a 8.510664
_cell_length_b 19.480864
_cell_length_c 11.294864
_cell_angle_alpha 90.000000
_cell_angle_beta 90.000000
_cell_angle_gamma 90.000000
_cell_volume 1872.632970
_symmetry_space_group_name_H-M "P C C A"
_symmetry_group_IT_number 54
_symmetry_cell_setting 'orthorhombic'
loop_
_space_group_symop_operation_xyz
x,y,z
1/2-x,-y,z
1/2+x,-y,1/2-z
-x,y,1/2-z
-x,-y,-z
1/2+x,y,-z
1/2-x,y,1/2+z
x,-y,1/2+z
loop_
_atom_site_type_symbol
_atom_site_label
_atom_site_fract_x
_atom_site_fract_y
_atom_site_fract_z
Si Si1 0.402856 0.694881 0.631005
Si Si2 0.500000 0.041291 0.750000
Si Si3 0.826974 0.871106 0.592561
Si Si4 0.079173 0.530801 0.121285
Si Si5 0.750000 0.000000 0.926835
Si Si6 0.614071 0.224926 0.964651
O O1 0.500000 0.710610 0.750000
O O2 0.393985 0.613009 0.619954
O O3 0.242137 0.739848 0.621581
O O4 0.503642 0.717267 0.517661
O O5 0.648829 0.087218 0.711520
O O6 0.416495 0.001089 0.644500
O O7 0.771474 0.930635 0.502765
O O8 0.706926 0.810000 0.573519
O O9 0.997103 0.834831 0.578455
O O10 0.250000 0.500000 0.124342
O O11 0.000000 0.514673 0.250000
O O12 0.000000 0.500000 0.000000
#
# Coordination Sequence:
#
# PCOD9423437 Si02
#       6
#     8   4   8   8   4   8
#     4  10  23  43  66  96 134 176 217 270 325 396
#     4  12  26  40  68  86 122 174 204 270 352 378
#     4  11  24  43  62  95 123 163 216 274 327 401
#     4  11  23  42  71 105 144 185 234 284 342 405
#     4  12  26  44  62  94 128 156 224 278 326 404
#     4  10  23  42  64  91 131 164 214 270 323 397
#
# _framework density 21.360296999999999
#
# number of rings (size 3 to 8) (size 9 to 14) (size 15 to 20)
#    0.000    1.200    2.000    3.000    5.600    1.600 
#    1.800    0.000    0.000    0.000    0.000    0.000 
#    0.000    0.000    0.000    0.000    0.000    0.000 
#
# Total GULP energy -222849.932892 kJ/mol
# GULP energy per Si atom -5571.248322 kJ/mol
# Density = 2.131168 g / cm^3
# Si number density = 21.360297 Si / 1000 Ang^3
#
#
#
# Elastic Constant Matrix: (Units=GPa)
#
#
# Indices 1 2 3 4 5 6 
#
# 1 110.8293 50.7681 32.3542 0.0000 0.0000 0.0000
# 2 50.7681 107.0914 41.3692 0.0000 0.0000 0.0000
# 3 32.3542 41.3692 80.4230 0.0000 0.0000 0.0000
# 4 0.0000 0.0000 0.0000 20.4333 0.0000 0.0000
# 5 0.0000 0.0000 0.0000 0.0000 35.7221 0.0000
# 6 0.0000 0.0000 0.0000 0.0000 0.0000 13.0030
#
#
#
# Elastic Compliance Matrix: (Units=1/GPa)
#
#
# Indices 1 2 3 4 5 6 
#
# 1 0.011871 -0.004721 -0.002347 0.000000 0.000000 0.000000
# 2 -0.004721 0.013531 -0.005061 0.000000 0.000000 0.000000
# 3 -0.002347 -0.005061 0.015982 0.000000 0.000000 0.000000
# 4 0.000000 0.000000 0.000000 0.048940 0.000000 0.000000
# 5 0.000000 0.000000 0.000000 0.000000 0.027994 0.000000
# 6 0.000000 0.000000 0.000000 0.000000 0.000000 0.076906
#
#
# Mechanical properties :
#
#
# Convention : Reuss Voigt Hill
#
# Bulk Modulus (GPa) = 58.39291 60.81406 59.60348
# Shear Modulus (GPa) = 22.20359 25.42182 23.81270
#
# Velocity S-wave (km/s) = 3.22759 3.45359 3.34250
# Velocity P-wave (km/s) = 6.42544 6.66599 6.54682
#
# Compressibility (1/GPa) = 0.01712537
#
# Stress axis : x y z
#
# Youngs Moduli (GPa) = 84.24235 73.90566 62.57064
#
# Poissons Ratio (x) = 0.34888 0.14687
# Poissons Ratio (y) = 0.39768 0.31667
# Poissons Ratio (z) = 0.19774 0.37404
#
# Static dielectric constant tensor:
#      x y z
#    x 1.783800 0.000000 0.000000 
#    y 0.000000 1.842100 0.000000 
#    z 0.000000 0.000000 1.873610 
# 
# From -- ./inp_files/6888.got.cif
#   From: 2010.05.17/outbox.cif.g08.bks.cpg/sg54_4_cif.got.tgz:6888.got - 2010.06.03 13:09:01.
