data_PCOD9423238
_publ_section_title
;
Structure prediction by ZEFSAII (Michael W. Deem and Ramdas Pophale) SiO2 
 PCOD9423238
Probable space group: P C C A
;
_chemical_formula_sum "Si O2"
_cell_formula_units_Z 28
_cell_length_a 16.007449
_cell_length_b 7.120695
_cell_length_c 9.740694
_cell_angle_alpha 90.000000
_cell_angle_beta 90.000000
_cell_angle_gamma 90.000000
_cell_volume 1110.284843
_symmetry_space_group_name_H-M "P C C A"
_symmetry_group_IT_number 54
_symmetry_cell_setting 'orthorhombic'
loop_
_space_group_symop_operation_xyz
x,y,z
1/2-x,-y,z
1/2+x,-y,1/2-z
-x,y,1/2-z
-x,-y,-z
1/2+x,y,-z
1/2-x,y,1/2+z
x,-y,1/2+z
loop_
_atom_site_type_symbol
_atom_site_label
_atom_site_fract_x
_atom_site_fract_y
_atom_site_fract_z
Si Si1 0.587785 0.449177 0.243120
Si Si2 0.833872 0.802225 0.449707
Si Si3 0.590176 0.963228 0.695229
Si Si4 0.250000 0.500000 0.920604
O O1 0.500000 0.552564 0.250000
O O2 0.611485 0.374445 0.394540
O O3 0.573719 0.255519 0.156773
O O4 0.670221 0.532524 0.176691
O O5 0.842593 0.938431 0.318337
O O6 0.749428 0.693928 0.492485
O O7 0.626193 0.914064 0.074255
O O8 0.500000 0.028368 0.750000
#
# Coordination Sequence:
#
# PCOD9423238 Si02
#       4
#     8   8   8   4
#     4   9  23  44  68 102 138 186 233 287 346 410
#     4  10  22  44  67 100 133 178 228 292 340 416
#     4   9  20  43  72 103 131 176 238 284 349 409
#     4  12  24  44  64 106 148 182 232 286 356 416
#
# _framework density 25.218751999999999
#
# number of rings (size 3 to 8) (size 9 to 14) (size 15 to 20)
#    1.714    0.571    0.000    1.714    0.000    3.429 
#   15.429    0.000    0.000    1.714    0.000    0.000 
#    0.000    0.000    0.000    0.000    0.000    0.000 
#
# Total GULP energy -156056.799749 kJ/mol
# GULP energy per Si atom -5573.457134 kJ/mol
# Density = 2.516135 g / cm^3
# Si number density = 25.218752 Si / 1000 Ang^3
#
#
#
# Elastic Constant Matrix: (Units=GPa)
#
#
# Indices 1 2 3 4 5 6 
#
# 1 129.7987 10.8111 36.2447 0.0000 0.0000 0.0000
# 2 10.8111 70.3131 19.4329 0.0000 0.0000 0.0000
# 3 36.2447 19.4329 116.5765 0.0000 0.0000 0.0000
# 4 0.0000 0.0000 0.0000 7.5657 0.0000 0.0000
# 5 0.0000 0.0000 0.0000 0.0000 17.8401 0.0000
# 6 0.0000 0.0000 0.0000 0.0000 0.0000 27.0143
#
#
#
# Elastic Compliance Matrix: (Units=1/GPa)
#
#
# Indices 1 2 3 4 5 6 
#
# 1 0.008461 -0.000602 -0.002530 0.000000 0.000000 0.000000
# 2 -0.000602 0.014952 -0.002305 0.000000 0.000000 0.000000
# 3 -0.002530 -0.002305 0.009749 0.000000 0.000000 0.000000
# 4 0.000000 0.000000 0.000000 0.132176 0.000000 0.000000
# 5 0.000000 0.000000 0.000000 0.000000 0.056054 0.000000
# 6 0.000000 0.000000 0.000000 0.000000 0.000000 0.037017
#
#
# Mechanical properties :
#
#
# Convention : Reuss Voigt Hill
#
# Bulk Modulus (GPa) = 44.86884 49.96286 47.41585
# Shear Modulus (GPa) = 18.06929 27.16398 22.61664
#
# Velocity S-wave (km/s) = 2.67966 3.28553 2.99794
# Velocity P-wave (km/s) = 5.23494 5.85216 5.55213
#
# Compressibility (1/GPa) = 0.02228718
#
# Stress axis : x y z
#
# Youngs Moduli (GPa) = 118.19084 66.88181 102.57417
#
# Poissons Ratio (x) = 0.04024 0.25954
# Poissons Ratio (y) = 0.07110 0.23647
# Poissons Ratio (z) = 0.29906 0.15419
#
# Static dielectric constant tensor:
#      x y z
#    x 2.071120 0.000000 0.000000 
#    y 0.000000 2.030310 0.000000 
#    z 0.000000 0.000000 2.041150 
# 
# From -- ./inp_files/7813.got.cif
#   From: 2010.05.17/outbox.cif.g08.bks.cpg/sg54_4_cif.got.tgz:7813.got - 2010.06.03 13:09:01.
