data_PCOD9423581
_publ_section_title
;
Structure prediction by ZEFSAII (Michael W. Deem and Ramdas Pophale) SiO2 
 PCOD9423581
Probable space group: P C C A
;
_chemical_formula_sum "Si O2"
_cell_formula_units_Z 64
_cell_length_a 21.888482
_cell_length_b 11.453836
_cell_length_c 10.688665
_cell_angle_alpha 90.000000
_cell_angle_beta 90.000000
_cell_angle_gamma 90.000000
_cell_volume 2679.724025
_symmetry_space_group_name_H-M "P C C A"
_symmetry_group_IT_number 54
_symmetry_cell_setting 'orthorhombic'
loop_
_space_group_symop_operation_xyz
x,y,z
1/2-x,-y,z
1/2+x,-y,1/2-z
-x,y,1/2-z
-x,-y,-z
1/2+x,y,-z
1/2-x,y,1/2+z
x,-y,1/2+z
loop_
_atom_site_type_symbol
_atom_site_label
_atom_site_fract_x
_atom_site_fract_y
_atom_site_fract_z
Si Si1 0.234410 0.637295 0.327593
Si Si2 0.555523 0.343505 0.160588
Si Si3 0.150943 0.249055 0.250070
Si Si4 0.363202 0.581158 0.031402
Si Si5 0.060942 0.933295 0.331589
Si Si6 0.320426 0.994405 0.163063
Si Si7 0.107176 0.872547 0.979148
Si Si8 0.645040 0.337538 0.370102
O O1 0.250000 0.500000 0.305116
O O2 0.294510 0.714376 0.343658
O O3 0.189004 0.641724 0.445673
O O4 0.208330 0.692655 0.197196
O O5 0.500000 0.371724 0.250000
O O6 0.570251 0.403702 0.030326
O O7 0.558191 0.204133 0.138241
O O8 0.610853 0.384524 0.248047
O O9 0.165914 0.142955 0.156922
O O10 0.103689 0.194189 0.347197
O O11 0.136084 0.359257 0.166160
O O12 0.347308 0.445310 0.038582
O O13 0.000000 0.958807 0.250000
O O14 0.125370 0.956541 0.255737
O O15 0.064437 0.016577 0.453105
O O16 0.250000 0.000000 0.205862
O O17 0.331811 0.063269 0.033169
O O18 0.103125 0.766042 0.076813
#
# Coordination Sequence:
#
# PCOD9423581 Si02
#       8
#     8   8   8   8   8   8   8   8
#     4  11  23  39  66  97 134 181 230 271 340 420
#     4  10  23  47  73  96 132 183 234 292 356 414
#     4  11  25  40  66 100 137 183 231 278 347 420
#     4  11  25  41  68 100 139 180 236 284 342 425
#     4  10  23  47  71 100 135 189 244 290 355 429
#     4  11  24  42  67 103 143 178 228 297 361 415
#     4  11  24  42  67  99 139 179 233 295 351 420
#     4  11  23  42  65  98 136 176 228 286 348 412
#
# _framework density 23.883056
#
# number of rings (size 3 to 8) (size 9 to 14) (size 15 to 20)
#    0.000    1.250    2.500    2.250    8.750    3.000 
#    4.500    0.625    0.000    0.000    0.000    0.000 
#    0.000    0.000    0.000    0.000    0.000    0.000 
#
# Total GULP energy -356818.130483 kJ/mol
# GULP energy per Si atom -5575.283289 kJ/mol
# Density = 2.382870 g / cm^3
# Si number density = 23.883056 Si / 1000 Ang^3
#
#
#
# Elastic Constant Matrix: (Units=GPa)
#
#
# Indices 1 2 3 4 5 6 
#
# 1 62.7784 -8.7820 11.8188 0.0000 0.0000 0.0000
# 2 -8.7820 55.3883 33.1187 0.0000 0.0000 0.0000
# 3 11.8188 33.1187 77.4500 0.0000 0.0000 0.0000
# 4 0.0000 0.0000 0.0000 38.1920 0.0000 0.0000
# 5 0.0000 0.0000 0.0000 0.0000 25.0825 0.0000
# 6 0.0000 0.0000 0.0000 0.0000 0.0000 55.4261
#
#
#
# Elastic Compliance Matrix: (Units=1/GPa)
#
#
# Indices 1 2 3 4 5 6 
#
# 1 0.017752 0.005958 -0.005257 0.000000 0.000000 0.000000
# 2 0.005958 0.026256 -0.012137 0.000000 0.000000 0.000000
# 3 -0.005257 -0.012137 0.018903 0.000000 0.000000 0.000000
# 4 0.000000 0.000000 0.000000 0.026183 0.000000 0.000000
# 5 0.000000 0.000000 0.000000 0.000000 0.039869 0.000000
# 6 0.000000 0.000000 0.000000 0.000000 0.000000 0.018042
#
#
# Mechanical properties :
#
#
# Convention : Reuss Voigt Hill
#
# Bulk Modulus (GPa) = 24.97460 29.76976 27.37218
# Shear Modulus (GPa) = 27.28916 34.37086 30.83001
#
# Velocity S-wave (km/s) = 3.38393 3.79770 3.59677
# Velocity P-wave (km/s) = 5.07422 5.63222 5.36049
#
# Compressibility (1/GPa) = 0.04004068
#
# Stress axis : x y z
#
# Youngs Moduli (GPa) = 56.33144 38.08678 52.90042
#
# Poissons Ratio (x) = -0.22691 0.27807
# Poissons Ratio (y) = -0.33561 0.64203
# Poissons Ratio (z) = 0.29611 0.46224
#
# Static dielectric constant tensor:
#      x y z
#    x 2.207920 0.000000 0.000000 
#    y 0.000000 1.891080 0.000000 
#    z 0.000000 0.000000 2.066780 
# 
# From -- ./inp_files/10062.got.cif
#   From: 2010.05.17/outbox.cif.g08.bks.cpg/sg54_6_cif.got.tgz:10062.got - 2010.06.03 13:09:01.
