data_PCOD9423390
_publ_section_title
;
Structure prediction by ZEFSAII (Michael W. Deem and Ramdas Pophale) SiO2 
 PCOD9423390
Probable space group: P C C A
;
_chemical_formula_sum "Si O2"
_cell_formula_units_Z 48
_cell_length_a 18.526435
_cell_length_b 8.958407
_cell_length_c 13.767460
_cell_angle_alpha 90.000000
_cell_angle_beta 90.000000
_cell_angle_gamma 90.000000
_cell_volume 2284.948783
_symmetry_space_group_name_H-M "P C C A"
_symmetry_group_IT_number 54
_symmetry_cell_setting 'orthorhombic'
loop_
_space_group_symop_operation_xyz
x,y,z
1/2-x,-y,z
1/2+x,-y,1/2-z
-x,y,1/2-z
-x,-y,-z
1/2+x,y,-z
1/2-x,y,1/2+z
x,-y,1/2+z
loop_
_atom_site_type_symbol
_atom_site_label
_atom_site_fract_x
_atom_site_fract_y
_atom_site_fract_z
Si Si1 0.571805 0.707646 0.022494
Si Si2 0.579940 0.334646 0.208431
Si Si3 0.298078 0.213121 0.639682
Si Si4 0.683535 0.402400 0.675312
Si Si5 0.080406 0.632270 0.523101
Si Si6 0.640632 0.113847 0.362962
O O1 0.635832 0.689895 0.099437
O O2 0.574298 0.546729 0.967662
O O3 0.491640 0.706826 0.067731
O O4 0.585215 0.840861 0.947740
O O5 0.500000 0.356703 0.250000
O O6 0.629456 0.479383 0.225594
O O7 0.578842 0.324542 0.091260
O O8 0.613839 0.194228 0.264886
O O9 0.288273 0.292819 0.742598
O O10 0.345947 0.313857 0.569691
O O11 0.217624 0.181604 0.603466
O O12 0.342315 0.059263 0.651128
O O13 0.750000 0.500000 0.633396
#
# Coordination Sequence:
#
# PCOD9423390 Si02
#       6
#     8   8   8   8   8   8
#     4  10  23  40  66  96 125 165 213 273 323 382
#     4  11  22  43  68  94 125 173 213 267 324 383
#     4  11  26  41  63  96 130 176 214 266 322 388
#     4  11  24  41  67  96 127 170 221 271 317 383
#     4  10  23  41  66  98 126 164 218 268 324 382
#     4  11  24  44  63  91 137 174 214 262 326 391
#
# _framework density 21.007035999999999
#
# number of rings (size 3 to 8) (size 9 to 14) (size 15 to 20)
#    0.000    1.333    3.333    1.000    9.333    2.000 
#    3.000    3.333    0.000    0.000    0.000    0.000 
#    0.000    0.000    0.000    0.000    0.000    0.000 
#
# Total GULP energy -268188.995625 kJ/mol
# GULP energy per Si atom -5587.270742 kJ/mol
# Density = 2.095922 g / cm^3
# Si number density = 21.007036 Si / 1000 Ang^3
#
#
#
# Elastic Constant Matrix: (Units=GPa)
#
#
# Indices 1 2 3 4 5 6 
#
# 1 78.1475 0.1044 -4.3766 0.0000 0.0000 0.0000
# 2 0.1044 26.5378 -13.4920 0.0000 0.0000 0.0000
# 3 -4.3766 -13.4920 47.8164 0.0000 0.0000 0.0000
# 4 0.0000 0.0000 0.0000 10.7069 0.0000 0.0000
# 5 0.0000 0.0000 0.0000 0.0000 31.6199 0.0000
# 6 0.0000 0.0000 0.0000 0.0000 0.0000 34.3699
#
#
#
# Elastic Compliance Matrix: (Units=1/GPa)
#
#
# Indices 1 2 3 4 5 6 
#
# 1 0.012872 0.000640 0.001359 0.000000 0.000000 0.000000
# 2 0.000640 0.044025 0.012481 0.000000 0.000000 0.000000
# 3 0.001359 0.012481 0.024559 0.000000 0.000000 0.000000
# 4 0.000000 0.000000 0.000000 0.093397 0.000000 0.000000
# 5 0.000000 0.000000 0.000000 0.000000 0.031626 0.000000
# 6 0.000000 0.000000 0.000000 0.000000 0.000000 0.029095
#
#
# Mechanical properties :
#
#
# Convention : Reuss Voigt Hill
#
# Bulk Modulus (GPa) = 9.05673 12.99702 11.02687
# Shear Modulus (GPa) = 20.54067 26.69040 23.61554
#
# Velocity S-wave (km/s) = 3.13037 3.56834 3.35651
# Velocity P-wave (km/s) = 4.16968 4.81433 4.50356
#
# Compressibility (1/GPa) = 0.11041517
#
# Stress axis : x y z
#
# Youngs Moduli (GPa) = 77.69069 22.71446 40.71773
#
# Poissons Ratio (x) = -0.01454 -0.05533
# Poissons Ratio (y) = -0.04974 -0.50819
# Poissons Ratio (z) = -0.10556 -0.28349
#
# Static dielectric constant tensor:
#      x y z
#    x 1.775340 0.000000 0.000000 
#    y 0.000000 1.737820 0.000000 
#    z 0.000000 0.000000 1.757280 
# 
# From -- ./inp_files/14133.got.cif
#   From: 2010.05.17/outbox.cif.g08.bks.cpg/sg54_8_cif.got.tgz:14133.got - 2010.06.03 13:09:01.
