data_PCOD9423258
_publ_section_title
;
Structure prediction by ZEFSAII (Michael W. Deem and Ramdas Pophale) SiO2 
 PCOD9423258
Probable space group: P C C A
;
_chemical_formula_sum "Si O2"
_cell_formula_units_Z 64
_cell_length_a 11.603920
_cell_length_b 16.962872
_cell_length_c 14.569304
_cell_angle_alpha 90.000000
_cell_angle_beta 90.000000
_cell_angle_gamma 90.000000
_cell_volume 2867.760749
_symmetry_space_group_name_H-M "P C C A"
_symmetry_group_IT_number 54
_symmetry_cell_setting 'orthorhombic'
loop_
_space_group_symop_operation_xyz
x,y,z
1/2-x,-y,z
1/2+x,-y,1/2-z
-x,y,1/2-z
-x,-y,-z
1/2+x,y,-z
1/2-x,y,1/2+z
x,-y,1/2+z
loop_
_atom_site_type_symbol
_atom_site_label
_atom_site_fract_x
_atom_site_fract_y
_atom_site_fract_z
Si Si1 0.376782 0.800822 0.215069
Si Si2 0.622085 0.028247 0.744089
Si Si3 0.375435 0.014065 0.451887
Si Si4 0.663793 0.439508 0.984517
Si Si5 0.014035 0.513467 0.359967
Si Si6 0.305076 0.185157 0.382074
Si Si7 0.512319 0.303385 0.357909
Si Si8 0.254885 0.267531 0.049984
O O1 0.500000 0.769069 0.250000
O O2 0.396342 0.893488 0.197140
O O3 0.271839 0.802098 0.290189
O O4 0.341485 0.758861 0.122111
O O5 0.500000 0.981253 0.750000
O O6 0.750000 0.000000 0.769530
O O7 0.630599 0.044897 0.635281
O O8 0.364273 0.100702 0.403401
O O9 0.250000 0.000000 0.501719
O O10 0.500000 0.000000 0.500000
O O11 0.750000 0.500000 0.936778
O O12 0.553030 0.447139 0.918063
O O13 0.720629 0.354245 0.985974
O O14 0.633708 0.476673 0.084296
O O15 0.000000 0.500686 0.250000
O O16 0.974952 0.603795 0.379975
O O17 0.404077 0.252209 0.390358
O O18 0.227009 0.206329 0.468567
O O19 0.500000 0.300017 0.250000
O O20 0.628195 0.266790 0.393763
#
# Coordination Sequence:
#
# PCOD9423258 Si02
#       8
#     8   8   8   8   8   8   8   8
#     4  11  26  48  70 101 146 187 245 304 366 447
#     4  10  22  44  70  95 138 183 239 299 362 433
#     4  11  26  45  68 103 143 189 246 304 369 446
#     4  11  23  45  69 103 143 184 241 301 363 445
#     4  10  23  44  70 100 141 189 240 299 363 440
#     4  12  26  45  74 104 144 191 244 305 372 446
#     4  11  23  44  69 101 141 180 239 296 359 437
#     4  12  27  43  72 106 142 192 237 303 376 435
#
# _framework density 22.317064999999999
#
# number of rings (size 3 to 8) (size 9 to 14) (size 15 to 20)
#    0.000    1.000    6.250    0.000    7.000    3.000 
#    2.250    0.000    0.000    0.000    0.000    0.000 
#    0.000    0.000    0.000    0.000    0.000    0.000 
#
# Total GULP energy -356348.776309 kJ/mol
# GULP energy per Si atom -5567.949630 kJ/mol
# Density = 2.226627 g / cm^3
# Si number density = 22.317065 Si / 1000 Ang^3
#
#
#
# Elastic Constant Matrix: (Units=GPa)
#
#
# Indices 1 2 3 4 5 6 
#
# 1 125.2962 20.8815 25.4898 0.0000 0.0000 0.0000
# 2 20.8815 53.1894 20.0093 0.0000 0.0000 0.0000
# 3 25.4898 20.0093 78.0486 0.0000 0.0000 0.0000
# 4 0.0000 0.0000 0.0000 -251.3953 0.0000 0.0000
# 5 0.0000 0.0000 0.0000 0.0000 32.2583 0.0000
# 6 0.0000 0.0000 0.0000 0.0000 0.0000 57.2592
#
#
#
# Elastic Compliance Matrix: (Units=1/GPa)
#
#
# Indices 1 2 3 4 5 6 
#
# 1 0.008874 -0.002649 -0.002219 0.000000 0.000000 0.000000
# 2 -0.002649 0.021598 -0.004672 0.000000 0.000000 0.000000
# 3 -0.002219 -0.004672 0.014735 0.000000 0.000000 0.000000
# 4 0.000000 0.000000 0.000000 -0.003978 0.000000 0.000000
# 5 0.000000 0.000000 0.000000 0.000000 0.031000 0.000000
# 6 0.000000 0.000000 0.000000 0.000000 0.000000 0.017464
#
#
# Mechanical properties :
#
#
# Convention : Reuss Voigt Hill
#
# Bulk Modulus (GPa) = 38.27437 43.25506 40.76472
# Shear Modulus (GPa) = 42.55941 -19.69864 11.43038
#
# Velocity S-wave (km/s) = 4.37170 -2.97420 2.26560
# Velocity P-wave (km/s) = 6.53221 2.76218 5.01495
#
# Compressibility (1/GPa) = 0.02612714
#
# Stress axis : x y z
#
# Youngs Moduli (GPa) = 112.68874 46.29998 67.86567
#
# Poissons Ratio (x) = 0.12265 0.15059
# Poissons Ratio (y) = 0.29852 0.31707
# Poissons Ratio (z) = 0.25006 0.21631
#
# Static dielectric constant tensor:
#      x y z
#    x 1.789730 0.000000 0.000000 
#    y 0.000000 1.875150 0.000000 
#    z 0.000000 0.000000 1.857720 
# 
# From -- ./inp_files/12832.got.cif
#   From: 2010.05.17/outbox.cif.g08.bks.cpg/sg54_7_cif.got.tgz:12832.got - 2010.06.03 13:09:01.
