data_PCOD9423118
_publ_section_title
;
Structure prediction by ZEFSAII (Michael W. Deem and Ramdas Pophale) SiO2 
 PCOD9423118
Probable space group: P C C A
;
_chemical_formula_sum "Si O2"
_cell_formula_units_Z 32
_cell_length_a 15.793149
_cell_length_b 8.185623
_cell_length_c 8.951126
_cell_angle_alpha 90.000000
_cell_angle_beta 90.000000
_cell_angle_gamma 90.000000
_cell_volume 1157.172601
_symmetry_space_group_name_H-M "P C C A"
_symmetry_group_IT_number 54
_symmetry_cell_setting 'orthorhombic'
loop_
_space_group_symop_operation_xyz
x,y,z
1/2-x,-y,z
1/2+x,-y,1/2-z
-x,y,1/2-z
-x,-y,-z
1/2+x,y,-z
1/2-x,y,1/2+z
x,-y,1/2+z
loop_
_atom_site_type_symbol
_atom_site_label
_atom_site_fract_x
_atom_site_fract_y
_atom_site_fract_z
Si Si1 0.903971 0.250000 0.693237
Si Si2 0.165739 0.934333 0.886375
Si Si3 0.510822 0.750000 0.071696
Si Si4 0.665739 0.434333 0.613625
O O1 0.855869 0.417705 0.725993
O O2 0.000000 0.250000 0.750000
O O3 0.922951 0.250000 0.514156
O O4 0.855869 0.082295 0.725993
O O5 0.075295 0.899059 0.964469
O O6 0.185281 0.750000 0.830058
O O7 0.250000 0.000000 0.966870
O O8 0.500000 0.750000 0.250000
O O9 0.575295 0.600941 0.035532
O O10 0.750000 0.500000 0.533130
#
# Coordination Sequence:
#
# PCOD9423118 Si02
#       4
#     8   8   8   8
#     4  12  23  42  71  96 128 174 218 270 327 382
#     4  10  22  42  65  96 134 171 216 268 328 390
#     4  10  23  44  67  94 132 168 218 270 317 386
#     4  10  22  42  65  96 134 171 216 268 328 390
#
# _framework density 27.65361
#
# number of rings (size 3 to 8) (size 9 to 14) (size 15 to 20)
#    1.500    0.000    2.500    3.000    0.000    0.000 
#    0.000   15.000    0.000    0.000    0.000    0.000 
#    0.000    0.000    0.000    0.000    0.000    0.000 
#
# Total GULP energy -178183.428439 kJ/mol
# GULP energy per Si atom -5568.232139 kJ/mol
# Density = 2.759067 g / cm^3
# Si number density = 27.653610 Si / 1000 Ang^3
#
#
#
# Elastic Constant Matrix: (Units=GPa)
#
#
# Indices 1 2 3 4 5 6 
#
# 1 162.7762 62.1607 26.2464 0.0000 0.0000 0.0000
# 2 62.1607 283.6014 5.6872 0.0000 0.0000 0.0000
# 3 26.2464 5.6872 111.0036 0.0000 0.0000 0.0000
# 4 0.0000 0.0000 0.0000 -2.8536 0.0000 0.0000
# 5 0.0000 0.0000 0.0000 0.0000 49.4989 0.0000
# 6 0.0000 0.0000 0.0000 0.0000 0.0000 77.2075
#
#
#
# Elastic Compliance Matrix: (Units=1/GPa)
#
#
# Indices 1 2 3 4 5 6 
#
# 1 0.006968 -0.001496 -0.001571 0.000000 0.000000 0.000000
# 2 -0.001496 0.003851 0.000156 0.000000 0.000000 0.000000
# 3 -0.001571 0.000156 0.009372 0.000000 0.000000 0.000000
# 4 0.000000 0.000000 0.000000 -0.350431 0.000000 0.000000
# 5 0.000000 0.000000 0.000000 0.000000 0.020202 0.000000
# 6 0.000000 0.000000 0.000000 0.000000 0.000000 0.012952
#
#
# Mechanical properties :
#
#
# Convention : Reuss Voigt Hill
#
# Bulk Modulus (GPa) = 69.58813 82.84111 76.21462
# Shear Modulus (GPa) = -17.45356 55.65634 19.10139
#
# Velocity S-wave (km/s) = -2.51499 4.49110 2.63104
# Velocity P-wave (km/s) = 4.09698 7.54420 6.07043
#
# Compressibility (1/GPa) = 0.01437027
#
# Stress axis : x y z
#
# Youngs Moduli (GPa) = 143.51548 259.68755 106.69921
#
# Poissons Ratio (x) = 0.38843 0.16761
# Poissons Ratio (y) = 0.21466 -0.01668
# Poissons Ratio (z) = 0.22545 -0.04061
#
# Static dielectric constant tensor:
#      x y z
#    x 2.126800 0.000000 0.000000 
#    y 0.000000 2.299880 0.000000 
#    z 0.000000 0.000000 2.290630 
# 
# From -- ./inp_files/7950.got.cif
#   From: 2010.05.17/outbox.cif.g08.bks.cpg/sg54_4_cif.got.tgz:7950.got - 2010.06.03 13:09:01.
