data_PCOD9423061
_publ_section_title
;
Structure prediction by ZEFSAII (Michael W. Deem and Ramdas Pophale) SiO2 
 PCOD9423061
Probable space group: P C C A
;
_chemical_formula_sum "Si O2"
_cell_formula_units_Z 32
_cell_length_a 13.341629
_cell_length_b 5.048869
_cell_length_c 19.057427
_cell_angle_alpha 90.000000
_cell_angle_beta 90.000000
_cell_angle_gamma 90.000000
_cell_volume 1283.710895
_symmetry_space_group_name_H-M "P C C A"
_symmetry_group_IT_number 54
_symmetry_cell_setting 'orthorhombic'
loop_
_space_group_symop_operation_xyz
x,y,z
1/2-x,-y,z
1/2+x,-y,1/2-z
-x,y,1/2-z
-x,-y,-z
1/2+x,y,-z
1/2-x,y,1/2+z
x,-y,1/2+z
loop_
_atom_site_type_symbol
_atom_site_label
_atom_site_fract_x
_atom_site_fract_y
_atom_site_fract_z
Si Si1 0.148047 0.659911 0.143700
Si Si2 0.927185 0.455647 0.140239
Si Si3 0.678708 0.243950 0.509291
Si Si4 0.612466 0.961684 0.721113
O O1 0.250000 0.500000 0.137910
O O2 0.163533 0.844369 0.210635
O O3 0.046803 0.484783 0.153266
O O4 0.135464 0.806477 0.068766
O O5 0.906120 0.330125 0.064471
O O6 0.884891 0.746659 0.158240
O O7 0.869754 0.252791 0.191967
O O8 0.750000 0.500000 0.507385
O O9 0.750000 0.000000 0.529477
O O10 0.500000 0.970809 0.750000
#
# Coordination Sequence:
#
# PCOD9423061 Si02
#       4
#     8   8   8   8
#     4  10  24  45  71 102 138 182 233 290 350 416
#     4  11  23  44  69  97 135 178 226 281 342 411
#     4  11  25  44  67 101 139 182 232 284 345 413
#     4  10  22  41  65  94 128 170 223 279 338 404
#
# _framework density 24.927731999999999
#
# number of rings (size 3 to 8) (size 9 to 14) (size 15 to 20)
#    0.000    1.500    0.000    4.500    0.000   15.000 
#    0.000   17.500    0.000    0.000    0.000    0.000 
#    0.000    0.000    0.000    0.000    0.000    0.000 
#
# Total GULP energy -178998.100729 kJ/mol
# GULP energy per Si atom -5593.690648 kJ/mol
# Density = 2.487099 g / cm^3
# Si number density = 24.927732 Si / 1000 Ang^3
#
#
#
# Elastic Constant Matrix: (Units=GPa)
#
#
# Indices 1 2 3 4 5 6 
#
# 1 106.3850 42.0049 42.8450 0.0000 0.0000 0.0000
# 2 42.0049 130.4484 8.5431 0.0000 0.0000 0.0000
# 3 42.8450 8.5431 111.6791 0.0000 0.0000 0.0000
# 4 0.0000 0.0000 0.0000 35.1735 0.0000 0.0000
# 5 0.0000 0.0000 0.0000 0.0000 29.4275 0.0000
# 6 0.0000 0.0000 0.0000 0.0000 0.0000 26.7061
#
#
#
# Elastic Compliance Matrix: (Units=1/GPa)
#
#
# Indices 1 2 3 4 5 6 
#
# 1 0.012756 -0.003806 -0.004603 0.000000 0.000000 0.000000
# 2 -0.003806 0.008840 0.000784 0.000000 0.000000 0.000000
# 3 -0.004603 0.000784 0.010660 0.000000 0.000000 0.000000
# 4 0.000000 0.000000 0.000000 0.028430 0.000000 0.000000
# 5 0.000000 0.000000 0.000000 0.000000 0.033982 0.000000
# 6 0.000000 0.000000 0.000000 0.000000 0.000000 0.037445
#
#
# Mechanical properties :
#
#
# Convention : Reuss Voigt Hill
#
# Bulk Modulus (GPa) = 58.80043 59.47762 59.13903
# Shear Modulus (GPa) = 32.67286 35.26938 33.97112
#
# Velocity S-wave (km/s) = 3.62429 3.76555 3.69560
# Velocity P-wave (km/s) = 6.41510 6.54352 6.47963
#
# Compressibility (1/GPa) = 0.01700668
#
# Stress axis : x y z
#
# Youngs Moduli (GPa) = 78.39247 113.12057 93.80801
#
# Poissons Ratio (x) = 0.43055 0.43177
# Poissons Ratio (y) = 0.29837 -0.07354
# Poissons Ratio (z) = 0.36082 -0.08868
#
# Static dielectric constant tensor:
#      x y z
#    x 1.556600 0.000000 0.000000 
#    y 0.000000 1.948060 0.000000 
#    z 0.000000 0.000000 2.077490 
# 
# From -- ./inp_files/21292.got.cif
#   From: 2010.05.17/outbox.cif.g08.bks.cpg/sg54_11_cif.got.tgz:21292.got - 2010.06.03 13:09:01.
