data_PCOD9423454
_publ_section_title
;
Structure prediction by ZEFSAII (Michael W. Deem and Ramdas Pophale) SiO2 
 PCOD9423454
Probable space group: P C C A
;
_chemical_formula_sum "Si O2"
_cell_formula_units_Z 32
_cell_length_a 9.936446
_cell_length_b 11.354170
_cell_length_c 12.428013
_cell_angle_alpha 90.000000
_cell_angle_beta 90.000000
_cell_angle_gamma 90.000000
_cell_volume 1402.129633
_symmetry_space_group_name_H-M "P C C A"
_symmetry_group_IT_number 54
_symmetry_cell_setting 'orthorhombic'
loop_
_space_group_symop_operation_xyz
x,y,z
1/2-x,-y,z
1/2+x,-y,1/2-z
-x,y,1/2-z
-x,-y,-z
1/2+x,y,-z
1/2-x,y,1/2+z
x,-y,1/2+z
loop_
_atom_site_type_symbol
_atom_site_label
_atom_site_fract_x
_atom_site_fract_y
_atom_site_fract_z
Si Si1 0.821789 0.205178 0.939700
Si Si2 0.368646 0.593076 0.404911
Si Si3 0.500000 0.909419 0.750000
Si Si4 0.750000 0.000000 0.108654
Si Si5 0.847480 0.389899 0.333812
O O1 0.915534 0.161414 0.841800
O O2 0.688676 0.272382 0.897727
O O3 0.889212 0.311548 0.004158
O O4 0.783272 0.106393 0.026330
O O5 0.250000 0.500000 0.426942
O O6 0.515998 0.548893 0.374887
O O7 0.335873 0.651946 0.289863
O O8 0.381843 0.977385 0.816472
O O9 0.750000 0.500000 0.339504
#
# Coordination Sequence:
#
# PCOD9423454 Si02
#       5
#     8   8   4   4   8
#     4  12  25  44  72 103 139 185 237 294 358 426
#     4  10  23  43  69 101 139 182 227 282 349 422
#     4  12  28  48  74 106 144 188 246 306 364 440
#     4  12  28  50  74 104 142 188 242 304 372 434
#     4  10  23  42  67 101 140 180 228 283 345 421
#
# _framework density 22.822424999999999
#
# number of rings (size 3 to 8) (size 9 to 14) (size 15 to 20)
#    0.000    1.000    0.000    5.250    0.000   14.000 
#    0.000    0.000    0.000    1.500    0.000    0.000 
#    0.000    0.000    0.000    0.000    0.000    0.000 
#
# Total GULP energy -178521.713212 kJ/mol
# GULP energy per Si atom -5578.803538 kJ/mol
# Density = 2.277048 g / cm^3
# Si number density = 22.822425 Si / 1000 Ang^3
#
#
#
# Elastic Constant Matrix: (Units=GPa)
#
#
# Indices 1 2 3 4 5 6 
#
# 1 138.9841 53.8215 60.1906 0.0000 0.0000 0.0000
# 2 53.8215 108.2015 74.4878 0.0000 0.0000 0.0000
# 3 60.1906 74.4878 166.9803 0.0000 0.0000 0.0000
# 4 0.0000 0.0000 0.0000 28.2862 0.0000 0.0000
# 5 0.0000 0.0000 0.0000 0.0000 97.3532 0.0000
# 6 0.0000 0.0000 0.0000 0.0000 0.0000 35.7823
#
#
#
# Elastic Compliance Matrix: (Units=1/GPa)
#
#
# Indices 1 2 3 4 5 6 
#
# 1 0.009295 -0.003344 -0.001859 0.000000 0.000000 0.000000
# 2 -0.003344 0.014541 -0.005281 0.000000 0.000000 0.000000
# 3 -0.001859 -0.005281 0.009015 0.000000 0.000000 0.000000
# 4 0.000000 0.000000 0.000000 0.035353 0.000000 0.000000
# 5 0.000000 0.000000 0.000000 0.000000 0.010272 0.000000
# 6 0.000000 0.000000 0.000000 0.000000 0.000000 0.027947
#
#
# Mechanical properties :
#
#
# Convention : Reuss Voigt Hill
#
# Bulk Modulus (GPa) = 84.15521 87.90731 86.03126
# Shear Modulus (GPa) = 38.06593 47.32874 42.69734
#
# Velocity S-wave (km/s) = 4.08845 4.55882 4.33002
# Velocity P-wave (km/s) = 7.69683 8.14322 7.92317
#
# Compressibility (1/GPa) = 0.01188281
#
# Stress axis : x y z
#
# Youngs Moduli (GPa) = 107.58477 68.77117 110.93016
#
# Poissons Ratio (x) = 0.22996 0.20621
# Poissons Ratio (y) = 0.35974 0.58585
# Poissons Ratio (z) = 0.19999 0.36320
#
# Static dielectric constant tensor:
#      x y z
#    x 1.880640 0.000000 0.000000 
#    y 0.000000 1.868110 0.000000 
#    z 0.000000 0.000000 1.969260 
# 
# From -- ./inp_files/11362.got.cif
#   From: 2010.05.17/outbox.cif.g08.bks.cpg/sg54_6_cif.got.tgz:11362.got - 2010.06.03 13:09:01.
