data_PCOD9423040
_publ_section_title
;
Structure prediction by ZEFSAII (Michael W. Deem and Ramdas Pophale) SiO2 
 PCOD9423040
Probable space group: P C C A
;
_chemical_formula_sum "Si O2"
_cell_formula_units_Z 36
_cell_length_a 8.635741
_cell_length_b 13.167069
_cell_length_c 14.167979
_cell_angle_alpha 90.000000
_cell_angle_beta 90.000000
_cell_angle_gamma 90.000000
_cell_volume 1611.004022
_symmetry_space_group_name_H-M "P C C A"
_symmetry_group_IT_number 54
_symmetry_cell_setting 'orthorhombic'
loop_
_space_group_symop_operation_xyz
x,y,z
1/2-x,-y,z
1/2+x,-y,1/2-z
-x,y,1/2-z
-x,-y,-z
1/2+x,y,-z
1/2-x,y,1/2+z
x,-y,1/2+z
loop_
_atom_site_type_symbol
_atom_site_label
_atom_site_fract_x
_atom_site_fract_y
_atom_site_fract_z
Si Si1 0.750000 0.000000 0.042125
Si Si2 0.511212 0.857449 0.430988
Si Si3 0.847794 0.301115 0.296790
Si Si4 0.392052 0.339464 0.042117
Si Si5 0.294590 0.604031 0.862276
O O1 0.633291 0.927216 0.097134
O O2 0.859063 0.927314 0.979231
O O3 0.584106 0.800511 0.342346
O O4 0.449815 0.772454 0.506546
O O5 0.751256 0.343270 0.385330
O O6 0.729277 0.302975 0.209609
O O7 0.000000 0.353044 0.250000
O O8 0.536921 0.391321 0.092455
O O9 0.329002 0.388532 0.946635
O O10 0.250000 0.500000 0.809784
#
# Coordination Sequence:
#
# PCOD9423040 Si02
#       5
#     4   8   8   8   8
#     4  10  22  40  80 100 128 184 250 286 356 454
#     4  11  21  44  73 100 139 186 226 300 367 421
#     4  12  25  44  71 102 149 186 235 301 367 428
#     4  12  23  48  73  99 149 195 233 299 372 421
#     4  12  26  44  72 107 142 194 249 297 347 439
#
# _framework density 22.346312000000001
#
# number of rings (size 3 to 8) (size 9 to 14) (size 15 to 20)
#    0.000    0.444    6.667    1.333    0.000    2.667 
#    0.000    1.111    0.000    0.000    0.000    0.000 
#    0.000    0.000    0.000    0.000    0.000    0.000 
#
# Total GULP energy -201021.167146 kJ/mol
# GULP energy per Si atom -5583.921310 kJ/mol
# Density = 2.229545 g / cm^3
# Si number density = 22.346312 Si / 1000 Ang^3
#
#
#
# Elastic Constant Matrix: (Units=GPa)
#
#
# Indices 1 2 3 4 5 6 
#
# 1 105.6100 55.0558 29.9955 0.0000 0.0000 0.0000
# 2 55.0558 92.7113 28.6802 0.0000 0.0000 0.0000
# 3 29.9955 28.6802 114.0321 0.0000 0.0000 0.0000
# 4 0.0000 0.0000 0.0000 10.6193 0.0000 0.0000
# 5 0.0000 0.0000 0.0000 0.0000 42.8468 0.0000
# 6 0.0000 0.0000 0.0000 0.0000 0.0000 38.0424
#
#
#
# Elastic Compliance Matrix: (Units=1/GPa)
#
#
# Indices 1 2 3 4 5 6 
#
# 1 0.014022 -0.007792 -0.001729 0.000000 0.000000 0.000000
# 2 -0.007792 0.016026 -0.001981 0.000000 0.000000 0.000000
# 3 -0.001729 -0.001981 0.009722 0.000000 0.000000 0.000000
# 4 0.000000 0.000000 0.000000 0.094169 0.000000 0.000000
# 5 0.000000 0.000000 0.000000 0.000000 0.023339 0.000000
# 6 0.000000 0.000000 0.000000 0.000000 0.000000 0.026286
#
#
# Mechanical properties :
#
#
# Convention : Reuss Voigt Hill
#
# Bulk Modulus (GPa) = 59.64070 59.97959 59.81015
# Shear Modulus (GPa) = 23.56746 31.54314 27.55530
#
# Velocity S-wave (km/s) = 3.25106 3.76115 3.51537
# Velocity P-wave (km/s) = 6.39059 6.76468 6.58029
#
# Compressibility (1/GPa) = 0.01676707
#
# Stress axis : x y z
#
# Youngs Moduli (GPa) = 71.31739 62.39767 102.85499
#
# Poissons Ratio (x) = 0.48620 0.17779
# Poissons Ratio (y) = 0.55571 0.20377
# Poissons Ratio (z) = 0.12328 0.12362
#
# Static dielectric constant tensor:
#      x y z
#    x 1.854260 0.000000 0.000000 
#    y 0.000000 1.874060 0.000000 
#    z 0.000000 0.000000 1.804730 
# 
# From -- ./inp_files/11402.got.cif
#   From: 2010.05.17/outbox.cif.g08.bks.cpg/sg54_6_cif.got.tgz:11402.got - 2010.06.03 13:09:01.
