data_PCOD9423776
_publ_section_title
;
Structure prediction by ZEFSAII (Michael W. Deem and Ramdas Pophale) SiO2 
 PCOD9423776
Probable space group: P C C A
;
_chemical_formula_sum "Si O2"
_cell_formula_units_Z 40
_cell_length_a 19.935655
_cell_length_b 8.381569
_cell_length_c 10.669194
_cell_angle_alpha 90.000000
_cell_angle_beta 90.000000
_cell_angle_gamma 90.000000
_cell_volume 1782.737689
_symmetry_space_group_name_H-M "P C C A"
_symmetry_group_IT_number 54
_symmetry_cell_setting 'orthorhombic'
loop_
_space_group_symop_operation_xyz
x,y,z
1/2-x,-y,z
1/2+x,-y,1/2-z
-x,y,1/2-z
-x,-y,-z
1/2+x,y,-z
1/2-x,y,1/2+z
x,-y,1/2+z
loop_
_atom_site_type_symbol
_atom_site_label
_atom_site_fract_x
_atom_site_fract_y
_atom_site_fract_z
Si Si1 0.819166 0.905887 0.474517
Si Si2 0.679926 0.580787 0.831427
Si Si3 0.575506 0.772604 0.145324
Si Si4 0.101499 0.559765 0.430134
Si Si5 0.439854 0.146137 0.574593
O O1 0.810196 0.762574 0.376654
O O2 0.851281 0.824988 0.598495
O O3 0.750000 0.000000 0.494142
O O4 0.879907 0.019603 0.430817
O O5 0.750000 0.500000 0.802438
O O6 0.637757 0.576309 0.703737
O O7 0.648362 0.487221 0.951116
O O8 0.557761 0.600259 0.087670
O O9 0.573387 0.764469 0.293255
O O10 0.518600 0.895250 0.095680
O O11 0.068074 0.727531 0.463037
#
# Coordination Sequence:
#
# PCOD9423776 Si02
#       5
#     8   8   8   8   8
#     4  11  26  44  70 103 141 190 232 293 358 431
#     4  11  24  44  68 103 140 186 235 287 355 424
#     4  10  24  45  71 100 145 182 242 286 363 420
#     4  11  22  44  71 102 133 183 240 290 348 425
#     4  11  23  45  70 106 141 184 232 302 352 426
#
# _framework density 22.437401000000001
#
# number of rings (size 3 to 8) (size 9 to 14) (size 15 to 20)
#    0.000    1.200    2.000    3.000    2.800    2.400 
#    0.000    0.000    0.000    0.000    0.000    0.000 
#    0.000    0.000    0.000    0.000    0.000    0.000 
#
# Total GULP energy -223399.250117 kJ/mol
# GULP energy per Si atom -5584.981253 kJ/mol
# Density = 2.238633 g / cm^3
# Si number density = 22.437401 Si / 1000 Ang^3
#
#
#
# Elastic Constant Matrix: (Units=GPa)
#
#
# Indices 1 2 3 4 5 6 
#
# 1 125.2615 46.0462 35.2571 0.0000 0.0000 0.0000
# 2 46.0462 81.0050 -5.8261 0.0000 0.0000 0.0000
# 3 35.2571 -5.8261 102.4694 0.0000 0.0000 0.0000
# 4 0.0000 0.0000 0.0000 19.5869 0.0000 0.0000
# 5 0.0000 0.0000 0.0000 0.0000 17.5361 0.0000
# 6 0.0000 0.0000 0.0000 0.0000 0.0000 23.6536
#
#
#
# Elastic Compliance Matrix: (Units=1/GPa)
#
#
# Indices 1 2 3 4 5 6 
#
# 1 0.011833 -0.007048 -0.004472 0.000000 0.000000 0.000000
# 2 -0.007048 0.016593 0.003368 0.000000 0.000000 0.000000
# 3 -0.004472 0.003368 0.011489 0.000000 0.000000 0.000000
# 4 0.000000 0.000000 0.000000 0.051055 0.000000 0.000000
# 5 0.000000 0.000000 0.000000 0.000000 0.057025 0.000000
# 6 0.000000 0.000000 0.000000 0.000000 0.000000 0.042277
#
#
# Mechanical properties :
#
#
# Convention : Reuss Voigt Hill
#
# Bulk Modulus (GPa) = 42.35043 51.07671 46.71357
# Shear Modulus (GPa) = 23.31586 27.70588 25.51087
#
# Velocity S-wave (km/s) = 3.22708 3.51780 3.37557
# Velocity P-wave (km/s) = 5.72725 6.27004 6.00478
#
# Compressibility (1/GPa) = 0.02361251
#
# Stress axis : x y z
#
# Youngs Moduli (GPa) = 84.51050 60.26471 87.03778
#
# Poissons Ratio (x) = 0.42474 0.38924
# Poissons Ratio (y) = 0.59562 -0.29318
# Poissons Ratio (z) = 0.37794 -0.20300
#
# Static dielectric constant tensor:
#      x y z
#    x 1.849420 0.000000 0.000000 
#    y 0.000000 1.922070 0.000000 
#    z 0.000000 0.000000 1.797530 
# 
# From -- ./inp_files/8739.got.cif
#   From: 2010.05.17/outbox.cif.g08.bks.cpg/sg54_5_cif.got.tgz:8739.got - 2010.06.03 13:09:01.
