data_PCOD9423077
_publ_section_title
;
Structure prediction by ZEFSAII (Michael W. Deem and Ramdas Pophale) SiO2 
 PCOD9423077
Probable space group: P C C A
;
_chemical_formula_sum "Si O2"
_cell_formula_units_Z 40
_cell_length_a 13.762468
_cell_length_b 6.908702
_cell_length_c 22.020869
_cell_angle_alpha 90.000000
_cell_angle_beta 90.000000
_cell_angle_gamma 90.000000
_cell_volume 2093.761625
_symmetry_space_group_name_H-M "P C C A"
_symmetry_group_IT_number 54
_symmetry_cell_setting 'orthorhombic'
loop_
_space_group_symop_operation_xyz
x,y,z
1/2-x,-y,z
1/2+x,-y,1/2-z
-x,y,1/2-z
-x,-y,-z
1/2+x,y,-z
1/2-x,y,1/2+z
x,-y,1/2+z
loop_
_atom_site_type_symbol
_atom_site_label
_atom_site_fract_x
_atom_site_fract_y
_atom_site_fract_z
Si Si1 0.361173 0.515921 0.546558
Si Si2 0.500000 0.947368 0.750000
Si Si3 0.483621 0.804553 0.463201
Si Si4 0.080679 0.594439 0.181682
Si Si5 0.587338 0.739406 0.169960
Si Si6 0.750000 0.500000 0.221847
O O1 0.250000 0.500000 0.529421
O O2 0.416000 0.662492 0.502369
O O3 0.414925 0.309631 0.543868
O O4 0.372316 0.589363 0.615523
O O5 0.536372 0.802655 0.802166
O O6 0.423478 0.092799 0.780085
O O7 0.436529 0.822545 0.396516
O O8 0.500000 0.000000 0.500000
O O9 0.163167 0.562986 0.232760
O O10 0.995445 0.429492 0.180947
O O11 0.694203 0.651019 0.178669
#
# Coordination Sequence:
#
# PCOD9423077 Si02
#       6
#     8   4   8   8   8   4
#     4  10  22  41  68  90 119 173 210 259 321 379
#     4  12  20  40  60  92 128 166 210 260 324 376
#     4  10  23  44  63  93 131 165 217 269 316 379
#     4  11  22  41  63  90 132 161 214 266 318 387
#     4  11  24  41  63  94 134 170 210 271 326 388
#     4  12  20  42  60  96 130 166 208 268 334 386
#
# _framework density 19.104372000000001
#
# number of rings (size 3 to 8) (size 9 to 14) (size 15 to 20)
#    0.000    1.200    5.000    1.200    1.400    1.600 
#    0.000    4.000    0.000    0.000    0.000    0.000 
#    0.000    0.000    0.000    0.000    0.000    0.000 
#
# Total GULP energy -223207.366124 kJ/mol
# GULP energy per Si atom -5580.184153 kJ/mol
# Density = 1.906089 g / cm^3
# Si number density = 19.104372 Si / 1000 Ang^3
#
#
#
# Elastic Constant Matrix: (Units=GPa)
#
#
# Indices 1 2 3 4 5 6 
#
# 1 96.9804 31.8680 27.1447 0.0000 0.0000 0.0000
# 2 31.8680 111.0969 37.7947 0.0000 0.0000 0.0000
# 3 27.1447 37.7947 99.7253 0.0000 0.0000 0.0000
# 4 0.0000 0.0000 0.0000 37.8528 0.0000 0.0000
# 5 0.0000 0.0000 0.0000 0.0000 23.8445 0.0000
# 6 0.0000 0.0000 0.0000 0.0000 0.0000 17.8404
#
#
#
# Elastic Compliance Matrix: (Units=1/GPa)
#
#
# Indices 1 2 3 4 5 6 
#
# 1 0.011795 -0.002630 -0.002214 0.000000 0.000000 0.000000
# 2 -0.002630 0.010920 -0.003423 0.000000 0.000000 0.000000
# 3 -0.002214 -0.003423 0.011927 0.000000 0.000000 0.000000
# 4 0.000000 0.000000 0.000000 0.026418 0.000000 0.000000
# 5 0.000000 0.000000 0.000000 0.000000 0.041938 0.000000
# 6 0.000000 0.000000 0.000000 0.000000 0.000000 0.056053
#
#
# Mechanical properties :
#
#
# Convention : Reuss Voigt Hill
#
# Bulk Modulus (GPa) = 55.22059 55.71304 55.46681
# Shear Modulus (GPa) = 27.52977 29.97388 28.75183
#
# Velocity S-wave (km/s) = 3.80019 3.96530 3.88362
# Velocity P-wave (km/s) = 6.94426 7.08453 7.01475
#
# Compressibility (1/GPa) = 0.01810919
#
# Stress axis : x y z
#
# Youngs Moduli (GPa) = 84.77928 91.57492 83.84174
#
# Poissons Ratio (x) = 0.24088 0.18560
# Poissons Ratio (y) = 0.22300 0.28696
# Poissons Ratio (z) = 0.18768 0.31342
#
# Static dielectric constant tensor:
#      x y z
#    x 1.658390 0.000000 0.000000 
#    y 0.000000 1.660280 0.000000 
#    z 0.000000 0.000000 1.676410 
# 
# From -- ./inp_files/24355.got.cif
#   From: 2010.05.17/outbox.cif.g08.bks.cpg/sg54_13_cif.got.tgz:24355.got - 2010.06.03 13:09:01.
