data_PCOD9423828
_publ_section_title
;
Structure prediction by ZEFSAII (Michael W. Deem and Ramdas Pophale) SiO2 
 PCOD9423828
Probable space group: P C C A
;
_chemical_formula_sum "Si O2"
_cell_formula_units_Z 32
_cell_length_a 13.432766
_cell_length_b 9.430413
_cell_length_c 11.111889
_cell_angle_alpha 90.000000
_cell_angle_beta 90.000000
_cell_angle_gamma 90.000000
_cell_volume 1407.615553
_symmetry_space_group_name_H-M "P C C A"
_symmetry_group_IT_number 54
_symmetry_cell_setting 'orthorhombic'
loop_
_space_group_symop_operation_xyz
x,y,z
1/2-x,-y,z
1/2+x,-y,1/2-z
-x,y,1/2-z
-x,-y,-z
1/2+x,y,-z
1/2-x,y,1/2+z
x,-y,1/2+z
loop_
_atom_site_type_symbol
_atom_site_label
_atom_site_fract_x
_atom_site_fract_y
_atom_site_fract_z
Si Si1 0.000000 0.814548 0.750000
Si Si2 0.639631 0.053659 0.333541
Si Si3 0.750000 0.500000 0.560418
Si Si4 0.418256 0.685412 0.836194
Si Si5 0.089582 0.281354 0.481161
O O1 0.928901 0.728835 0.660707
O O2 0.933261 0.920204 0.829983
O O3 0.607688 0.166758 0.230333
O O4 0.630944 0.137747 0.459086
O O5 0.750000 0.000000 0.312108
O O6 0.817770 0.396656 0.639803
O O7 0.830205 0.596422 0.489892
O O8 0.500000 0.611916 0.750000
O O9 0.481709 0.698447 0.958063
#
# Coordination Sequence:
#
# PCOD9423828 Si02
#       5
#     4   8   4   8   8
#     4  12  24  46  72 102 140 184 226 300 346 418
#     4  11  24  44  74 102 140 178 233 292 354 424
#     4  12  26  44  72 100 140 192 240 278 362 426
#     4  10  24  48  68 103 141 182 233 299 347 423
#     4  11  26  45  69 104 141 186 234 292 356 417
#
# _framework density 22.733478999999999
#
# number of rings (size 3 to 8) (size 9 to 14) (size 15 to 20)
#    0.000    1.000    3.750    3.000    5.250    5.000 
#    0.000    0.000    0.000    0.000    0.000    0.000 
#    0.000    0.000    0.000    0.000    0.000    0.000 
#
# Total GULP energy -178924.678443 kJ/mol
# GULP energy per Si atom -5591.396201 kJ/mol
# Density = 2.268174 g / cm^3
# Si number density = 22.733479 Si / 1000 Ang^3
#
#
#
# Elastic Constant Matrix: (Units=GPa)
#
#
# Indices 1 2 3 4 5 6 
#
# 1 155.7545 49.4846 20.8503 0.0000 0.0000 0.0000
# 2 49.4846 52.0850 31.5149 0.0000 0.0000 0.0000
# 3 20.8503 31.5149 81.2907 0.0000 0.0000 0.0000
# 4 0.0000 0.0000 0.0000 60.4070 0.0000 0.0000
# 5 0.0000 0.0000 0.0000 0.0000 23.5737 0.0000
# 6 0.0000 0.0000 0.0000 0.0000 0.0000 27.7405
#
#
#
# Elastic Compliance Matrix: (Units=1/GPa)
#
#
# Indices 1 2 3 4 5 6 
#
# 1 0.009310 -0.009668 0.001360 0.000000 0.000000 0.000000
# 2 -0.009668 0.035124 -0.011137 0.000000 0.000000 0.000000
# 3 0.001360 -0.011137 0.016270 0.000000 0.000000 0.000000
# 4 0.000000 0.000000 0.000000 0.016554 0.000000 0.000000
# 5 0.000000 0.000000 0.000000 0.000000 0.042420 0.000000
# 6 0.000000 0.000000 0.000000 0.000000 0.000000 0.036048
#
#
# Mechanical properties :
#
#
# Convention : Reuss Voigt Hill
#
# Bulk Modulus (GPa) = 45.84225 54.75888 50.30057
# Shear Modulus (GPa) = 24.76623 34.82959 29.79791
#
# Velocity S-wave (km/s) = 3.30421 3.91843 3.62436
# Velocity P-wave (km/s) = 5.89627 6.67920 6.29991
#
# Compressibility (1/GPa) = 0.02181394
#
# Stress axis : x y z
#
# Youngs Moduli (GPa) = 107.41204 28.47092 61.46193
#
# Poissons Ratio (x) = 0.27526 -0.08361
# Poissons Ratio (y) = 1.03848 0.68450
# Poissons Ratio (z) = -0.14611 0.31708
#
# Static dielectric constant tensor:
#      x y z
#    x 1.817450 0.000000 0.000000 
#    y 0.000000 1.867140 0.000000 
#    z 0.000000 0.000000 1.874670 
# 
# From -- ./inp_files/7987.got.cif
#   From: 2010.05.17/outbox.cif.g08.bks.cpg/sg54_4_cif.got.tgz:7987.got - 2010.06.03 13:09:01.
