data_PCOD9423215
_publ_section_title
;
Structure prediction by ZEFSAII (Michael W. Deem and Ramdas Pophale) SiO2 
 PCOD9423215
Probable space group: P C C A
;
_chemical_formula_sum "Si O2"
_cell_formula_units_Z 28
_cell_length_a 10.827036
_cell_length_b 8.637709
_cell_length_c 14.464777
_cell_angle_alpha 90.000000
_cell_angle_beta 90.000000
_cell_angle_gamma 90.000000
_cell_volume 1352.757319
_symmetry_space_group_name_H-M "P C C A"
_symmetry_group_IT_number 54
_symmetry_cell_setting 'orthorhombic'
loop_
_space_group_symop_operation_xyz
x,y,z
1/2-x,-y,z
1/2+x,-y,1/2-z
-x,y,1/2-z
-x,-y,-z
1/2+x,y,-z
1/2-x,y,1/2+z
x,-y,1/2+z
loop_
_atom_site_type_symbol
_atom_site_label
_atom_site_fract_x
_atom_site_fract_y
_atom_site_fract_z
Si Si1 0.750000 0.500000 0.308497
Si Si2 0.391204 0.500001 0.871099
Si Si3 0.250000 0.165517 0.589808
Si Si4 0.000000 0.752352 0.000000
O O1 0.634498 0.500000 0.237599
O O2 0.750000 0.664395 0.361268
O O3 0.250000 0.500000 0.911325
O O4 0.461102 0.354264 0.913185
O O5 0.461101 0.645741 0.913184
O O6 0.375022 0.164425 0.529849
O O7 0.124980 0.164426 0.529848
O O8 0.250000 0.000000 0.644539
#
# Coordination Sequence:
#
# PCOD9423215 Si02
#       4
#     4   8   8   8
#     4  10  22  44  62  98 132 164 206 258 332 370
#     4   9  19  39  68  93 121 167 205 261 313 373
#     4  12  25  41  65  95 129 168 214 262 312 374
#     4  11  21  42  66  93 123 170 219 257 308 373
#
# _framework density 20.698466
#
# number of rings (size 3 to 8) (size 9 to 14) (size 15 to 20)
#    0.857    0.571    2.857    4.286    0.000    4.571 
#    0.000   11.429    0.000    0.000    0.000    0.000 
#    0.000    0.000    0.000    0.000    0.000    0.000 
#
# Total GULP energy -155924.217874 kJ/mol
# GULP energy per Si atom -5568.722067 kJ/mol
# Density = 2.065136 g / cm^3
# Si number density = 20.698466 Si / 1000 Ang^3
#
#
#
# Elastic Constant Matrix: (Units=GPa)
#
#
# Indices 1 2 3 4 5 6 
#
# 1 198.1203 50.6512 34.1565 0.0000 0.0000 0.0000
# 2 50.6512 187.9769 69.1312 0.0000 0.0000 0.0000
# 3 34.1565 69.1312 87.7952 0.0000 0.0000 0.0000
# 4 0.0000 0.0000 0.0000 -0.9549 0.0000 0.0000
# 5 0.0000 0.0000 0.0000 0.0000 46.9490 0.0000
# 6 0.0000 0.0000 0.0000 0.0000 0.0000**********
#
#
#
# Elastic Compliance Matrix: (Units=1/GPa)
#
#
# Indices 1 2 3 4 5 6 
#
# 1 0.005537 -0.000985 -0.001379 0.000000 0.000000 0.000000
# 2 -0.000985 0.007663 -0.005651 0.000000 0.000000 0.000000
# 3 -0.001379 -0.005651 0.016376 0.000000 0.000000 0.000000
# 4 0.000000 0.000000 0.000000 -1.047275 0.000000 0.000000
# 5 0.000000 0.000000 0.000000 0.000000 0.021300 0.000000
# 6 0.000000 0.000000 0.000000 0.000000 0.000000 0.000004
#
#
# Mechanical properties :
#
#
# Convention : Reuss Voigt Hill
#
# Bulk Modulus (GPa) = 73.81519 86.86335 80.33927
# Shear Modulus (GPa) = -5.12374 56992.93667 28493.90646
#
# Velocity S-wave (km/s) = -1.57505 166.11633 117.45671
# Velocity P-wave (km/s) = 5.69490 191.92422 135.77065
#
# Compressibility (1/GPa) = 0.01354735
#
# Stress axis : x y z
#
# Youngs Moduli (GPa) = 180.60582 130.48882 61.06407
#
# Poissons Ratio (x) = 0.12853 0.08418
# Poissons Ratio (y) = 0.17789 0.34508
# Poissons Ratio (z) = 0.24897 0.73741
#
# Static dielectric constant tensor:
#      x y z
#    x 1.794480 0.000000 0.000000 
#    y 0.000000 1.780480 0.000000 
#    z 0.000000 0.000000 1.721450 
# 
# From -- ./inp_files/12098.got.cif
#   From: 2010.05.17/outbox.cif.g08.bks.cpg/sg54_7_cif.got.tgz:12098.got - 2010.06.03 13:09:01.
