data_PCOD9423685
_publ_section_title
;
Structure prediction by ZEFSAII (Michael W. Deem and Ramdas Pophale) SiO2 
 PCOD9423685
Probable space group: P C C A
;
_chemical_formula_sum "Si O2"
_cell_formula_units_Z 56
_cell_length_a 12.185225
_cell_length_b 10.634239
_cell_length_c 21.203355
_cell_angle_alpha 90.000000
_cell_angle_beta 90.000000
_cell_angle_gamma 90.000000
_cell_volume 2747.543355
_symmetry_space_group_name_H-M "P C C A"
_symmetry_group_IT_number 54
_symmetry_cell_setting 'orthorhombic'
loop_
_space_group_symop_operation_xyz
x,y,z
1/2-x,-y,z
1/2+x,-y,1/2-z
-x,y,1/2-z
-x,-y,-z
1/2+x,y,-z
1/2-x,y,1/2+z
x,-y,1/2+z
loop_
_atom_site_type_symbol
_atom_site_label
_atom_site_fract_x
_atom_site_fract_y
_atom_site_fract_z
Si Si1 0.418368 0.305761 0.190613
Si Si2 0.000000 0.037686 0.250000
Si Si3 0.542596 0.587567 0.322946
Si Si4 0.804886 0.364343 0.135897
Si Si5 0.526667 0.092660 0.383769
Si Si6 0.750000 0.000000 0.942013
Si Si7 0.201027 0.873948 0.436324
Si Si8 0.806020 0.232538 0.269595
O O1 0.500000 0.305809 0.250000
O O2 0.401484 0.451483 0.174556
O O3 0.464637 0.241091 0.129024
O O4 0.317124 0.214670 0.207892
O O5 0.110752 0.122091 0.247554
O O6 0.993052 0.962573 0.184617
O O7 0.500000 0.598786 0.250000
O O8 0.437227 0.614338 0.366644
O O9 0.633578 0.694214 0.326188
O O10 0.750000 0.500000 0.125092
O O11 0.749258 0.252143 0.095371
O O12 0.787761 0.320921 0.208442
O O13 0.427355 0.091588 0.432683
O O14 0.638616 0.025290 0.404258
O O15 0.763483 0.884002 0.990863
O O16 0.250000 0.000000 0.403380
#
# Coordination Sequence:
#
# PCOD9423685 Si02
#       8
#     8   4   8   8   8   4   8   8
#     4  11  21  35  58  92 133 170 202 263 330 410
#     4  12  24  36  62  98 134 172 202 286 336 404
#     4   9  18  33  54  86 130 174 205 253 328 403
#     4  11  19  35  63  95 124 166 227 273 322 394
#     4  12  23  43  61  97 130 166 225 275 339 400
#     4  10  26  46  66  86 124 186 220 284 334 402
#     4  10  24  42  69  90 121 175 230 275 324 394
#     4  11  20  35  53  89 137 173 209 250 339 410
#
# _framework density 20.381843
#
# number of rings (size 3 to 8) (size 9 to 14) (size 15 to 20)
#    0.429    0.857    2.857    6.857    0.000    0.000 
#    1.286    0.000    0.000    6.857    0.000    0.000 
#    0.000    0.000    0.000    0.000    0.000    0.000 
#
# Total GULP energy -311864.861097 kJ/mol
# GULP energy per Si atom -5569.015377 kJ/mol
# Density = 2.033545 g / cm^3
# Si number density = 20.381843 Si / 1000 Ang^3
#
#
#
# Elastic Constant Matrix: (Units=GPa)
#
#
# Indices 1 2 3 4 5 6 
#
# 1 98.0222 13.2092 25.1427 0.0000 0.0000 0.0000
# 2 13.2092 89.2002 25.9641 0.0000 0.0000 0.0000
# 3 25.1427 25.9641 50.1297 0.0000 0.0000 0.0000
# 4 0.0000 0.0000 0.0000 8.7081 0.0000 0.0000
# 5 0.0000 0.0000 0.0000 0.0000 19.7817 0.0000
# 6 0.0000 0.0000 0.0000 0.0000 0.0000 8.9310
#
#
#
# Elastic Compliance Matrix: (Units=1/GPa)
#
#
# Indices 1 2 3 4 5 6 
#
# 1 0.011708 -0.000029 -0.005857 0.000000 0.000000 0.000000
# 2 -0.000029 0.013201 -0.006823 0.000000 0.000000 0.000000
# 3 -0.005857 -0.006823 0.026420 0.000000 0.000000 0.000000
# 4 0.000000 0.000000 0.000000 0.114835 0.000000 0.000000
# 5 0.000000 0.000000 0.000000 0.000000 0.050552 0.000000
# 6 0.000000 0.000000 0.000000 0.000000 0.000000 0.111970
#
#
# Mechanical properties :
#
#
# Convention : Reuss Voigt Hill
#
# Bulk Modulus (GPa) = 38.59375 40.66490 39.62932
# Shear Modulus (GPa) = 13.78397 19.01990 16.40194
#
# Velocity S-wave (km/s) = 2.60337 3.05811 2.83986
# Velocity P-wave (km/s) = 5.29275 5.69774 5.49897
#
# Compressibility (1/GPa) = 0.02591093
#
# Stress axis : x y z
#
# Youngs Moduli (GPa) = 85.41137 75.75207 37.85047
#
# Poissons Ratio (x) = 0.00219 0.22170
# Poissons Ratio (y) = 0.00247 0.25825
# Poissons Ratio (z) = 0.50027 0.51684
#
# Static dielectric constant tensor:
#      x y z
#    x 2.013940 0.000000 0.000000 
#    y 0.000000 1.756790 0.000000 
#    z 0.000000 0.000000 1.699390 
# 
# From -- ./inp_files/24222.got.cif
#   From: 2010.05.17/outbox.cif.g08.bks.cpg/sg54_13_cif.got.tgz:24222.got - 2010.06.03 13:09:01.
