data_PCOD9423318
_publ_section_title
;
Structure prediction by ZEFSAII (Michael W. Deem and Ramdas Pophale) SiO2 
 PCOD9423318
Probable space group: P C C A
;
_chemical_formula_sum "Si O2"
_cell_formula_units_Z 48
_cell_length_a 9.342379
_cell_length_b 19.111574
_cell_length_c 11.823878
_cell_angle_alpha 90.000000
_cell_angle_beta 90.000000
_cell_angle_gamma 90.000000
_cell_volume 2111.124656
_symmetry_space_group_name_H-M "P C C A"
_symmetry_group_IT_number 54
_symmetry_cell_setting 'orthorhombic'
loop_
_space_group_symop_operation_xyz
x,y,z
1/2-x,-y,z
1/2+x,-y,1/2-z
-x,y,1/2-z
-x,-y,-z
1/2+x,y,-z
1/2-x,y,1/2+z
x,-y,1/2+z
loop_
_atom_site_type_symbol
_atom_site_label
_atom_site_fract_x
_atom_site_fract_y
_atom_site_fract_z
Si Si1 0.250000 0.500000 0.336744
Si Si2 0.011969 0.587960 0.953457
Si Si3 0.500000 0.900054 0.750000
Si Si4 0.784778 0.387023 0.854129
Si Si5 0.347783 0.937380 0.540556
Si Si6 0.435927 0.726314 0.141129
Si Si7 0.596953 0.849639 0.518850
O O1 0.391368 0.526518 0.402659
O O2 0.210633 0.565657 0.256543
O O3 0.842606 0.579339 0.933119
O O4 0.035866 0.658385 0.879167
O O5 0.069813 0.607570 0.076318
O O6 0.393441 0.944964 0.671519
O O7 0.581548 0.854908 0.654390
O O8 0.720639 0.308750 0.840275
O O9 0.493304 0.914119 0.478808
O O10 0.251911 0.868517 0.526823
O O11 0.250000 0.000000 0.496572
O O12 0.500000 0.764284 0.250000
O O13 0.442481 0.776072 0.033952
#
# Coordination Sequence:
#
# PCOD9423318 Si02
#       7
#     4   8   4   8   8   8   8
#     4  12  20  40  64  88 128 164 226 280 342 424
#     4  10  23  41  63  94 127 171 225 289 347 436
#     4   8  24  42  64 112 142 190 242 300 342 440
#     4  10  23  40  65  92 128 172 224 289 350 427
#     4  10  22  46  70 109 149 190 244 296 357 427
#     4  10  22  47  65 101 137 185 240 283 371 429
#     4  10  23  42  74 102 150 192 235 301 351 435
#
# _framework density 22.736695000000001
#
# number of rings (size 3 to 8) (size 9 to 14) (size 15 to 20)
#    2.000    0.000    1.667    1.500    2.333    6.000 
#    1.500    1.667    0.000    0.000    0.000    0.000 
#    0.000    0.000    0.000    0.000    0.000    0.000 
#
# Total GULP energy -267369.154072 kJ/mol
# GULP energy per Si atom -5570.190710 kJ/mol
# Density = 2.268495 g / cm^3
# Si number density = 22.736695 Si / 1000 Ang^3
#
#
#
# Elastic Constant Matrix: (Units=GPa)
#
#
# Indices 1 2 3 4 5 6 
#
# 1 82.3455 5.4681 1.8222 0.0000 0.0000 0.0000
# 2 5.4681 61.2120 6.3466 0.0000 0.0000 0.0000
# 3 1.8222 6.3466 34.6751 0.0000 0.0000 0.0000
# 4 0.0000 0.0000 0.0000 27.3461 0.0000 0.0000
# 5 0.0000 0.0000 0.0000 0.0000 29.9209 0.0000
# 6 0.0000 0.0000 0.0000 0.0000 0.0000 19.8932
#
#
#
# Elastic Compliance Matrix: (Units=1/GPa)
#
#
# Indices 1 2 3 4 5 6 
#
# 1 0.012223 -0.001045 -0.000451 0.000000 0.000000 0.000000
# 2 -0.001045 0.016742 -0.003009 0.000000 0.000000 0.000000
# 3 -0.000451 -0.003009 0.029414 0.000000 0.000000 0.000000
# 4 0.000000 0.000000 0.000000 0.036568 0.000000 0.000000
# 5 0.000000 0.000000 0.000000 0.000000 0.033421 0.000000
# 6 0.000000 0.000000 0.000000 0.000000 0.000000 0.050268
#
#
# Mechanical properties :
#
#
# Convention : Reuss Voigt Hill
#
# Bulk Modulus (GPa) = 20.25610 22.83404 21.54507
# Shear Modulus (GPa) = 24.49729 26.40510 25.45119
#
# Velocity S-wave (km/s) = 3.28599 3.41155 3.34936
# Velocity P-wave (km/s) = 4.82963 5.05794 4.94510
#
# Compressibility (1/GPa) = 0.04936785
#
# Stress axis : x y z
#
# Youngs Moduli (GPa) = 81.81072 59.72981 33.99786
#
# Poissons Ratio (x) = 0.06243 0.01533
# Poissons Ratio (y) = 0.08550 0.10231
# Poissons Ratio (z) = 0.03690 0.17975
#
# Static dielectric constant tensor:
#      x y z
#    x 1.645250 0.000000 0.000000 
#    y 0.000000 2.098330 0.000000 
#    z 0.000000 0.000000 1.854810 
# 
# From -- ./inp_files/7607.got.cif
#   From: 2010.05.17/outbox.cif.g08.bks.cpg/sg54_4_cif.got.tgz:7607.got - 2010.06.03 13:09:01.
