data_PCOD9423247
_publ_section_title
;
Structure prediction by ZEFSAII (Michael W. Deem and Ramdas Pophale) SiO2 
 PCOD9423247
Probable space group: P C C A
;
_chemical_formula_sum "Si O2"
_cell_formula_units_Z 40
_cell_length_a 9.051238
_cell_length_b 11.194613
_cell_length_c 19.566222
_cell_angle_alpha 90.000000
_cell_angle_beta 90.000000
_cell_angle_gamma 90.000000
_cell_volume 1982.549530
_symmetry_space_group_name_H-M "P C C A"
_symmetry_group_IT_number 54
_symmetry_cell_setting 'orthorhombic'
loop_
_space_group_symop_operation_xyz
x,y,z
1/2-x,-y,z
1/2+x,-y,1/2-z
-x,y,1/2-z
-x,-y,-z
1/2+x,y,-z
1/2-x,y,1/2+z
x,-y,1/2+z
loop_
_atom_site_type_symbol
_atom_site_label
_atom_site_fract_x
_atom_site_fract_y
_atom_site_fract_z
Si Si1 0.750000 0.500000 0.156497
Si Si2 0.626666 0.904513 0.489126
Si Si3 0.193456 0.239672 0.873268
Si Si4 0.000000 0.826385 0.250000
Si Si5 0.500000 0.392921 0.750000
Si Si6 0.532933 0.196638 0.855439
Si Si7 0.750000 0.000000 0.298424
O O1 0.778181 0.619803 0.113626
O O2 0.614551 0.530246 0.206879
O O3 0.661511 0.839234 0.560249
O O4 0.577379 0.803071 0.435064
O O5 0.750000 0.000000 0.465381
O O6 0.500000 0.000000 0.500000
O O7 0.056830 0.237949 0.819216
O O8 0.354868 0.191456 0.847673
O O9 0.145001 0.905613 0.238184
O O10 0.577387 0.305535 0.805893
O O11 0.622998 0.080264 0.833312
#
# Coordination Sequence:
#
# PCOD9423247 Si02
#       7
#     4   8   8   4   4   8   4
#     4  10  22  46  66  94 126 178 226 288 322 380
#     4  12  24  42  67  98 141 176 213 273 341 409
#     4  11  25  43  66  93 135 173 226 273 332 395
#     4  12  24  36  60  98 128 177 217 270 338 394
#     4  10  22  44  68  90 134 167 231 286 326 382
#     4  11  23  41  62  96 130 178 212 272 334 392
#     4  12  22  34  58  94 134 166 216 272 330 412
#
# _framework density 20.176038999999999
#
# number of rings (size 3 to 8) (size 9 to 14) (size 15 to 20)
#    0.000    0.800    3.000    6.000    1.400    0.000 
#    0.000    5.000    0.000    0.000    0.000    0.000 
#    0.000    0.000    0.000    0.000    0.000    0.000 
#
# Total GULP energy -222747.801124 kJ/mol
# GULP energy per Si atom -5568.695028 kJ/mol
# Density = 2.013012 g / cm^3
# Si number density = 20.176039 Si / 1000 Ang^3
#
#
#
# Elastic Constant Matrix: (Units=GPa)
#
#
# Indices 1 2 3 4 5 6 
#
# 1 93.6190 42.2083 24.3494 0.0000 0.0000 0.0000
# 2 42.2083 116.0831 39.0525 0.0000 0.0000 0.0000
# 3 24.3494 39.0525 68.8954 0.0000 0.0000 0.0000
# 4 0.0000 0.0000 0.0000 34.9652 0.0000 0.0000
# 5 0.0000 0.0000 0.0000 0.0000 29.0927 0.0000
# 6 0.0000 0.0000 0.0000 0.0000 0.0000 27.9424
#
#
#
# Elastic Compliance Matrix: (Units=1/GPa)
#
#
# Indices 1 2 3 4 5 6 
#
# 1 0.013085 -0.003956 -0.002382 0.000000 0.000000 0.000000
# 2 -0.003956 0.011841 -0.005313 0.000000 0.000000 0.000000
# 3 -0.002382 -0.005313 0.018368 0.000000 0.000000 0.000000
# 4 0.000000 0.000000 0.000000 0.028600 0.000000 0.000000
# 5 0.000000 0.000000 0.000000 0.000000 0.034373 0.000000
# 6 0.000000 0.000000 0.000000 0.000000 0.000000 0.035788
#
#
# Mechanical properties :
#
#
# Convention : Reuss Voigt Hill
#
# Bulk Modulus (GPa) = 50.02380 54.42422 52.22401
# Shear Modulus (GPa) = 29.06615 29.93255 29.49935
#
# Velocity S-wave (km/s) = 3.79968 3.85589 3.82789
# Velocity P-wave (km/s) = 6.64060 6.84522 6.74369
#
# Compressibility (1/GPa) = 0.01999048
#
# Stress axis : x y z
#
# Youngs Moduli (GPa) = 76.42424 84.45504 54.44126
#
# Poissons Ratio (x) = 0.33414 0.12967
# Poissons Ratio (y) = 0.30236 0.28927
# Poissons Ratio (z) = 0.18203 0.44875
#
# Static dielectric constant tensor:
#      x y z
#    x 1.672530 0.000000 0.000000 
#    y 0.000000 1.731220 0.000000 
#    z 0.000000 0.000000 1.818790 
# 
# From -- ./inp_files/16414.got.cif
#   From: 2010.05.17/outbox.cif.g08.bks.cpg/sg54_9_cif.got.tgz:16414.got - 2010.06.03 13:09:01.
