data_PCOD9423906
_publ_section_title
;
Structure prediction by ZEFSAII (Michael W. Deem and Ramdas Pophale) SiO2 
 PCOD9423906
Probable space group: P C C A
;
_chemical_formula_sum "Si O2"
_cell_formula_units_Z 40
_cell_length_a 16.558343
_cell_length_b 7.753395
_cell_length_c 12.289021
_cell_angle_alpha 90.000000
_cell_angle_beta 90.000000
_cell_angle_gamma 90.000000
_cell_volume 1577.705977
_symmetry_space_group_name_H-M "P C C A"
_symmetry_group_IT_number 54
_symmetry_cell_setting 'orthorhombic'
loop_
_space_group_symop_operation_xyz
x,y,z
1/2-x,-y,z
1/2+x,-y,1/2-z
-x,y,1/2-z
-x,-y,-z
1/2+x,y,-z
1/2-x,y,1/2+z
x,-y,1/2+z
loop_
_atom_site_type_symbol
_atom_site_label
_atom_site_fract_x
_atom_site_fract_y
_atom_site_fract_z
Si Si1 0.281955 0.305130 0.550509
Si Si2 0.171930 0.872906 0.345819
Si Si3 0.570877 0.287644 0.328842
Si Si4 0.909429 0.683221 0.770517
Si Si5 0.619496 0.810965 0.046041
O O1 0.250000 0.500000 0.572453
O O2 0.323335 0.283035 0.432272
O O3 0.343659 0.241467 0.644342
O O4 0.202360 0.194406 0.522769
O O5 0.147543 0.796987 0.230943
O O6 0.250000 0.000000 0.335280
O O7 0.108461 0.004978 0.399446
O O8 0.500000 0.231061 0.250000
O O9 0.577700 0.493134 0.318377
O O10 0.556866 0.241061 0.453940
O O11 0.873813 0.683503 0.648710
O O12 0.000000 0.758731 0.750000
#
# Coordination Sequence:
#
# PCOD9423906 Si02
#       5
#     8   8   8   8   8
#     4  11  23  45  74  99 138 192 244 298 357 433
#     4  10  26  44  72 100 146 185 244 301 364 439
#     4  11  26  45  72 104 144 187 244 297 366 442
#     4  11  27  47  74 107 150 191 246 305 370 440
#     4  11  26  45  71 107 142 190 240 297 369 432
#
# _framework density 25.353265
#
# number of rings (size 3 to 8) (size 9 to 14) (size 15 to 20)
#    0.000    1.200    2.000    1.200   11.200    4.800 
#    0.000    0.000    0.000    0.000    0.000    0.000 
#    0.000    0.000    0.000    0.000    0.000    0.000 
#
# Total GULP energy -223342.530466 kJ/mol
# GULP energy per Si atom -5583.563262 kJ/mol
# Density = 2.529556 g / cm^3
# Si number density = 25.353265 Si / 1000 Ang^3
#
#
#
# Elastic Constant Matrix: (Units=GPa)
#
#
# Indices 1 2 3 4 5 6 
#
# 1 84.3159 4.5250 24.6488 0.0000 0.0000 0.0000
# 2 4.5250 35.4289 -2.0386 0.0000 0.0000 0.0000
# 3 24.6488 -2.0386 155.3538 0.0000 0.0000 0.0000
# 4 0.0000 0.0000 0.0000 -88.8017 0.0000 0.0000
# 5 0.0000 0.0000 0.0000 0.0000 34.1313 0.0000
# 6 0.0000 0.0000 0.0000 0.0000 0.0000 25.1726
#
#
#
# Elastic Compliance Matrix: (Units=1/GPa)
#
#
# Indices 1 2 3 4 5 6 
#
# 1 0.012541 -0.001717 -0.002012 0.000000 0.000000 0.000000
# 2 -0.001717 0.028482 0.000646 0.000000 0.000000 0.000000
# 3 -0.002012 0.000646 0.006765 0.000000 0.000000 0.000000
# 4 0.000000 0.000000 0.000000 -0.011261 0.000000 0.000000
# 5 0.000000 0.000000 0.000000 0.000000 0.029299 0.000000
# 6 0.000000 0.000000 0.000000 0.000000 0.000000 0.039726
#
#
# Mechanical properties :
#
#
# Convention : Reuss Voigt Hill
#
# Bulk Modulus (GPa) = 24.02671 36.59656 30.31164
# Shear Modulus (GPa) = 39.81176 10.63133 25.22155
#
# Velocity S-wave (km/s) = 3.96698 2.04997 3.15747
# Velocity P-wave (km/s) = 5.52086 4.47986 5.02738
#
# Compressibility (1/GPa) = 0.04162035
#
# Stress axis : x y z
#
# Youngs Moduli (GPa) = 79.74111 35.10982 147.82690
#
# Poissons Ratio (x) = 0.06030 0.29747
# Poissons Ratio (y) = 0.13695 -0.09553
# Poissons Ratio (z) = 0.16046 -0.02269
#
# Static dielectric constant tensor:
#      x y z
#    x 2.298780 0.000000 0.000000 
#    y 0.000000 1.998550 0.000000 
#    z 0.000000 0.000000 2.002630 
# 
# From -- ./inp_files/8743.got.cif
#   From: 2010.05.17/outbox.cif.g08.bks.cpg/sg54_5_cif.got.tgz:8743.got - 2010.06.03 13:09:01.
