data_PCOD9423878
_publ_section_title
;
Structure prediction by ZEFSAII (Michael W. Deem and Ramdas Pophale) SiO2 
 PCOD9423878
Probable space group: P C C A
;
_chemical_formula_sum "Si O2"
_cell_formula_units_Z 48
_cell_length_a 18.569017
_cell_length_b 9.460535
_cell_length_c 10.945878
_cell_angle_alpha 90.000000
_cell_angle_beta 90.000000
_cell_angle_gamma 90.000000
_cell_volume 1922.893422
_symmetry_space_group_name_H-M "P C C A"
_symmetry_group_IT_number 54
_symmetry_cell_setting 'orthorhombic'
loop_
_space_group_symop_operation_xyz
x,y,z
1/2-x,-y,z
1/2+x,-y,1/2-z
-x,y,1/2-z
-x,-y,-z
1/2+x,y,-z
1/2-x,y,1/2+z
x,-y,1/2+z
loop_
_atom_site_type_symbol
_atom_site_label
_atom_site_fract_x
_atom_site_fract_y
_atom_site_fract_z
Si Si1 0.367125 0.889025 0.421509
Si Si2 0.169740 0.958513 0.660216
Si Si3 0.463586 0.355714 0.885141
Si Si4 0.078227 0.666910 0.298461
Si Si5 0.151901 0.634154 0.064201
Si Si6 0.873880 0.674064 0.937986
O O1 0.341875 0.980351 0.305734
O O2 0.434555 0.802713 0.364669
O O3 0.319587 0.750978 0.468682
O O4 0.377953 0.969571 0.551168
O O5 0.164831 0.791374 0.639647
O O6 0.250000 0.000000 0.627367
O O7 0.430753 0.497735 0.825725
O O8 0.548270 0.350917 0.877222
O O9 0.433266 0.374059 0.022725
O O10 0.142651 0.686465 0.201283
O O11 0.104637 0.725876 0.427283
O O12 0.000000 0.719164 0.250000
O O13 0.171764 0.470400 0.056653
#
# Coordination Sequence:
#
# PCOD9423878 Si02
#       6
#     8   8   8   8   8   8
#     4  10  25  46  69  94 139 178 244 285 354 420
#     4  12  28  49  69  91 132 198 243 294 339 403
#     4   9  19  34  62 110 144 180 204 281 358 431
#     4  11  15  30  64 106 151 171 208 273 369 440
#     4   9  19  35  64 106 137 172 220 286 352 425
#     4  11  21  36  70 105 144 184 221 280 360 428
#
# _framework density 24.962382000000002
#
# number of rings (size 3 to 8) (size 9 to 14) (size 15 to 20)
#    1.000    0.667    3.333    2.500    2.333    0.667 
#    0.000    0.833    0.000    2.000    0.000    0.000 
#    0.000    0.000    0.000    0.000    0.000    0.000 
#
# Total GULP energy -267225.023021 kJ/mol
# GULP energy per Si atom -5567.187980 kJ/mol
# Density = 2.490557 g / cm^3
# Si number density = 24.962382 Si / 1000 Ang^3
#
#
#
# Elastic Constant Matrix: (Units=GPa)
#
#
# Indices 1 2 3 4 5 6 
#
# 1 55.9951 10.5720 -0.7825 0.0000 0.0000 0.0000
# 2 10.5720 103.2882 26.4256 0.0000 0.0000 0.0000
# 3 -0.7825 26.4256 142.8511 0.0000 0.0000 0.0000
# 4 0.0000 0.0000 0.0000 55.1316 0.0000 0.0000
# 5 0.0000 0.0000 0.0000 0.0000 18.9007 0.0000
# 6 0.0000 0.0000 0.0000 0.0000 0.0000 2.9091
#
#
#
# Elastic Compliance Matrix: (Units=1/GPa)
#
#
# Indices 1 2 3 4 5 6 
#
# 1 0.018240 -0.001987 0.000467 0.000000 0.000000 0.000000
# 2 -0.001987 0.010379 -0.001931 0.000000 0.000000 0.000000
# 3 0.000467 -0.001931 0.007360 0.000000 0.000000 0.000000
# 4 0.000000 0.000000 0.000000 0.018138 0.000000 0.000000
# 5 0.000000 0.000000 0.000000 0.000000 0.052908 0.000000
# 6 0.000000 0.000000 0.000000 0.000000 0.000000 0.343747
#
#
# Mechanical properties :
#
#
# Convention : Reuss Voigt Hill
#
# Bulk Modulus (GPa) = 34.38874 41.61829 38.00352
# Shear Modulus (GPa) = 10.69826 33.11623 21.90724
#
# Velocity S-wave (km/s) = 2.07245 3.64627 2.96566
# Velocity P-wave (km/s) = 4.41960 5.86819 5.19464
#
# Compressibility (1/GPa) = 0.02907929
#
# Stress axis : x y z
#
# Youngs Moduli (GPa) = 54.82369 96.34864 135.86884
#
# Poissons Ratio (x) = 0.19140 -0.06350
# Poissons Ratio (y) = 0.10891 0.26234
# Poissons Ratio (z) = -0.02562 0.18604
#
# Static dielectric constant tensor:
#      x y z
#    x 2.024460 0.000000 0.000000 
#    y 0.000000 2.049800 0.000000 
#    z 0.000000 0.000000 2.034510 
# 
# From -- ./inp_files/8942.got.cif
#   From: 2010.05.17/outbox.cif.g08.bks.cpg/sg54_5_cif.got.tgz:8942.got - 2010.06.03 13:09:01.
