data_PCOD9423003
_publ_section_title
;
Structure prediction by ZEFSAII (Michael W. Deem and Ramdas Pophale) SiO2 
 PCOD9423003
Probable space group: P C C A
;
_chemical_formula_sum "Si O2"
_cell_formula_units_Z 48
_cell_length_a 8.851049
_cell_length_b 7.923621
_cell_length_c 31.607877
_cell_angle_alpha 90.000000
_cell_angle_beta 90.000000
_cell_angle_gamma 90.000000
_cell_volume 2216.734937
_symmetry_space_group_name_H-M "P C C A"
_symmetry_group_IT_number 54
_symmetry_cell_setting 'orthorhombic'
loop_
_space_group_symop_operation_xyz
x,y,z
1/2-x,-y,z
1/2+x,-y,1/2-z
-x,y,1/2-z
-x,-y,-z
1/2+x,y,-z
1/2-x,y,1/2+z
x,-y,1/2+z
loop_
_atom_site_type_symbol
_atom_site_label
_atom_site_fract_x
_atom_site_fract_y
_atom_site_fract_z
Si Si1 0.453999 0.318608 0.521229
Si Si2 0.442240 0.300568 0.382007
Si Si3 0.580693 0.208269 0.208353
Si Si4 0.652074 0.169619 0.455178
Si Si5 0.925523 0.198893 0.205565
Si Si6 0.095787 0.298918 0.387625
O O1 0.500000 0.500000 0.500000
O O2 0.516885 0.181162 0.488630
O O3 0.275551 0.303661 0.527886
O O4 0.522007 0.264915 0.566898
O O5 0.493877 0.269468 0.334396
O O6 0.567890 0.224666 0.412502
O O7 0.269807 0.231913 0.387860
O O8 0.417197 0.498706 0.387622
O O9 0.500000 0.271069 0.250000
O O10 0.754040 0.263919 0.207212
O O11 0.576437 0.004693 0.207945
O O12 0.750000 0.000000 0.451172
O O13 0.977668 0.241594 0.157366
O O14 0.000000 0.256626 0.250000
#
# Coordination Sequence:
#
# PCOD9423003 Si02
#       6
#     8   8   8   8   8   8
#     4  12  25  44  68  94 132 173 219 269 335 398
#     4  10  22  41  63  94 129 171 219 264 338 388
#     4   9  19  37  59  88 129 170 210 267 328 389
#     4  12  27  45  66  98 132 172 222 280 334 400
#     4   9  19  37  61  92 124 169 218 263 327 389
#     4  10  22  40  67  92 127 173 217 273 321 400
#
# _framework density 21.653468
#
# number of rings (size 3 to 8) (size 9 to 14) (size 15 to 20)
#    0.000    1.667    1.667    2.000    4.667    2.000 
#    6.000    0.000    0.000    0.000    0.000    0.000 
#    0.000    0.000    0.000    0.000    0.000    0.000 
#
# Total GULP energy -267647.666866 kJ/mol
# GULP energy per Si atom -5575.993060 kJ/mol
# Density = 2.160418 g / cm^3
# Si number density = 21.653468 Si / 1000 Ang^3
#
#
#
# Elastic Constant Matrix: (Units=GPa)
#
#
# Indices 1 2 3 4 5 6 
#
# 1 77.8290 22.1425 63.6374 0.0000 0.0000 0.0000
# 2 22.1425 66.2090 17.0662 0.0000 0.0000 0.0000
# 3 63.6374 17.0662 208.7393 0.0000 0.0000 0.0000
# 4 0.0000 0.0000 0.0000 25.0243 0.0000 0.0000
# 5 0.0000 0.0000 0.0000 0.0000 30.6584 0.0000
# 6 0.0000 0.0000 0.0000 0.0000 0.0000 25.4956
#
#
#
# Elastic Compliance Matrix: (Units=1/GPa)
#
#
# Indices 1 2 3 4 5 6 
#
# 1 0.018518 -0.004840 -0.005250 0.000000 0.000000 0.000000
# 2 -0.004840 0.016694 0.000111 0.000000 0.000000 0.000000
# 3 -0.005250 0.000111 0.006382 0.000000 0.000000 0.000000
# 4 0.000000 0.000000 0.000000 0.039961 0.000000 0.000000
# 5 0.000000 0.000000 0.000000 0.000000 0.032618 0.000000
# 6 0.000000 0.000000 0.000000 0.000000 0.000000 0.039222
#
#
# Mechanical properties :
#
#
# Convention : Reuss Voigt Hill
#
# Bulk Modulus (GPa) = 46.21942 62.05217 54.13580
# Shear Modulus (GPa) = 27.69078 32.89772 30.29425
#
# Velocity S-wave (km/s) = 3.57993 3.90203 3.74444
# Velocity P-wave (km/s) = 6.20317 7.00144 6.61436
#
# Compressibility (1/GPa) = 0.02163593
#
# Stress axis : x y z
#
# Youngs Moduli (GPa) = 54.00085 59.90258 156.68769
#
# Poissons Ratio (x) = 0.28992 0.82259
# Poissons Ratio (y) = 0.26136 -0.01734
# Poissons Ratio (z) = 0.28350 -0.00663
#
# Static dielectric constant tensor:
#      x y z
#    x 1.806470 0.000000 0.000000 
#    y 0.000000 1.869770 0.000000 
#    z 0.000000 0.000000 1.806320 
# 
# From -- ./inp_files/27749.got.cif
#   From: 2010.05.17/outbox.cif.g08.bks.cpg/sg54_14_cif.got.tgz:27749.got - 2010.06.03 13:09:01.
