data_PCOD9423582
_publ_section_title
;
Structure prediction by ZEFSAII (Michael W. Deem and Ramdas Pophale) SiO2 
 PCOD9423582
Probable space group: P C C A
;
_chemical_formula_sum "Si O2"
_cell_formula_units_Z 48
_cell_length_a 13.932544
_cell_length_b 14.573515
_cell_length_c 11.861363
_cell_angle_alpha 90.000000
_cell_angle_beta 90.000000
_cell_angle_gamma 90.000000
_cell_volume 2408.403960
_symmetry_space_group_name_H-M "P C C A"
_symmetry_group_IT_number 54
_symmetry_cell_setting 'orthorhombic'
loop_
_space_group_symop_operation_xyz
x,y,z
1/2-x,-y,z
1/2+x,-y,1/2-z
-x,y,1/2-z
-x,-y,-z
1/2+x,y,-z
1/2-x,y,1/2+z
x,-y,1/2+z
loop_
_atom_site_type_symbol
_atom_site_label
_atom_site_fract_x
_atom_site_fract_y
_atom_site_fract_z
Si Si1 0.500000 0.025936 0.750000
Si Si2 0.671316 0.079672 0.134292
Si Si3 0.901979 0.623016 0.307420
Si Si4 0.000000 0.555328 0.750000
Si Si5 0.403728 0.173680 0.587245
Si Si6 0.423404 0.308481 0.940649
Si Si7 0.266372 0.748046 0.267411
O O1 0.426651 0.964823 0.821137
O O2 0.439523 0.092406 0.668573
O O3 0.710112 0.156353 0.220050
O O4 0.750000 0.000000 0.122212
O O5 0.652169 0.130674 0.016919
O O6 0.901744 0.647908 0.438770
O O7 0.809571 0.667349 0.250360
O O8 0.000000 0.661915 0.250000
O O9 0.915244 0.514310 0.287406
O O10 0.966242 0.617012 0.646320
O O11 0.496990 0.229360 0.546876
O O12 0.337998 0.240926 0.662074
O O13 0.330366 0.267807 0.878339
#
# Coordination Sequence:
#
# PCOD9423582 Si02
#       7
#     4   8   8   4   8   8   8
#     4  12  25  45  64 100 138 176 232 283 353 412
#     4  12  27  42  70 102 137 186 234 292 339 421
#     4  10  26  43  70 106 136 179 235 283 352 418
#     4  10  23  47  72 104 138 182 234 287 361 426
#     4  12  24  45  70  96 137 182 229 281 357 412
#     4  12  22  49  73  98 143 184 227 293 357 426
#     4  12  24  45  67 104 138 181 236 284 354 420
#
# _framework density 19.930212000000001
#
# number of rings (size 3 to 8) (size 9 to 14) (size 15 to 20)
#    0.500    0.000    5.000    3.000    5.833    0.667 
#    0.000    1.667    0.000    0.000    0.000    0.000 
#    0.000    0.000    0.000    0.000    0.000    0.000 
#
# Total GULP energy -268456.719952 kJ/mol
# GULP energy per Si atom -5592.848332 kJ/mol
# Density = 1.988485 g / cm^3
# Si number density = 19.930212 Si / 1000 Ang^3
#
#
#
# Elastic Constant Matrix: (Units=GPa)
#
#
# Indices 1 2 3 4 5 6 
#
# 1 88.2877 17.3527 9.8242 0.0000 0.0000 0.0000
# 2 17.3527 69.6492 -0.8985 0.0000 0.0000 0.0000
# 3 9.8242 -0.8985 61.0818 0.0000 0.0000 0.0000
# 4 0.0000 0.0000 0.0000 3.5636 0.0000 0.0000
# 5 0.0000 0.0000 0.0000 0.0000 24.3012 0.0000
# 6 0.0000 0.0000 0.0000 0.0000 0.0000 25.8335
#
#
#
# Elastic Compliance Matrix: (Units=1/GPa)
#
#
# Indices 1 2 3 4 5 6 
#
# 1 0.012149 -0.003053 -0.001999 0.000000 0.000000 0.000000
# 2 -0.003053 0.015127 0.000714 0.000000 0.000000 0.000000
# 3 -0.001999 0.000714 0.016703 0.000000 0.000000 0.000000
# 4 0.000000 0.000000 0.000000 0.280619 0.000000 0.000000
# 5 0.000000 0.000000 0.000000 0.000000 0.041150 0.000000
# 6 0.000000 0.000000 0.000000 0.000000 0.000000 0.038709
#
#
# Mechanical properties :
#
#
# Convention : Reuss Voigt Hill
#
# Bulk Modulus (GPa) = 28.32555 30.17505 29.25030
# Shear Modulus (GPa) = 11.76741 23.58902 17.67821
#
# Velocity S-wave (km/s) = 2.43251 3.44405 2.98150
# Velocity P-wave (km/s) = 4.70454 5.56674 5.15370
#
# Compressibility (1/GPa) = 0.03530382
#
# Stress axis : x y z
#
# Youngs Moduli (GPa) = 82.31116 66.10510 59.86772
#
# Poissons Ratio (x) = 0.20180 0.11967
# Poissons Ratio (y) = 0.25127 -0.04272
# Poissons Ratio (z) = 0.16453 -0.04717
#
# Static dielectric constant tensor:
#      x y z
#    x 1.715150 0.000000 0.000000 
#    y 0.000000 1.678300 0.000000 
#    z 0.000000 0.000000 1.674050 
# 
# From -- ./inp_files/8378.got.cif
#   From: 2010.05.17/outbox.cif.g08.bks.cpg/sg54_5_cif.got.tgz:8378.got - 2010.06.03 13:09:01.
