data_PCOD9423196
_publ_section_title
;
Structure prediction by ZEFSAII (Michael W. Deem and Ramdas Pophale) SiO2 
 PCOD9423196
Probable space group: P C C A
;
_chemical_formula_sum "Si O2"
_cell_formula_units_Z 40
_cell_length_a 12.937086
_cell_length_b 12.112116
_cell_length_c 13.274455
_cell_angle_alpha 90.000000
_cell_angle_beta 90.000000
_cell_angle_gamma 90.000000
_cell_volume 2080.047182
_symmetry_space_group_name_H-M "P C C A"
_symmetry_group_IT_number 54
_symmetry_cell_setting 'orthorhombic'
loop_
_space_group_symop_operation_xyz
x,y,z
1/2-x,-y,z
1/2+x,-y,1/2-z
-x,y,1/2-z
-x,-y,-z
1/2+x,y,-z
1/2-x,y,1/2+z
x,-y,1/2+z
loop_
_atom_site_type_symbol
_atom_site_label
_atom_site_fract_x
_atom_site_fract_y
_atom_site_fract_z
Si Si1 0.750000 0.500000 0.948378
Si Si2 0.108842 0.620913 0.198586
Si Si3 0.163519 0.903184 0.890612
Si Si4 0.000000 0.992381 0.750000
Si Si5 0.970828 0.172562 0.922462
Si Si6 0.812830 0.699196 0.093986
O O1 0.844718 0.468288 0.875920
O O2 0.782166 0.604569 0.015647
O O3 0.096504 0.732719 0.132828
O O4 0.176661 0.644878 0.296236
O O5 0.000000 0.591116 0.250000
O O6 0.226833 0.791161 0.893068
O O7 0.250000 0.000000 0.905752
O O8 0.099493 0.924446 0.787837
O O9 0.080059 0.882188 0.979485
O O10 0.019545 0.074044 0.657082
O O11 0.081180 0.235267 0.935966
#
# Coordination Sequence:
#
# PCOD9423196 Si02
#       6
#     4   8   8   4   8   8
#     4  12  24  44  72  96 134 186 230 286 344 406
#     4  10  22  43  67  92 136 177 219 285 339 399
#     4  12  25  43  71 103 137 182 228 280 350 419
#     4  12  24  42  68  98 140 178 220 282 344 412
#     4  11  22  45  67  98 139 177 223 284 344 404
#     4  11  24  44  69 102 135 178 236 281 345 408
#
# _framework density 19.230332000000001
#
# number of rings (size 3 to 8) (size 9 to 14) (size 15 to 20)
#    0.000    0.800    7.000    1.200    0.000    7.200 
#    3.600    0.000    0.000    0.000    0.000    0.000 
#    0.000    0.000    0.000    0.000    0.000    0.000 
#
# Total GULP energy -223195.017147 kJ/mol
# GULP energy per Si atom -5579.875429 kJ/mol
# Density = 1.918656 g / cm^3
# Si number density = 19.230332 Si / 1000 Ang^3
#
#
#
# Elastic Constant Matrix: (Units=GPa)
#
#
# Indices 1 2 3 4 5 6 
#
# 1 76.8835 73.9655 74.2317 0.0000 0.0000 0.0000
# 2 73.9655 138.2013 77.2568 0.0000 0.0000 0.0000
# 3 74.2317 77.2568 103.1095 0.0000 0.0000 0.0000
# 4 0.0000 0.0000 0.0000 -1.4577 0.0000 0.0000
# 5 0.0000 0.0000 0.0000 0.0000 36.2186 0.0000
# 6 0.0000 0.0000 0.0000 0.0000 0.0000 13.1560
#
#
#
# Elastic Compliance Matrix: (Units=1/GPa)
#
#
# Indices 1 2 3 4 5 6 
#
# 1 0.051945 -0.011866 -0.028506 0.000000 0.000000 0.000000
# 2 -0.011866 0.015161 -0.002818 0.000000 0.000000 0.000000
# 3 -0.028506 -0.002818 0.032332 0.000000 0.000000 0.000000
# 4 0.000000 0.000000 0.000000 -0.686013 0.000000 0.000000
# 5 0.000000 0.000000 0.000000 0.000000 0.027610 0.000000
# 6 0.000000 0.000000 0.000000 0.000000 0.000000 0.076011
#
#
# Mechanical properties :
#
#
# Convention : Reuss Voigt Hill
#
# Bulk Modulus (GPa) = 76.57189 85.45580 81.01384
# Shear Modulus (GPa) = -12.74791 15.76607 1.50908
#
# Velocity S-wave (km/s) = -2.57749 2.86642 0.88682
# Velocity P-wave (km/s) = 5.57196 7.44914 6.57786
#
# Compressibility (1/GPa) = 0.01305962
#
# Stress axis : x y z
#
# Youngs Moduli (GPa) = 19.25106 65.95724 30.92892
#
# Poissons Ratio (x) = 0.78262 0.88167
# Poissons Ratio (y) = 0.22842 0.08714
# Poissons Ratio (z) = 0.54878 0.18584
#
# Static dielectric constant tensor:
#      x y z
#    x 1.580170 0.000000 0.000000 
#    y 0.000000 1.671550 0.000000 
#    z 0.000000 0.000000 1.675790 
# 
# From -- ./inp_files/8249.got.cif
#   From: 2010.05.17/outbox.cif.g08.bks.cpg/sg54_5_cif.got.tgz:8249.got - 2010.06.03 13:09:01.
