data_PCOD9423353
_publ_section_title
;
Structure prediction by ZEFSAII (Michael W. Deem and Ramdas Pophale) SiO2 
 PCOD9423353
Probable space group: P C C A
;
_chemical_formula_sum "Si O2"
_cell_formula_units_Z 36
_cell_length_a 15.905522
_cell_length_b 4.788523
_cell_length_c 21.086640
_cell_angle_alpha 90.000000
_cell_angle_beta 90.000000
_cell_angle_gamma 90.000000
_cell_volume 1606.041962
_symmetry_space_group_name_H-M "P C C A"
_symmetry_group_IT_number 54
_symmetry_cell_setting 'orthorhombic'
loop_
_space_group_symop_operation_xyz
x,y,z
1/2-x,-y,z
1/2+x,-y,1/2-z
-x,y,1/2-z
-x,-y,-z
1/2+x,y,-z
1/2-x,y,1/2+z
x,-y,1/2+z
loop_
_atom_site_type_symbol
_atom_site_label
_atom_site_fract_x
_atom_site_fract_y
_atom_site_fract_z
Si Si1 0.159913 0.138213 0.806822
Si Si2 0.250000 0.500000 0.084113
Si Si3 0.401031 0.258037 0.166282
Si Si4 0.750000 0.500000 0.094143
Si Si5 0.750000 0.000000 0.504545
Si Si6 0.491994 0.755456 0.325810
O O1 0.123252 0.261943 0.741140
O O2 0.180787 0.364623 0.860071
O O3 0.250000 0.000000 0.790556
O O4 0.095547 0.911484 0.834720
O O5 0.322912 0.366268 0.126531
O O6 0.287316 0.761807 0.042952
O O7 0.483005 0.448062 0.153367
O O8 0.431523 0.949054 0.150423
O O9 0.786152 0.237957 0.052966
O O10 0.500000 0.754337 0.250000
#
# Coordination Sequence:
#
# PCOD9423353 Si02
#       6
#     8   4   8   4   4   8
#     4  11  25  40  72 102 138 171 221 265 340 413
#     4  11  23  42  70  88 127 179 230 268 322 407
#     4  11  24  39  64  99 136 166 209 265 332 401
#     4  11  23  42  68  98 125 171 230 284 314 397
#     4  10  24  42  64  96 124 168 238 282 326 356
#     4  10  23  38  57  97 145 168 194 262 336 391
#
# _framework density 22.415353
#
# number of rings (size 3 to 8) (size 9 to 14) (size 15 to 20)
#    0.000    1.333    1.111    4.000   17.111    0.000 
#    0.000    0.000    0.000   26.667    0.000    0.000 
#    0.000    0.000    0.000    0.000    0.000    0.000 
#
# Total GULP energy -200624.515111 kJ/mol
# GULP energy per Si atom -5572.903198 kJ/mol
# Density = 2.236434 g / cm^3
# Si number density = 22.415353 Si / 1000 Ang^3
#
#
#
# Elastic Constant Matrix: (Units=GPa)
#
#
# Indices 1 2 3 4 5 6 
#
# 1 103.1017 26.9253 24.5373 0.0000 0.0000 0.0000
# 2 26.9253 146.0285 40.3713 0.0000 0.0000 0.0000
# 3 24.5373 40.3713 80.1016 0.0000 0.0000 0.0000
# 4 0.0000 0.0000 0.0000 39.6835 0.0000 0.0000
# 5 0.0000 0.0000 0.0000 0.0000 -0.4506 0.0000
# 6 0.0000 0.0000 0.0000 0.0000 0.0000 50.9760
#
#
#
# Elastic Compliance Matrix: (Units=1/GPa)
#
#
# Indices 1 2 3 4 5 6 
#
# 1 0.010650 -0.001234 -0.002641 0.000000 0.000000 0.000000
# 2 -0.001234 0.008100 -0.003704 0.000000 0.000000 0.000000
# 3 -0.002641 -0.003704 0.015160 0.000000 0.000000 0.000000
# 4 0.000000 0.000000 0.000000 0.025199 0.000000 0.000000
# 5 0.000000 0.000000 0.000000 0.000000 -2.219165 0.000000
# 6 0.000000 0.000000 0.000000 0.000000 0.000000 0.019617
#
#
# Mechanical properties :
#
#
# Convention : Reuss Voigt Hill
#
# Bulk Modulus (GPa) = 53.32671 56.98886 55.15779
# Shear Modulus (GPa) = -2.35957 33.86830 15.75437
#
# Velocity S-wave (km/s) = -1.02710 3.89130 2.65399
# Velocity P-wave (km/s) = 4.73659 6.75787 5.83542
#
# Compressibility (1/GPa) = 0.01875233
#
# Stress axis : x y z
#
# Youngs Moduli (GPa) = 93.89884 123.46395 65.96315
#
# Poissons Ratio (x) = 0.15231 0.17418
# Poissons Ratio (y) = 0.11584 0.24435
# Poissons Ratio (z) = 0.24795 0.45734
#
# Static dielectric constant tensor:
#      x y z
#    x 1.869960 0.000000 0.000000 
#    y 0.000000 1.870320 0.000000 
#    z 0.000000 0.000000 1.845860 
# 
# From -- ./inp_files/21400.got.cif
#   From: 2010.05.17/outbox.cif.g08.bks.cpg/sg54_11_cif.got.tgz:21400.got - 2010.06.03 13:09:01.
