data_PCOD9423244
_publ_section_title
;
Structure prediction by ZEFSAII (Michael W. Deem and Ramdas Pophale) SiO2 
 PCOD9423244
Probable space group: P C C A
;
_chemical_formula_sum "Si O2"
_cell_formula_units_Z 32
_cell_length_a 15.366641
_cell_length_b 5.051805
_cell_length_c 18.021156
_cell_angle_alpha 90.000000
_cell_angle_beta 90.000000
_cell_angle_gamma 90.000000
_cell_volume 1398.969254
_symmetry_space_group_name_H-M "P C C A"
_symmetry_group_IT_number 54
_symmetry_cell_setting 'orthorhombic'
loop_
_space_group_symop_operation_xyz
x,y,z
1/2-x,-y,z
1/2+x,-y,1/2-z
-x,y,1/2-z
-x,-y,-z
1/2+x,y,-z
1/2-x,y,1/2+z
x,-y,1/2+z
loop_
_atom_site_type_symbol
_atom_site_label
_atom_site_fract_x
_atom_site_fract_y
_atom_site_fract_z
Si Si1 0.750000 0.000000 0.008693
Si Si2 0.833169 0.684962 0.380168
Si Si3 0.012375 0.428484 0.336588
Si Si4 0.750000 0.000000 0.750416
Si Si5 0.119501 0.047966 0.868172
O O1 0.817434 0.861562 0.065087
O O2 0.816942 0.149356 0.954378
O O3 0.750000 0.500000 0.381007
O O4 0.921729 0.527471 0.371441
O O5 0.814723 0.851927 0.306121
O O6 0.000000 0.351139 0.250000
O O7 0.047265 0.175852 0.382440
O O8 0.075137 0.685300 0.338616
O O9 0.819759 0.888895 0.691565
#
# Coordination Sequence:
#
# PCOD9423244 Si02
#       5
#     4   8   8   4   8
#     4  10  28  46  68 102 146 194 232 276 364 424
#     4  11  25  44  70  99 143 188 234 287 355 424
#     4  12  25  44  74 108 137 179 242 300 350 406
#     4  10  22  44  68 100 138 186 232 296 352 422
#     4  11  26  45  72 104 141 183 236 293 352 421
#
# _framework density 22.873985000000001
#
# number of rings (size 3 to 8) (size 9 to 14) (size 15 to 20)
#    0.000    1.000    2.500    2.250   10.500    4.000 
#    0.000    0.000    0.000    0.000    0.000    0.000 
#    0.000    0.000    0.000    0.000    0.000    0.000 
#
# Total GULP energy -178399.225968 kJ/mol
# GULP energy per Si atom -5574.975811 kJ/mol
# Density = 2.282192 g / cm^3
# Si number density = 22.873985 Si / 1000 Ang^3
#
#
#
# Elastic Constant Matrix: (Units=GPa)
#
#
# Indices 1 2 3 4 5 6 
#
# 1 95.6286 7.8770 41.7004 0.0000 0.0000 0.0000
# 2 7.8770 53.4349 7.3379 0.0000 0.0000 0.0000
# 3 41.7004 7.3379 108.6233 0.0000 0.0000 0.0000
# 4 0.0000 0.0000 0.0000 13.2788 0.0000 0.0000
# 5 0.0000 0.0000 0.0000 0.0000 37.6971 0.0000
# 6 0.0000 0.0000 0.0000 0.0000 0.0000 49.7739
#
#
#
# Elastic Compliance Matrix: (Units=1/GPa)
#
#
# Indices 1 2 3 4 5 6 
#
# 1 0.012636 -0.001208 -0.004770 0.000000 0.000000 0.000000
# 2 -0.001208 0.019005 -0.000820 0.000000 0.000000 0.000000
# 3 -0.004770 -0.000820 0.011093 0.000000 0.000000 0.000000
# 4 0.000000 0.000000 0.000000 0.075308 0.000000 0.000000
# 5 0.000000 0.000000 0.000000 0.000000 0.026527 0.000000
# 6 0.000000 0.000000 0.000000 0.000000 0.000000 0.020091
#
#
# Mechanical properties :
#
#
# Convention : Reuss Voigt Hill
#
# Bulk Modulus (GPa) = 34.31828 41.27971 37.79900
# Shear Modulus (GPa) = 26.60025 33.53471 30.06748
#
# Velocity S-wave (km/s) = 3.41384 3.83307 3.62951
# Velocity P-wave (km/s) = 5.52945 6.13805 5.84168
#
# Compressibility (1/GPa) = 0.02913899
#
# Stress axis : x y z
#
# Youngs Moduli (GPa) = 79.13619 52.61765 90.15055
#
# Poissons Ratio (x) = 0.06355 0.42998
# Poissons Ratio (y) = 0.09558 0.07394
# Poissons Ratio (z) = 0.37744 0.04316
#
# Static dielectric constant tensor:
#      x y z
#    x 1.847900 0.000000 0.000000 
#    y 0.000000 1.813990 0.000000 
#    z 0.000000 0.000000 1.675500 
# 
# From -- ./inp_files/17623.got.cif
#   From: 2010.05.17/outbox.cif.g08.bks.cpg/sg54_9_cif.got.tgz:17623.got - 2010.06.03 13:09:01.
