data_PCOD9423415
_publ_section_title
;
Structure prediction by ZEFSAII (Michael W. Deem and Ramdas Pophale) SiO2 
 PCOD9423415
Probable space group: P C C A
;
_chemical_formula_sum "Si O2"
_cell_formula_units_Z 56
_cell_length_a 14.643510
_cell_length_b 9.382716
_cell_length_c 20.517396
_cell_angle_alpha 90.000000
_cell_angle_beta 90.000000
_cell_angle_gamma 90.000000
_cell_volume 2819.005998
_symmetry_space_group_name_H-M "P C C A"
_symmetry_group_IT_number 54
_symmetry_cell_setting 'orthorhombic'
loop_
_space_group_symop_operation_xyz
x,y,z
1/2-x,-y,z
1/2+x,-y,1/2-z
-x,y,1/2-z
-x,-y,-z
1/2+x,y,-z
1/2-x,y,1/2+z
x,-y,1/2+z
loop_
_atom_site_type_symbol
_atom_site_label
_atom_site_fract_x
_atom_site_fract_y
_atom_site_fract_z
Si Si1 0.208994 0.841685 0.458521
Si Si2 0.102515 0.696288 0.223863
Si Si3 0.853987 0.048117 0.862977
Si Si4 0.664128 0.601426 0.639382
Si Si5 0.394873 0.759782 0.512404
Si Si6 0.061052 0.192422 0.072453
Si Si7 0.039897 0.481838 0.601694
O O1 0.171510 0.753786 0.397217
O O2 0.293453 0.749228 0.485538
O O3 0.132357 0.845019 0.514698
O O4 0.250000 0.000000 0.446306
O O5 0.139046 0.847109 0.197992
O O6 0.158572 0.631447 0.283490
O O7 0.092972 0.589722 0.162561
O O8 0.000000 0.718629 0.250000
O O9 0.888678 0.139576 0.924614
O O10 0.750000 0.000000 0.872749
O O11 0.916415 0.908194 0.866602
O O12 0.750000 0.500000 0.624757
O O13 0.568183 0.531307 0.616922
O O14 0.460956 0.825475 0.458090
O O15 0.436210 0.612416 0.538419
O O16 0.069578 0.356791 0.091646
#
# Coordination Sequence:
#
# PCOD9423415 Si02
#       7
#     8   8   8   8   8   8   8
#     4  12  25  39  61  99 133 166 212 264 330 395
#     4   9  23  46  66  84 122 174 218 261 321 370
#     4  11  22  41  63  94 130 168 217 260 317 390
#     4  11  24  45  64  93 130 169 222 270 322 391
#     4  11  21  39  61  95 136 170 201 262 328 385
#     4  12  22  38  63  99 133 157 214 265 322 390
#     4  10  23  41  66  93 126 173 213 262 323 387
#
# _framework density 19.865158000000001
#
# number of rings (size 3 to 8) (size 9 to 14) (size 15 to 20)
#    0.000    1.143    4.286    1.714    2.000    1.714 
#    0.000    3.571    0.000    0.000    0.000    0.000 
#    0.000    0.000    0.000    0.000    0.000    0.000 
#
# Total GULP energy -312971.179920 kJ/mol
# GULP energy per Si atom -5588.771070 kJ/mol
# Density = 1.981994 g / cm^3
# Si number density = 19.865158 Si / 1000 Ang^3
#
#
#
# Elastic Constant Matrix: (Units=GPa)
#
#
# Indices 1 2 3 4 5 6 
#
# 1 20.2407 9.2849 -2.6538 0.0000 0.0000 0.0000
# 2 9.2849 127.0902 27.8380 0.0000 0.0000 0.0000
# 3 -2.6538 27.8380 52.0728 0.0000 0.0000 0.0000
# 4 0.0000 0.0000 0.0000 24.1549 0.0000 0.0000
# 5 0.0000 0.0000 0.0000 0.0000 17.0479 0.0000
# 6 0.0000 0.0000 0.0000 0.0000 0.0000 32.9751
#
#
#
# Elastic Compliance Matrix: (Units=1/GPa)
#
#
# Indices 1 2 3 4 5 6 
#
# 1 0.052399 -0.004998 0.005343 0.000000 0.000000 0.000000
# 2 -0.004998 0.009389 -0.005274 0.000000 0.000000 0.000000
# 3 0.005343 -0.005274 0.022296 0.000000 0.000000 0.000000
# 4 0.000000 0.000000 0.000000 0.041399 0.000000 0.000000
# 5 0.000000 0.000000 0.000000 0.000000 0.058658 0.000000
# 6 0.000000 0.000000 0.000000 0.000000 0.000000 0.030326
#
#
# Mechanical properties :
#
#
# Convention : Reuss Voigt Hill
#
# Bulk Modulus (GPa) = 13.47279 29.81577 21.64428
# Shear Modulus (GPa) = 20.07486 25.83122 22.95304
#
# Velocity S-wave (km/s) = 3.18237 3.60992 3.40287
# Velocity P-wave (km/s) = 4.50557 5.69359 5.13406
#
# Compressibility (1/GPa) = 0.07422369
#
# Stress axis : x y z
#
# Youngs Moduli (GPa) = 19.08438 106.50964 44.85187
#
# Poissons Ratio (x) = 0.53238 -0.23962
# Poissons Ratio (y) = 0.09539 0.23655
# Poissons Ratio (z) = -0.10196 0.56173
#
# Static dielectric constant tensor:
#      x y z
#    x 1.682870 0.000000 0.000000 
#    y 0.000000 1.738770 0.000000 
#    z 0.000000 0.000000 1.701920 
# 
# From -- ./inp_files/21626.got.cif
#   From: 2010.05.17/outbox.cif.g08.bks.cpg/sg54_11_cif.got.tgz:21626.got - 2010.06.03 13:09:01.
