data_PCOD9423575
_publ_section_title
;
Structure prediction by ZEFSAII (Michael W. Deem and Ramdas Pophale) SiO2 
 PCOD9423575
Probable space group: P C C A
;
_chemical_formula_sum "Si O2"
_cell_formula_units_Z 56
_cell_length_a 29.132591
_cell_length_b 5.286520
_cell_length_c 15.105462
_cell_angle_alpha 90.000000
_cell_angle_beta 90.000000
_cell_angle_gamma 90.000000
_cell_volume 2326.392580
_symmetry_space_group_name_H-M "P C C A"
_symmetry_group_IT_number 54
_symmetry_cell_setting 'orthorhombic'
loop_
_space_group_symop_operation_xyz
x,y,z
1/2-x,-y,z
1/2+x,-y,1/2-z
-x,y,1/2-z
-x,-y,-z
1/2+x,y,-z
1/2-x,y,1/2+z
x,-y,1/2+z
loop_
_atom_site_type_symbol
_atom_site_label
_atom_site_fract_x
_atom_site_fract_y
_atom_site_fract_z
Si Si1 0.449636 0.951724 0.967774
Si Si2 0.445890 0.117755 0.270125
Si Si3 0.874057 0.228266 0.325436
Si Si4 0.277153 0.244893 0.363444
Si Si5 0.278290 0.241157 0.577905
Si Si6 0.902638 0.439593 0.980298
Si Si7 0.867400 0.532064 0.165028
O O1 0.445845 0.024924 0.864762
O O2 0.417869 0.151341 0.017626
O O3 0.437621 0.660944 0.987761
O O4 0.500000 0.000000 0.000000
O O5 0.500000 0.165799 0.250000
O O6 0.416776 0.957791 0.198207
O O7 0.415887 0.362409 0.298471
O O8 0.829070 0.179249 0.384600
O O9 0.891620 0.471204 0.381910
O O10 0.855861 0.305030 0.229263
O O11 0.250000 0.500000 0.339512
O O12 0.280500 0.239312 0.470708
O O13 0.328209 0.259310 0.324866
O O14 0.250000 0.000000 0.334059
O O15 0.250000 0.500000 0.602352
O O16 0.250000 0.000000 0.607671
O O17 0.866866 0.458831 0.061643
#
# Coordination Sequence:
#
# PCOD9423575 Si02
#       7
#     8   8   8   8   8   8   8
#     4  11  24  46  71 101 142 191 253 306 374 439
#     4  11  27  47  71 110 149 200 257 318 374 448
#     4  12  26  46  77 107 154 196 252 318 377 449
#     4  10  23  46  78 108 148 195 243 308 378 454
#     4  10  24  46  75 112 148 195 247 302 384 459
#     4  11  25  45  72 103 145 192 242 305 377 435
#     4  11  26  48  71 113 149 198 255 310 379 456
#
# _framework density 24.071603
#
# number of rings (size 3 to 8) (size 9 to 14) (size 15 to 20)
#    0.000    1.143    2.857    1.286    8.000    1.143 
#    0.000    0.000    0.000    0.000    0.000    0.000 
#    0.000    0.000    0.000    0.000    0.000    0.000 
#
# Total GULP energy -312655.249263 kJ/mol
# GULP energy per Si atom -5583.129451 kJ/mol
# Density = 2.401682 g / cm^3
# Si number density = 24.071603 Si / 1000 Ang^3
#
#
#
# Elastic Constant Matrix: (Units=GPa)
#
#
# Indices 1 2 3 4 5 6 
#
# 1 120.9565 33.0077 19.8756 0.0000 0.0000 0.0000
# 2 33.0077 72.5187 25.8756 0.0000 0.0000 0.0000
# 3 19.8756 25.8756 101.3837 0.0000 0.0000 0.0000
# 4 0.0000 0.0000 0.0000 17.3317 0.0000 0.0000
# 5 0.0000 0.0000 0.0000 0.0000 -82.8449 0.0000
# 6 0.0000 0.0000 0.0000 0.0000 0.0000 13.7005
#
#
#
# Elastic Compliance Matrix: (Units=1/GPa)
#
#
# Indices 1 2 3 4 5 6 
#
# 1 0.009504 -0.004028 -0.000835 0.000000 0.000000 0.000000
# 2 -0.004028 0.016878 -0.003518 0.000000 0.000000 0.000000
# 3 -0.000835 -0.003518 0.010925 0.000000 0.000000 0.000000
# 4 0.000000 0.000000 0.000000 0.057698 0.000000 0.000000
# 5 0.000000 0.000000 0.000000 0.000000 -0.012071 0.000000
# 6 0.000000 0.000000 0.000000 0.000000 0.000000 0.072990
#
#
# Mechanical properties :
#
#
# Convention : Reuss Voigt Hill
#
# Bulk Modulus (GPa) = 48.67359 50.26408 49.46884
# Shear Modulus (GPa) = 27.84980 4.04413 15.94697
#
# Velocity S-wave (km/s) = 3.40510 1.29757 2.57666
# Velocity P-wave (km/s) = 5.97694 4.81366 5.42656
#
# Compressibility (1/GPa) = 0.02054502
#
# Stress axis : x y z
#
# Youngs Moduli (GPa) = 105.22105 59.24825 91.53194
#
# Poissons Ratio (x) = 0.23864 0.07644
# Poissons Ratio (y) = 0.42381 0.32202
# Poissons Ratio (z) = 0.08788 0.20844
#
# Static dielectric constant tensor:
#      x y z
#    x 1.882820 0.000000 0.000000 
#    y 0.000000 1.960580 0.000000 
#    z 0.000000 0.000000 1.921090 
# 
# From -- ./inp_files/15350.got.cif
#   From: 2010.05.17/outbox.cif.g08.bks.cpg/sg54_8_cif.got.tgz:15350.got - 2010.06.03 13:09:01.
