data_PCOD9423377
_publ_section_title
;
Structure prediction by ZEFSAII (Michael W. Deem and Ramdas Pophale) SiO2 
 PCOD9423377
Probable space group: P C C A
;
_chemical_formula_sum "Si O2"
_cell_formula_units_Z 60
_cell_length_a 25.068067
_cell_length_b 8.343063
_cell_length_c 12.961801
_cell_angle_alpha 90.000000
_cell_angle_beta 90.000000
_cell_angle_gamma 90.000000
_cell_volume 2710.888900
_symmetry_space_group_name_H-M "P C C A"
_symmetry_group_IT_number 54
_symmetry_cell_setting 'orthorhombic'
loop_
_space_group_symop_operation_xyz
x,y,z
1/2-x,-y,z
1/2+x,-y,1/2-z
-x,y,1/2-z
-x,-y,-z
1/2+x,y,-z
1/2-x,y,1/2+z
x,-y,1/2+z
loop_
_atom_site_type_symbol
_atom_site_label
_atom_site_fract_x
_atom_site_fract_y
_atom_site_fract_z
Si Si1 0.344820 0.933122 0.310606
Si Si2 0.278945 0.263556 0.976138
Si Si3 0.690390 0.535346 0.840060
Si Si4 0.922987 0.443946 0.516235
Si Si5 0.666858 0.711874 0.641186
Si Si6 0.594992 0.702981 0.319308
Si Si7 0.250000 0.000000 0.647463
Si Si8 0.474638 0.419695 0.157587
O O1 0.320609 0.815151 0.397154
O O2 0.395295 0.853735 0.253014
O O3 0.353416 0.105400 0.363322
O O4 0.299187 0.960335 0.223210
O O5 0.303285 0.407563 0.042780
O O6 0.262840 0.143309 0.068837
O O7 0.225203 0.295683 0.910953
O O8 0.750000 0.500000 0.803025
O O9 0.668858 0.667287 0.761526
O O10 0.652966 0.381699 0.828389
O O11 0.872803 0.413252 0.588074
O O12 0.923285 0.288655 0.438680
O O13 0.928436 0.591408 0.432648
O O14 0.974538 0.449142 0.586477
O O15 0.552870 0.569614 0.281804
O O16 0.500000 0.313150 0.250000
#
# Coordination Sequence:
#
# PCOD9423377 Si02
#       8
#     8   8   8   8   8   8   4   8
#     4  12  23  39  64  94 133 190 218 272 331 402
#     4  12  23  36  59  88 136 181 225 261 319 387
#     4  12  25  37  56  92 133 174 217 273 313 391
#     4   9  21  38  66  95 124 164 212 281 336 394
#     4  12  22  39  62  94 133 176 227 269 330 406
#     4  10  23  40  63  95 127 170 219 267 336 402
#     4  12  18  40  56  82 130 186 220 250 320 384
#     4   9  19  41  69  96 120 163 213 276 349 401
#
# _framework density 22.132961000000002
#
# number of rings (size 3 to 8) (size 9 to 14) (size 15 to 20)
#    0.800    0.267    4.000    4.000    0.000    4.800 
#    0.000    0.000    0.000    3.200    0.000    0.000 
#    0.000    0.000    0.000    0.000    0.000    0.000 
#
# Total GULP energy -334142.116046 kJ/mol
# GULP energy per Si atom -5569.035267 kJ/mol
# Density = 2.208259 g / cm^3
# Si number density = 22.132961 Si / 1000 Ang^3
#
#
#
# Elastic Constant Matrix: (Units=GPa)
#
#
# Indices 1 2 3 4 5 6 
#
# 1 89.1917 23.3540 24.1751 0.0000 0.0000 0.0000
# 2 23.3540 60.5227 23.4737 0.0000 0.0000 0.0000
# 3 24.1751 23.4737 127.6182 0.0000 0.0000 0.0000
# 4 0.0000 0.0000 0.0000 22.7624 0.0000 0.0000
# 5 0.0000 0.0000 0.0000 0.0000 39.2161 0.0000
# 6 0.0000 0.0000 0.0000 0.0000 0.0000 13.8149
#
#
#
# Elastic Compliance Matrix: (Units=1/GPa)
#
#
# Indices 1 2 3 4 5 6 
#
# 1 0.012779 -0.004299 -0.001630 0.000000 0.000000 0.000000
# 2 -0.004299 0.019238 -0.002724 0.000000 0.000000 0.000000
# 3 -0.001630 -0.002724 0.008646 0.000000 0.000000 0.000000
# 4 0.000000 0.000000 0.000000 0.043932 0.000000 0.000000
# 5 0.000000 0.000000 0.000000 0.000000 0.025500 0.000000
# 6 0.000000 0.000000 0.000000 0.000000 0.000000 0.072386
#
#
# Mechanical properties :
#
#
# Convention : Reuss Voigt Hill
#
# Bulk Modulus (GPa) = 42.81437 46.59315 44.70376
# Shear Modulus (GPa) = 24.08794 28.91400 26.50097
#
# Velocity S-wave (km/s) = 3.30256 3.61831 3.46403
# Velocity P-wave (km/s) = 5.82484 6.20914 6.02005
#
# Compressibility (1/GPa) = 0.02335664
#
# Stress axis : x y z
#
# Youngs Moduli (GPa) = 78.25178 51.98004 115.66370
#
# Poissons Ratio (x) = 0.22346 0.18854
# Poissons Ratio (y) = 0.33640 0.31510
# Poissons Ratio (z) = 0.12756 0.14161
#
# Static dielectric constant tensor:
#      x y z
#    x 1.906240 0.000000 0.000000 
#    y 0.000000 1.873800 0.000000 
#    z 0.000000 0.000000 1.860070 
# 
# From -- ./inp_files/14961.got.cif
#   From: 2010.05.17/outbox.cif.g08.bks.cpg/sg54_8_cif.got.tgz:14961.got - 2010.06.03 13:09:01.
