data_PCOD9423853
_publ_section_title
;
Structure prediction by ZEFSAII (Michael W. Deem and Ramdas Pophale) SiO2 
 PCOD9423853
Probable space group: P C C A
;
_chemical_formula_sum "Si O2"
_cell_formula_units_Z 32
_cell_length_a 8.713286
_cell_length_b 10.580760
_cell_length_c 14.510106
_cell_angle_alpha 90.000000
_cell_angle_beta 90.000000
_cell_angle_gamma 90.000000
_cell_volume 1337.732930
_symmetry_space_group_name_H-M "P C C A"
_symmetry_group_IT_number 54
_symmetry_cell_setting 'orthorhombic'
loop_
_space_group_symop_operation_xyz
x,y,z
1/2-x,-y,z
1/2+x,-y,1/2-z
-x,y,1/2-z
-x,-y,-z
1/2+x,y,-z
1/2-x,y,1/2+z
x,-y,1/2+z
loop_
_atom_site_type_symbol
_atom_site_label
_atom_site_fract_x
_atom_site_fract_y
_atom_site_fract_z
Si Si1 0.074327 0.380479 0.952476
Si Si2 0.000000 0.308367 0.750000
Si Si3 0.750000 0.000000 0.884359
Si Si4 0.343498 0.208621 0.968755
Si Si5 0.662042 0.818597 0.239256
O O1 0.025358 0.381260 0.845667
O O2 0.251640 0.342734 0.961332
O O3 0.000000 0.500000 0.000000
O O4 0.010696 0.255555 0.003891
O O5 0.166869 0.237554 0.738381
O O6 0.637761 0.068319 0.811728
O O7 0.805567 0.109338 0.952140
O O8 0.325576 0.149225 0.868330
O O9 0.500000 0.740625 0.250000
#
# Coordination Sequence:
#
# PCOD9423853 Si02
#       5
#     8   4   4   8   8
#     4  11  24  49  72 105 144 189 245 309 368 438
#     4  10  24  50  72 106 148 184 254 306 366 442
#     4  12  24  44  72 106 154 190 240 312 362 448
#     4  11  25  44  73 108 141 193 245 297 375 440
#     4  11  25  44  72 106 146 194 242 300 370 441
#
# _framework density 23.921068000000002
#
# number of rings (size 3 to 8) (size 9 to 14) (size 15 to 20)
#    0.000    1.000    2.500    3.000    1.750    4.000 
#    6.750    2.500    0.000    0.000    0.000    0.000 
#    0.000    0.000    0.000    0.000    0.000    0.000 
#
# Total GULP energy -178289.149952 kJ/mol
# GULP energy per Si atom -5571.535936 kJ/mol
# Density = 2.386662 g / cm^3
# Si number density = 23.921068 Si / 1000 Ang^3
#
#
#
# Elastic Constant Matrix: (Units=GPa)
#
#
# Indices 1 2 3 4 5 6 
#
# 1 152.2464 39.5096 41.1785 0.0000 0.0000 0.0000
# 2 39.5096 84.5535 62.4678 0.0000 0.0000 0.0000
# 3 41.1785 62.4678 207.7276 0.0000 0.0000 0.0000
# 4 0.0000 0.0000 0.0000 27.3312 0.0000 0.0000
# 5 0.0000 0.0000 0.0000 0.0000 21.1498 0.0000
# 6 0.0000 0.0000 0.0000 0.0000 0.0000 13.3694
#
#
#
# Elastic Compliance Matrix: (Units=1/GPa)
#
#
# Indices 1 2 3 4 5 6 
#
# 1 0.007525 -0.003104 -0.000558 0.000000 0.000000 0.000000
# 2 -0.003104 0.016485 -0.004342 0.000000 0.000000 0.000000
# 3 -0.000558 -0.004342 0.006230 0.000000 0.000000 0.000000
# 4 0.000000 0.000000 0.000000 0.036588 0.000000 0.000000
# 5 0.000000 0.000000 0.000000 0.000000 0.047282 0.000000
# 6 0.000000 0.000000 0.000000 0.000000 0.000000 0.074798
#
#
# Mechanical properties :
#
#
# Convention : Reuss Voigt Hill
#
# Bulk Modulus (GPa) = 70.26401 81.20438 75.73420
# Shear Modulus (GPa) = 23.84811 32.46152 28.15482
#
# Velocity S-wave (km/s) = 3.16088 3.68778 3.43445
# Velocity P-wave (km/s) = 6.53900 7.22174 6.88883
#
# Compressibility (1/GPa) = 0.01423204
#
# Stress axis : x y z
#
# Youngs Moduli (GPa) = 132.89504 60.66114 160.50225
#
# Poissons Ratio (x) = 0.18827 0.08961
# Poissons Ratio (y) = 0.41245 0.69692
# Poissons Ratio (z) = 0.07420 0.26340
#
# Static dielectric constant tensor:
#      x y z
#    x 2.222510 0.000000 0.000000 
#    y 0.000000 1.948620 0.000000 
#    z 0.000000 0.000000 1.849610 
# 
# From -- ./inp_files/11258.got.cif
#   From: 2010.05.17/outbox.cif.g08.bks.cpg/sg54_6_cif.got.tgz:11258.got - 2010.06.03 13:09:01.
