data_PCOD9423094
_publ_section_title
;
Structure prediction by ZEFSAII (Michael W. Deem and Ramdas Pophale) SiO2 
 PCOD9423094
Probable space group: P C C A
;
_chemical_formula_sum "Si O2"
_cell_formula_units_Z 64
_cell_length_a 21.701600
_cell_length_b 15.398519
_cell_length_c 9.679998
_cell_angle_alpha 90.000000
_cell_angle_beta 90.000000
_cell_angle_gamma 90.000000
_cell_volume 3234.789131
_symmetry_space_group_name_H-M "P C C A"
_symmetry_group_IT_number 54
_symmetry_cell_setting 'orthorhombic'
loop_
_space_group_symop_operation_xyz
x,y,z
1/2-x,-y,z
1/2+x,-y,1/2-z
-x,y,1/2-z
-x,-y,-z
1/2+x,y,-z
1/2-x,y,1/2+z
x,-y,1/2+z
loop_
_atom_site_type_symbol
_atom_site_label
_atom_site_fract_x
_atom_site_fract_y
_atom_site_fract_z
Si Si1 0.929708 0.473369 0.265834
Si Si2 0.943662 0.718139 0.852649
Si Si3 0.615718 0.606342 0.977459
Si Si4 0.778140 0.263576 0.025795
Si Si5 0.631948 0.893761 0.941270
Si Si6 0.022875 0.235624 0.594168
Si Si7 0.319673 0.978239 0.288055
Si Si8 0.186922 0.789077 0.684726
O O1 0.934704 0.385438 0.356988
O O2 0.889310 0.542567 0.347429
O O3 0.000000 0.506569 0.250000
O O4 0.903870 0.443817 0.117348
O O5 0.882513 0.759079 0.790875
O O6 0.000000 0.734168 0.750000
O O7 0.963339 0.759838 0.996277
O O8 0.682282 0.650550 0.996380
O O9 0.566059 0.683263 0.951491
O O10 0.819089 0.184073 0.965362
O O11 0.712980 0.254108 0.952508
O O12 0.773331 0.247000 0.188180
O O13 0.565286 0.849222 0.927886
O O14 0.650918 0.946861 0.805256
O O15 0.640318 0.952709 0.078121
O O16 0.000000 0.242996 0.750000
O O17 0.312549 0.892700 0.191864
O O18 0.250000 0.000000 0.334611
#
# Coordination Sequence:
#
# PCOD9423094 Si02
#       8
#     8   8   8   8   8   8   8   8
#     4  11  21  37  66  97 126 161 221 265 318 375
#     4  11  21  43  66  93 130 173 213 262 322 394
#     4  11  22  40  64  95 129 162 213 274 316 383
#     4  10  22  42  61  92 129 166 209 266 329 387
#     4  10  23  41  62  97 130 160 215 274 320 385
#     4  11  24  42  63  95 134 173 213 262 329 395
#     4  11  21  38  67  97 123 161 218 273 320 372
#     4  11  23  40  68  93 126 171 216 266 326 390
#
# _framework density 19.784908000000001
#
# number of rings (size 3 to 8) (size 9 to 14) (size 15 to 20)
#    0.000    1.250    5.000    2.625    3.500    3.000 
#    0.000    3.750    0.000    0.000    0.000    0.000 
#    0.000    0.000    0.000    0.000    0.000    0.000 
#
# Total GULP energy -357665.488390 kJ/mol
# GULP energy per Si atom -5588.523256 kJ/mol
# Density = 1.973988 g / cm^3
# Si number density = 19.784908 Si / 1000 Ang^3
#
#
#
# Elastic Constant Matrix: (Units=GPa)
#
#
# Indices 1 2 3 4 5 6 
#
# 1 28.3537 9.0364 10.1260 0.0000 0.0000 0.0000
# 2 9.0364 54.2807 43.1865 0.0000 0.0000 0.0000
# 3 10.1260 43.1865 108.5451 0.0000 0.0000 0.0000
# 4 0.0000 0.0000 0.0000 1.9060 0.0000 0.0000
# 5 0.0000 0.0000 0.0000 0.0000 17.3120 0.0000
# 6 0.0000 0.0000 0.0000 0.0000 0.0000 11.7550
#
#
#
# Elastic Compliance Matrix: (Units=1/GPa)
#
#
# Indices 1 2 3 4 5 6 
#
# 1 0.037407 -0.005049 -0.001481 0.000000 0.000000 0.000000
# 2 -0.005049 0.027637 -0.010525 0.000000 0.000000 0.000000
# 3 -0.001481 -0.010525 0.013538 0.000000 0.000000 0.000000
# 4 0.000000 0.000000 0.000000 0.524657 0.000000 0.000000
# 5 0.000000 0.000000 0.000000 0.000000 0.057763 0.000000
# 6 0.000000 0.000000 0.000000 0.000000 0.000000 0.085070
#
#
# Mechanical properties :
#
#
# Convention : Reuss Voigt Hill
#
# Bulk Modulus (GPa) = 22.48573 35.09747 28.79160
# Shear Modulus (GPa) = 6.28926 14.78331 10.53628
#
# Velocity S-wave (km/s) = 1.78486 2.73646 2.31019
# Velocity P-wave (km/s) = 3.95441 5.26900 4.65831
#
# Compressibility (1/GPa) = 0.04447265
#
# Stress axis : x y z
#
# Youngs Moduli (GPa) = 26.73313 36.18330 73.86415
#
# Poissons Ratio (x) = 0.18270 0.10937
# Poissons Ratio (y) = 0.13498 0.77741
# Poissons Ratio (z) = 0.03958 0.38082
#
# Static dielectric constant tensor:
#      x y z
#    x 1.723640 0.000000 0.000000 
#    y 0.000000 1.700030 0.000000 
#    z 0.000000 0.000000 1.620120 
# 
# From -- ./inp_files/5317.got.cif
#   From: 2010.05.17/outbox.cif.g08.bks.cpg/sg54_3_cif.got.tgz:5317.got - 2010.06.03 13:09:01.
