data_PCOD9423158
_publ_section_title
;
Structure prediction by ZEFSAII (Michael W. Deem and Ramdas Pophale) SiO2 
 PCOD9423158
Probable space group: P C C A
;
_chemical_formula_sum "Si O2"
_cell_formula_units_Z 36
_cell_length_a 10.590313
_cell_length_b 12.973292
_cell_length_c 12.559255
_cell_angle_alpha 90.000000
_cell_angle_beta 90.000000
_cell_angle_gamma 90.000000
_cell_volume 1725.531403
_symmetry_space_group_name_H-M "P C C A"
_symmetry_group_IT_number 54
_symmetry_cell_setting 'orthorhombic'
loop_
_space_group_symop_operation_xyz
x,y,z
1/2-x,-y,z
1/2+x,-y,1/2-z
-x,y,1/2-z
-x,-y,-z
1/2+x,y,-z
1/2-x,y,1/2+z
x,-y,1/2+z
loop_
_atom_site_type_symbol
_atom_site_label
_atom_site_fract_x
_atom_site_fract_y
_atom_site_fract_z
Si Si1 0.965786 0.687425 0.532620
Si Si2 0.731267 0.613360 0.398408
Si Si3 0.500000 0.042402 0.750000
Si Si4 0.318142 0.781433 0.278776
Si Si5 0.442909 0.156425 0.361562
O O1 0.848380 0.630523 0.477742
O O2 0.920025 0.724197 0.647853
O O3 0.095566 0.623794 0.543283
O O4 0.996572 0.787513 0.461112
O O5 0.750000 0.500000 0.349913
O O6 0.729930 0.703315 0.310643
O O7 0.618382 0.116467 0.769853
O O8 0.528923 0.964803 0.652531
O O9 0.204447 0.818315 0.354248
O O10 0.500000 0.200063 0.250000
#
# Coordination Sequence:
#
# PCOD9423158 Si02
#       5
#     8   8   4   8   8
#     4  12  24  46  72 101 141 183 238 291 352 429
#     4  12  26  46  70 101 136 186 236 300 354 413
#     4  10  22  42  70 100 138 188 234 284 358 418
#     4  12  23  46  68 100 147 176 240 293 350 424
#     4  10  23  42  69 100 139 186 223 293 348 421
#
# _framework density 20.863139
#
# number of rings (size 3 to 8) (size 9 to 14) (size 15 to 20)
#    0.667    0.000    6.667    1.333    0.000    1.778 
#    8.000    0.000    0.000    0.000    0.000    0.000 
#    0.000    0.000    0.000    0.000    0.000    0.000 
#
# Total GULP energy -201056.046763 kJ/mol
# GULP energy per Si atom -5584.890188 kJ/mol
# Density = 2.081565 g / cm^3
# Si number density = 20.863139 Si / 1000 Ang^3
#
#
#
# Elastic Constant Matrix: (Units=GPa)
#
#
# Indices 1 2 3 4 5 6 
#
# 1 136.6210 46.3518 20.9343 0.0000 0.0000 0.0000
# 2 46.3518 104.3574 24.8567 0.0000 0.0000 0.0000
# 3 20.9343 24.8567 66.0812 0.0000 0.0000 0.0000
# 4 0.0000 0.0000 0.0000 16.5945 0.0000 0.0000
# 5 0.0000 0.0000 0.0000 0.0000 36.8820 0.0000
# 6 0.0000 0.0000 0.0000 0.0000 0.0000**********
#
#
#
# Elastic Compliance Matrix: (Units=1/GPa)
#
#
# Indices 1 2 3 4 5 6 
#
# 1 0.008741 -0.003540 -0.001437 0.000000 0.000000 0.000000
# 2 -0.003540 0.011959 -0.003377 0.000000 0.000000 0.000000
# 3 -0.001437 -0.003377 0.016859 0.000000 0.000000 0.000000
# 4 0.000000 0.000000 0.000000 0.060261 0.000000 0.000000
# 5 0.000000 0.000000 0.000000 0.000000 0.027114 0.000000
# 6 0.000000 0.000000 0.000000 0.000000 0.000000 -0.000077
#
#
# Mechanical properties :
#
#
# Convention : Reuss Voigt Hill
#
# Bulk Modulus (GPa) = 47.96262 54.59390 51.27826
# Shear Modulus (GPa) = 33.66673 -2560.59870 -1263.46599
#
# Velocity S-wave (km/s) = 4.02144 -35.07130 -24.63558
# Velocity P-wave (km/s) = 6.67845 40.17176 28.01043
#
# Compressibility (1/GPa) = 0.02084957
#
# Stress axis : x y z
#
# Youngs Moduli (GPa) = 114.40606 83.61799 59.31697
#
# Poissons Ratio (x) = 0.29600 0.08527
# Poissons Ratio (y) = 0.40499 0.20032
# Poissons Ratio (z) = 0.16446 0.28238
#
# Static dielectric constant tensor:
#      x y z
#    x 1.800080 0.000000 0.000000 
#    y 0.000000 1.734150 0.000000 
#    z 0.000000 0.000000 1.727850 
# 
# From -- ./inp_files/7415.got.cif
#   From: 2010.05.17/outbox.cif.g08.bks.cpg/sg54_4_cif.got.tgz:7415.got - 2010.06.03 13:09:01.
