data_PCOD9423179
_publ_section_title
;
Structure prediction by ZEFSAII (Michael W. Deem and Ramdas Pophale) SiO2 
 PCOD9423179
Probable space group: P C C A
;
_chemical_formula_sum "Si O2"
_cell_formula_units_Z 40
_cell_length_a 18.019803
_cell_length_b 5.064415
_cell_length_c 16.208981
_cell_angle_alpha 90.000000
_cell_angle_beta 90.000000
_cell_angle_gamma 90.000000
_cell_volume 1479.227726
_symmetry_space_group_name_H-M "P C C A"
_symmetry_group_IT_number 54
_symmetry_cell_setting 'orthorhombic'
loop_
_space_group_symop_operation_xyz
x,y,z
1/2-x,-y,z
1/2+x,-y,1/2-z
-x,y,1/2-z
-x,-y,-z
1/2+x,y,-z
1/2-x,y,1/2+z
x,-y,1/2+z
loop_
_atom_site_type_symbol
_atom_site_label
_atom_site_fract_x
_atom_site_fract_y
_atom_site_fract_z
Si Si1 0.112632 0.285911 0.831741
Si Si2 0.651583 0.331676 0.794204
Si Si3 0.250000 0.500000 0.061624
Si Si4 0.000000 0.000000 0.000000
Si Si5 0.750000 0.000000 0.666739
Si Si6 0.500000 0.926485 0.250000
Si Si7 0.100310 0.472590 0.485953
O O1 0.139767 0.372013 0.741105
O O2 0.042466 0.099479 0.819028
O O3 0.089319 0.534294 0.886412
O O4 0.184590 0.163155 0.876347
O O5 0.700535 0.324052 0.875659
O O6 0.700303 0.188712 0.724534
O O7 0.567533 0.225764 0.793539
O O8 0.315306 0.396188 0.004858
O O9 0.945693 0.238659 0.974540
O O10 0.931065 0.763845 0.991979
#
# Coordination Sequence:
#
# PCOD9423179 Si02
#       7
#     8   8   4   4   4   4   8
#     4  11  24  45  74 112 148 211 270 332 400 492
#     4  11  24  48  71 115 153 205 267 340 401 488
#     4  12  28  48  80 118 168 206 276 336 434 476
#     4  10  28  56  72 114 162 204 268 320 418 486
#     4  10  22  42  76 102 152 192 266 338 390 460
#     4  10  26  42  80 108 158 210 274 338 410 480
#     4  11  29  50  83 113 160 218 261 340 405 514
#
# _framework density 27.041136000000002
#
# number of rings (size 3 to 8) (size 9 to 14) (size 15 to 20)
#    0.000    1.200    2.000    0.600   11.200    7.200 
#    0.000    0.000    0.000    0.000    0.000    0.000 
#    0.000    0.000    0.000    0.000    0.000    0.000 
#
# Total GULP energy -222670.557276 kJ/mol
# GULP energy per Si atom -5566.763932 kJ/mol
# Density = 2.697959 g / cm^3
# Si number density = 27.041136 Si / 1000 Ang^3
#
#
#
# Elastic Constant Matrix: (Units=GPa)
#
#
# Indices 1 2 3 4 5 6 
#
# 1 285.8956 61.6304 43.0917 0.0000 0.0000 0.0000
# 2 61.6304 122.9832 20.0087 0.0000 0.0000 0.0000
# 3 43.0917 20.0087 61.0200 0.0000 0.0000 0.0000
# 4 0.0000 0.0000 0.0000 -3.7742 0.0000 0.0000
# 5 0.0000 0.0000 0.0000 0.0000 12.6436 0.0000
# 6 0.0000 0.0000 0.0000 0.0000 0.0000 48.4194
#
#
#
# Elastic Compliance Matrix: (Units=1/GPa)
#
#
# Indices 1 2 3 4 5 6 
#
# 1 0.004236 -0.001728 -0.002425 0.000000 0.000000 0.000000
# 2 -0.001728 0.009295 -0.001827 0.000000 0.000000 0.000000
# 3 -0.002425 -0.001827 0.018699 0.000000 0.000000 0.000000
# 4 0.000000 0.000000 0.000000 -0.264960 0.000000 0.000000
# 5 0.000000 0.000000 0.000000 0.000000 0.079091 0.000000
# 6 0.000000 0.000000 0.000000 0.000000 0.000000 0.020653
#
#
# Mechanical properties :
#
#
# Convention : Reuss Voigt Hill
#
# Bulk Modulus (GPa) = 49.33485 79.92892 64.63189
# Shear Modulus (GPa) = -43.75644 34.46897 -4.64373
#
# Velocity S-wave (km/s) = -4.02698 3.57415 -1.31187
# Velocity P-wave (km/s) = 1.82705 6.83046 4.65387
#
# Compressibility (1/GPa) = 0.02026965
#
# Stress axis : x y z
#
# Youngs Moduli (GPa) = 236.08442 107.59020 53.47754
#
# Poissons Ratio (x) = 0.18594 0.12966
# Poissons Ratio (y) = 0.40800 0.09772
# Poissons Ratio (z) = 0.57240 0.19660
#
# Static dielectric constant tensor:
#      x y z
#    x 2.093670 0.000000 0.000000 
#    y 0.000000 2.212520 0.000000 
#    z 0.000000 0.000000 2.169500 
# 
# From -- ./inp_files/21825.got.cif
#   From: 2010.05.17/outbox.cif.g08.bks.cpg/sg54_11_cif.got.tgz:21825.got - 2010.06.03 13:09:01.
