data_PCOD9423869
_publ_section_title
;
Structure prediction by ZEFSAII (Michael W. Deem and Ramdas Pophale) SiO2 
 PCOD9423869
Probable space group: P C C A
;
_chemical_formula_sum "Si O2"
_cell_formula_units_Z 40
_cell_length_a 17.146551
_cell_length_b 5.121659
_cell_length_c 18.744118
_cell_angle_alpha 90.000000
_cell_angle_beta 90.000000
_cell_angle_gamma 90.000000
_cell_volume 1646.085711
_symmetry_space_group_name_H-M "P C C A"
_symmetry_group_IT_number 54
_symmetry_cell_setting 'orthorhombic'
loop_
_space_group_symop_operation_xyz
x,y,z
1/2-x,-y,z
1/2+x,-y,1/2-z
-x,y,1/2-z
-x,-y,-z
1/2+x,y,-z
1/2-x,y,1/2+z
x,-y,1/2+z
loop_
_atom_site_type_symbol
_atom_site_label
_atom_site_fract_x
_atom_site_fract_y
_atom_site_fract_z
Si Si1 0.662862 0.375738 0.089939
Si Si2 0.834233 0.981865 0.222485
Si Si3 0.918983 0.914676 0.356134
Si Si4 0.660703 0.583045 0.421713
Si Si5 0.047363 0.329351 0.320078
O O1 0.750000 0.500000 0.100011
O O2 0.667804 0.133155 0.143507
O O3 0.579695 0.505579 0.113931
O O4 0.656955 0.345298 0.005325
O O5 0.750000 0.000000 0.254426
O O6 0.891551 0.841236 0.276611
O O7 0.868941 0.266060 0.214060
O O8 0.864907 0.154591 0.381811
O O9 0.001957 0.067394 0.347906
O O10 0.898368 0.657112 0.402128
O O11 0.750000 0.500000 0.404967
O O12 0.000000 0.418296 0.250000
#
# Coordination Sequence:
#
# PCOD9423869 Si02
#       5
#     8   8   8   8   8
#     4  11  25  43  76 103 141 188 243 295 359 432
#     4  11  23  42  72 100 138 188 244 291 356 429
#     4  11  27  46  72 106 147 190 235 301 364 427
#     4  11  26  47  71 105 146 190 240 294 358 434
#     4  10  25  44  66 106 140 183 240 301 355 423
#
# _framework density 24.300072
#
# number of rings (size 3 to 8) (size 9 to 14) (size 15 to 20)
#    0.000    1.200    2.000    1.800   11.200    3.200 
#    0.000    0.000    0.000    0.000    0.000    0.000 
#    0.000    0.000    0.000    0.000    0.000    0.000 
#
# Total GULP energy -223016.850681 kJ/mol
# GULP energy per Si atom -5575.421267 kJ/mol
# Density = 2.424476 g / cm^3
# Si number density = 24.300072 Si / 1000 Ang^3
#
#
#
# Elastic Constant Matrix: (Units=GPa)
#
#
# Indices 1 2 3 4 5 6 
#
# 1 136.5839 42.1965 30.3632 0.0000 0.0000 0.0000
# 2 42.1965 114.1753 37.1070 0.0000 0.0000 0.0000
# 3 30.3632 37.1070 102.9811 0.0000 0.0000 0.0000
# 4 0.0000 0.0000 0.0000 30.2537 0.0000 0.0000
# 5 0.0000 0.0000 0.0000 0.0000 29.7693 0.0000
# 6 0.0000 0.0000 0.0000 0.0000 0.0000 48.5486
#
#
#
# Elastic Compliance Matrix: (Units=1/GPa)
#
#
# Indices 1 2 3 4 5 6 
#
# 1 0.008479 -0.002629 -0.001553 0.000000 0.000000 0.000000
# 2 -0.002629 0.010735 -0.003093 0.000000 0.000000 0.000000
# 3 -0.001553 -0.003093 0.011283 0.000000 0.000000 0.000000
# 4 0.000000 0.000000 0.000000 0.033054 0.000000 0.000000
# 5 0.000000 0.000000 0.000000 0.000000 0.033592 0.000000
# 6 0.000000 0.000000 0.000000 0.000000 0.000000 0.020598
#
#
# Mechanical properties :
#
#
# Convention : Reuss Voigt Hill
#
# Bulk Modulus (GPa) = 62.70541 63.67486 63.19014
# Shear Modulus (GPa) = 36.33570 37.98590 37.16080
#
# Velocity S-wave (km/s) = 3.87110 3.95802 3.91480
# Velocity P-wave (km/s) = 6.77061 6.86647 6.81871
#
# Compressibility (1/GPa) = 0.01594759
#
# Stress axis : x y z
#
# Youngs Moduli (GPa) = 117.94032 93.15039 88.63026
#
# Poissons Ratio (x) = 0.24489 0.13761
# Poissons Ratio (y) = 0.31006 0.27414
# Poissons Ratio (z) = 0.18312 0.28812
#
# Static dielectric constant tensor:
#      x y z
#    x 1.999440 0.000000 0.000000 
#    y 0.000000 2.048980 0.000000 
#    z 0.000000 0.000000 1.991010 
# 
# From -- ./inp_files/18340.got.cif
#   From: 2010.05.17/outbox.cif.g08.bks.cpg/sg54_10_cif.got.tgz:18340.got - 2010.06.03 13:09:01.
