data_PCOD9423294
_publ_section_title
;
Structure prediction by ZEFSAII (Michael W. Deem and Ramdas Pophale) SiO2 
 PCOD9423294
Probable space group: P C C A
;
_chemical_formula_sum "Si O2"
_cell_formula_units_Z 32
_cell_length_a 21.454421
_cell_length_b 5.055526
_cell_length_c 14.059683
_cell_angle_alpha 90.000000
_cell_angle_beta 90.000000
_cell_angle_gamma 90.000000
_cell_volume 1524.960785
_symmetry_space_group_name_H-M "P C C A"
_symmetry_group_IT_number 54
_symmetry_cell_setting 'orthorhombic'
loop_
_space_group_symop_operation_xyz
x,y,z
1/2-x,-y,z
1/2+x,-y,1/2-z
-x,y,1/2-z
-x,-y,-z
1/2+x,y,-z
1/2-x,y,1/2+z
x,-y,1/2+z
loop_
_atom_site_type_symbol
_atom_site_label
_atom_site_fract_x
_atom_site_fract_y
_atom_site_fract_z
Si Si1 0.030380 0.312233 0.579696
Si Si2 0.082023 0.929877 0.903985
Si Si3 0.612441 0.383204 0.770311
Si Si4 0.819377 0.108691 0.729346
O O1 0.064217 0.486630 0.658236
O O2 0.000000 0.500000 0.500000
O O3 0.977932 0.111860 0.618112
O O4 0.077989 0.145202 0.513743
O O5 0.145252 0.074993 0.872013
O O6 0.081926 0.677675 0.832878
O O7 0.668579 0.592510 0.759844
O O8 0.640267 0.095182 0.794352
O O9 0.750000 0.000000 0.725843
#
# Coordination Sequence:
#
# PCOD9423294 Si02
#       4
#     8   8   8   8
#     4  11  23  41  65 103 142 173 229 288 349 419
#     4   9  24  38  69  98 136 179 221 287 343 408
#     4  10  24  42  68  97 135 179 226 279 348 407
#     4  10  22  45  70  92 133 184 231 276 337 414
#
# _framework density 20.984147
#
# number of rings (size 3 to 8) (size 9 to 14) (size 15 to 20)
#    1.500    0.500    0.000    2.250    7.000    6.000 
#    0.000    1.250   11.000    0.000    0.000    0.000 
#    0.000    0.000    0.000    0.000    0.000    0.000 
#
# Total GULP energy -178449.967614 kJ/mol
# GULP energy per Si atom -5576.561488 kJ/mol
# Density = 2.093639 g / cm^3
# Si number density = 20.984147 Si / 1000 Ang^3
#
#
#
# Elastic Constant Matrix: (Units=GPa)
#
#
# Indices 1 2 3 4 5 6 
#
# 1 93.2414 21.3723 49.9329 0.0000 0.0000 0.0000
# 2 21.3723 102.6124 30.0078 0.0000 0.0000 0.0000
# 3 49.9329 30.0078 66.9214 0.0000 0.0000 0.0000
# 4 0.0000 0.0000 0.0000 41.9179 0.0000 0.0000
# 5 0.0000 0.0000 0.0000 0.0000 13.8254 0.0000
# 6 0.0000 0.0000 0.0000 0.0000 0.0000 39.4891
#
#
#
# Elastic Compliance Matrix: (Units=1/GPa)
#
#
# Indices 1 2 3 4 5 6 
#
# 1 0.017866 0.000204 -0.013422 0.000000 0.000000 0.000000
# 2 0.000204 0.011219 -0.005183 0.000000 0.000000 0.000000
# 3 -0.013422 -0.005183 0.027282 0.000000 0.000000 0.000000
# 4 0.000000 0.000000 0.000000 0.023856 0.000000 0.000000
# 5 0.000000 0.000000 0.000000 0.000000 0.072331 0.000000
# 6 0.000000 0.000000 0.000000 0.000000 0.000000 0.025323
#
#
# Mechanical properties :
#
#
# Convention : Reuss Voigt Hill
#
# Bulk Modulus (GPa) = 51.11249 51.71126 51.41187
# Shear Modulus (GPa) = 22.60407 29.81063 26.20735
#
# Velocity S-wave (km/s) = 3.28563 3.77321 3.53783
# Velocity P-wave (km/s) = 6.22931 6.60903 6.42198
#
# Compressibility (1/GPa) = 0.01956469
#
# Stress axis : x y z
#
# Youngs Moduli (GPa) = 55.97263 89.13832 36.65487
#
# Poissons Ratio (x) = -0.01818 0.49198
# Poissons Ratio (y) = -0.01142 0.18997
# Poissons Ratio (z) = 0.75126 0.46197
#
# Static dielectric constant tensor:
#      x y z
#    x 1.757290 0.000000 0.000000 
#    y 0.000000 1.824470 0.000000 
#    z 0.000000 0.000000 1.747690 
# 
# From -- ./inp_files/14395.got.cif
#   From: 2010.05.17/outbox.cif.g08.bks.cpg/sg54_8_cif.got.tgz:14395.got - 2010.06.03 13:09:01.
