data_PCOD9423091
_publ_section_title
;
Structure prediction by ZEFSAII (Michael W. Deem and Ramdas Pophale) SiO2 
 PCOD9423091
Probable space group: P C C A
;
_chemical_formula_sum "Si O2"
_cell_formula_units_Z 24
_cell_length_a 16.821908
_cell_length_b 11.309606
_cell_length_c 5.283732
_cell_angle_alpha 90.000000
_cell_angle_beta 90.000000
_cell_angle_gamma 90.000000
_cell_volume 1005.225531
_symmetry_space_group_name_H-M "P C C A"
_symmetry_group_IT_number 54
_symmetry_cell_setting 'orthorhombic'
loop_
_space_group_symop_operation_xyz
x,y,z
1/2-x,-y,z
1/2+x,-y,1/2-z
-x,y,1/2-z
-x,-y,-z
1/2+x,y,-z
1/2-x,y,1/2+z
x,-y,1/2+z
loop_
_atom_site_type_symbol
_atom_site_label
_atom_site_fract_x
_atom_site_fract_y
_atom_site_fract_z
Si Si1 0.281543 0.631895 0.656858
Si Si2 0.091083 0.953123 0.800387
Si Si3 0.450431 0.308096 0.990137
O O1 0.250000 0.500000 0.703172
O O2 0.269323 0.690487 0.930957
O O3 0.371456 0.622855 0.564580
O O4 0.080997 0.819284 0.892072
O O5 0.000000 0.997696 0.750000
O O6 0.128909 0.971696 0.526180
O O7 0.500000 0.357733 0.750000
O O8 0.500000 0.295518 0.250000
#
# Coordination Sequence:
#
# PCOD9423091 Si02
#       3
#     8   8   8
#     4  10  22  42  60  79 113 156 188 228 300 351
#     4   9  16  28  49  81 117 145 175 227 286 327
#     4  11  21  35  60  90 113 144 197 242 271 330
#
# _framework density 23.875240000000002
#
# number of rings (size 3 to 8) (size 9 to 14) (size 15 to 20)
#    0.000    2.000    0.000    7.000    0.000    0.000 
#    0.000   20.000    0.000    6.000    0.000    0.000 
#    0.000    0.000    0.000    0.000    0.000    0.000 
#
# Total GULP energy -133991.378224 kJ/mol
# GULP energy per Si atom -5582.974093 kJ/mol
# Density = 2.382090 g / cm^3
# Si number density = 23.875240 Si / 1000 Ang^3
#
#
#
# Elastic Constant Matrix: (Units=GPa)
#
#
# Indices 1 2 3 4 5 6 
#
# 1 54.2002 28.2148 -0.6554 0.0000 0.0000 0.0000
# 2 28.2148 40.7537 8.1203 0.0000 0.0000 0.0000
# 3 -0.6554 8.1203 189.7799 0.0000 0.0000 0.0000
# 4 0.0000 0.0000 0.0000 -0.4820 0.0000 0.0000
# 5 0.0000 0.0000 0.0000 0.0000 26.0587 0.0000
# 6 0.0000 0.0000 0.0000 0.0000 0.0000 -7.9107
#
#
#
# Elastic Compliance Matrix: (Units=1/GPa)
#
#
# Indices 1 2 3 4 5 6 
#
# 1 0.029022 -0.020285 0.000968 0.000000 0.000000 0.000000
# 2 -0.020285 0.038928 -0.001736 0.000000 0.000000 0.000000
# 3 0.000968 -0.001736 0.005347 0.000000 0.000000 0.000000
# 4 0.000000 0.000000 0.000000 -2.074724 0.000000 0.000000
# 5 0.000000 0.000000 0.000000 0.000000 0.038375 0.000000
# 6 0.000000 0.000000 0.000000 0.000000 0.000000 -0.126410
#
#
# Mechanical properties :
#
#
# Convention : Reuss Voigt Hill
#
# Bulk Modulus (GPa) = 32.06114 39.56593 35.81353
# Shear Modulus (GPa) = -2.45464 20.13680 8.84108
#
# Velocity S-wave (km/s) = -1.01506 2.90732 1.92641
# Velocity P-wave (km/s) = 3.47620 5.27995 4.47000
#
# Compressibility (1/GPa) = 0.03119041
#
# Stress axis : x y z
#
# Youngs Moduli (GPa) = 34.45701 25.68876 187.02519
#
# Poissons Ratio (x) = 0.52111 -0.18108
# Poissons Ratio (y) = 0.69897 0.32462
# Poissons Ratio (z) = -0.03336 0.04459
#
# Static dielectric constant tensor:
#      x y z
#    x 1.912420 0.000000 0.000000 
#    y 0.000000 2.006200 0.000000 
#    z 0.000000 0.000000 2.128600 
# 
# From -- ./inp_files/328.got.cif
#   From: 2010.05.17/outbox.cif.g08.bks.cpg/sg54_1_cif.got.tgz:328.got - 2010.06.03 13:09:01.
