data_PCOD9423891
_publ_section_title
;
Structure prediction by ZEFSAII (Michael W. Deem and Ramdas Pophale) SiO2 
 PCOD9423891
Probable space group: P C C A
;
_chemical_formula_sum "Si O2"
_cell_formula_units_Z 28
_cell_length_a 7.465313
_cell_length_b 7.838314
_cell_length_c 17.963387
_cell_angle_alpha 90.000000
_cell_angle_beta 90.000000
_cell_angle_gamma 90.000000
_cell_volume 1051.135986
_symmetry_space_group_name_H-M "P C C A"
_symmetry_group_IT_number 54
_symmetry_cell_setting 'orthorhombic'
loop_
_space_group_symop_operation_xyz
x,y,z
1/2-x,-y,z
1/2+x,-y,1/2-z
-x,y,1/2-z
-x,-y,-z
1/2+x,y,-z
1/2-x,y,1/2+z
x,-y,1/2+z
loop_
_atom_site_type_symbol
_atom_site_label
_atom_site_fract_x
_atom_site_fract_y
_atom_site_fract_z
Si Si1 0.100259 0.633830 0.826576
Si Si2 0.250000 0.000000 0.461759
Si Si3 0.760890 0.801413 0.896767
Si Si4 0.563213 0.136109 0.171788
O O1 0.250000 0.500000 0.854409
O O2 0.239891 0.789243 0.812026
O O3 0.000000 0.584750 0.750000
O O4 0.938907 0.697940 0.878738
O O5 0.237009 0.163495 0.515373
O O6 0.088416 0.966460 0.405706
O O7 0.588004 0.726420 0.854102
O O8 0.500000 0.061480 0.250000
O O9 0.250000 0.000000 0.133394
#
# Coordination Sequence:
#
# PCOD9423891 Si02
#       4
#     8   4   8   8
#     4  12  27  48  75 112 160 218 277 335 401 494
#     4  10  26  46  78 112 168 200 266 348 428 474
#     4  10  25  47  73 114 160 209 261 340 416 483
#     4  12  24  42  74 111 153 208 266 335 411 490
#
# _framework density 26.637844999999999
#
# number of rings (size 3 to 8) (size 9 to 14) (size 15 to 20)
#    0.857    0.000    2.857    3.429    6.000    2.286 
#    0.000    1.429    0.000    0.000    0.000    0.000 
#    0.000    0.000    0.000    0.000    0.000    0.000 
#
# Total GULP energy -156220.475346 kJ/mol
# GULP energy per Si atom -5579.302691 kJ/mol
# Density = 2.657722 g / cm^3
# Si number density = 26.637845 Si / 1000 Ang^3
#
#
#
# Elastic Constant Matrix: (Units=GPa)
#
#
# Indices 1 2 3 4 5 6 
#
# 1 270.2050 46.5734 102.2178 0.0000 0.0000 0.0000
# 2 46.5734 65.3727 44.1132 0.0000 0.0000 0.0000
# 3 102.2178 44.1132 205.3194 0.0000 0.0000 0.0000
# 4 0.0000 0.0000 0.0000 27.0582 0.0000 0.0000
# 5 0.0000 0.0000 0.0000 0.0000 51.4149 0.0000
# 6 0.0000 0.0000 0.0000 0.0000 0.0000 48.6563
#
#
#
# Elastic Compliance Matrix: (Units=1/GPa)
#
#
# Indices 1 2 3 4 5 6 
#
# 1 0.004797 -0.002112 -0.001934 0.000000 0.000000 0.000000
# 2 -0.002112 0.018821 -0.002992 0.000000 0.000000 0.000000
# 3 -0.001934 -0.002992 0.006476 0.000000 0.000000 0.000000
# 4 0.000000 0.000000 0.000000 0.036957 0.000000 0.000000
# 5 0.000000 0.000000 0.000000 0.000000 0.019450 0.000000
# 6 0.000000 0.000000 0.000000 0.000000 0.000000 0.020552
#
#
# Mechanical properties :
#
#
# Convention : Reuss Voigt Hill
#
# Bulk Modulus (GPa) = 62.43474 102.96732 82.70103
# Shear Modulus (GPa) = 39.53546 48.62540 44.08043
#
# Velocity S-wave (km/s) = 3.85669 4.27713 4.07234
# Velocity P-wave (km/s) = 6.58189 7.94546 7.29560
#
# Compressibility (1/GPa) = 0.01601673
#
# Stress axis : x y z
#
# Youngs Moduli (GPa) = 208.47901 53.13295 154.40964
#
# Poissons Ratio (x) = 0.11222 0.29866
# Poissons Ratio (y) = 0.44032 0.46202
# Poissons Ratio (z) = 0.40324 0.15898
#
# Static dielectric constant tensor:
#      x y z
#    x 2.299430 0.000000 0.000000 
#    y 0.000000 2.370760 0.000000 
#    z 0.000000 0.000000 2.010510 
# 
# From -- ./inp_files/19967.got.cif
#   From: 2010.05.17/outbox.cif.g08.bks.cpg/sg54_10_cif.got.tgz:19967.got - 2010.06.03 13:09:01.
