data_PCOD9423682
_publ_section_title
;
Structure prediction by ZEFSAII (Michael W. Deem and Ramdas Pophale) SiO2 
 PCOD9423682
Probable space group: P C C A
;
_chemical_formula_sum "Si O2"
_cell_formula_units_Z 48
_cell_length_a 25.372902
_cell_length_b 9.898818
_cell_length_c 8.571312
_cell_angle_alpha 90.000000
_cell_angle_beta 90.000000
_cell_angle_gamma 90.000000
_cell_volume 2152.785628
_symmetry_space_group_name_H-M "P C C A"
_symmetry_group_IT_number 54
_symmetry_cell_setting 'orthorhombic'
loop_
_space_group_symop_operation_xyz
x,y,z
1/2-x,-y,z
1/2+x,-y,1/2-z
-x,y,1/2-z
-x,-y,-z
1/2+x,y,-z
1/2-x,y,1/2+z
x,-y,1/2+z
loop_
_atom_site_type_symbol
_atom_site_label
_atom_site_fract_x
_atom_site_fract_y
_atom_site_fract_z
Si Si1 0.630759 0.010913 0.347087
Si Si2 0.795219 0.402633 0.579171
Si Si3 0.970563 0.619779 0.409009
Si Si4 0.868835 0.449184 0.307745
Si Si5 0.705045 0.890018 0.584925
Si Si6 0.084975 0.193172 0.375449
O O1 0.676243 0.916693 0.420864
O O2 0.586319 0.915765 0.266328
O O3 0.659171 0.095563 0.212527
O O4 0.613510 0.111640 0.484502
O O5 0.750000 0.500000 0.519278
O O6 0.844423 0.387090 0.463308
O O7 0.821628 0.468556 0.729251
O O8 0.770579 0.256690 0.602393
O O9 0.915440 0.552535 0.352908
O O10 0.964459 0.741891 0.532678
O O11 0.000000 0.660401 0.250000
O O12 0.000000 0.500000 0.500000
O O13 0.887636 0.328226 0.194634
O O14 0.750000 0.000000 0.606133
#
# Coordination Sequence:
#
# PCOD9423682 Si02
#       6
#     8   8   8   8   8   8
#     4  10  24  42  68  91 138 197 230 285 358 430
#     4  12  27  41  66 106 147 188 237 296 361 424
#     4  12  24  45  79 112 138 180 235 307 370 434
#     4  12  24  45  70 102 147 182 234 302 359 427
#     4  11  24  39  64  95 135 188 249 293 344 422
#     4  11  23  46  71 101 140 183 241 282 372 424
#
# _framework density 22.296693999999999
#
# number of rings (size 3 to 8) (size 9 to 14) (size 15 to 20)
#    0.000    0.667    5.000    2.000    4.667    2.667 
#    0.000    0.833    0.000    0.000    0.000    0.000 
#    0.000    0.000    0.000    0.000    0.000    0.000 
#
# Total GULP energy -268134.432910 kJ/mol
# GULP energy per Si atom -5586.134019 kJ/mol
# Density = 2.224595 g / cm^3
# Si number density = 22.296694 Si / 1000 Ang^3
#
#
#
# Elastic Constant Matrix: (Units=GPa)
#
#
# Indices 1 2 3 4 5 6 
#
# 1 32.4783 -8.5869 2.7352 0.0000 0.0000 0.0000
# 2 -8.5869 98.2218 5.7199 0.0000 0.0000 0.0000
# 3 2.7352 5.7199 83.5176 0.0000 0.0000 0.0000
# 4 0.0000 0.0000 0.0000 29.8751 0.0000 0.0000
# 5 0.0000 0.0000 0.0000 0.0000 54.1561 0.0000
# 6 0.0000 0.0000 0.0000 0.0000 0.0000 36.9472
#
#
#
# Elastic Compliance Matrix: (Units=1/GPa)
#
#
# Indices 1 2 3 4 5 6 
#
# 1 0.031644 0.002838 -0.001231 0.000000 0.000000 0.000000
# 2 0.002838 0.010476 -0.000810 0.000000 0.000000 0.000000
# 3 -0.001231 -0.000810 0.012069 0.000000 0.000000 0.000000
# 4 0.000000 0.000000 0.000000 0.033473 0.000000 0.000000
# 5 0.000000 0.000000 0.000000 0.000000 0.018465 0.000000
# 6 0.000000 0.000000 0.000000 0.000000 0.000000 0.027066
#
#
# Mechanical properties :
#
#
# Convention : Reuss Voigt Hill
#
# Bulk Modulus (GPa) = 17.92648 23.77268 20.84958
# Shear Modulus (GPa) = 33.29036 38.48564 35.88800
#
# Velocity S-wave (km/s) = 3.86821 4.15911 4.01629
# Velocity P-wave (km/s) = 5.29227 5.80942 5.55686
#
# Compressibility (1/GPa) = 0.05578338
#
# Stress axis : x y z
#
# Youngs Moduli (GPa) = 31.60174 95.45308 82.85464
#
# Poissons Ratio (x) = -0.27090 0.10197
# Poissons Ratio (y) = -0.08969 0.06715
# Poissons Ratio (z) = 0.03889 0.07736
#
# Static dielectric constant tensor:
#      x y z
#    x 1.826130 0.000000 0.000000 
#    y 0.000000 1.844310 0.000000 
#    z 0.000000 0.000000 1.821730 
# 
# From -- ./inp_files/5825.got.cif
#   From: 2010.05.17/outbox.cif.g08.bks.cpg/sg54_3_cif.got.tgz:5825.got - 2010.06.03 13:09:01.
