data_PCOD9423132
_publ_section_title
;
Structure prediction by ZEFSAII (Michael W. Deem and Ramdas Pophale) SiO2 
 PCOD9423132
Probable space group: P C C A
;
_chemical_formula_sum "Si O2"
_cell_formula_units_Z 40
_cell_length_a 12.283399
_cell_length_b 7.085683
_cell_length_c 23.216852
_cell_angle_alpha 90.000000
_cell_angle_beta 90.000000
_cell_angle_gamma 90.000000
_cell_volume 2020.708234
_symmetry_space_group_name_H-M "P C C A"
_symmetry_group_IT_number 54
_symmetry_cell_setting 'orthorhombic'
loop_
_space_group_symop_operation_xyz
x,y,z
1/2-x,-y,z
1/2+x,-y,1/2-z
-x,y,1/2-z
-x,-y,-z
1/2+x,y,-z
1/2-x,y,1/2+z
x,-y,1/2+z
loop_
_atom_site_type_symbol
_atom_site_label
_atom_site_fract_x
_atom_site_fract_y
_atom_site_fract_z
Si Si1 0.071768 0.316124 0.159289
Si Si2 0.750000 0.500000 0.926359
Si Si3 0.068199 0.694481 0.008733
Si Si4 0.848354 0.358359 0.210189
Si Si5 0.250000 0.000000 0.848327
Si Si6 0.035588 0.003376 0.409074
O O1 0.155425 0.409023 0.113926
O O2 0.121377 0.334054 0.222933
O O3 0.952684 0.409861 0.170438
O O4 0.042457 0.103058 0.138397
O O5 0.811940 0.355896 0.968463
O O6 0.063111 0.820136 0.951205
O O7 0.019178 0.833849 0.056780
O O8 0.000000 0.500000 0.000000
O O9 0.750000 0.500000 0.203591
O O10 0.804584 0.159366 0.189264
O O11 0.350527 0.926559 0.885594
#
# Coordination Sequence:
#
# PCOD9423132 Si02
#       6
#     8   4   8   8   4   8
#     4  10  22  44  62 100 130 170 223 266 332 398
#     4  12  24  40  70  96 132 176 214 276 334 392
#     4  11  25  42  64  97 130 173 223 269 330 400
#     4  10  22  42  67  94 134 169 223 272 322 403
#     4  10  24  38  66  96 124 178 208 272 336 378
#     4  10  24  44  63  93 136 170 223 272 328 399
#
# _framework density 19.79504
#
# number of rings (size 3 to 8) (size 9 to 14) (size 15 to 20)
#    0.000    1.600    3.000    0.000    5.600    2.400 
#    1.800    2.000    0.000    0.000    0.000    0.000 
#    0.000    0.000    0.000    0.000    0.000    0.000 
#
# Total GULP energy -223128.168408 kJ/mol
# GULP energy per Si atom -5578.204210 kJ/mol
# Density = 1.974999 g / cm^3
# Si number density = 19.795040 Si / 1000 Ang^3
#
#
#
# Elastic Constant Matrix: (Units=GPa)
#
#
# Indices 1 2 3 4 5 6 
#
# 1 131.7712 48.0596 37.3184 0.0000 0.0000 0.0000
# 2 48.0596 66.1408 28.1521 0.0000 0.0000 0.0000
# 3 37.3184 28.1521 34.7210 0.0000 0.0000 0.0000
# 4 0.0000 0.0000 0.0000 16.0699 0.0000 0.0000
# 5 0.0000 0.0000 0.0000 0.0000 40.6102 0.0000
# 6 0.0000 0.0000 0.0000 0.0000 0.0000 30.0616
#
#
#
# Elastic Compliance Matrix: (Units=1/GPa)
#
#
# Indices 1 2 3 4 5 6 
#
# 1 0.011856 -0.004873 -0.008792 0.000000 0.000000 0.000000
# 2 -0.004873 0.025089 -0.015106 0.000000 0.000000 0.000000
# 3 -0.008792 -0.015106 0.050499 0.000000 0.000000 0.000000
# 4 0.000000 0.000000 0.000000 0.062228 0.000000 0.000000
# 5 0.000000 0.000000 0.000000 0.000000 0.024624 0.000000
# 6 0.000000 0.000000 0.000000 0.000000 0.000000 0.033265
#
#
# Mechanical properties :
#
#
# Convention : Reuss Voigt Hill
#
# Bulk Modulus (GPa) = 33.44108 51.07699 42.25904
# Shear Modulus (GPa) = 18.17716 25.28853 21.73285
#
# Velocity S-wave (km/s) = 3.03358 3.57812 3.31704
# Velocity P-wave (km/s) = 5.40375 6.55206 6.00541
#
# Compressibility (1/GPa) = 0.02990334
#
# Stress axis : x y z
#
# Youngs Moduli (GPa) = 84.34506 39.85757 19.80246
#
# Poissons Ratio (x) = 0.19421 0.17411
# Poissons Ratio (y) = 0.41098 0.29913
# Poissons Ratio (z) = 0.74158 0.60207
#
# Static dielectric constant tensor:
#      x y z
#    x 1.709560 0.000000 0.000000 
#    y 0.000000 1.674190 0.000000 
#    z 0.000000 0.000000 1.703830 
# 
# From -- ./inp_files/26063.got.cif
#   From: 2010.05.17/outbox.cif.g08.bks.cpg/sg54_14_cif.got.tgz:26063.got - 2010.06.03 13:09:01.
