data_PCOD9423590
_publ_section_title
;
Structure prediction by ZEFSAII (Michael W. Deem and Ramdas Pophale) SiO2 
 PCOD9423590
Probable space group: P C C A
;
_chemical_formula_sum "Si O2"
_cell_formula_units_Z 32
_cell_length_a 8.311055
_cell_length_b 12.778136
_cell_length_c 11.175430
_cell_angle_alpha 90.000000
_cell_angle_beta 90.000000
_cell_angle_gamma 90.000000
_cell_volume 1186.828331
_symmetry_space_group_name_H-M "P C C A"
_symmetry_group_IT_number 54
_symmetry_cell_setting 'orthorhombic'
loop_
_space_group_symop_operation_xyz
x,y,z
1/2-x,-y,z
1/2+x,-y,1/2-z
-x,y,1/2-z
-x,-y,-z
1/2+x,y,-z
1/2-x,y,1/2+z
x,-y,1/2+z
loop_
_atom_site_type_symbol
_atom_site_label
_atom_site_fract_x
_atom_site_fract_y
_atom_site_fract_z
Si Si1 0.260666 0.193831 0.935855
Si Si2 0.250000 0.000000 0.598699
Si Si3 0.500000 0.817283 0.750000
Si Si4 0.000000 0.479364 0.250000
Si Si5 0.000000 0.870280 0.750000
Si Si6 0.208432 0.356374 0.634338
O O1 0.105997 0.147744 0.864018
O O2 0.411969 0.200023 0.847787
O O3 0.237167 0.304894 0.006847
O O4 0.305010 0.096439 0.019694
O O5 0.119189 0.948453 0.683639
O O6 0.362633 0.744951 0.694774
O O7 0.944830 0.562058 0.357148
O O8 0.846524 0.404511 0.278825
#
# Coordination Sequence:
#
# PCOD9423590 Si02
#       6
#     8   4   4   4   4   8
#     4  12  27  49  78 115 162 218 269 334 404 475
#     4  12  28  50  80 116 162 218 272 330 398 478
#     4  11  26  47  74 116 162 207 270 329 398 484
#     4   9  22  50  82 115 154 199 264 332 402 503
#     4  12  28  49  76 119 166 212 276 333 396 487
#     4  10  23  48  81 117 155 203 261 336 412 480
#
# _framework density 26.962617000000002
#
# number of rings (size 3 to 8) (size 9 to 14) (size 15 to 20)
#    0.000    1.000    0.000    4.500    0.000   14.000 
#    0.000   27.500    0.000    6.000    0.000    0.000 
#    0.000    0.000    0.000    0.000    0.000    0.000 
#
# Total GULP energy -178238.307308 kJ/mol
# GULP energy per Si atom -5569.947103 kJ/mol
# Density = 2.690125 g / cm^3
# Si number density = 26.962617 Si / 1000 Ang^3
#
#
#
# Elastic Constant Matrix: (Units=GPa)
#
#
# Indices 1 2 3 4 5 6 
#
# 1 149.2602 53.5272 86.2034 0.0000 0.0000 0.0000
# 2 53.5272 140.3789 76.0188 0.0000 0.0000 0.0000
# 3 86.2034 76.0188 125.7786 0.0000 0.0000 0.0000
# 4 0.0000 0.0000 0.0000 35.3970 0.0000 0.0000
# 5 0.0000 0.0000 0.0000 0.0000 63.3191 0.0000
# 6 0.0000 0.0000 0.0000 0.0000 0.0000 70.9305
#
#
#
# Elastic Compliance Matrix: (Units=1/GPa)
#
#
# Indices 1 2 3 4 5 6 
#
# 1 0.011092 -0.000168 -0.007500 0.000000 0.000000 0.000000
# 2 -0.000168 0.010592 -0.006287 0.000000 0.000000 0.000000
# 3 -0.007500 -0.006287 0.016891 0.000000 0.000000 0.000000
# 4 0.000000 0.000000 0.000000 0.028251 0.000000 0.000000
# 5 0.000000 0.000000 0.000000 0.000000 0.015793 0.000000
# 6 0.000000 0.000000 0.000000 0.000000 0.000000 0.014098
#
#
# Mechanical properties :
#
#
# Convention : Reuss Voigt Hill
#
# Bulk Modulus (GPa) = 93.76852 94.10181 93.93517
# Shear Modulus (GPa) = 39.00743 47.24055 43.12399
#
# Velocity S-wave (km/s) = 3.80771 4.19032 4.00359
# Velocity P-wave (km/s) = 7.36099 7.64123 7.50242
#
# Compressibility (1/GPa) = 0.01066456
#
# Stress axis : x y z
#
# Youngs Moduli (GPa) = 90.15844 94.41167 59.20471
#
# Poissons Ratio (x) = 0.01582 0.44406
# Poissons Ratio (y) = 0.01511 0.37220
# Poissons Ratio (z) = 0.67622 0.59354
#
# Static dielectric constant tensor:
#      x y z
#    x 2.147030 0.000000 0.000000 
#    y 0.000000 2.166260 0.000000 
#    z 0.000000 0.000000 2.498950 
# 
# From -- ./inp_files/6772.got.cif
#   From: 2010.05.17/outbox.cif.g08.bks.cpg/sg54_4_cif.got.tgz:6772.got - 2010.06.03 13:09:01.
