data_PCOD9423357
_publ_section_title
;
Structure prediction by ZEFSAII (Michael W. Deem and Ramdas Pophale) SiO2 
 PCOD9423357
Probable space group: P C C A
;
_chemical_formula_sum "Si O2"
_cell_formula_units_Z 60
_cell_length_a 27.235389
_cell_length_b 12.338017
_cell_length_c 8.875732
_cell_angle_alpha 90.000000
_cell_angle_beta 90.000000
_cell_angle_gamma 90.000000
_cell_volume 2982.518370
_symmetry_space_group_name_H-M "P C C A"
_symmetry_group_IT_number 54
_symmetry_cell_setting 'orthorhombic'
loop_
_space_group_symop_operation_xyz
x,y,z
1/2-x,-y,z
1/2+x,-y,1/2-z
-x,y,1/2-z
-x,-y,-z
1/2+x,y,-z
1/2-x,y,1/2+z
x,-y,1/2+z
loop_
_atom_site_type_symbol
_atom_site_label
_atom_site_fract_x
_atom_site_fract_y
_atom_site_fract_z
Si Si1 0.449979 0.352671 0.333314
Si Si2 0.750000 0.500000 0.164483
Si Si3 0.149718 0.983622 0.654923
Si Si4 0.194927 0.148072 0.419360
Si Si5 0.840373 0.650755 0.742534
Si Si6 0.292351 0.272961 0.452028
Si Si7 0.117696 0.151583 0.876064
Si Si8 0.054358 0.563294 0.673072
O O1 0.500000 0.325505 0.250000
O O2 0.423235 0.241177 0.363218
O O3 0.452284 0.412997 0.495696
O O4 0.428864 0.441250 0.216307
O O5 0.697709 0.548134 0.230386
O O6 0.769471 0.610519 0.088355
O O7 0.186424 0.921671 0.767668
O O8 0.123430 0.901235 0.540985
O O9 0.176105 0.071464 0.550635
O O10 0.113562 0.052368 0.761125
O O11 0.166820 0.262551 0.391996
O O12 0.249760 0.184793 0.453778
O O13 0.898108 0.628617 0.766590
O O14 0.819235 0.708414 0.890929
O O15 0.332920 0.221662 0.342868
O O16 0.000000 0.580093 0.750000
#
# Coordination Sequence:
#
# PCOD9423357 Si02
#       8
#     8   4   8   8   8   8   8   8
#     4  11  23  43  66  99 131 166 218 274 334 400
#     4  10  24  38  60  94 136 182 216 254 332 404
#     4  10  23  41  62  92 124 167 224 272 327 387
#     4  10  23  38  62  90 128 169 219 264 326 390
#     4  11  22  42  62  95 135 174 220 266 326 403
#     4  11  22  39  59  89 130 171 212 263 321 395
#     4  11  23  42  65  91 128 170 218 279 331 393
#     4  11  23  41  70 100 136 175 224 271 331 401
#
# _framework density 20.117227
#
# number of rings (size 3 to 8) (size 9 to 14) (size 15 to 20)
#    0.000    1.333    2.667    2.800    3.733    5.333 
#    2.400    0.667    0.000    3.200    0.000    0.000 
#    0.000    0.000    0.000    0.000    0.000    0.000 
#
# Total GULP energy -334282.116732 kJ/mol
# GULP energy per Si atom -5571.368612 kJ/mol
# Density = 2.007144 g / cm^3
# Si number density = 20.117227 Si / 1000 Ang^3
#
#
#
# Elastic Constant Matrix: (Units=GPa)
#
#
# Indices 1 2 3 4 5 6 
#
# 1 48.6092 32.8426 28.2832 0.0000 0.0000 0.0000
# 2 32.8426 125.5522 62.1514 0.0000 0.0000 0.0000
# 3 28.2832 62.1514 71.8331 0.0000 0.0000 0.0000
# 4 0.0000 0.0000 0.0000 10.1453 0.0000 0.0000
# 5 0.0000 0.0000 0.0000 0.0000 0.9075 0.0000
# 6 0.0000 0.0000 0.0000 0.0000 0.0000 40.8168
#
#
#
# Elastic Compliance Matrix: (Units=1/GPa)
#
#
# Indices 1 2 3 4 5 6 
#
# 1 0.027400 -0.003196 -0.008023 0.000000 0.000000 0.000000
# 2 -0.003196 0.014305 -0.011118 0.000000 0.000000 0.000000
# 3 -0.008023 -0.011118 0.026700 0.000000 0.000000 0.000000
# 4 0.000000 0.000000 0.000000 0.098567 0.000000 0.000000
# 5 0.000000 0.000000 0.000000 0.000000 1.101938 0.000000
# 6 0.000000 0.000000 0.000000 0.000000 0.000000 0.024500
#
#
# Mechanical properties :
#
#
# Convention : Reuss Voigt Hill
#
# Bulk Modulus (GPa) = 42.14122 54.72765 48.43443
# Shear Modulus (GPa) = 3.71473 18.55508 11.13490
#
# Velocity S-wave (km/s) = 1.36035 3.04031 2.35521
# Velocity P-wave (km/s) = 4.84362 6.29191 5.61466
#
# Compressibility (1/GPa) = 0.02372974
#
# Stress axis : x y z
#
# Youngs Moduli (GPa) = 36.49675 69.90744 37.45307
#
# Poissons Ratio (x) = 0.22340 0.30050
# Poissons Ratio (y) = 0.11663 0.41642
# Poissons Ratio (z) = 0.29282 0.77726
#
# Static dielectric constant tensor:
#      x y z
#    x 1.774110 0.000000 0.000000 
#    y 0.000000 1.767860 0.000000 
#    z 0.000000 0.000000 1.778840 
# 
# From -- ./inp_files/5587.got.cif
#   From: 2010.05.17/outbox.cif.g08.bks.cpg/sg54_3_cif.got.tgz:5587.got - 2010.06.03 13:09:01.
