data_PCOD9423901
_publ_section_title
;
Structure prediction by ZEFSAII (Michael W. Deem and Ramdas Pophale) SiO2 
 PCOD9423901
Probable space group: P C C A
;
_chemical_formula_sum "Si O2"
_cell_formula_units_Z 28
_cell_length_a 6.559017
_cell_length_b 10.150107
_cell_length_c 18.584231
_cell_angle_alpha 90.000000
_cell_angle_beta 90.000000
_cell_angle_gamma 90.000000
_cell_volume 1237.240056
_symmetry_space_group_name_H-M "P C C A"
_symmetry_group_IT_number 54
_symmetry_cell_setting 'orthorhombic'
loop_
_space_group_symop_operation_xyz
x,y,z
1/2-x,-y,z
1/2+x,-y,1/2-z
-x,y,1/2-z
-x,-y,-z
1/2+x,y,-z
1/2-x,y,1/2+z
x,-y,1/2+z
loop_
_atom_site_type_symbol
_atom_site_label
_atom_site_fract_x
_atom_site_fract_y
_atom_site_fract_z
Si Si1 0.750000 0.500000 0.380871
Si Si2 0.274869 0.854429 0.052946
Si Si3 0.412686 0.304194 0.417455
Si Si4 0.977556 0.264684 0.169868
O O1 0.558455 0.432056 0.421591
O O2 0.639892 0.615448 0.336575
O O3 0.456224 0.840713 0.109587
O O4 0.070657 0.814958 0.095094
O O5 0.250000 0.000000 0.022497
O O6 0.310306 0.743002 0.992143
O O7 0.243793 0.314737 0.355771
O O8 0.000000 0.212500 0.250000
#
# Coordination Sequence:
#
# PCOD9423901 Si02
#       4
#     4   8   8   8
#     4  10  26  42  68 102 144 178 240 286 354 422
#     4  11  24  45  71 104 139 187 237 290 350 418
#     4  11  23  43  72 101 138 181 236 290 350 416
#     4  11  26  45  68 102 139 186 235 291 362 418
#
# _framework density 22.631015000000001
#
# number of rings (size 3 to 8) (size 9 to 14) (size 15 to 20)
#    0.000    1.143    2.857    1.714    4.000    8.000 
#    5.143    0.000    0.000    0.000    0.000    0.000 
#    0.000    0.000    0.000    0.000    0.000    0.000 
#
# Total GULP energy -156261.143441 kJ/mol
# GULP energy per Si atom -5580.755123 kJ/mol
# Density = 2.257951 g / cm^3
# Si number density = 22.631015 Si / 1000 Ang^3
#
#
#
# Elastic Constant Matrix: (Units=GPa)
#
#
# Indices 1 2 3 4 5 6 
#
# 1 136.3008 8.4045 38.6513 0.0000 0.0000 0.0000
# 2 8.4045 34.6369 1.8925 0.0000 0.0000 0.0000
# 3 38.6513 1.8925 117.4863 0.0000 0.0000 0.0000
# 4 0.0000 0.0000 0.0000 14.9100 0.0000 0.0000
# 5 0.0000 0.0000 0.0000 0.0000 15.1473 0.0000
# 6 0.0000 0.0000 0.0000 0.0000 0.0000 20.0335
#
#
#
# Elastic Compliance Matrix: (Units=1/GPa)
#
#
# Indices 1 2 3 4 5 6 
#
# 1 0.008208 -0.001846 -0.002671 0.000000 0.000000 0.000000
# 2 -0.001846 0.029311 0.000135 0.000000 0.000000 0.000000
# 3 -0.002671 0.000135 0.009388 0.000000 0.000000 0.000000
# 4 0.000000 0.000000 0.000000 0.067069 0.000000 0.000000
# 5 0.000000 0.000000 0.000000 0.000000 0.066018 0.000000
# 6 0.000000 0.000000 0.000000 0.000000 0.000000 0.049916
#
#
# Mechanical properties :
#
#
# Convention : Reuss Voigt Hill
#
# Bulk Modulus (GPa) = 26.21578 42.92451 34.57015
# Shear Modulus (GPa) = 19.88953 25.98319 22.93636
#
# Velocity S-wave (km/s) = 2.96778 3.39207 3.18699
# Velocity P-wave (km/s) = 4.83247 5.86087 5.37134
#
# Compressibility (1/GPa) = 0.03814497
#
# Stress axis : x y z
#
# Youngs Moduli (GPa) = 121.83520 34.11636 106.51868
#
# Poissons Ratio (x) = 0.06297 0.28446
# Poissons Ratio (y) = 0.22487 -0.01438
# Poissons Ratio (z) = 0.32536 -0.00461
#
# Static dielectric constant tensor:
#      x y z
#    x 1.932160 0.000000 0.000000 
#    y 0.000000 1.845850 0.000000 
#    z 0.000000 0.000000 1.834460 
# 
# From -- ./inp_files/19463.got.cif
#   From: 2010.05.17/outbox.cif.g08.bks.cpg/sg54_10_cif.got.tgz:19463.got - 2010.06.03 13:09:01.
