data_PCOD9423147
_publ_section_title
;
Structure prediction by ZEFSAII (Michael W. Deem and Ramdas Pophale) SiO2 
 PCOD9423147
Probable space group: P C C A
;
_chemical_formula_sum "Si O2"
_cell_formula_units_Z 32
_cell_length_a 11.371487
_cell_length_b 13.433018
_cell_length_c 9.085493
_cell_angle_alpha 90.000000
_cell_angle_beta 90.000000
_cell_angle_gamma 90.000000
_cell_volume 1387.839852
_symmetry_space_group_name_H-M "P C C A"
_symmetry_group_IT_number 54
_symmetry_cell_setting 'orthorhombic'
loop_
_space_group_symop_operation_xyz
x,y,z
1/2-x,-y,z
1/2+x,-y,1/2-z
-x,y,1/2-z
-x,-y,-z
1/2+x,y,-z
1/2-x,y,1/2+z
x,-y,1/2+z
loop_
_atom_site_type_symbol
_atom_site_label
_atom_site_fract_x
_atom_site_fract_y
_atom_site_fract_z
Si Si1 0.000000 0.702129 0.750000
Si Si2 0.637497 0.282681 0.268864
Si Si3 0.699777 0.609711 0.055750
Si Si4 0.172628 0.863928 0.634262
Si Si5 0.250000 0.000000 0.378270
O O1 0.914741 0.634382 0.652657
O O2 0.921940 0.776625 0.849211
O O3 0.500000 0.271327 0.250000
O O4 0.703127 0.313651 0.119174
O O5 0.667561 0.368438 0.387502
O O6 0.699914 0.186377 0.337585
O O7 0.750000 0.500000 0.073149
O O8 0.179212 0.925163 0.484489
O O9 0.162863 0.939323 0.771798
#
# Coordination Sequence:
#
# PCOD9423147 Si02
#       5
#     4   8   8   8   4
#     4  10  24  42  76  96 152 184 232 308 356 422
#     4  11  26  45  73 101 148 193 234 303 365 424
#     4  11  26  46  71 107 142 188 248 293 359 434
#     4  10  22  44  63 105 136 187 233 291 362 412
#     4  10  22  42  68  96 144 176 248 288 338 448
#
# _framework density 23.057416
#
# number of rings (size 3 to 8) (size 9 to 14) (size 15 to 20)
#    0.000    1.500    0.000    3.750   12.250    2.000 
#    9.000    0.000    0.000    0.000    0.000    0.000 
#    0.000    0.000    0.000    0.000    0.000    0.000 
#
# Total GULP energy -179258.788112 kJ/mol
# GULP energy per Si atom -5601.837128 kJ/mol
# Density = 2.300494 g / cm^3
# Si number density = 23.057416 Si / 1000 Ang^3
#
#
#
# Elastic Constant Matrix: (Units=GPa)
#
#
# Indices 1 2 3 4 5 6 
#
# 1 152.4516 44.0008 46.5207 0.0000 0.0000 0.0000
# 2 44.0008 125.9092 47.8474 0.0000 0.0000 0.0000
# 3 46.5207 47.8474 113.3982 0.0000 0.0000 0.0000
# 4 0.0000 0.0000 0.0000 36.4737 0.0000 0.0000
# 5 0.0000 0.0000 0.0000 0.0000 -45.5295 0.0000
# 6 0.0000 0.0000 0.0000 0.0000 0.0000 31.8694
#
#
#
# Elastic Compliance Matrix: (Units=1/GPa)
#
#
# Indices 1 2 3 4 5 6 
#
# 1 0.007828 -0.001805 -0.002450 0.000000 0.000000 0.000000
# 2 -0.001805 0.009875 -0.003426 0.000000 0.000000 0.000000
# 3 -0.002450 -0.003426 0.011269 0.000000 0.000000 0.000000
# 4 0.000000 0.000000 0.000000 0.027417 0.000000 0.000000
# 5 0.000000 0.000000 0.000000 0.000000 -0.021964 0.000000
# 6 0.000000 0.000000 0.000000 0.000000 0.000000 0.031378
#
#
# Mechanical properties :
#
#
# Convention : Reuss Voigt Hill
#
# Bulk Modulus (GPa) = 73.47297 74.27743 73.87520
# Shear Modulus (GPa) = 58.34185 21.45539 39.89862
#
# Velocity S-wave (km/s) = 5.03565 3.05375 4.16432
# Velocity P-wave (km/s) = 8.10832 6.68715 7.43178
#
# Compressibility (1/GPa) = 0.01361045
#
# Stress axis : x y z
#
# Youngs Moduli (GPa) = 127.74839 101.26668 88.73706
#
# Poissons Ratio (x) = 0.18274 0.21740
# Poissons Ratio (y) = 0.23053 0.30404
# Poissons Ratio (z) = 0.31297 0.34697
#
# Static dielectric constant tensor:
#      x y z
#    x 1.826690 0.000000 0.000000 
#    y 0.000000 1.889370 0.000000 
#    z 0.000000 0.000000 1.895960 
# 
# From -- ./inp_files/2811.got.cif
#   From: 2010.05.17/outbox.cif.g08.bks.cpg/sg54_2_cif.got.tgz:2811.got - 2010.06.03 13:09:01.
