data_PCOD9423498
_publ_section_title
;
Structure prediction by ZEFSAII (Michael W. Deem and Ramdas Pophale) SiO2 
 PCOD9423498
Probable space group: P C C A
;
_chemical_formula_sum "Si O2"
_cell_formula_units_Z 40
_cell_length_a 8.810549
_cell_length_b 8.024158
_cell_length_c 22.044314
_cell_angle_alpha 90.000000
_cell_angle_beta 90.000000
_cell_angle_gamma 90.000000
_cell_volume 1558.472097
_symmetry_space_group_name_H-M "P C C A"
_symmetry_group_IT_number 54
_symmetry_cell_setting 'orthorhombic'
loop_
_space_group_symop_operation_xyz
x,y,z
1/2-x,-y,z
1/2+x,-y,1/2-z
-x,y,1/2-z
-x,-y,-z
1/2+x,y,-z
1/2-x,y,1/2+z
x,-y,1/2+z
loop_
_atom_site_type_symbol
_atom_site_label
_atom_site_fract_x
_atom_site_fract_y
_atom_site_fract_z
Si Si1 0.105682 0.899265 0.379008
Si Si2 0.875279 0.123518 0.319227
Si Si3 0.880818 0.726914 0.465587
Si Si4 0.440095 0.351622 0.575433
Si Si5 0.672939 0.678153 0.724971
O O1 0.160983 0.734741 0.344530
O O2 0.985929 0.858938 0.431448
O O3 0.250000 0.000000 0.401281
O O4 0.022579 0.005936 0.325163
O O5 0.926735 0.286179 0.356777
O O6 0.782746 0.194970 0.261972
O O7 0.750000 0.000000 0.348407
O O8 0.702744 0.740279 0.456213
O O9 0.920873 0.548392 0.433617
O O10 0.917959 0.705445 0.536080
O O11 0.750000 0.500000 0.731080
O O12 0.500000 0.675623 0.750000
#
# Coordination Sequence:
#
# PCOD9423498 Si02
#       5
#     8   8   8   8   8
#     4  12  29  47  72 110 148 189 243 305 362 431
#     4  12  25  48  75 104 149 190 233 303 372 418
#     4  10  23  46  70 107 144 192 242 297 357 436
#     4  10  23  43  75 103 146 191 241 295 362 433
#     4  12  29  49  75 104 143 195 246 294 362 442
#
# _framework density 25.666160999999999
#
# number of rings (size 3 to 8) (size 9 to 14) (size 15 to 20)
#    0.000    0.800    4.000    0.600   11.200    1.600 
#    3.600    0.000    0.000    0.000    0.000    0.000 
#    0.000    0.000    0.000    0.000    0.000    0.000 
#
# Total GULP energy -223923.094510 kJ/mol
# GULP energy per Si atom -5598.077363 kJ/mol
# Density = 2.560774 g / cm^3
# Si number density = 25.666161 Si / 1000 Ang^3
#
#
#
# Elastic Constant Matrix: (Units=GPa)
#
#
# Indices 1 2 3 4 5 6 
#
# 1 84.9637 39.7411 11.9876 0.0000 0.0000 0.0000
# 2 39.7411 91.4005 12.5171 0.0000 0.0000 0.0000
# 3 11.9876 12.5171 54.0972 0.0000 0.0000 0.0000
# 4 0.0000 0.0000 0.0000 34.8443 0.0000 0.0000
# 5 0.0000 0.0000 0.0000 0.0000 37.8238 0.0000
# 6 0.0000 0.0000 0.0000 0.0000 0.0000 44.9124
#
#
#
# Elastic Compliance Matrix: (Units=1/GPa)
#
#
# Indices 1 2 3 4 5 6 
#
# 1 0.014955 -0.006247 -0.001869 0.000000 0.000000 0.000000
# 2 -0.006247 0.013908 -0.001834 0.000000 0.000000 0.000000
# 3 -0.001869 -0.001834 0.019324 0.000000 0.000000 0.000000
# 4 0.000000 0.000000 0.000000 0.028699 0.000000 0.000000
# 5 0.000000 0.000000 0.000000 0.000000 0.026438 0.000000
# 6 0.000000 0.000000 0.000000 0.000000 0.000000 0.022266
#
#
# Mechanical properties :
#
#
# Convention : Reuss Voigt Hill
#
# Bulk Modulus (GPa) = 35.34988 39.88369 37.61679
# Shear Modulus (GPa) = 32.27521 34.59715 33.43618
#
# Velocity S-wave (km/s) = 3.54997 3.67545 3.61326
# Velocity P-wave (km/s) = 5.53226 5.79526 5.66529
#
# Compressibility (1/GPa) = 0.02828864
#
# Stress axis : x y z
#
# Youngs Moduli (GPa) = 66.86632 71.90078 51.75013
#
# Poissons Ratio (x) = 0.44914 0.09670
# Poissons Ratio (y) = 0.41769 0.09490
# Poissons Ratio (z) = 0.12495 0.13185
#
# Static dielectric constant tensor:
#      x y z
#    x 2.004720 0.000000 0.000000 
#    y 0.000000 2.007690 0.000000 
#    z 0.000000 0.000000 2.018830 
# 
# From -- ./inp_files/23281.got.cif
#   From: 2010.05.17/outbox.cif.g08.bks.cpg/sg54_12_cif.got.tgz:23281.got - 2010.06.03 13:09:01.
