data_PCOD9423434
_publ_section_title
;
Structure prediction by ZEFSAII (Michael W. Deem and Ramdas Pophale) SiO2 
 PCOD9423434
Probable space group: P C C A
;
_chemical_formula_sum "Si O2"
_cell_formula_units_Z 36
_cell_length_a 5.509043
_cell_length_b 20.162206
_cell_length_c 14.073989
_cell_angle_alpha 90.000000
_cell_angle_beta 90.000000
_cell_angle_gamma 90.000000
_cell_volume 1563.260726
_symmetry_space_group_name_H-M "P C C A"
_symmetry_group_IT_number 54
_symmetry_cell_setting 'orthorhombic'
loop_
_space_group_symop_operation_xyz
x,y,z
1/2-x,-y,z
1/2+x,-y,1/2-z
-x,y,1/2-z
-x,-y,-z
1/2+x,y,-z
1/2-x,y,1/2+z
x,-y,1/2+z
loop_
_atom_site_type_symbol
_atom_site_label
_atom_site_fract_x
_atom_site_fract_y
_atom_site_fract_z
Si Si1 0.106484 0.091018 0.457049
Si Si2 0.500000 0.263924 0.250000
Si Si3 0.500000 0.041520 0.750000
Si Si4 0.747966 0.393121 0.202799
Si Si5 0.388666 0.239911 0.036599
Si Si6 0.250000 0.500000 0.448396
O O1 0.375104 0.064270 0.483031
O O2 0.046331 0.082220 0.346478
O O3 0.123318 0.168355 0.485378
O O4 0.709252 0.314321 0.213233
O O5 0.414956 0.230103 0.151345
O O6 0.750000 0.000000 0.764106
O O7 0.500000 0.420139 0.250000
O O8 0.751160 0.429635 0.104817
O O9 0.000000 0.411449 0.250000
O O10 0.632148 0.272989 0.992711
O O11 0.500000 0.500000 0.500000
#
# Coordination Sequence:
#
# PCOD9423434 Si02
#       6
#     8   4   4   8   8   4
#     4  10  23  43  66  98 134 172 222 271 327 399
#     4  10  26  42  71  94 138 173 220 284 338 386
#     4  12  26  42  69 100 136 179 220 272 336 386
#     4  10  23  42  63  89 129 172 214 261 336 396
#     4  10  24  41  67  98 131 174 224 272 329 397
#     4  12  24  40  66  96 128 170 220 274 330 400
#
# _framework density 23.028787000000001
#
# number of rings (size 3 to 8) (size 9 to 14) (size 15 to 20)
#    0.667    0.889    0.000    3.333    3.111   11.556 
#    0.000    0.000    0.000    0.000    0.000    0.000 
#    0.000    0.000    0.000    0.000    0.000    0.000 
#
# Total GULP energy -200721.559111 kJ/mol
# GULP energy per Si atom -5575.598864 kJ/mol
# Density = 2.297637 g / cm^3
# Si number density = 23.028787 Si / 1000 Ang^3
#
#
#
# Elastic Constant Matrix: (Units=GPa)
#
#
# Indices 1 2 3 4 5 6 
#
# 1 221.4600 20.1187 48.7155 0.0000 0.0000 0.0000
# 2 20.1187 64.7187 42.5779 0.0000 0.0000 0.0000
# 3 48.7155 42.5779 172.4106 0.0000 0.0000 0.0000
# 4 0.0000 0.0000 0.0000 50.3572 0.0000 0.0000
# 5 0.0000 0.0000 0.0000 0.0000 50.9209 0.0000
# 6 0.0000 0.0000 0.0000 0.0000 0.0000 29.1976
#
#
#
# Elastic Compliance Matrix: (Units=1/GPa)
#
#
# Indices 1 2 3 4 5 6 
#
# 1 0.004843 -0.000723 -0.001190 0.000000 0.000000 0.000000
# 2 -0.000723 0.018557 -0.004379 0.000000 0.000000 0.000000
# 3 -0.001190 -0.004379 0.007218 0.000000 0.000000 0.000000
# 4 0.000000 0.000000 0.000000 0.019858 0.000000 0.000000
# 5 0.000000 0.000000 0.000000 0.000000 0.019638 0.000000
# 6 0.000000 0.000000 0.000000 0.000000 0.000000 0.034249
#
#
# Mechanical properties :
#
#
# Convention : Reuss Voigt Hill
#
# Bulk Modulus (GPa) = 55.44751 75.71261 65.58006
# Shear Modulus (GPa) = 40.66464 49.24027 44.95246
#
# Velocity S-wave (km/s) = 4.20672 4.62909 4.42295
# Velocity P-wave (km/s) = 6.90834 7.84347 7.39071
#
# Compressibility (1/GPa) = 0.01803507
#
# Stress axis : x y z
#
# Youngs Moduli (GPa) = 206.48828 53.88889 138.54964
#
# Poissons Ratio (x) = 0.03894 0.16486
# Poissons Ratio (y) = 0.14922 0.60664
# Poissons Ratio (z) = 0.24571 0.23595
#
# Static dielectric constant tensor:
#      x y z
#    x 1.902250 0.000000 0.000000 
#    y 0.000000 1.957690 0.000000 
#    z 0.000000 0.000000 1.856010 
# 
# From -- ./inp_files/6414.got.cif
#   From: 2010.05.17/outbox.cif.g08.bks.cpg/sg54_4_cif.got.tgz:6414.got - 2010.06.03 13:09:01.
