data_PCOD9423842
_publ_section_title
;
Structure prediction by ZEFSAII (Michael W. Deem and Ramdas Pophale) SiO2 
 PCOD9423842
Probable space group: P C C A
;
_chemical_formula_sum "Si O2"
_cell_formula_units_Z 44
_cell_length_a 23.993466
_cell_length_b 5.469051
_cell_length_c 13.674070
_cell_angle_alpha 90.000000
_cell_angle_beta 90.000000
_cell_angle_gamma 90.000000
_cell_volume 1794.331829
_symmetry_space_group_name_H-M "P C C A"
_symmetry_group_IT_number 54
_symmetry_cell_setting 'orthorhombic'
loop_
_space_group_symop_operation_xyz
x,y,z
1/2-x,-y,z
1/2+x,-y,1/2-z
-x,y,1/2-z
-x,-y,-z
1/2+x,y,-z
1/2-x,y,1/2+z
x,-y,1/2+z
loop_
_atom_site_type_symbol
_atom_site_label
_atom_site_fract_x
_atom_site_fract_y
_atom_site_fract_z
Si Si1 0.460922 0.080285 0.622055
Si Si2 0.366910 0.043902 0.981223
Si Si3 0.500000 0.683240 0.750000
Si Si4 0.426556 0.697809 0.316200
Si Si5 0.214796 0.254888 0.864789
Si Si6 0.214294 0.746962 0.140385
O O1 0.423505 0.057800 0.528484
O O2 0.490132 0.830234 0.650902
O O3 0.513043 0.263533 0.629891
O O4 0.423996 0.137362 0.718679
O O5 0.379923 0.223456 0.890637
O O6 0.333019 0.811086 0.941425
O O7 0.334000 0.197810 0.062874
O O8 0.560174 0.560672 0.730394
O O9 0.250000 0.500000 0.887291
O O10 0.194888 0.283992 0.752775
O O11 0.250000 0.000000 0.867868
O O12 0.250000 0.500000 0.118847
O O13 0.250000 0.000000 0.137221
#
# Coordination Sequence:
#
# PCOD9423842 Si02
#       6
#     8   8   4   8   8   8
#     4   9  20  41  63  97 145 181 227 285 362 425
#     4  12  22  39  72 106 128 182 253 292 353 434
#     4   8  18  42  60  86 158 188 210 298 356 426
#     4   9  20  41  63  97 144 182 230 280 363 426
#     4  10  24  49  69  95 141 187 230 299 365 420
#     4  10  24  49  69  94 141 185 231 299 365 418
#
# _framework density 24.521664000000001
#
# number of rings (size 3 to 8) (size 9 to 14) (size 15 to 20)
#    0.000    2.545    0.000    2.182    0.000    3.636 
#   36.000    0.000    0.000    1.091    0.000    0.000 
#    0.000    0.000    0.000    0.000    0.000    0.000 
#
# Total GULP energy -245700.884805 kJ/mol
# GULP energy per Si atom -5584.111018 kJ/mol
# Density = 2.446585 g / cm^3
# Si number density = 24.521664 Si / 1000 Ang^3
#
#
#
# Elastic Constant Matrix: (Units=GPa)
#
#
# Indices 1 2 3 4 5 6 
#
# 1 51.7281 28.1293 34.1238 0.0000 0.0000 0.0000
# 2 28.1293 120.9410 21.5087 0.0000 0.0000 0.0000
# 3 34.1238 21.5087 114.1678 0.0000 0.0000 0.0000
# 4 0.0000 0.0000 0.0000 81.2733 0.0000 0.0000
# 5 0.0000 0.0000 0.0000 0.0000 51.4485 0.0000
# 6 0.0000 0.0000 0.0000 0.0000 0.0000 -15.3139
#
#
#
# Elastic Compliance Matrix: (Units=1/GPa)
#
#
# Indices 1 2 3 4 5 6 
#
# 1 0.026667 -0.004951 -0.007038 0.000000 0.000000 0.000000
# 2 -0.004951 0.009474 -0.000305 0.000000 0.000000 0.000000
# 3 -0.007038 -0.000305 0.010920 0.000000 0.000000 0.000000
# 4 0.000000 0.000000 0.000000 0.012304 0.000000 0.000000
# 5 0.000000 0.000000 0.000000 0.000000 0.019437 0.000000
# 6 0.000000 0.000000 0.000000 0.000000 0.000000 -0.065300
#
#
# Mechanical properties :
#
#
# Convention : Reuss Voigt Hill
#
# Bulk Modulus (GPa) = 44.49650 50.48451 47.49050
# Shear Modulus (GPa) = 109.69674 37.01993 73.35834
#
# Velocity S-wave (km/s) = 6.69565 3.88968 5.47546
# Velocity P-wave (km/s) = 8.82954 6.38790 7.70604
#
# Compressibility (1/GPa) = 0.02247368
#
# Stress axis : x y z
#
# Youngs Moduli (GPa) = 37.50010 105.54936 91.57468
#
# Poissons Ratio (x) = 0.52254 0.64448
# Poissons Ratio (y) = 0.18565 0.02795
# Poissons Ratio (z) = 0.26392 0.03221
#
# Static dielectric constant tensor:
#      x y z
#    x 1.937090 0.000000 0.000000 
#    y 0.000000 2.083130 0.000000 
#    z 0.000000 0.000000 1.939900 
# 
# From -- ./inp_files/15091.got.cif
#   From: 2010.05.17/outbox.cif.g08.bks.cpg/sg54_8_cif.got.tgz:15091.got - 2010.06.03 13:09:01.
