data_PCOD9423666
_publ_section_title
;
Structure prediction by ZEFSAII (Michael W. Deem and Ramdas Pophale) SiO2 
 PCOD9423666
Probable space group: P C C A
;
_chemical_formula_sum "Si O2"
_cell_formula_units_Z 36
_cell_length_a 9.310375
_cell_length_b 18.599179
_cell_length_c 10.011849
_cell_angle_alpha 90.000000
_cell_angle_beta 90.000000
_cell_angle_gamma 90.000000
_cell_volume 1733.705148
_symmetry_space_group_name_H-M "P C C A"
_symmetry_group_IT_number 54
_symmetry_cell_setting 'orthorhombic'
loop_
_space_group_symop_operation_xyz
x,y,z
1/2-x,-y,z
1/2+x,-y,1/2-z
-x,y,1/2-z
-x,-y,-z
1/2+x,y,-z
1/2-x,y,1/2+z
x,-y,1/2+z
loop_
_atom_site_type_symbol
_atom_site_label
_atom_site_fract_x
_atom_site_fract_y
_atom_site_fract_z
Si Si1 0.750000 0.000000 0.199719
Si Si2 0.401448 0.295057 0.122485
Si Si3 0.407282 0.466755 0.119874
Si Si4 0.418575 0.228837 0.610421
Si Si5 0.895956 0.065214 0.458867
O O1 0.654295 0.958931 0.310633
O O2 0.795140 0.939219 0.091383
O O3 0.500000 0.275227 0.250000
O O4 0.382930 0.380885 0.119081
O O5 0.248369 0.253439 0.121597
O O6 0.496132 0.276779 0.994264
O O7 0.250000 0.500000 0.122270
O O8 0.500000 0.484208 0.250000
O O9 0.500000 0.500000 0.000000
O O10 0.500000 0.234626 0.750000
O O11 0.436798 0.147290 0.557430
O O12 0.000000 0.000000 0.500000
#
# Coordination Sequence:
#
# PCOD9423666 Si02
#       5
#     4   8   8   8   8
#     4  10  24  42  66  92 132 166 244 286 352 402
#     4  11  27  46  70 105 145 185 234 291 358 431
#     4  11  24  44  73 105 140 186 234 291 351 423
#     4  12  27  45  71 102 143 189 237 295 362 423
#     4  11  25  43  67  98 131 185 237 293 351 416
#
# _framework density 20.764776000000001
#
# number of rings (size 3 to 8) (size 9 to 14) (size 15 to 20)
#    0.000    0.889    0.000    5.333   12.444    7.111 
#    0.000    0.000    0.000    0.000    0.000    0.000 
#    0.000    0.000    0.000    0.000    0.000    0.000 
#
# Total GULP energy -200804.200180 kJ/mol
# GULP energy per Si atom -5577.894449 kJ/mol
# Density = 2.071751 g / cm^3
# Si number density = 20.764776 Si / 1000 Ang^3
#
#
#
# Elastic Constant Matrix: (Units=GPa)
#
#
# Indices 1 2 3 4 5 6 
#
# 1 166.5577 68.0540 79.4607 0.0000 0.0000 0.0000
# 2 68.0540 56.2087 53.9014 0.0000 0.0000 0.0000
# 3 79.4607 53.9014 211.5416 0.0000 0.0000 0.0000
# 4 0.0000 0.0000 0.0000 12.9132 0.0000 0.0000
# 5 0.0000 0.0000 0.0000 0.0000 33.4066 0.0000
# 6 0.0000 0.0000 0.0000 0.0000 0.0000 21.9078
#
#
#
# Elastic Compliance Matrix: (Units=1/GPa)
#
#
# Indices 1 2 3 4 5 6 
#
# 1 0.012063 -0.013577 -0.001072 0.000000 0.000000 0.000000
# 2 -0.013577 0.038825 -0.004793 0.000000 0.000000 0.000000
# 3 -0.001072 -0.004793 0.006351 0.000000 0.000000 0.000000
# 4 0.000000 0.000000 0.000000 0.077440 0.000000 0.000000
# 5 0.000000 0.000000 0.000000 0.000000 0.029934 0.000000
# 6 0.000000 0.000000 0.000000 0.000000 0.000000 0.045646
#
#
# Mechanical properties :
#
#
# Convention : Reuss Voigt Hill
#
# Bulk Modulus (GPa) = 54.47870 93.01557 73.74714
# Shear Modulus (GPa) = 19.58780 29.17163 24.37971
#
# Velocity S-wave (km/s) = 3.07468 3.75221 3.43022
# Velocity P-wave (km/s) = 6.23682 7.97899 7.16108
#
# Compressibility (1/GPa) = 0.01835580
#
# Stress axis : x y z
#
# Youngs Moduli (GPa) = 82.90060 25.75639 157.45684
#
# Poissons Ratio (x) = 0.34970 0.16873
# Poissons Ratio (y) = 1.12555 0.75467
# Poissons Ratio (z) = 0.08883 0.12345
#
# Static dielectric constant tensor:
#      x y z
#    x 1.773910 0.000000 0.000000 
#    y 0.000000 0.568190 0.000000 
#    z 0.000000 0.000000 1.780880 
# 
# From -- ./inp_files/2502.got.cif
#   From: 2010.05.17/outbox.cif.g08.bks.cpg/sg54_2_cif.got.tgz:2502.got - 2010.06.03 13:09:01.
