data_PCOD9423120
_publ_section_title
;
Structure prediction by ZEFSAII (Michael W. Deem and Ramdas Pophale) SiO2 
 PCOD9423120
Probable space group: P C C A
;
_chemical_formula_sum "Si O2"
_cell_formula_units_Z 36
_cell_length_a 8.828811
_cell_length_b 7.623919
_cell_length_c 22.088371
_cell_angle_alpha 90.000000
_cell_angle_beta 90.000000
_cell_angle_gamma 90.000000
_cell_volume 1486.771343
_symmetry_space_group_name_H-M "P C C A"
_symmetry_group_IT_number 54
_symmetry_cell_setting 'orthorhombic'
loop_
_space_group_symop_operation_xyz
x,y,z
1/2-x,-y,z
1/2+x,-y,1/2-z
-x,y,1/2-z
-x,-y,-z
1/2+x,y,-z
1/2-x,y,1/2+z
x,-y,1/2+z
loop_
_atom_site_type_symbol
_atom_site_label
_atom_site_fract_x
_atom_site_fract_y
_atom_site_fract_z
Si Si1 0.522443 0.703514 0.521184
Si Si2 0.187495 0.204096 0.634569
Si Si3 0.750000 0.500000 0.584191
Si Si4 0.016063 0.752776 0.887501
Si Si5 0.000000 0.219022 0.750000
Si Si6 0.750000 0.000000 0.180981
O O1 0.500000 0.500000 0.500000
O O2 0.404796 0.765913 0.571900
O O3 0.689921 0.672865 0.548546
O O4 0.511819 0.803765 0.458035
O O5 0.350480 0.293722 0.636148
O O6 0.079623 0.277870 0.687333
O O7 0.250000 0.000000 0.639650
O O8 0.612159 0.423909 0.620578
O O9 0.120510 0.899689 0.857076
O O10 0.852595 0.121420 0.722818
#
# Coordination Sequence:
#
# PCOD9423120 Si02
#       6
#     8   8   4   8   4   4
#     4  10  23  45  71 107 154 191 237 303 387 450
#     4  12  25  43  73 112 144 194 252 309 369 441
#     4  10  22  42  66 102 146 198 218 292 374 452
#     4  11  23  40  70 106 144 184 242 300 381 433
#     4  12  24  46  66 106 142 194 248 304 370 422
#     4  12  22  42  68  98 138 190 234 322 350 434
#
# _framework density 24.213540999999999
#
# number of rings (size 3 to 8) (size 9 to 14) (size 15 to 20)
#    0.000    0.889    3.333    4.000    1.556    3.556 
#    0.000    0.000    0.000   60.000    0.000    0.000 
#    0.000    0.000    0.000    0.000    0.000    0.000 
#
# Total GULP energy -200618.061965 kJ/mol
# GULP energy per Si atom -5572.723943 kJ/mol
# Density = 2.415843 g / cm^3
# Si number density = 24.213541 Si / 1000 Ang^3
#
#
#
# Elastic Constant Matrix: (Units=GPa)
#
#
# Indices 1 2 3 4 5 6 
#
# 1 200.1599 23.5526 53.3297 0.0000 0.0000 0.0000
# 2 23.5526 40.9053 35.3704 0.0000 0.0000 0.0000
# 3 53.3297 35.3704 122.2362 0.0000 0.0000 0.0000
# 4 0.0000 0.0000 0.0000 9.6395 0.0000 0.0000
# 5 0.0000 0.0000 0.0000 0.0000 32.8736 0.0000
# 6 0.0000 0.0000 0.0000 0.0000 0.0000 46.0800
#
#
#
# Elastic Compliance Matrix: (Units=1/GPa)
#
#
# Indices 1 2 3 4 5 6 
#
# 1 0.005723 -0.001515 -0.002058 0.000000 0.000000 0.000000
# 2 -0.001515 0.033006 -0.008890 0.000000 0.000000 0.000000
# 3 -0.002058 -0.008890 0.011651 0.000000 0.000000 0.000000
# 4 0.000000 0.000000 0.000000 0.103740 0.000000 0.000000
# 5 0.000000 0.000000 0.000000 0.000000 0.030420 0.000000
# 6 0.000000 0.000000 0.000000 0.000000 0.000000 0.021701
#
#
# Mechanical properties :
#
#
# Convention : Reuss Voigt Hill
#
# Bulk Modulus (GPa) = 39.28720 65.31186 52.29953
# Shear Modulus (GPa) = 20.86368 34.45522 27.65945
#
# Velocity S-wave (km/s) = 2.93858 3.77632 3.38348
# Velocity P-wave (km/s) = 5.27012 6.78572 6.07537
#
# Compressibility (1/GPa) = 0.02545358
#
# Stress axis : x y z
#
# Youngs Moduli (GPa) = 174.74272 30.29767 85.82846
#
# Poissons Ratio (x) = 0.04591 0.17666
# Poissons Ratio (y) = 0.26478 0.76297
# Poissons Ratio (z) = 0.35967 0.26933
#
# Static dielectric constant tensor:
#      x y z
#    x 2.095570 0.000000 0.000000 
#    y 0.000000 2.215610 0.000000 
#    z 0.000000 0.000000 2.129090 
# 
# From -- ./inp_files/20165.got.cif
#   From: 2010.05.17/outbox.cif.g08.bks.cpg/sg54_11_cif.got.tgz:20165.got - 2010.06.03 13:09:01.
