data_PCOD9423912
_publ_section_title
;
Structure prediction by ZEFSAII (Michael W. Deem and Ramdas Pophale) SiO2 
 PCOD9423912
Probable space group: P C C A
;
_chemical_formula_sum "Si O2"
_cell_formula_units_Z 40
_cell_length_a 16.904433
_cell_length_b 18.602106
_cell_length_c 5.296426
_cell_angle_alpha 90.000000
_cell_angle_beta 90.000000
_cell_angle_gamma 90.000000
_cell_volume 1665.503816
_symmetry_space_group_name_H-M "P C C A"
_symmetry_group_IT_number 54
_symmetry_cell_setting 'orthorhombic'
loop_
_space_group_symop_operation_xyz
x,y,z
1/2-x,-y,z
1/2+x,-y,1/2-z
-x,y,1/2-z
-x,-y,-z
1/2+x,y,-z
1/2-x,y,1/2+z
x,-y,1/2+z
loop_
_atom_site_type_symbol
_atom_site_label
_atom_site_fract_x
_atom_site_fract_y
_atom_site_fract_z
Si Si1 0.084740 0.308904 0.123168
Si Si2 0.591320 0.168495 0.229870
Si Si3 0.841362 0.970077 0.992669
Si Si4 0.198059 0.773509 0.910029
Si Si5 0.091218 0.528299 0.665246
O O1 0.150506 0.298081 0.340158
O O2 0.090420 0.391711 0.047092
O O3 0.000000 0.297601 0.250000
O O4 0.094141 0.247021 0.909679
O O5 0.500000 0.147129 0.250000
O O6 0.644541 0.111339 0.077519
O O7 0.627113 0.173419 0.512075
O O8 0.750000 0.000000 0.970659
O O9 0.877774 0.014416 0.222798
O O10 0.249097 0.780642 0.162679
O O11 0.127743 0.478726 0.446011
O O12 0.000000 0.510843 0.750000
#
# Coordination Sequence:
#
# PCOD9423912 Si02
#       5
#     8   8   8   8   8
#     4  11  24  44  75 112 155 191 253 320 373 432
#     4  12  27  45  77 112 150 191 252 319 379 437
#     4  10  26  46  70  98 140 189 240 291 373 456
#     4  12  27  43  70 106 146 193 248 301 369 449
#     4   9  20  36  64 103 148 196 244 299 369 440
#
# _framework density 24.016756000000001
#
# number of rings (size 3 to 8) (size 9 to 14) (size 15 to 20)
#    0.000    1.200    4.000    0.000   11.200    1.600 
#    0.000    0.000    0.000    3.600    0.000    0.000 
#    0.000    0.000    0.000    0.000    0.000    0.000 
#
# Total GULP energy -222951.294279 kJ/mol
# GULP energy per Si atom -5573.782357 kJ/mol
# Density = 2.396209 g / cm^3
# Si number density = 24.016756 Si / 1000 Ang^3
#
#
#
# Elastic Constant Matrix: (Units=GPa)
#
#
# Indices 1 2 3 4 5 6 
#
# 1 100.0697 16.8858 21.6922 0.0000 0.0000 0.0000
# 2 16.8858 142.3994 33.5438 0.0000 0.0000 0.0000
# 3 21.6922 33.5438 130.9725 0.0000 0.0000 0.0000
# 4 0.0000 0.0000 0.0000 52.9317 0.0000 0.0000
# 5 0.0000 0.0000 0.0000 0.0000 31.9470 0.0000
# 6 0.0000 0.0000 0.0000 0.0000 0.0000 8.0897
#
#
#
# Elastic Compliance Matrix: (Units=1/GPa)
#
#
# Indices 1 2 3 4 5 6 
#
# 1 0.010469 -0.000886 -0.001507 0.000000 0.000000 0.000000
# 2 -0.000886 0.007548 -0.001786 0.000000 0.000000 0.000000
# 3 -0.001507 -0.001786 0.008342 0.000000 0.000000 0.000000
# 4 0.000000 0.000000 0.000000 0.018892 0.000000 0.000000
# 5 0.000000 0.000000 0.000000 0.000000 0.031302 0.000000
# 6 0.000000 0.000000 0.000000 0.000000 0.000000 0.123614
#
#
# Mechanical properties :
#
#
# Convention : Reuss Voigt Hill
#
# Bulk Modulus (GPa) = 55.55450 57.52058 56.53754
# Shear Modulus (GPa) = 23.30704 38.68167 30.99435
#
# Velocity S-wave (km/s) = 3.11858 4.01760 3.59629
# Velocity P-wave (km/s) = 6.01242 6.74712 6.39034
#
# Compressibility (1/GPa) = 0.01800034
#
# Stress axis : x y z
#
# Youngs Moduli (GPa) = 95.51762 132.47779 119.87098
#
# Poissons Ratio (x) = 0.11744 0.18064
# Poissons Ratio (y) = 0.08467 0.21414
# Poissons Ratio (z) = 0.14394 0.23666
#
# Static dielectric constant tensor:
#      x y z
#    x 1.933960 0.000000 0.000000 
#    y 0.000000 1.982070 0.000000 
#    z 0.000000 0.000000 2.035950 
# 
# From -- ./inp_files/942.got.cif
#   From: 2010.05.17/outbox.cif.g08.bks.cpg/sg54_1_cif.got.tgz:942.got - 2010.06.03 13:09:01.
