data_PCOD9423168
_publ_section_title
;
Structure prediction by ZEFSAII (Michael W. Deem and Ramdas Pophale) SiO2 
 PCOD9423168
Probable space group: P C C A
;
_chemical_formula_sum "Si O2"
_cell_formula_units_Z 32
_cell_length_a 5.208270
_cell_length_b 14.005444
_cell_length_c 19.492680
_cell_angle_alpha 90.000000
_cell_angle_beta 90.000000
_cell_angle_gamma 90.000000
_cell_volume 1421.876658
_symmetry_space_group_name_H-M "P C C A"
_symmetry_group_IT_number 54
_symmetry_cell_setting 'orthorhombic'
loop_
_space_group_symop_operation_xyz
x,y,z
1/2-x,-y,z
1/2+x,-y,1/2-z
-x,y,1/2-z
-x,-y,-z
1/2+x,y,-z
1/2-x,y,1/2+z
x,-y,1/2+z
loop_
_atom_site_type_symbol
_atom_site_label
_atom_site_fract_x
_atom_site_fract_y
_atom_site_fract_z
Si Si1 0.750000 0.000000 0.174185
Si Si2 0.000000 0.839170 0.250000
Si Si3 0.627189 0.791355 0.464188
Si Si4 0.750000 0.500000 0.297456
Si Si5 0.353196 0.708525 0.176614
Si Si6 0.250000 0.000000 0.578842
O O1 0.775394 0.908190 0.223162
O O2 0.498232 0.010972 0.127628
O O3 0.099046 0.770180 0.190746
O O4 0.412064 0.756535 0.517082
O O5 0.529146 0.759163 0.389482
O O6 0.676456 0.905702 0.463470
O O7 0.500000 0.482772 0.250000
O O8 0.799097 0.402358 0.337917
O O9 0.500000 0.710545 0.250000
#
# Coordination Sequence:
#
# PCOD9423168 Si02
#       6
#     4   4   8   4   8   4
#     4  12  25  37  64 102 136 180 228 286 340 410
#     4  12  24  40  66 102 144 176 230 292 352 404
#     4  12  27  45  66  98 140 184 229 282 347 412
#     4  10  22  42  72 108 134 170 234 294 352 408
#     4  11  25  45  75 102 138 182 235 293 349 412
#     4  12  23  45  62  90 138 186 238 272 334 418
#
# _framework density 22.505468
#
# number of rings (size 3 to 8) (size 9 to 14) (size 15 to 20)
#    0.000    0.500    3.750    4.500    5.250    0.000 
#    0.000    1.250    0.000    0.000    0.000    0.000 
#    0.000    0.000    0.000    0.000    0.000    0.000 
#
# Total GULP energy -178873.441610 kJ/mol
# GULP energy per Si atom -5589.795050 kJ/mol
# Density = 2.245424 g / cm^3
# Si number density = 22.505468 Si / 1000 Ang^3
#
#
#
# Elastic Constant Matrix: (Units=GPa)
#
#
# Indices 1 2 3 4 5 6 
#
# 1 129.5709 8.1810 30.3859 0.0000 0.0000 0.0000
# 2 8.1810 115.4789 8.1026 0.0000 0.0000 0.0000
# 3 30.3859 8.1026 77.9967 0.0000 0.0000 0.0000
# 4 0.0000 0.0000 0.0000 4.0068 0.0000 0.0000
# 5 0.0000 0.0000 0.0000 0.0000 41.8612 0.0000
# 6 0.0000 0.0000 0.0000 0.0000 0.0000 15.6818
#
#
#
# Elastic Compliance Matrix: (Units=1/GPa)
#
#
# Indices 1 2 3 4 5 6 
#
# 1 0.008510 -0.000373 -0.003276 0.000000 0.000000 0.000000
# 2 -0.000373 0.008740 -0.000763 0.000000 0.000000 0.000000
# 3 -0.003276 -0.000763 0.014177 0.000000 0.000000 0.000000
# 4 0.000000 0.000000 0.000000 0.249578 0.000000 0.000000
# 5 0.000000 0.000000 0.000000 0.000000 0.023888 0.000000
# 6 0.000000 0.000000 0.000000 0.000000 0.000000 0.063768
#
#
# Mechanical properties :
#
#
# Convention : Reuss Voigt Hill
#
# Bulk Modulus (GPa) = 44.24406 46.26504 45.25455
# Shear Modulus (GPa) = 12.98639 30.73508 21.86073
#
# Velocity S-wave (km/s) = 2.40476 3.69951 3.12003
# Velocity P-wave (km/s) = 5.23568 6.23301 5.75599
#
# Compressibility (1/GPa) = 0.02260190
#
# Stress axis : x y z
#
# Youngs Moduli (GPa) = 117.51290 114.42278 70.53815
#
# Poissons Ratio (x) = 0.04268 0.23112
# Poissons Ratio (y) = 0.04383 0.05379
# Poissons Ratio (z) = 0.38503 0.08726
#
# Static dielectric constant tensor:
#      x y z
#    x 1.887370 0.000000 0.000000 
#    y 0.000000 1.840030 0.000000 
#    z 0.000000 0.000000 1.852060 
# 
# From -- ./inp_files/15700.got.cif
#   From: 2010.05.17/outbox.cif.g08.bks.cpg/sg54_8_cif.got.tgz:15700.got - 2010.06.03 13:09:01.
