data_PCOD9423100
_publ_section_title
;
Structure prediction by ZEFSAII (Michael W. Deem and Ramdas Pophale) SiO2 
 PCOD9423100
Probable space group: P C C A
;
_chemical_formula_sum "Si O2"
_cell_formula_units_Z 32
_cell_length_a 4.804108
_cell_length_b 23.264798
_cell_length_c 11.468566
_cell_angle_alpha 90.000000
_cell_angle_beta 90.000000
_cell_angle_gamma 90.000000
_cell_volume 1281.802654
_symmetry_space_group_name_H-M "P C C A"
_symmetry_group_IT_number 54
_symmetry_cell_setting 'orthorhombic'
loop_
_space_group_symop_operation_xyz
x,y,z
1/2-x,-y,z
1/2+x,-y,1/2-z
-x,y,1/2-z
-x,-y,-z
1/2+x,y,-z
1/2-x,y,1/2+z
x,-y,1/2+z
loop_
_atom_site_type_symbol
_atom_site_label
_atom_site_fract_x
_atom_site_fract_y
_atom_site_fract_z
Si Si1 0.232295 0.370544 0.078696
Si Si2 0.500000 0.461527 0.250000
Si Si3 0.191996 0.935000 0.920146
Si Si4 0.142762 0.244422 0.581891
Si Si5 0.500000 0.850217 0.750000
O O1 0.340069 0.421350 0.158505
O O2 0.294407 0.307677 0.131616
O O3 0.412450 0.373352 0.959080
O O4 0.750000 0.500000 0.196980
O O5 0.303023 0.889781 0.828475
O O6 0.250000 0.000000 0.878232
O O7 0.375917 0.928605 0.038518
O O8 0.331169 0.240244 0.466737
O O9 0.180194 0.192821 0.670027
#
# Coordination Sequence:
#
# PCOD9423100 Si02
#       5
#     8   4   8   8   4
#     4  10  22  42  63  86 125 167 201 250 315 368
#     4  12  25  38  60  94 123 158 214 260 298 362
#     4  10  24  43  61  88 125 161 202 247 295 363
#     4  10  23  41  63  94 125 158 205 256 307 372
#     4  12  23  40  70  94 123 162 206 256 316 360
#
# _framework density 24.964839999999999
#
# number of rings (size 3 to 8) (size 9 to 14) (size 15 to 20)
#    0.000    1.500    0.000    3.750    0.000   10.000 
#    0.000    7.500    0.000    0.000    0.000    0.000 
#    0.000    0.000    0.000    0.000    0.000    0.000 
#
# Total GULP energy -179453.970025 kJ/mol
# GULP energy per Si atom -5607.936563 kJ/mol
# Density = 2.490802 g / cm^3
# Si number density = 24.964840 Si / 1000 Ang^3
#
#
#
# Elastic Constant Matrix: (Units=GPa)
#
#
# Indices 1 2 3 4 5 6 
#
# 1 73.6760 17.5072 -6.2549 0.0000 0.0000 0.0000
# 2 17.5072 181.3321 53.9960 0.0000 0.0000 0.0000
# 3 -6.2549 53.9960 41.4674 0.0000 0.0000 0.0000
# 4 0.0000 0.0000 0.0000 58.0683 0.0000 0.0000
# 5 0.0000 0.0000 0.0000 0.0000 24.8984 0.0000
# 6 0.0000 0.0000 0.0000 0.0000 0.0000 28.8061
#
#
#
# Elastic Compliance Matrix: (Units=1/GPa)
#
#
# Indices 1 2 3 4 5 6 
#
# 1 0.014969 -0.003459 0.006761 0.000000 0.000000 0.000000
# 2 -0.003459 0.009806 -0.013291 0.000000 0.000000 0.000000
# 3 0.006761 -0.013291 0.042441 0.000000 0.000000 0.000000
# 4 0.000000 0.000000 0.000000 0.017221 0.000000 0.000000
# 5 0.000000 0.000000 0.000000 0.000000 0.040163 0.000000
# 6 0.000000 0.000000 0.000000 0.000000 0.000000 0.034715
#
#
# Mechanical properties :
#
#
# Convention : Reuss Voigt Hill
#
# Bulk Modulus (GPa) = 21.16818 47.44134 34.30476
# Shear Modulus (GPa) = 25.63594 37.76970 31.70282
#
# Velocity S-wave (km/s) = 3.20798 3.89384 3.56743
# Velocity P-wave (km/s) = 4.71371 6.26582 5.54435
#
# Compressibility (1/GPa) = 0.04724071
#
# Stress axis : x y z
#
# Youngs Moduli (GPa) = 66.80556 101.97520 23.56185
#
# Poissons Ratio (x) = 0.35269 -0.15931
# Poissons Ratio (y) = 0.23105 0.31316
# Poissons Ratio (z) = -0.45170 1.35533
#
# Static dielectric constant tensor:
#      x y z
#    x 1.904650 0.000000 0.000000 
#    y 0.000000 1.966870 0.000000 
#    z 0.000000 0.000000 1.946180 
# 
# From -- ./inp_files/6288.got.cif
#   From: 2010.05.17/outbox.cif.g08.bks.cpg/sg54_4_cif.got.tgz:6288.got - 2010.06.03 13:09:01.
