data_PCOD9423295
_publ_section_title
;
Structure prediction by ZEFSAII (Michael W. Deem and Ramdas Pophale) SiO2 
 PCOD9423295
Probable space group: P C C A
;
_chemical_formula_sum "Si O2"
_cell_formula_units_Z 48
_cell_length_a 15.685011
_cell_length_b 11.160008
_cell_length_c 11.415262
_cell_angle_alpha 90.000000
_cell_angle_beta 90.000000
_cell_angle_gamma 90.000000
_cell_volume 1998.182804
_symmetry_space_group_name_H-M "P C C A"
_symmetry_group_IT_number 54
_symmetry_cell_setting 'orthorhombic'
loop_
_space_group_symop_operation_xyz
x,y,z
1/2-x,-y,z
1/2+x,-y,1/2-z
-x,y,1/2-z
-x,-y,-z
1/2+x,y,-z
1/2-x,y,1/2+z
x,-y,1/2+z
loop_
_atom_site_type_symbol
_atom_site_label
_atom_site_fract_x
_atom_site_fract_y
_atom_site_fract_z
Si Si1 0.199092 0.253552 0.392661
Si Si2 0.536824 0.791084 0.481135
Si Si3 0.867553 0.161393 0.894637
Si Si4 0.601654 0.926200 0.282832
Si Si5 0.377425 0.342740 0.302957
Si Si6 0.453203 0.427624 0.897187
O O1 0.209081 0.180284 0.514141
O O2 0.154909 0.163012 0.299674
O O3 0.279510 0.322286 0.339797
O O4 0.132668 0.357108 0.429245
O O5 0.451099 0.857473 0.523822
O O6 0.599958 0.877485 0.415084
O O7 0.574006 0.731015 0.596468
O O8 0.516155 0.686451 0.384901
O O9 0.886365 0.281356 0.821738
O O10 0.859818 0.058600 0.797094
O O11 0.500000 0.934274 0.250000
O O12 0.417775 0.475331 0.304997
O O13 0.500000 0.500000 0.000000
#
# Coordination Sequence:
#
# PCOD9423295 Si02
#       6
#     8   8   8   8   8   8
#     4  11  26  46  65 107 146 184 233 289 371 421
#     4  10  22  45  71 103 133 181 245 292 348 419
#     4  11  25  44  70 102 135 194 241 289 347 428
#     4  12  23  44  73  97 140 186 241 293 345 418
#     4  11  24  44  69 103 146 177 231 295 361 422
#     4   9  20  45  73 100 132 182 232 285 342 416
#
# _framework density 24.021825
#
# number of rings (size 3 to 8) (size 9 to 14) (size 15 to 20)
#    0.000    1.333    3.333    2.500    4.667    0.667 
#   24.000    3.333    0.000    0.000    0.000    0.000 
#    0.000    0.000    0.000    0.000    0.000    0.000 
#
# Total GULP energy -267997.798039 kJ/mol
# GULP energy per Si atom -5583.287459 kJ/mol
# Density = 2.396715 g / cm^3
# Si number density = 24.021825 Si / 1000 Ang^3
#
#
#
# Elastic Constant Matrix: (Units=GPa)
#
#
# Indices 1 2 3 4 5 6 
#
# 1 107.1140 32.9011 28.7750 0.0000 0.0000 0.0000
# 2 32.9011 117.2744 33.9877 0.0000 0.0000 0.0000
# 3 28.7750 33.9877 111.0811 0.0000 0.0000 0.0000
# 4 0.0000 0.0000 0.0000 32.8113 0.0000 0.0000
# 5 0.0000 0.0000 0.0000 0.0000 -57.3287 0.0000
# 6 0.0000 0.0000 0.0000 0.0000 0.0000 6.5115
#
#
#
# Elastic Compliance Matrix: (Units=1/GPa)
#
#
# Indices 1 2 3 4 5 6 
#
# 1 0.010613 -0.002393 -0.002017 0.000000 0.000000 0.000000
# 2 -0.002393 0.009896 -0.002408 0.000000 0.000000 0.000000
# 3 -0.002017 -0.002408 0.010262 0.000000 0.000000 0.000000
# 4 0.000000 0.000000 0.000000 0.030477 0.000000 0.000000
# 5 0.000000 0.000000 0.000000 0.000000 -0.017443 0.000000
# 6 0.000000 0.000000 0.000000 0.000000 0.000000 0.153573
#
#
# Mechanical properties :
#
#
# Convention : Reuss Voigt Hill
#
# Bulk Modulus (GPa) = 58.36100 58.53302 58.44701
# Shear Modulus (GPa) = 23.07067 12.38588 17.72827
#
# Velocity S-wave (km/s) = 3.10240 2.27317 2.71958
# Velocity P-wave (km/s) = 6.09762 5.59546 5.85193
#
# Compressibility (1/GPa) = 0.01713473
#
# Stress axis : x y z
#
# Youngs Moduli (GPa) = 94.22699 101.04878 97.44925
#
# Poissons Ratio (x) = 0.24179 0.19656
# Poissons Ratio (y) = 0.22547 0.23467
# Poissons Ratio (z) = 0.19006 0.24334
#
# Static dielectric constant tensor:
#      x y z
#    x 1.951510 0.000000 0.000000 
#    y 0.000000 1.929400 0.000000 
#    z 0.000000 0.000000 1.957020 
# 
# From -- ./inp_files/8924.got.cif
#   From: 2010.05.17/outbox.cif.g08.bks.cpg/sg54_5_cif.got.tgz:8924.got - 2010.06.03 13:09:01.
