data_PCOD9423648
_publ_section_title
;
Structure prediction by ZEFSAII (Michael W. Deem and Ramdas Pophale) SiO2 
 PCOD9423648
Probable space group: P C C A
;
_chemical_formula_sum "Si O2"
_cell_formula_units_Z 32
_cell_length_a 28.576731
_cell_length_b 5.191346
_cell_length_c 9.415600
_cell_angle_alpha 90.000000
_cell_angle_beta 90.000000
_cell_angle_gamma 90.000000
_cell_volume 1396.820249
_symmetry_space_group_name_H-M "P C C A"
_symmetry_group_IT_number 54
_symmetry_cell_setting 'orthorhombic'
loop_
_space_group_symop_operation_xyz
x,y,z
1/2-x,-y,z
1/2+x,-y,1/2-z
-x,y,1/2-z
-x,-y,-z
1/2+x,y,-z
1/2-x,y,1/2+z
x,-y,1/2+z
loop_
_atom_site_type_symbol
_atom_site_label
_atom_site_fract_x
_atom_site_fract_y
_atom_site_fract_z
Si Si1 0.623113 0.272187 0.169097
Si Si2 0.168625 0.565192 0.076147
Si Si3 0.299677 0.946231 0.218840
Si Si4 0.982701 0.248998 0.586040
O O1 0.654134 0.465080 0.075664
O O2 0.621881 0.385939 0.328382
O O3 0.573540 0.236613 0.098449
O O4 0.654627 0.016789 0.187999
O O5 0.196123 0.332501 0.151165
O O6 0.196263 0.830147 0.097574
O O7 0.250000 0.000000 0.291048
O O8 0.000000 0.251555 0.750000
O O9 0.000000 0.500000 0.500000
O O10 0.000000 0.000000 0.500000
#
# Coordination Sequence:
#
# PCOD9423648 Si02
#       4
#     8   8   8   8
#     4  10  26  43  74  95 147 173 242 280 365 409
#     4  10  24  41  69  97 137 180 224 287 345 416
#     4  10  24  43  67 100 136 179 232 283 353 415
#     4  12  28  46  76 107 147 192 248 302 372 442
#
# _framework density 22.909178000000001
#
# number of rings (size 3 to 8) (size 9 to 14) (size 15 to 20)
#    1.500    0.000    0.000    3.000   10.500    1.000 
#    4.500    0.000    0.000    0.000    0.000    0.000 
#    0.000    0.000    0.000    0.000    0.000    0.000 
#
# Total GULP energy -178639.179742 kJ/mol
# GULP energy per Si atom -5582.474367 kJ/mol
# Density = 2.285704 g / cm^3
# Si number density = 22.909178 Si / 1000 Ang^3
#
#
#
# Elastic Constant Matrix: (Units=GPa)
#
#
# Indices 1 2 3 4 5 6 
#
# 1 114.9806 22.6162 14.4989 0.0000 0.0000 0.0000
# 2 22.6162 147.8369 43.1735 0.0000 0.0000 0.0000
# 3 14.4989 43.1735 115.0536 0.0000 0.0000 0.0000
# 4 0.0000 0.0000 0.0000 31.6010 0.0000 0.0000
# 5 0.0000 0.0000 0.0000 0.0000 22.3799 0.0000
# 6 0.0000 0.0000 0.0000 0.0000 0.0000 22.1603
#
#
#
# Elastic Compliance Matrix: (Units=1/GPa)
#
#
# Indices 1 2 3 4 5 6 
#
# 1 0.009016 -0.001176 -0.000695 0.000000 0.000000 0.000000
# 2 -0.001176 0.007750 -0.002760 0.000000 0.000000 0.000000
# 3 -0.000695 -0.002760 0.009815 0.000000 0.000000 0.000000
# 4 0.000000 0.000000 0.000000 0.031645 0.000000 0.000000
# 5 0.000000 0.000000 0.000000 0.000000 0.044683 0.000000
# 6 0.000000 0.000000 0.000000 0.000000 0.000000 0.045126
#
#
# Mechanical properties :
#
#
# Convention : Reuss Voigt Hill
#
# Bulk Modulus (GPa) = 57.74056 59.82759 58.78408
# Shear Modulus (GPa) = 30.66174 35.06705 32.86439
#
# Velocity S-wave (km/s) = 3.66239 3.91666 3.79166
# Velocity P-wave (km/s) = 6.56833 6.82828 6.69957
#
# Compressibility (1/GPa) = 0.01731885
#
# Stress axis : x y z
#
# Youngs Moduli (GPa) = 110.91240 129.02903 101.88659
#
# Poissons Ratio (x) = 0.15179 0.07079
# Poissons Ratio (y) = 0.13048 0.28121
# Poissons Ratio (z) = 0.07706 0.35612
#
# Static dielectric constant tensor:
#      x y z
#    x 1.858780 0.000000 0.000000 
#    y 0.000000 1.796350 0.000000 
#    z 0.000000 0.000000 1.914770 
# 
# From -- ./inp_files/5702.got.cif
#   From: 2010.05.17/outbox.cif.g08.bks.cpg/sg54_3_cif.got.tgz:5702.got - 2010.06.03 13:09:01.
