data_PCOD9423370
_publ_section_title
;
Structure prediction by ZEFSAII (Michael W. Deem and Ramdas Pophale) SiO2 
 PCOD9423370
Probable space group: P C C A
;
_chemical_formula_sum "Si O2"
_cell_formula_units_Z 56
_cell_length_a 7.931396
_cell_length_b 20.173853
_cell_length_c 15.391921
_cell_angle_alpha 90.000000
_cell_angle_beta 90.000000
_cell_angle_gamma 90.000000
_cell_volume 2462.812287
_symmetry_space_group_name_H-M "P C C A"
_symmetry_group_IT_number 54
_symmetry_cell_setting 'orthorhombic'
loop_
_space_group_symop_operation_xyz
x,y,z
1/2-x,-y,z
1/2+x,-y,1/2-z
-x,y,1/2-z
-x,-y,-z
1/2+x,y,-z
1/2-x,y,1/2+z
x,-y,1/2+z
loop_
_atom_site_type_symbol
_atom_site_label
_atom_site_fract_x
_atom_site_fract_y
_atom_site_fract_z
Si Si1 0.548660 0.504505 0.346008
Si Si2 0.443631 0.207585 0.844684
Si Si3 0.425639 0.350154 0.608743
Si Si4 0.625189 0.951108 0.553790
Si Si5 0.445649 0.759274 0.845366
Si Si6 0.603272 0.851208 0.971986
Si Si7 0.028267 0.370477 0.585210
O O1 0.750000 0.500000 0.356529
O O2 0.500000 0.482346 0.250000
O O3 0.495958 0.580853 0.356430
O O4 0.476182 0.447459 0.408209
O O5 0.500000 0.179214 0.750000
O O6 0.524909 0.280978 0.847871
O O7 0.242620 0.214126 0.857138
O O8 0.482313 0.167856 0.934279
O O9 0.224731 0.361089 0.608096
O O10 0.489800 0.345985 0.510724
O O11 0.500768 0.898673 0.594758
O O12 0.744934 0.900507 0.498948
O O13 0.750000 0.000000 0.603882
O O14 0.500000 0.000000 0.500000
O O15 0.500000 0.778059 0.750000
O O16 0.585948 0.783898 0.916075
O O17 0.430585 0.679721 0.852675
#
# Coordination Sequence:
#
# PCOD9423370 Si02
#       7
#     8   8   8   8   8   8   8
#     4  10  23  40  58  84 120 170 221 281 344 408
#     4  12  26  41  65 100 137 179 226 283 341 405
#     4  11  23  40  62  89 127 169 227 282 344 407
#     4   9  20  40  72 106 130 176 219 260 320 392
#     4  12  26  41  65 100 137 178 228 282 341 403
#     4  11  22  42  70  99 139 174 225 271 330 396
#     4  11  23  40  62  89 127 169 227 284 341 407
#
# _framework density 22.738233000000001
#
# number of rings (size 3 to 8) (size 9 to 14) (size 15 to 20)
#    0.000    1.143    2.857    3.000    4.000    4.571 
#    0.000    0.000    0.000   12.857    0.000    0.000 
#    0.000    0.000    0.000    0.000    0.000    0.000 
#
# Total GULP energy -311745.142414 kJ/mol
# GULP energy per Si atom -5566.877543 kJ/mol
# Density = 2.268648 g / cm^3
# Si number density = 22.738233 Si / 1000 Ang^3
#
#
#
# Elastic Constant Matrix: (Units=GPa)
#
#
# Indices 1 2 3 4 5 6 
#
# 1 29.6313 28.0459 -0.8647 0.0000 0.0000 0.0000
# 2 28.0459 119.3999 18.7004 0.0000 0.0000 0.0000
# 3 -0.8647 18.7004 96.1182 0.0000 0.0000 0.0000
# 4 0.0000 0.0000 0.0000 -2.6724 0.0000 0.0000
# 5 0.0000 0.0000 0.0000 0.0000 25.8398 0.0000
# 6 0.0000 0.0000 0.0000 0.0000 0.0000 43.5271
#
#
#
# Elastic Compliance Matrix: (Units=1/GPa)
#
#
# Indices 1 2 3 4 5 6 
#
# 1 0.043962 -0.010715 0.002480 0.000000 0.000000 0.000000
# 2 -0.010715 0.011250 -0.002285 0.000000 0.000000 0.000000
# 3 0.002480 -0.002285 0.010871 0.000000 0.000000 0.000000
# 4 0.000000 0.000000 0.000000 -0.374198 0.000000 0.000000
# 5 0.000000 0.000000 0.000000 0.000000 0.038700 0.000000
# 6 0.000000 0.000000 0.000000 0.000000 0.000000 0.022974
#
#
# Mechanical properties :
#
#
# Convention : Reuss Voigt Hill
#
# Bulk Modulus (GPa) = 22.20096 37.43475 29.81785
# Shear Modulus (GPa) = -23.76562 26.62343 1.42891
#
# Velocity S-wave (km/s) = -3.23644 3.42550 0.79359
# Velocity P-wave (km/s) = 2.04478 5.66961 3.73921
#
# Compressibility (1/GPa) = 0.04504310
#
# Stress axis : x y z
#
# Youngs Moduli (GPa) = 22.74699 88.88970 91.98991
#
# Poissons Ratio (x) = 0.95242 -0.22814
# Poissons Ratio (y) = 0.24373 0.21021
# Poissons Ratio (z) = -0.05641 0.20312
#
# Static dielectric constant tensor:
#      x y z
#    x 2.018020 0.000000 0.000000 
#    y 0.000000 1.913240 0.000000 
#    z 0.000000 0.000000 1.883280 
# 
# From -- ./inp_files/11865.got.cif
#   From: 2010.05.17/outbox.cif.g08.bks.cpg/sg54_6_cif.got.tgz:11865.got - 2010.06.03 13:09:01.
