data_PCOD9423509
_publ_section_title
;
Structure prediction by ZEFSAII (Michael W. Deem and Ramdas Pophale) SiO2 
 PCOD9423509
Probable space group: P C C A
;
_chemical_formula_sum "Si O2"
_cell_formula_units_Z 40
_cell_length_a 9.141820
_cell_length_b 10.341583
_cell_length_c 20.917181
_cell_angle_alpha 90.000000
_cell_angle_beta 90.000000
_cell_angle_gamma 90.000000
_cell_volume 1977.528914
_symmetry_space_group_name_H-M "P C C A"
_symmetry_group_IT_number 54
_symmetry_cell_setting 'orthorhombic'
loop_
_space_group_symop_operation_xyz
x,y,z
1/2-x,-y,z
1/2+x,-y,1/2-z
-x,y,1/2-z
-x,-y,-z
1/2+x,y,-z
1/2-x,y,1/2+z
x,-y,1/2+z
loop_
_atom_site_type_symbol
_atom_site_label
_atom_site_fract_x
_atom_site_fract_y
_atom_site_fract_z
Si Si1 0.907253 0.480622 0.908323
Si Si2 0.872704 0.894440 0.198771
Si Si3 0.879147 0.398634 0.697097
Si Si4 0.932045 0.707439 0.526309
Si Si5 0.158537 0.126163 0.947320
O O1 0.750000 0.500000 0.875720
O O2 0.027928 0.405685 0.867872
O O3 0.973242 0.619764 0.926097
O O4 0.882564 0.393596 0.971307
O O5 0.823686 0.746285 0.208858
O O6 0.908394 0.903738 0.122741
O O7 0.000000 0.916147 0.250000
O O8 0.750000 0.000000 0.210521
O O9 0.750000 0.500000 0.695536
O O10 0.000000 0.432029 0.750000
O O11 0.787684 0.767107 0.557694
O O12 0.035424 0.817198 0.494527
O O13 0.250000 0.000000 0.969841
#
# Coordination Sequence:
#
# PCOD9423509 Si02
#       5
#     8   8   8   8   8
#     4  11  22  37  62  92 130 171 215 263 325 394
#     4  10  23  44  67  93 126 170 220 267 327 387
#     4  11  23  41  66  94 130 167 222 281 325 385
#     4  11  22  38  62  95 129 170 214 259 329 389
#     4  11  22  41  63  93 131 170 218 272 321 389
#
# _framework density 20.227264000000002
#
# number of rings (size 3 to 8) (size 9 to 14) (size 15 to 20)
#    0.000    1.200    4.000    2.400    0.000    0.800 
#    0.000   13.000    0.000    0.000    0.000    0.000 
#    0.000    0.000    0.000    0.000    0.000    0.000 
#
# Total GULP energy -223444.168464 kJ/mol
# GULP energy per Si atom -5586.104212 kJ/mol
# Density = 2.018123 g / cm^3
# Si number density = 20.227264 Si / 1000 Ang^3
#
#
#
# Elastic Constant Matrix: (Units=GPa)
#
#
# Indices 1 2 3 4 5 6 
#
# 1 112.4746 64.9077 43.2552 0.0000 0.0000 0.0000
# 2 64.9077 96.5802 24.0514 0.0000 0.0000 0.0000
# 3 43.2552 24.0514 67.5672 0.0000 0.0000 0.0000
# 4 0.0000 0.0000 0.0000 22.7914 0.0000 0.0000
# 5 0.0000 0.0000 0.0000 0.0000 26.3352 0.0000
# 6 0.0000 0.0000 0.0000 0.0000 0.0000 44.5698
#
#
#
# Elastic Compliance Matrix: (Units=1/GPa)
#
#
# Indices 1 2 3 4 5 6 
#
# 1 0.017564 -0.009880 -0.007727 0.000000 0.000000 0.000000
# 2 -0.009880 0.016919 0.000302 0.000000 0.000000 0.000000
# 3 -0.007727 0.000302 0.019639 0.000000 0.000000 0.000000
# 4 0.000000 0.000000 0.000000 0.043876 0.000000 0.000000
# 5 0.000000 0.000000 0.000000 0.000000 0.037972 0.000000
# 6 0.000000 0.000000 0.000000 0.000000 0.000000 0.022437
#
#
# Mechanical properties :
#
#
# Convention : Reuss Voigt Hill
#
# Bulk Modulus (GPa) = 51.24882 60.11672 55.68277
# Shear Modulus (GPa) = 25.06003 28.36646 26.71324
#
# Velocity S-wave (km/s) = 3.52365 3.74891 3.63802
# Velocity P-wave (km/s) = 6.47660 6.96594 6.72572
#
# Compressibility (1/GPa) = 0.01951264
#
# Stress axis : x y z
#
# Youngs Moduli (GPa) = 56.93395 59.10653 50.91819
#
# Poissons Ratio (x) = 0.58396 0.39347
# Poissons Ratio (y) = 0.56250 -0.01540
# Poissons Ratio (z) = 0.43995 -0.01788
#
# Static dielectric constant tensor:
#      x y z
#    x 1.677290 0.000000 0.000000 
#    y 0.000000 1.719670 0.000000 
#    z 0.000000 0.000000 1.749940 
# 
# From -- ./inp_files/23211.got.cif
#   From: 2010.05.17/outbox.cif.g08.bks.cpg/sg54_12_cif.got.tgz:23211.got - 2010.06.03 13:09:01.
