data_PCOD9423898
_publ_section_title
;
Structure prediction by ZEFSAII (Michael W. Deem and Ramdas Pophale) SiO2 
 PCOD9423898
Probable space group: P C C A
;
_chemical_formula_sum "Si O2"
_cell_formula_units_Z 40
_cell_length_a 11.317586
_cell_length_b 5.062106
_cell_length_c 28.057316
_cell_angle_alpha 90.000000
_cell_angle_beta 90.000000
_cell_angle_gamma 90.000000
_cell_volume 1607.426641
_symmetry_space_group_name_H-M "P C C A"
_symmetry_group_IT_number 54
_symmetry_cell_setting 'orthorhombic'
loop_
_space_group_symop_operation_xyz
x,y,z
1/2-x,-y,z
1/2+x,-y,1/2-z
-x,y,1/2-z
-x,-y,-z
1/2+x,y,-z
1/2-x,y,1/2+z
x,-y,1/2+z
loop_
_atom_site_type_symbol
_atom_site_label
_atom_site_fract_x
_atom_site_fract_y
_atom_site_fract_z
Si Si1 0.578983 0.751794 0.013102
Si Si2 0.750000 0.000000 0.942316
Si Si3 0.969301 0.744521 0.353167
Si Si4 0.250000 0.500000 0.096374
Si Si5 0.250000 0.000000 0.297814
Si Si6 0.114117 0.257619 0.377936
Si Si7 0.500000 0.161613 0.250000
O O1 0.680551 0.785563 0.974173
O O2 0.500000 0.500000 0.000000
O O3 0.635637 0.779443 0.065588
O O4 0.500000 0.000000 0.000000
O O5 0.671235 0.238101 0.919854
O O6 0.843680 0.682103 0.375429
O O7 0.966750 0.681664 0.297251
O O8 0.060636 0.546800 0.376599
O O9 0.019141 0.036573 0.361208
O O10 0.285494 0.778066 0.337388
O O11 0.128999 0.967580 0.266161
#
# Coordination Sequence:
#
# PCOD9423898 Si02
#       7
#     8   4   8   4   4   8   4
#     4  12  24  42  68  99 141 189 243 299 362 444
#     4  12  25  41  66 100 136 186 244 293 359 442
#     4  11  25  43  70  99 139 180 236 297 365 437
#     4  12  24  42  66 100 140 184 232 298 368 434
#     4  10  25  49  76 108 150 192 250 309 379 452
#     4  11  24  45  68 101 141 190 238 303 369 433
#     4  10  26  48  76 110 140 192 246 306 372 450
#
# _framework density 24.884494
#
# number of rings (size 3 to 8) (size 9 to 14) (size 15 to 20)
#    0.000    0.800    0.000    7.800    0.000   12.000 
#    0.000    6.000    0.000    0.000    0.000    0.000 
#    0.000    0.000    0.000    0.000    0.000    0.000 
#
# Total GULP energy -222694.243428 kJ/mol
# GULP energy per Si atom -5567.356086 kJ/mol
# Density = 2.482786 g / cm^3
# Si number density = 24.884494 Si / 1000 Ang^3
#
#
#
# Elastic Constant Matrix: (Units=GPa)
#
#
# Indices 1 2 3 4 5 6 
#
# 1 98.1395 29.5626 -19.7760 0.0000 0.0000 0.0000
# 2 29.5626 116.9029 5.8004 0.0000 0.0000 0.0000
# 3 -19.7760 5.8004 80.7971 0.0000 0.0000 0.0000
# 4 0.0000 0.0000 0.0000 45.5544 0.0000 0.0000
# 5 0.0000 0.0000 0.0000 0.0000 3.2580 0.0000
# 6 0.0000 0.0000 0.0000 0.0000 0.0000 37.9178
#
#
#
# Elastic Compliance Matrix: (Units=1/GPa)
#
#
# Indices 1 2 3 4 5 6 
#
# 1 0.011757 -0.003127 0.003102 0.000000 0.000000 0.000000
# 2 -0.003127 0.009416 -0.001441 0.000000 0.000000 0.000000
# 3 0.003102 -0.001441 0.013239 0.000000 0.000000 0.000000
# 4 0.000000 0.000000 0.000000 0.021952 0.000000 0.000000
# 5 0.000000 0.000000 0.000000 0.000000 0.306935 0.000000
# 6 0.000000 0.000000 0.000000 0.000000 0.000000 0.026373
#
#
# Mechanical properties :
#
#
# Convention : Reuss Voigt Hill
#
# Bulk Modulus (GPa) = 31.76631 36.33482 34.05056
# Shear Modulus (GPa) = 12.40392 36.02955 24.21673
#
# Velocity S-wave (km/s) = 2.23504 3.80922 3.12294
# Velocity P-wave (km/s) = 4.41064 5.82923 5.16884
#
# Compressibility (1/GPa) = 0.03147989
#
# Stress axis : x y z
#
# Youngs Moduli (GPa) = 85.05864 106.19807 75.53202
#
# Poissons Ratio (x) = 0.33208 -0.23430
# Poissons Ratio (y) = 0.26597 0.10887
# Poissons Ratio (z) = -0.26386 0.15307
#
# Static dielectric constant tensor:
#      x y z
#    x 1.494520 0.000000 0.000000 
#    y 0.000000 2.243950 0.000000 
#    z 0.000000 0.000000 2.626030 
# 
# From -- ./inp_files/26124.got.cif
#   From: 2010.05.17/outbox.cif.g08.bks.cpg/sg54_14_cif.got.tgz:26124.got - 2010.06.03 13:09:01.
