data_PCOD9423888
_publ_section_title
;
Structure prediction by ZEFSAII (Michael W. Deem and Ramdas Pophale) SiO2 
 PCOD9423888
Probable space group: P C C A
;
_chemical_formula_sum "Si O2"
_cell_formula_units_Z 32
_cell_length_a 11.538868
_cell_length_b 13.078021
_cell_length_c 9.368784
_cell_angle_alpha 90.000000
_cell_angle_beta 90.000000
_cell_angle_gamma 90.000000
_cell_volume 1413.801577
_symmetry_space_group_name_H-M "P C C A"
_symmetry_group_IT_number 54
_symmetry_cell_setting 'orthorhombic'
loop_
_space_group_symop_operation_xyz
x,y,z
1/2-x,-y,z
1/2+x,-y,1/2-z
-x,y,1/2-z
-x,-y,-z
1/2+x,y,-z
1/2-x,y,1/2+z
x,-y,1/2+z
loop_
_atom_site_type_symbol
_atom_site_label
_atom_site_fract_x
_atom_site_fract_y
_atom_site_fract_z
Si Si1 0.500000 0.034810 0.250000
Si Si2 0.693215 0.309366 0.564139
Si Si3 0.000000 0.406209 0.250000
Si Si4 0.348328 0.082274 0.986455
Si Si5 0.873249 0.606045 0.272814
O O1 0.576828 0.095972 0.367484
O O2 0.576852 0.964217 0.144162
O O3 0.570113 0.340127 0.636223
O O4 0.706500 0.187923 0.567783
O O5 0.689434 0.341434 0.401824
O O6 0.794726 0.373405 0.637363
O O7 0.904783 0.487941 0.307783
O O8 0.250000 0.000000 0.021482
O O9 0.000000 0.653430 0.250000
#
# Coordination Sequence:
#
# PCOD9423888 Si02
#       5
#     4   8   4   8   8
#     4  10  25  47  72 104 150 188 247 319 362 444
#     4  12  26  46  78 108 152 202 251 312 393 451
#     4  10  25  49  78 104 152 194 257 315 382 448
#     4  11  26  45  76 107 151 192 255 306 383 445
#     4  10  28  45  74 110 150 194 259 311 379 457
#
# _framework density 22.63401
#
# number of rings (size 3 to 8) (size 9 to 14) (size 15 to 20)
#    0.750    0.500    0.000    3.000   12.250    4.000 
#    0.000    0.000    0.000    0.000    0.000    0.000 
#    0.000    0.000    0.000    0.000    0.000    0.000 
#
# Total GULP energy -178860.019495 kJ/mol
# GULP energy per Si atom -5589.375609 kJ/mol
# Density = 2.258249 g / cm^3
# Si number density = 22.634010 Si / 1000 Ang^3
#
#
#
# Elastic Constant Matrix: (Units=GPa)
#
#
# Indices 1 2 3 4 5 6 
#
# 1 94.0885 24.8536 34.2716 0.0000 0.0000 0.0000
# 2 24.8536 99.8120 -13.2017 0.0000 0.0000 0.0000
# 3 34.2716 -13.2017 90.7909 0.0000 0.0000 0.0000
# 4 0.0000 0.0000 0.0000 31.8941 0.0000 0.0000
# 5 0.0000 0.0000 0.0000 0.0000 22.6839 0.0000
# 6 0.0000 0.0000 0.0000 0.0000 0.0000 29.4942
#
#
#
# Elastic Compliance Matrix: (Units=1/GPa)
#
#
# Indices 1 2 3 4 5 6 
#
# 1 0.013878 -0.004230 -0.005854 0.000000 0.000000 0.000000
# 2 -0.004230 0.011505 0.003270 0.000000 0.000000 0.000000
# 3 -0.005854 0.003270 0.013699 0.000000 0.000000 0.000000
# 4 0.000000 0.000000 0.000000 0.031354 0.000000 0.000000
# 5 0.000000 0.000000 0.000000 0.000000 0.044084 0.000000
# 6 0.000000 0.000000 0.000000 0.000000 0.000000 0.033905
#
#
# Mechanical properties :
#
#
# Convention : Reuss Voigt Hill
#
# Bulk Modulus (GPa) = 39.28691 41.83759 40.56225
# Shear Modulus (GPa) = 29.31917 32.73232 31.02575
#
# Velocity S-wave (km/s) = 3.60301 3.80696 3.70639
# Velocity P-wave (km/s) = 5.89102 6.15211 6.02298
#
# Compressibility (1/GPa) = 0.02545377
#
# Stress axis : x y z
#
# Youngs Moduli (GPa) = 72.05766 86.92227 72.99625
#
# Poissons Ratio (x) = 0.36767 0.42729
# Poissons Ratio (y) = 0.30479 -0.23866
# Poissons Ratio (z) = 0.42180 -0.28419
#
# Static dielectric constant tensor:
#      x y z
#    x 1.807890 0.000000 0.000000 
#    y 0.000000 1.822820 0.000000 
#    z 0.000000 0.000000 3.116770 
# 
# From -- ./inp_files/2868.got.cif
#   From: 2010.05.17/outbox.cif.g08.bks.cpg/sg54_2_cif.got.tgz:2868.got - 2010.06.03 13:09:01.
