data_PCOD9423945
_publ_section_title
;
Structure prediction by ZEFSAII (Michael W. Deem and Ramdas Pophale) SiO2 
 PCOD9423945
Probable space group: P C C A
;
_chemical_formula_sum "Si O2"
_cell_formula_units_Z 40
_cell_length_a 14.376893
_cell_length_b 11.164449
_cell_length_c 9.963779
_cell_angle_alpha 90.000000
_cell_angle_beta 90.000000
_cell_angle_gamma 90.000000
_cell_volume 1599.287051
_symmetry_space_group_name_H-M "P C C A"
_symmetry_group_IT_number 54
_symmetry_cell_setting 'orthorhombic'
loop_
_space_group_symop_operation_xyz
x,y,z
1/2-x,-y,z
1/2+x,-y,1/2-z
-x,y,1/2-z
-x,-y,-z
1/2+x,y,-z
1/2-x,y,1/2+z
x,-y,1/2+z
loop_
_atom_site_type_symbol
_atom_site_label
_atom_site_fract_x
_atom_site_fract_y
_atom_site_fract_z
Si Si1 0.750921 0.770193 0.435980
Si Si2 0.000000 0.495925 0.250000
Si Si3 0.902283 0.074067 0.312145
Si Si4 0.250000 0.000000 0.877291
Si Si5 0.086237 0.359066 0.998377
Si Si6 0.951989 0.168374 0.894152
O O1 0.673283 0.820966 0.332760
O O2 0.754839 0.880630 0.537527
O O3 0.696630 0.661690 0.502707
O O4 0.856715 0.754203 0.392042
O O5 0.940547 0.419777 0.359210
O O6 0.942535 0.573143 0.139233
O O7 0.000000 0.112282 0.250000
O O8 0.841971 0.992118 0.210983
O O9 0.923623 0.970178 0.422112
O O10 0.026570 0.234184 0.989465
O O11 0.000000 0.167922 0.750000
#
# Coordination Sequence:
#
# PCOD9423945 Si02
#       6
#     8   4   8   4   8   8
#     4  12  25  42  69 116 148 209 250 309 392 479
#     4  10  26  56  74 110 146 186 278 338 386 452
#     4  11  24  40  62 103 158 200 249 304 372 476
#     4  12  22  40  62 104 166 192 252 304 372 488
#     4  11  26  49  81 104 148 197 256 337 390 456
#     4  11  22  46  71 109 155 206 246 316 388 464
#
# _framework density 25.011146
#
# number of rings (size 3 to 8) (size 9 to 14) (size 15 to 20)
#    0.000    0.800    5.000    2.400    4.200    1.600 
#    0.000    6.000    0.000    0.000    0.000    0.000 
#    0.000    0.000    0.000    0.000    0.000    0.000 
#
# Total GULP energy -223419.301890 kJ/mol
# GULP energy per Si atom -5585.482547 kJ/mol
# Density = 2.495422 g / cm^3
# Si number density = 25.011146 Si / 1000 Ang^3
#
#
#
# Elastic Constant Matrix: (Units=GPa)
#
#
# Indices 1 2 3 4 5 6 
#
# 1 171.4876 -13.9151 30.5734 0.0000 0.0000 0.0000
# 2 -13.9151 47.3505 14.2603 0.0000 0.0000 0.0000
# 3 30.5734 14.2603 110.6152 0.0000 0.0000 0.0000
# 4 0.0000 0.0000 0.0000 49.9884 0.0000 0.0000
# 5 0.0000 0.0000 0.0000 0.0000 45.1886 0.0000
# 6 0.0000 0.0000 0.0000 0.0000 0.0000 24.3158
#
#
#
# Elastic Compliance Matrix: (Units=1/GPa)
#
#
# Indices 1 2 3 4 5 6 
#
# 1 0.006409 0.002515 -0.002096 0.000000 0.000000 0.000000
# 2 0.002515 0.022959 -0.003655 0.000000 0.000000 0.000000
# 3 -0.002096 -0.003655 0.010091 0.000000 0.000000 0.000000
# 4 0.000000 0.000000 0.000000 0.020005 0.000000 0.000000
# 5 0.000000 0.000000 0.000000 0.000000 0.022129 0.000000
# 6 0.000000 0.000000 0.000000 0.000000 0.000000 0.041126
#
#
# Mechanical properties :
#
#
# Convention : Reuss Voigt Hill
#
# Bulk Modulus (GPa) = 30.31517 43.47671 36.89594
# Shear Modulus (GPa) = 35.66705 43.80086 39.73396
#
# Velocity S-wave (km/s) = 3.78040 4.18934 3.99011
# Velocity P-wave (km/s) = 5.58589 6.38916 6.00098
#
# Compressibility (1/GPa) = 0.03298678
#
# Stress axis : x y z
#
# Youngs Moduli (GPa) = 156.03134 43.55642 99.10100
#
# Poissons Ratio (x) = -0.10952 0.20767
# Poissons Ratio (y) = -0.39235 0.36219
# Poissons Ratio (z) = 0.32697 0.15919
#
# Static dielectric constant tensor:
#      x y z
#    x 1.963660 0.000000 0.000000 
#    y 0.000000 2.158130 0.000000 
#    z 0.000000 0.000000 2.099960 
# 
# From -- ./inp_files/8254.got.cif
#   From: 2010.05.17/outbox.cif.g08.bks.cpg/sg54_5_cif.got.tgz:8254.got - 2010.06.03 13:09:01.
