data_PCOD9423893
_publ_section_title
;
Structure prediction by ZEFSAII (Michael W. Deem and Ramdas Pophale) SiO2 
 PCOD9423893
Probable space group: P C C A
;
_chemical_formula_sum "Si O2"
_cell_formula_units_Z 36
_cell_length_a 5.433859
_cell_length_b 11.261583
_cell_length_c 22.433666
_cell_angle_alpha 90.000000
_cell_angle_beta 90.000000
_cell_angle_gamma 90.000000
_cell_volume 1372.802485
_symmetry_space_group_name_H-M "P C C A"
_symmetry_group_IT_number 54
_symmetry_cell_setting 'orthorhombic'
loop_
_space_group_symop_operation_xyz
x,y,z
1/2-x,-y,z
1/2+x,-y,1/2-z
-x,y,1/2-z
-x,-y,-z
1/2+x,y,-z
1/2-x,y,1/2+z
x,-y,1/2+z
loop_
_atom_site_type_symbol
_atom_site_label
_atom_site_fract_x
_atom_site_fract_y
_atom_site_fract_z
Si Si1 0.813966 0.361337 0.692657
Si Si2 0.066995 0.799784 0.103381
Si Si3 0.166155 0.617084 0.536398
Si Si4 0.250000 0.000000 0.910045
Si Si5 0.547392 0.854399 0.313259
O O1 0.750000 0.500000 0.691055
O O2 0.572819 0.276832 0.694008
O O3 0.000000 0.343471 0.750000
O O4 0.924141 0.313244 0.630073
O O5 0.290948 0.740631 0.068706
O O6 0.173370 0.855227 0.164388
O O7 0.932053 0.899700 0.063784
O O8 0.250000 0.500000 0.573118
O O9 0.388083 0.613050 0.487173
O O10 0.405865 0.082133 0.866082
O O11 0.500000 0.913331 0.250000
#
# Coordination Sequence:
#
# PCOD9423893 Si02
#       5
#     8   8   8   4   8
#     4  11  24  37  59  98 141 181 227 280 351 426
#     4  11  25  44  68  98 138 182 233 292 351 426
#     4  10  25  47  76 107 139 180 236 300 370 438
#     4  10  26  40  66  98 134 180 238 278 342 408
#     4  11  23  40  64  94 136 183 231 276 340 415
#
# _framework density 26.223728000000001
#
# number of rings (size 3 to 8) (size 9 to 14) (size 15 to 20)
#    0.000    1.333    2.222    1.333   12.444    0.889 
#    0.000    1.111    0.000    0.000    0.000    0.000 
#    0.000    0.000    0.000    0.000    0.000    0.000 
#
# Total GULP energy -200889.213284 kJ/mol
# GULP energy per Si atom -5580.255925 kJ/mol
# Density = 2.616404 g / cm^3
# Si number density = 26.223728 Si / 1000 Ang^3
#
#
#
# Elastic Constant Matrix: (Units=GPa)
#
#
# Indices 1 2 3 4 5 6 
#
# 1 93.1134 45.7200 20.5474 0.0000 0.0000 0.0000
# 2 45.7200 167.7749 21.1370 0.0000 0.0000 0.0000
# 3 20.5474 21.1370 15.4093 0.0000 0.0000 0.0000
# 4 0.0000 0.0000 0.0000 15.6895 0.0000 0.0000
# 5 0.0000 0.0000 0.0000 0.0000 30.8641 0.0000
# 6 0.0000 0.0000 0.0000 0.0000 0.0000 65.6999
#
#
#
# Elastic Compliance Matrix: (Units=1/GPa)
#
#
# Indices 1 2 3 4 5 6 
#
# 1 0.015748 -0.001990 -0.018270 0.000000 0.000000 0.000000
# 2 -0.001990 0.007457 -0.007576 0.000000 0.000000 0.000000
# 3 -0.018270 -0.007576 0.099650 0.000000 0.000000 0.000000
# 4 0.000000 0.000000 0.000000 0.063737 0.000000 0.000000
# 5 0.000000 0.000000 0.000000 0.000000 0.032400 0.000000
# 6 0.000000 0.000000 0.000000 0.000000 0.000000 0.015221
#
#
# Mechanical properties :
#
#
# Convention : Reuss Voigt Hill
#
# Bulk Modulus (GPa) = 14.88450 50.12294 32.50372
# Shear Modulus (GPa) = 16.01137 35.04357 25.52747
#
# Velocity S-wave (km/s) = 2.47365 3.65955 3.12340
# Velocity P-wave (km/s) = 3.72114 6.08371 5.04274
#
# Compressibility (1/GPa) = 0.06718400
#
# Stress axis : x y z
#
# Youngs Moduli (GPa) = 63.49899 134.10207 10.03517
#
# Poissons Ratio (x) = 0.26683 0.18334
# Poissons Ratio (y) = 0.12635 0.07602
# Poissons Ratio (z) = 1.16013 1.01590
#
# Static dielectric constant tensor:
#      x y z
#    x 2.503180 0.000000 0.000000 
#    y 0.000000 2.220970 0.000000 
#    z 0.000000 0.000000 2.125820 
# 
# From -- ./inp_files/22706.got.cif
#   From: 2010.05.17/outbox.cif.g08.bks.cpg/sg54_12_cif.got.tgz:22706.got - 2010.06.03 13:09:01.
