data_PCOD9423399
_publ_section_title
;
Structure prediction by ZEFSAII (Michael W. Deem and Ramdas Pophale) SiO2 
 PCOD9423399
Probable space group: P C C A
;
_chemical_formula_sum "Si O2"
_cell_formula_units_Z 40
_cell_length_a 18.263926
_cell_length_b 10.167311
_cell_length_c 9.416758
_cell_angle_alpha 90.000000
_cell_angle_beta 90.000000
_cell_angle_gamma 90.000000
_cell_volume 1748.645025
_symmetry_space_group_name_H-M "P C C A"
_symmetry_group_IT_number 54
_symmetry_cell_setting 'orthorhombic'
loop_
_space_group_symop_operation_xyz
x,y,z
1/2-x,-y,z
1/2+x,-y,1/2-z
-x,y,1/2-z
-x,-y,-z
1/2+x,y,-z
1/2-x,y,1/2+z
x,-y,1/2+z
loop_
_atom_site_type_symbol
_atom_site_label
_atom_site_fract_x
_atom_site_fract_y
_atom_site_fract_z
Si Si1 0.913911 0.444105 0.767208
Si Si2 0.822816 0.293612 0.288976
Si Si3 0.074783 0.836726 0.160175
Si Si4 0.294541 0.372210 0.436773
Si Si5 0.577090 0.071169 0.662652
O O1 0.871409 0.574968 0.810898
O O2 0.899521 0.313549 0.862413
O O3 0.875161 0.406799 0.618769
O O4 0.000000 0.470754 0.750000
O O5 0.752999 0.328682 0.196609
O O6 0.797574 0.259418 0.446539
O O7 0.871241 0.187260 0.212986
O O8 0.000000 0.812583 0.250000
O O9 0.112083 0.936078 0.273384
O O10 0.067256 0.908942 0.007435
O O11 0.250000 0.500000 0.492846
O O12 0.500000 0.083654 0.750000
#
# Coordination Sequence:
#
# PCOD9423399 Si02
#       5
#     8   8   8   8   8
#     4  10  23  40  70 100 132 168 224 281 331 397
#     4  11  25  42  70  95 136 175 230 269 337 402
#     4  10  23  42  67  99 141 172 214 277 341 391
#     4  10  23  42  64  92 138 179 213 273 346 390
#     4  11  24  42  70 101 134 178 223 274 336 396
#
# _framework density 22.874853000000002
#
# number of rings (size 3 to 8) (size 9 to 14) (size 15 to 20)
#    0.000    1.600    0.000    4.800   16.800    0.800 
#    0.000    1.000    0.000    0.000    0.000    0.000 
#    0.000    0.000    0.000    0.000    0.000    0.000 
#
# Total GULP energy -223172.723950 kJ/mol
# GULP energy per Si atom -5579.318099 kJ/mol
# Density = 2.282279 g / cm^3
# Si number density = 22.874853 Si / 1000 Ang^3
#
#
#
# Elastic Constant Matrix: (Units=GPa)
#
#
# Indices 1 2 3 4 5 6 
#
# 1 110.1287 13.0901 40.6065 0.0000 0.0000 0.0000
# 2 13.0901 88.9203 18.2106 0.0000 0.0000 0.0000
# 3 40.6065 18.2106 128.2804 0.0000 0.0000 0.0000
# 4 0.0000 0.0000 0.0000 36.3709 0.0000 0.0000
# 5 0.0000 0.0000 0.0000 0.0000 24.6844 0.0000
# 6 0.0000 0.0000 0.0000 0.0000 0.0000 -3.4586
#
#
#
# Elastic Compliance Matrix: (Units=1/GPa)
#
#
# Indices 1 2 3 4 5 6 
#
# 1 0.010346 -0.000878 -0.003150 0.000000 0.000000 0.000000
# 2 -0.000878 0.011657 -0.001377 0.000000 0.000000 0.000000
# 3 -0.003150 -0.001377 0.008988 0.000000 0.000000 0.000000
# 4 0.000000 0.000000 0.000000 0.027494 0.000000 0.000000
# 5 0.000000 0.000000 0.000000 0.000000 0.040511 0.000000
# 6 0.000000 0.000000 0.000000 0.000000 0.000000 -0.289136
#
#
# Mechanical properties :
#
#
# Convention : Reuss Voigt Hill
#
# Bulk Modulus (GPa) = 49.55133 52.34931 50.95032
# Shear Modulus (GPa) = -28.96864 28.54750 -0.21057
#
# Velocity S-wave (km/s) = -3.56251 3.53652 -0.30373
# Velocity P-wave (km/s) = 2.18792 6.29370 4.71157
#
# Compressibility (1/GPa) = 0.02018109
#
# Stress axis : x y z
#
# Youngs Moduli (GPa) = 96.65336 85.78346 111.25772
#
# Poissons Ratio (x) = 0.07531 0.35051
# Poissons Ratio (y) = 0.08485 0.15320
# Poissons Ratio (z) = 0.30450 0.11812
#
# Static dielectric constant tensor:
#      x y z
#    x 1.875490 0.000000 0.000000 
#    y 0.000000 1.957190 0.000000 
#    z 0.000000 0.000000 1.968810 
# 
# From -- ./inp_files/3953.got.cif
#   From: 2010.05.17/outbox.cif.g08.bks.cpg/sg54_2_cif.got.tgz:3953.got - 2010.06.03 13:09:01.
