data_PCOD9423367
_publ_section_title
;
Structure prediction by ZEFSAII (Michael W. Deem and Ramdas Pophale) SiO2 
 PCOD9423367
Probable space group: P C C A
;
_chemical_formula_sum "Si O2"
_cell_formula_units_Z 48
_cell_length_a 14.760712
_cell_length_b 18.538229
_cell_length_c 8.169705
_cell_angle_alpha 90.000000
_cell_angle_beta 90.000000
_cell_angle_gamma 90.000000
_cell_volume 2235.537319
_symmetry_space_group_name_H-M "P C C A"
_symmetry_group_IT_number 54
_symmetry_cell_setting 'orthorhombic'
loop_
_space_group_symop_operation_xyz
x,y,z
1/2-x,-y,z
1/2+x,-y,1/2-z
-x,y,1/2-z
-x,-y,-z
1/2+x,y,-z
1/2-x,y,1/2+z
x,-y,1/2+z
loop_
_atom_site_type_symbol
_atom_site_label
_atom_site_fract_x
_atom_site_fract_y
_atom_site_fract_z
Si Si1 0.277464 0.582648 0.744004
Si Si2 0.487152 0.081703 0.554096
Si Si3 0.366980 0.803906 0.487333
Si Si4 0.557046 0.352201 0.419713
Si Si5 0.875730 0.351490 0.443594
Si Si6 0.836533 0.189664 0.402466
O O1 0.250000 0.500000 0.745139
O O2 0.355679 0.597806 0.608643
O O3 0.187567 0.630024 0.710209
O O4 0.324190 0.607253 0.911225
O O5 0.500000 0.083266 0.750000
O O6 0.563056 0.132547 0.473580
O O7 0.391650 0.122031 0.525545
O O8 0.500000 0.000000 0.500000
O O9 0.405870 0.727220 0.542553
O O10 0.355456 0.804221 0.290945
O O11 0.269535 0.816121 0.566252
O O12 0.500000 0.351181 0.250000
O O13 0.481008 0.373149 0.553120
O O14 0.871093 0.265691 0.475537
#
# Coordination Sequence:
#
# PCOD9423367 Si02
#       6
#     8   8   8   8   8   8
#     4  11  24  42  63  93 135 172 218 282 337 400
#     4  10  24  44  64  98 137 176 221 276 342 399
#     4  11  23  41  67 100 134 168 233 277 333 404
#     4  10  23  39  66  97 129 173 227 272 338 405
#     4  11  22  42  66  93 130 172 226 270 339 400
#     4  11  23  40  69  98 130 178 227 284 331 404
#
# _framework density 21.471347999999999
#
# number of rings (size 3 to 8) (size 9 to 14) (size 15 to 20)
#    0.000    1.333    3.333    1.500    2.333    3.333 
#    0.000    5.000    0.000    0.000    0.000    0.000 
#    0.000    0.000    0.000    0.000    0.000    0.000 
#
# Total GULP energy -268507.317528 kJ/mol
# GULP energy per Si atom -5593.902448 kJ/mol
# Density = 2.142248 g / cm^3
# Si number density = 21.471348 Si / 1000 Ang^3
#
#
#
# Elastic Constant Matrix: (Units=GPa)
#
#
# Indices 1 2 3 4 5 6 
#
# 1 142.6290 54.7399 27.7014 0.0000 0.0000 0.0000
# 2 54.7399 146.9461 24.4168 0.0000 0.0000 0.0000
# 3 27.7014 24.4168 37.4337 0.0000 0.0000 0.0000
# 4 0.0000 0.0000 0.0000 32.7201 0.0000 0.0000
# 5 0.0000 0.0000 0.0000 0.0000 27.6261 0.0000
# 6 0.0000 0.0000 0.0000 0.0000 0.0000 94.7354
#
#
#
# Elastic Compliance Matrix: (Units=1/GPa)
#
#
# Indices 1 2 3 4 5 6 
#
# 1 0.008939 -0.002502 -0.004983 0.000000 0.000000 0.000000
# 2 -0.002502 0.008333 -0.003584 0.000000 0.000000 0.000000
# 3 -0.004983 -0.003584 0.032739 0.000000 0.000000 0.000000
# 4 0.000000 0.000000 0.000000 0.030562 0.000000 0.000000
# 5 0.000000 0.000000 0.000000 0.000000 0.036198 0.000000
# 6 0.000000 0.000000 0.000000 0.000000 0.000000 0.010556
#
#
# Mechanical properties :
#
#
# Convention : Reuss Voigt Hill
#
# Bulk Modulus (GPa) = 35.87660 60.08055 47.97857
# Shear Modulus (GPa) = 31.49498 45.69302 38.59400
#
# Velocity S-wave (km/s) = 3.83409 4.61813 4.24425
# Velocity P-wave (km/s) = 6.02873 7.51523 6.81265
#
# Compressibility (1/GPa) = 0.02787332
#
# Stress axis : x y z
#
# Youngs Moduli (GPa) = 111.86567 120.00876 30.54459
#
# Poissons Ratio (x) = 0.30026 0.15221
# Poissons Ratio (y) = 0.27989 0.10946
# Poissons Ratio (z) = 0.55745 0.43007
#
# Static dielectric constant tensor:
#      x y z
#    x 1.781630 0.000000 0.000000 
#    y 0.000000 1.727630 0.000000 
#    z 0.000000 0.000000 1.853600 
# 
# From -- ./inp_files/3590.got.cif
#   From: 2010.05.17/outbox.cif.g08.bks.cpg/sg54_2_cif.got.tgz:3590.got - 2010.06.03 13:09:01.
