data_PCOD9423941
_publ_section_title
;
Structure prediction by ZEFSAII (Michael W. Deem and Ramdas Pophale) SiO2 
 PCOD9423941
Probable space group: P C C A
;
_chemical_formula_sum "Si O2"
_cell_formula_units_Z 20
_cell_length_a 5.229172
_cell_length_b 5.480555
_cell_length_c 29.596446
_cell_angle_alpha 90.000000
_cell_angle_beta 90.000000
_cell_angle_gamma 90.000000
_cell_volume 848.197583
_symmetry_space_group_name_H-M "P C C A"
_symmetry_group_IT_number 54
_symmetry_cell_setting 'orthorhombic'
loop_
_space_group_symop_operation_xyz
x,y,z
1/2-x,-y,z
1/2+x,-y,1/2-z
-x,y,1/2-z
-x,-y,-z
1/2+x,y,-z
1/2-x,y,1/2+z
x,-y,1/2+z
loop_
_atom_site_type_symbol
_atom_site_label
_atom_site_fract_x
_atom_site_fract_y
_atom_site_fract_z
Si Si1 0.750000 0.500000 0.031255
Si Si2 0.250000 0.000000 0.674743
Si Si3 0.500000 0.325833 0.250000
Si Si4 0.128633 0.744833 0.878958
O O1 0.817974 0.288064 0.067630
O O2 0.500000 0.500000 0.000000
O O3 0.060471 0.142407 0.708663
O O4 0.349107 0.211665 0.640742
O O5 0.750000 0.500000 0.245051
O O6 0.250000 0.500000 0.859216
O O7 0.250000 0.000000 0.865957
#
# Coordination Sequence:
#
# PCOD9423941 Si02
#       4
#     4   4   4   8
#     4  10  26  52  80 124 166 212 270 344 416 496
#     4  12  30  52  78 120 166 222 284 344 428 492
#     4  12  32  52  82 118 168 220 284 356 418 508
#     4  10  28  48  83 118 162 218 271 343 407 508
#
# _framework density 23.579411
#
# number of rings (size 3 to 8) (size 9 to 14) (size 15 to 20)
#    1.200    0.000    0.000    1.200   19.600    1.600 
#    0.000    0.000    0.000    0.000    0.000    0.000 
#    0.000    0.000    0.000    0.000    0.000    0.000 
#
# Total GULP energy -111454.202692 kJ/mol
# GULP energy per Si atom -5572.710135 kJ/mol
# Density = 2.352574 g / cm^3
# Si number density = 23.579411 Si / 1000 Ang^3
#
#
#
# Elastic Constant Matrix: (Units=GPa)
#
#
# Indices 1 2 3 4 5 6 
#
# 1 157.2674 70.4778 89.9479 0.0000 0.0000 0.0000
# 2 70.4778 179.9125 76.2835 0.0000 0.0000 0.0000
# 3 89.9479 76.2835 171.0382 0.0000 0.0000 0.0000
# 4 0.0000 0.0000 0.0000 61.3152 0.0000 0.0000
# 5 0.0000 0.0000 0.0000 0.0000 53.0102 0.0000
# 6 0.0000 0.0000 0.0000 0.0000 0.0000 50.5365
#
#
#
# Elastic Compliance Matrix: (Units=1/GPa)
#
#
# Indices 1 2 3 4 5 6 
#
# 1 0.009648 -0.002008 -0.004178 0.000000 0.000000 0.000000
# 2 -0.002008 0.007272 -0.002188 0.000000 0.000000 0.000000
# 3 -0.004178 -0.002188 0.009020 0.000000 0.000000 0.000000
# 4 0.000000 0.000000 0.000000 0.016309 0.000000 0.000000
# 5 0.000000 0.000000 0.000000 0.000000 0.018864 0.000000
# 6 0.000000 0.000000 0.000000 0.000000 0.000000 0.019788
#
#
# Mechanical properties :
#
#
# Convention : Reuss Voigt Hill
#
# Bulk Modulus (GPa) = 108.78349 109.07072 108.92710
# Shear Modulus (GPa) = 49.64589 51.07299 50.35944
#
# Velocity S-wave (km/s) = 4.59352 4.65908 4.62642
# Velocity P-wave (km/s) = 8.62375 8.67755 8.65069
#
# Compressibility (1/GPa) = 0.00919257
#
# Stress axis : x y z
#
# Youngs Moduli (GPa) = 103.64602 137.50735 110.86834
#
# Poissons Ratio (x) = 0.27610 0.46325
# Poissons Ratio (y) = 0.20811 0.24253
# Poissons Ratio (z) = 0.43308 0.30080
#
# Static dielectric constant tensor:
#      x y z
#    x 2.594650 0.000000 0.000000 
#    y 0.000000 1.949180 0.000000 
#    z 0.000000 0.000000 1.977540 
# 
# From -- ./inp_files/24950.got.cif
#   From: 2010.05.17/outbox.cif.g08.bks.cpg/sg54_13_cif.got.tgz:24950.got - 2010.06.03 13:09:01.
