data_PCOD9423503
_publ_section_title
;
Structure prediction by ZEFSAII (Michael W. Deem and Ramdas Pophale) SiO2 
 PCOD9423503
Probable space group: P C C A
;
_chemical_formula_sum "Si O2"
_cell_formula_units_Z 48
_cell_length_a 29.796800
_cell_length_b 5.442762
_cell_length_c 12.316153
_cell_angle_alpha 90.000000
_cell_angle_beta 90.000000
_cell_angle_gamma 90.000000
_cell_volume 1997.395400
_symmetry_space_group_name_H-M "P C C A"
_symmetry_group_IT_number 54
_symmetry_cell_setting 'orthorhombic'
loop_
_space_group_symop_operation_xyz
x,y,z
1/2-x,-y,z
1/2+x,-y,1/2-z
-x,y,1/2-z
-x,-y,-z
1/2+x,y,-z
1/2-x,y,1/2+z
x,-y,1/2+z
loop_
_atom_site_type_symbol
_atom_site_label
_atom_site_fract_x
_atom_site_fract_y
_atom_site_fract_z
Si Si1 0.295007 0.357678 0.108823
Si Si2 0.452078 0.061119 0.194733
Si Si3 0.636335 0.267559 0.996374
Si Si4 0.202524 0.921642 0.885232
Si Si5 0.546358 0.445044 0.941401
Si Si6 0.642666 0.993128 0.273178
O O1 0.250000 0.500000 0.142923
O O2 0.332126 0.535272 0.059839
O O3 0.319789 0.198741 0.199866
O O4 0.284340 0.201196 0.999406
O O5 0.500000 0.108779 0.250000
O O6 0.442416 0.307647 0.125012
O O7 0.407744 0.034196 0.270711
O O8 0.458838 0.800954 0.131671
O O9 0.588306 0.385399 0.020562
O O10 0.629987 0.079205 0.897007
O O11 0.666369 0.134173 0.085595
O O12 0.250000 0.000000 0.837582
O O13 0.171123 0.789943 0.795206
O O14 0.500000 0.500000 0.000000
#
# Coordination Sequence:
#
# PCOD9423503 Si02
#       6
#     8   8   8   8   8   8
#     4  11  22  43  65  89 133 173 219 282 336 403
#     4  11  24  45  67 103 138 176 231 292 346 416
#     4  10  23  44  64  94 133 173 219 284 334 410
#     4  11  24  40  62  99 130 174 229 278 340 418
#     4  11  24  44  72  99 134 184 231 280 364 417
#     4  10  25  42  65  94 137 176 222 276 352 410
#
# _framework density 24.031296000000001
#
# number of rings (size 3 to 8) (size 9 to 14) (size 15 to 20)
#    0.000    1.333    3.333    1.000    4.667    2.667 
#    0.000    0.000    0.000    0.000    0.000    0.000 
#    0.000    0.000    0.000    0.000    0.000    0.000 
#
# Total GULP energy -267667.558960 kJ/mol
# GULP energy per Si atom -5576.407478 kJ/mol
# Density = 2.397660 g / cm^3
# Si number density = 24.031296 Si / 1000 Ang^3
#
#
#
# Elastic Constant Matrix: (Units=GPa)
#
#
# Indices 1 2 3 4 5 6 
#
# 1 242.6971 39.4528 34.3247 0.0000 0.0000 0.0000
# 2 39.4528 102.1269 16.4384 0.0000 0.0000 0.0000
# 3 34.3247 16.4384 47.4579 0.0000 0.0000 0.0000
# 4 0.0000 0.0000 0.0000 15.3402 0.0000 0.0000
# 5 0.0000 0.0000 0.0000 0.0000 36.7278 0.0000
# 6 0.0000 0.0000 0.0000 0.0000 0.0000 47.5948
#
#
#
# Elastic Compliance Matrix: (Units=1/GPa)
#
#
# Indices 1 2 3 4 5 6 
#
# 1 0.004762 -0.001361 -0.002973 0.000000 0.000000 0.000000
# 2 -0.001361 0.010759 -0.002742 0.000000 0.000000 0.000000
# 3 -0.002973 -0.002742 0.024171 0.000000 0.000000 0.000000
# 4 0.000000 0.000000 0.000000 0.065188 0.000000 0.000000
# 5 0.000000 0.000000 0.000000 0.000000 0.027227 0.000000
# 6 0.000000 0.000000 0.000000 0.000000 0.000000 0.021011
#
#
# Mechanical properties :
#
#
# Convention : Reuss Voigt Hill
#
# Bulk Modulus (GPa) = 39.15424 63.63487 51.39456
# Shear Modulus (GPa) = 28.44401 40.07030 34.25716
#
# Velocity S-wave (km/s) = 3.44412 4.08784 3.77971
# Velocity P-wave (km/s) = 5.66959 6.98699 6.36248
#
# Compressibility (1/GPa) = 0.02554002
#
# Stress axis : x y z
#
# Youngs Moduli (GPa) = 209.99279 92.94585 41.37148
#
# Poissons Ratio (x) = 0.12651 0.12299
# Poissons Ratio (y) = 0.28583 0.11345
# Poissons Ratio (z) = 0.62426 0.25488
#
# Static dielectric constant tensor:
#      x y z
#    x 1.675040 0.000000 0.000000 
#    y 0.000000 2.206630 0.000000 
#    z 0.000000 0.000000 2.395580 
# 
# From -- ./inp_files/15161.got.cif
#   From: 2010.05.17/outbox.cif.g08.bks.cpg/sg54_8_cif.got.tgz:15161.got - 2010.06.03 13:09:01.
