data_PCOD9423312
_publ_section_title
;
Structure prediction by ZEFSAII (Michael W. Deem and Ramdas Pophale) SiO2 
 PCOD9423312
Probable space group: P C C A
;
_chemical_formula_sum "Si O2"
_cell_formula_units_Z 32
_cell_length_a 16.340778
_cell_length_b 7.842758
_cell_length_c 10.166623
_cell_angle_alpha 90.000000
_cell_angle_beta 90.000000
_cell_angle_gamma 90.000000
_cell_volume 1302.921539
_symmetry_space_group_name_H-M "P C C A"
_symmetry_group_IT_number 54
_symmetry_cell_setting 'orthorhombic'
loop_
_space_group_symop_operation_xyz
x,y,z
1/2-x,-y,z
1/2+x,-y,1/2-z
-x,y,1/2-z
-x,-y,-z
1/2+x,y,-z
1/2-x,y,1/2+z
x,-y,1/2+z
loop_
_atom_site_type_symbol
_atom_site_label
_atom_site_fract_x
_atom_site_fract_y
_atom_site_fract_z
Si Si1 0.278473 0.824373 0.141434
Si Si2 0.250000 0.500000 0.963126
Si Si3 0.544755 0.171970 0.951800
Si Si4 0.000000 0.560984 0.750000
Si Si5 0.365143 0.665151 0.801282
O O1 0.376792 0.847938 0.148670
O O2 0.289657 0.216118 0.254536
O O3 0.250000 0.000000 0.077155
O O4 0.262371 0.662705 0.051025
O O5 0.325817 0.497091 0.866517
O O6 0.490637 0.311634 0.874667
O O7 0.583877 0.242705 0.086070
O O8 0.500000 0.000000 0.000000
O O9 0.928446 0.427419 0.795148
#
# Coordination Sequence:
#
# PCOD9423312 Si02
#       5
#     8   4   8   4   8
#     4  11  26  45  76 107 149 201 262 321 391 485
#     4  10  22  46  68 106 140 194 252 316 386 470
#     4  11  28  46  74 113 155 202 259 333 403 469
#     4  12  26  44  78 108 156 202 258 336 394 490
#     4  11  24  45  75 104 150 201 259 317 402 478
#
# _framework density 24.560189000000001
#
# number of rings (size 3 to 8) (size 9 to 14) (size 15 to 20)
#    0.000    1.000    0.000    6.000   10.500    4.000 
#    0.000    0.000    0.000    0.000    0.000    0.000 
#    0.000    0.000    0.000    0.000    0.000    0.000 
#
# Total GULP energy -178282.239732 kJ/mol
# GULP energy per Si atom -5571.319992 kJ/mol
# Density = 2.450429 g / cm^3
# Si number density = 24.560189 Si / 1000 Ang^3
#
#
#
# Elastic Constant Matrix: (Units=GPa)
#
#
# Indices 1 2 3 4 5 6 
#
# 1 145.6392 76.5928 38.0700 0.0000 0.0000 0.0000
# 2 76.5928 128.6855 30.7360 0.0000 0.0000 0.0000
# 3 38.0700 30.7360 77.4230 0.0000 0.0000 0.0000
# 4 0.0000 0.0000 0.0000 -10.3309 0.0000 0.0000
# 5 0.0000 0.0000 0.0000 0.0000 11.0402 0.0000
# 6 0.0000 0.0000 0.0000 0.0000 0.0000 60.0613
#
#
#
# Elastic Compliance Matrix: (Units=1/GPa)
#
#
# Indices 1 2 3 4 5 6 
#
# 1 0.010585 -0.005587 -0.002987 0.000000 0.000000 0.000000
# 2 -0.005587 0.011534 -0.001832 0.000000 0.000000 0.000000
# 3 -0.002987 -0.001832 0.015112 0.000000 0.000000 0.000000
# 4 0.000000 0.000000 0.000000 -0.096797 0.000000 0.000000
# 5 0.000000 0.000000 0.000000 0.000000 0.090578 0.000000
# 6 0.000000 0.000000 0.000000 0.000000 0.000000 0.016650
#
#
# Mechanical properties :
#
#
# Convention : Reuss Voigt Hill
#
# Bulk Modulus (GPa) = 60.90160 71.39394 66.14777
# Shear Modulus (GPa) = 67.61759 25.91071 46.76415
#
# Velocity S-wave (km/s) = 5.25273 3.25158 4.36829
# Velocity P-wave (km/s) = 7.85104 6.57489 7.24113
#
# Compressibility (1/GPa) = 0.01641993
#
# Stress axis : x y z
#
# Youngs Moduli (GPa) = 94.47108 86.70325 66.17286
#
# Poissons Ratio (x) = 0.48440 0.19766
# Poissons Ratio (y) = 0.52779 0.12120
# Poissons Ratio (z) = 0.28219 0.15880
#
# Static dielectric constant tensor:
#      x y z
#    x 2.189020 0.000000 0.000000 
#    y 0.000000 1.931860 0.000000 
#    z 0.000000 0.000000 2.020050 
# 
# From -- ./inp_files/9263.got.cif
#   From: 2010.05.17/outbox.cif.g08.bks.cpg/sg54_5_cif.got.tgz:9263.got - 2010.06.03 13:09:01.
