data_PCOD9423825
_publ_section_title
;
Structure prediction by ZEFSAII (Michael W. Deem and Ramdas Pophale) SiO2 
 PCOD9423825
Probable space group: P C C A
;
_chemical_formula_sum "Si O2"
_cell_formula_units_Z 32
_cell_length_a 5.092221
_cell_length_b 15.494813
_cell_length_c 17.739684
_cell_angle_alpha 90.000000
_cell_angle_beta 90.000000
_cell_angle_gamma 90.000000
_cell_volume 1399.714502
_symmetry_space_group_name_H-M "P C C A"
_symmetry_group_IT_number 54
_symmetry_cell_setting 'orthorhombic'
loop_
_space_group_symop_operation_xyz
x,y,z
1/2-x,-y,z
1/2+x,-y,1/2-z
-x,y,1/2-z
-x,-y,-z
1/2+x,y,-z
1/2-x,y,1/2+z
x,-y,1/2+z
loop_
_atom_site_type_symbol
_atom_site_label
_atom_site_fract_x
_atom_site_fract_y
_atom_site_fract_z
Si Si1 0.911847 0.583187 0.336025
Si Si2 0.719067 0.900718 0.947137
Si Si3 0.926414 0.238573 0.335704
Si Si4 0.773295 0.322911 0.554563
O O1 0.750000 0.500000 0.360396
O O2 0.734670 0.670669 0.338314
O O3 0.000000 0.571450 0.250000
O O4 0.157903 0.597424 0.391028
O O5 0.767761 0.835119 0.879245
O O6 0.750000 0.000000 0.921747
O O7 0.444308 0.887881 0.989541
O O8 0.000000 0.219077 0.250000
O O9 0.193230 0.252109 0.383416
O O10 0.526471 0.319780 0.498771
#
# Coordination Sequence:
#
# PCOD9423825 Si02
#       4
#     8   8   8   8
#     4  12  28  48  74 106 150 206 255 310 380 456
#     4  10  24  47  76 109 147 194 242 301 381 457
#     4  12  25  46  75 111 149 200 254 312 380 450
#     4  12  26  46  72 106 144 190 248 313 371 438
#
# _framework density 22.861806999999999
#
# number of rings (size 3 to 8) (size 9 to 14) (size 15 to 20)
#    0.000    0.500    5.000    2.250    3.500    1.000 
#    0.000    5.000    0.000    0.000    0.000    0.000 
#    0.000    0.000    0.000    0.000    0.000    0.000 
#
# Total GULP energy -179138.972895 kJ/mol
# GULP energy per Si atom -5598.092903 kJ/mol
# Density = 2.280977 g / cm^3
# Si number density = 22.861807 Si / 1000 Ang^3
#
#
#
# Elastic Constant Matrix: (Units=GPa)
#
#
# Indices 1 2 3 4 5 6 
#
# 1 153.7844 39.9667 55.1282 0.0000 0.0000 0.0000
# 2 39.9667 144.5755 34.6509 0.0000 0.0000 0.0000
# 3 55.1282 34.6509 153.6911 0.0000 0.0000 0.0000
# 4 0.0000 0.0000 0.0000 57.7091 0.0000 0.0000
# 5 0.0000 0.0000 0.0000 0.0000 33.9872 0.0000
# 6 0.0000 0.0000 0.0000 0.0000 0.0000 40.2304
#
#
#
# Elastic Compliance Matrix: (Units=1/GPa)
#
#
# Indices 1 2 3 4 5 6 
#
# 1 0.007784 -0.001567 -0.002439 0.000000 0.000000 0.000000
# 2 -0.001567 0.007628 -0.001157 0.000000 0.000000 0.000000
# 3 -0.002439 -0.001157 0.007642 0.000000 0.000000 0.000000
# 4 0.000000 0.000000 0.000000 0.017328 0.000000 0.000000
# 5 0.000000 0.000000 0.000000 0.000000 0.029423 0.000000
# 6 0.000000 0.000000 0.000000 0.000000 0.000000 0.024857
#
#
# Mechanical properties :
#
#
# Convention : Reuss Voigt Hill
#
# Bulk Modulus (GPa) = 78.57462 79.06031 78.81746
# Shear Modulus (GPa) = 45.77436 47.87234 46.82335
#
# Velocity S-wave (km/s) = 4.47947 4.58098 4.53051
# Velocity P-wave (km/s) = 7.82293 7.91438 7.86879
#
# Compressibility (1/GPa) = 0.01272676
#
# Stress axis : x y z
#
# Youngs Moduli (GPa) = 128.46540 131.10446 130.85074
#
# Poissons Ratio (x) = 0.20549 0.31912
# Poissons Ratio (y) = 0.20135 0.15146
# Poissons Ratio (z) = 0.31330 0.15175
#
# Static dielectric constant tensor:
#      x y z
#    x 1.920660 0.000000 0.000000 
#    y 0.000000 1.892530 0.000000 
#    z 0.000000 0.000000 1.815240 
# 
# From -- ./inp_files/15714.got.cif
#   From: 2010.05.17/outbox.cif.g08.bks.cpg/sg54_8_cif.got.tgz:15714.got - 2010.06.03 13:09:01.
