data_PCOD9423053
_publ_section_title
;
Structure prediction by ZEFSAII (Michael W. Deem and Ramdas Pophale) SiO2 
 PCOD9423053
Probable space group: P C C A
;
_chemical_formula_sum "Si O2"
_cell_formula_units_Z 44
_cell_length_a 11.011608
_cell_length_b 8.842903
_cell_length_c 22.410168
_cell_angle_alpha 90.000000
_cell_angle_beta 90.000000
_cell_angle_gamma 90.000000
_cell_volume 2182.180729
_symmetry_space_group_name_H-M "P C C A"
_symmetry_group_IT_number 54
_symmetry_cell_setting 'orthorhombic'
loop_
_space_group_symop_operation_xyz
x,y,z
1/2-x,-y,z
1/2+x,-y,1/2-z
-x,y,1/2-z
-x,-y,-z
1/2+x,y,-z
1/2-x,y,1/2+z
x,-y,1/2+z
loop_
_atom_site_type_symbol
_atom_site_label
_atom_site_fract_x
_atom_site_fract_y
_atom_site_fract_z
Si Si1 0.355748 0.395091 0.792741
Si Si2 0.250000 0.500000 0.505933
Si Si3 0.750000 0.000000 0.011340
Si Si4 0.000000 0.351882 0.750000
Si Si5 0.852831 0.224009 0.419101
Si Si6 0.631655 0.275445 0.582210
Si Si7 0.755587 0.177432 0.790530
O O1 0.250000 0.500000 0.766714
O O2 0.461834 0.520303 0.799672
O O3 0.312513 0.326035 0.855002
O O4 0.354174 0.260174 0.745250
O O5 0.189035 0.626145 0.546683
O O6 0.345631 0.587971 0.463892
O O7 0.810943 0.127173 0.052408
O O8 0.660034 0.087421 0.966396
O O9 0.113646 0.248707 0.729295
O O10 0.770725 0.199264 0.360750
O O11 0.992521 0.243157 0.402796
O O12 0.750000 0.000000 0.777004
#
# Coordination Sequence:
#
# PCOD9423053 Si02
#       7
#     8   4   4   4   8   8   8
#     4  10  22  41  64  96 127 168 218 269 333 399
#     4  10  24  40  64  98 126 174 228 268 332 398
#     4  10  24  44  58  96 132 176 220 272 334 400
#     4  10  24  44  70  96 140 170 220 284 336 402
#     4  11  23  42  66  93 134 169 226 270 334 398
#     4  11  22  42  66  93 131 174 221 278 332 395
#     4  11  25  45  67 105 132 174 225 275 349 406
#
# _framework density 20.163315999999998
#
# number of rings (size 3 to 8) (size 9 to 14) (size 15 to 20)
#    0.000    1.455    1.818    2.182    7.636    2.182 
#    3.273    0.000    0.000    0.000    0.000    0.000 
#    0.000    0.000    0.000    0.000    0.000    0.000 
#
# Total GULP energy -245244.665732 kJ/mol
# GULP energy per Si atom -5573.742403 kJ/mol
# Density = 2.011742 g / cm^3
# Si number density = 20.163316 Si / 1000 Ang^3
#
#
#
# Elastic Constant Matrix: (Units=GPa)
#
#
# Indices 1 2 3 4 5 6 
#
# 1 80.5819 39.7248 12.3885 0.0000 0.0000 0.0000
# 2 39.7248 163.8932 58.0654 0.0000 0.0000 0.0000
# 3 12.3885 58.0654 97.0218 0.0000 0.0000 0.0000
# 4 0.0000 0.0000 0.0000 131.9982 0.0000 0.0000
# 5 0.0000 0.0000 0.0000 0.0000 12.6389 0.0000
# 6 0.0000 0.0000 0.0000 0.0000 0.0000 20.4324
#
#
#
# Elastic Compliance Matrix: (Units=1/GPa)
#
#
# Indices 1 2 3 4 5 6 
#
# 1 0.014101 -0.003528 0.000311 0.000000 0.000000 0.000000
# 2 -0.003528 0.008626 -0.004712 0.000000 0.000000 0.000000
# 3 0.000311 -0.004712 0.013087 0.000000 0.000000 0.000000
# 4 0.000000 0.000000 0.000000 0.007576 0.000000 0.000000
# 5 0.000000 0.000000 0.000000 0.000000 0.079121 0.000000
# 6 0.000000 0.000000 0.000000 0.000000 0.000000 0.048942
#
#
# Mechanical properties :
#
#
# Convention : Reuss Voigt Hill
#
# Bulk Modulus (GPa) = 50.10961 62.42826 56.26894
# Shear Modulus (GPa) = 25.77802 48.43511 37.10656
#
# Velocity S-wave (km/s) = 3.57944 4.90648 4.29453
# Velocity P-wave (km/s) = 6.47989 7.94522 7.24967
#
# Compressibility (1/GPa) = 0.01995625
#
# Stress axis : x y z
#
# Youngs Moduli (GPa) = 70.91612 115.92741 76.40984
#
# Poissons Ratio (x) = 0.40900 -0.02376
# Poissons Ratio (y) = 0.25019 0.36005
# Poissons Ratio (z) = -0.02205 0.54625
#
# Static dielectric constant tensor:
#      x y z
#    x 1.802320 0.000000 0.000000 
#    y 0.000000 1.727280 0.000000 
#    z 0.000000 0.000000 1.699330 
# 
# From -- ./inp_files/24022.got.cif
#   From: 2010.05.17/outbox.cif.g08.bks.cpg/sg54_13_cif.got.tgz:24022.got - 2010.06.03 13:09:01.
