data_PCOD9423184
_publ_section_title
;
Structure prediction by ZEFSAII (Michael W. Deem and Ramdas Pophale) SiO2 
 PCOD9423184
Probable space group: P C C A
;
_chemical_formula_sum "Si O2"
_cell_formula_units_Z 56
_cell_length_a 32.644165
_cell_length_b 5.642193
_cell_length_c 13.178182
_cell_angle_alpha 90.000000
_cell_angle_beta 90.000000
_cell_angle_gamma 90.000000
_cell_volume 2427.219225
_symmetry_space_group_name_H-M "P C C A"
_symmetry_group_IT_number 54
_symmetry_cell_setting 'orthorhombic'
loop_
_space_group_symop_operation_xyz
x,y,z
1/2-x,-y,z
1/2+x,-y,1/2-z
-x,y,1/2-z
-x,-y,-z
1/2+x,y,-z
1/2-x,y,1/2+z
x,-y,1/2+z
loop_
_atom_site_type_symbol
_atom_site_label
_atom_site_fract_x
_atom_site_fract_y
_atom_site_fract_z
Si Si1 0.389502 0.404579 0.031021
Si Si2 0.524632 0.038159 0.163869
Si Si3 0.157590 0.947326 0.156855
Si Si4 0.112940 0.895276 0.836395
Si Si5 0.969413 0.693156 0.954801
Si Si6 0.673519 0.222627 0.030291
Si Si7 0.272831 0.744339 0.781917
O O1 0.397363 0.310300 0.916655
O O2 0.426380 0.568885 0.068606
O O3 0.347666 0.548113 0.016825
O O4 0.380785 0.187594 0.106198
O O5 0.500000 0.184773 0.250000
O O6 0.569278 0.976852 0.204568
O O7 0.535795 0.138652 0.052664
O O8 0.492729 0.828924 0.134954
O O9 0.186286 0.765607 0.215412
O O10 0.141942 0.140224 0.238885
O O11 0.182751 0.056320 0.064479
O O12 0.138318 0.089146 0.902562
O O13 0.000000 0.500000 0.000000
O O14 0.711525 0.270472 0.102132
O O15 0.250000 0.500000 0.756946
O O16 0.250000 0.000000 0.769829
#
# Coordination Sequence:
#
# PCOD9423184 Si02
#       7
#     8   8   8   8   8   8   8
#     4  11  23  44  73  97 140 191 237 291 358 432
#     4  11  25  40  62  95 138 182 236 297 360 411
#     4  10  26  44  75 109 138 186 243 289 360 442
#     4  10  22  43  64  98 142 179 234 300 346 418
#     4  11  24  44  63  95 138 181 238 294 351 414
#     4  10  24  46  73 102 138 190 230 287 360 437
#     4  11  28  52  78 112 155 186 233 306 369 446
#
# _framework density 23.071670999999998
#
# number of rings (size 3 to 8) (size 9 to 14) (size 15 to 20)
#    0.000    1.429    2.857    0.000   12.000    2.286 
#    0.000    0.000    0.000    0.000    0.000    0.000 
#    0.000    0.000    0.000    0.000    0.000    0.000 
#
# Total GULP energy -312724.426349 kJ/mol
# GULP energy per Si atom -5584.364756 kJ/mol
# Density = 2.301916 g / cm^3
# Si number density = 23.071671 Si / 1000 Ang^3
#
#
#
# Elastic Constant Matrix: (Units=GPa)
#
#
# Indices 1 2 3 4 5 6 
#
# 1 56.2245 6.0566 26.3483 0.0000 0.0000 0.0000
# 2 6.0566 46.1383 7.9250 0.0000 0.0000 0.0000
# 3 26.3483 7.9250 103.7807 0.0000 0.0000 0.0000
# 4 0.0000 0.0000 0.0000 13.0116 0.0000 0.0000
# 5 0.0000 0.0000 0.0000 0.0000 29.1787 0.0000
# 6 0.0000 0.0000 0.0000 0.0000 0.0000 33.4493
#
#
#
# Elastic Compliance Matrix: (Units=1/GPa)
#
#
# Indices 1 2 3 4 5 6 
#
# 1 0.020335 -0.001806 -0.005025 0.000000 0.000000 0.000000
# 2 -0.001806 0.022122 -0.001231 0.000000 0.000000 0.000000
# 3 -0.005025 -0.001231 0.011005 0.000000 0.000000 0.000000
# 4 0.000000 0.000000 0.000000 0.076854 0.000000 0.000000
# 5 0.000000 0.000000 0.000000 0.000000 0.034272 0.000000
# 6 0.000000 0.000000 0.000000 0.000000 0.000000 0.029896
#
#
# Mechanical properties :
#
#
# Convention : Reuss Voigt Hill
#
# Bulk Modulus (GPa) = 26.78144 31.86703 29.32424
# Shear Modulus (GPa) = 22.41597 26.18217 24.29907
#
# Velocity S-wave (km/s) = 3.12040 3.37236 3.24882
# Velocity P-wave (km/s) = 4.96142 5.38572 5.17791
#
# Compressibility (1/GPa) = 0.03733929
#
# Stress axis : x y z
#
# Youngs Moduli (GPa) = 49.17582 45.20292 90.86435
#
# Poissons Ratio (x) = 0.08165 0.45658
# Poissons Ratio (y) = 0.08883 0.11183
# Poissons Ratio (z) = 0.24710 0.05563
#
# Static dielectric constant tensor:
#      x y z
#    x 1.844660 0.000000 0.000000 
#    y 0.000000 1.597060 0.000000 
#    z 0.000000 0.000000 1.866250 
# 
# From -- ./inp_files/15334.got.cif
#   From: 2010.05.17/outbox.cif.g08.bks.cpg/sg54_8_cif.got.tgz:15334.got - 2010.06.03 13:09:01.
