data_PCOD9423328
_publ_section_title
;
Structure prediction by ZEFSAII (Michael W. Deem and Ramdas Pophale) SiO2 
 PCOD9423328
Probable space group: P C C A
;
_chemical_formula_sum "Si O2"
_cell_formula_units_Z 40
_cell_length_a 15.744289
_cell_length_b 11.864349
_cell_length_c 9.345744
_cell_angle_alpha 90.000000
_cell_angle_beta 90.000000
_cell_angle_gamma 90.000000
_cell_volume 1745.745161
_symmetry_space_group_name_H-M "P C C A"
_symmetry_group_IT_number 54
_symmetry_cell_setting 'orthorhombic'
loop_
_space_group_symop_operation_xyz
x,y,z
1/2-x,-y,z
1/2+x,-y,1/2-z
-x,y,1/2-z
-x,-y,-z
1/2+x,y,-z
1/2-x,y,1/2+z
x,-y,1/2+z
loop_
_atom_site_type_symbol
_atom_site_label
_atom_site_fract_x
_atom_site_fract_y
_atom_site_fract_z
Si Si1 0.500000 0.533674 0.750000
Si Si2 0.606076 0.409584 0.990353
Si Si3 0.724635 0.274124 0.811937
Si Si4 0.750000 0.500000 0.648159
Si Si5 0.909277 0.112965 0.183192
Si Si6 0.834420 0.932047 0.396396
O O1 0.439884 0.452812 0.653200
O O2 0.455483 0.606972 0.874479
O O3 0.667992 0.507656 0.048027
O O4 0.667460 0.306869 0.949805
O O5 0.756807 0.389887 0.744684
O O6 0.658657 0.212291 0.707269
O O7 0.799034 0.188037 0.846745
O O8 0.000000 0.143219 0.250000
O O9 0.872482 0.006569 0.270003
O O10 0.904958 0.082854 0.017437
O O11 0.750000 0.000000 0.451259
#
# Coordination Sequence:
#
# PCOD9423328 Si02
#       6
#     4   8   8   4   8   8
#     4  10  24  42  66  92 144 192 228 296 344 408
#     4  11  23  43  66  97 141 191 238 286 347 416
#     4  11  24  42  72 103 141 189 241 286 349 423
#     4  12  24  44  70 108 142 200 242 284 332 438
#     4  11  24  43  75 104 136 176 231 305 362 417
#     4  10  22  46  73  99 135 179 236 292 359 427
#
# _framework density 22.912852999999998
#
# number of rings (size 3 to 8) (size 9 to 14) (size 15 to 20)
#    0.000    1.200    2.000    4.200    1.400    1.600 
#    3.600    0.000    8.800    0.000    0.000    0.000 
#    0.000    0.000    0.000    0.000    0.000    0.000 
#
# Total GULP energy -223780.625599 kJ/mol
# GULP energy per Si atom -5594.515640 kJ/mol
# Density = 2.286070 g / cm^3
# Si number density = 22.912853 Si / 1000 Ang^3
#
#
#
# Elastic Constant Matrix: (Units=GPa)
#
#
# Indices 1 2 3 4 5 6 
#
# 1 79.0675 20.4739 32.7227 0.0000 0.0000 0.0000
# 2 20.4739 118.0401 44.1072 0.0000 0.0000 0.0000
# 3 32.7227 44.1072 106.1131 0.0000 0.0000 0.0000
# 4 0.0000 0.0000 0.0000 16.6968 0.0000 0.0000
# 5 0.0000 0.0000 0.0000 0.0000 44.1591 0.0000
# 6 0.0000 0.0000 0.0000 0.0000 0.0000 25.8279
#
#
#
# Elastic Compliance Matrix: (Units=1/GPa)
#
#
# Indices 1 2 3 4 5 6 
#
# 1 0.014598 -0.001006 -0.004083 0.000000 0.000000 0.000000
# 2 -0.001006 0.010099 -0.003887 0.000000 0.000000 0.000000
# 3 -0.004083 -0.003887 0.012299 0.000000 0.000000 0.000000
# 4 0.000000 0.000000 0.000000 0.059892 0.000000 0.000000
# 5 0.000000 0.000000 0.000000 0.000000 0.022645 0.000000
# 6 0.000000 0.000000 0.000000 0.000000 0.000000 0.038718
#
#
# Mechanical properties :
#
#
# Convention : Reuss Voigt Hill
#
# Bulk Modulus (GPa) = 52.51630 55.31425 53.91528
# Shear Modulus (GPa) = 27.38951 31.06456 29.22703
#
# Velocity S-wave (km/s) = 3.46117 3.68607 3.57539
# Velocity P-wave (km/s) = 6.24041 6.50459 6.37387
#
# Compressibility (1/GPa) = 0.01904171
#
# Stress axis : x y z
#
# Youngs Moduli (GPa) = 68.50298 99.02168 81.30756
#
# Poissons Ratio (x) = 0.09963 0.33201
# Poissons Ratio (y) = 0.06893 0.31608
# Poissons Ratio (z) = 0.27973 0.38494
#
# Static dielectric constant tensor:
#      x y z
#    x 1.915910 0.000000 0.000000 
#    y 0.000000 1.836180 0.000000 
#    z 0.000000 0.000000 1.885920 
# 
# From -- ./inp_files/4014.got.cif
#   From: 2010.05.17/outbox.cif.g08.bks.cpg/sg54_3_cif.got.tgz:4014.got - 2010.06.03 13:09:01.
