data_PCOD9423991
_publ_section_title
;
Structure prediction by ZEFSAII (Michael W. Deem and Ramdas Pophale) SiO2 
 PCOD9423991
Probable space group: P C C A
;
_chemical_formula_sum "Si O2"
_cell_formula_units_Z 48
_cell_length_a 31.630425
_cell_length_b 7.419191
_cell_length_c 9.282443
_cell_angle_alpha 90.000000
_cell_angle_beta 90.000000
_cell_angle_gamma 90.000000
_cell_volume 2178.330991
_symmetry_space_group_name_H-M "P C C A"
_symmetry_group_IT_number 54
_symmetry_cell_setting 'orthorhombic'
loop_
_space_group_symop_operation_xyz
x,y,z
1/2-x,-y,z
1/2+x,-y,1/2-z
-x,y,1/2-z
-x,-y,-z
1/2+x,y,-z
1/2-x,y,1/2+z
x,-y,1/2+z
loop_
_atom_site_type_symbol
_atom_site_label
_atom_site_fract_x
_atom_site_fract_y
_atom_site_fract_z
Si Si1 0.348197 0.330987 0.614495
Si Si2 0.803683 0.819475 0.150621
Si Si3 0.971677 0.908559 0.127986
Si Si4 0.915467 0.060818 0.376157
Si Si5 0.857308 0.279213 0.918315
Si Si6 0.709652 0.752216 0.151586
O O1 0.338664 0.258831 0.455525
O O2 0.370825 0.521962 0.629845
O O3 0.302878 0.320647 0.691897
O O4 0.377558 0.179516 0.683759
O O5 0.822199 0.794875 0.308494
O O6 0.758981 0.721226 0.125804
O O7 0.796364 0.032305 0.132652
O O8 0.948038 0.036438 0.244046
O O9 0.000000 0.801602 0.250000
O O10 0.934973 0.841183 0.018727
O O11 0.000000 0.000000 0.000000
O O12 0.894837 0.867705 0.423059
O O13 0.828063 0.324491 0.055198
#
# Coordination Sequence:
#
# PCOD9423991 Si02
#       6
#     8   8   8   8   8   8
#     4  12  24  38  61  90 119 162 207 247 303 349
#     4  11  22  39  58  81 121 167 211 258 303 341
#     4   9  20  38  68  94 112 156 192 220 294 374
#     4  11  20  40  63  86 127 148 189 248 293 350
#     4  12  24  38  61  90 119 162 207 247 303 349
#     4  11  22  39  58  81 121 167 211 258 303 341
#
# _framework density 22.035219000000001
#
# number of rings (size 3 to 8) (size 9 to 14) (size 15 to 20)
#    0.000    1.000    3.333    4.000    0.000    6.667 
#    0.000    0.000    0.000   20.000    0.000    0.000 
#    0.000    0.000    0.000    0.000    0.000    0.000 
#
# Total GULP energy -267266.608295 kJ/mol
# GULP energy per Si atom -5568.054339 kJ/mol
# Density = 2.198507 g / cm^3
# Si number density = 22.035219 Si / 1000 Ang^3
#
#
#
# Elastic Constant Matrix: (Units=GPa)
#
#
# Indices 1 2 3 4 5 6 
#
# 1 84.8068 2.9843 23.7248 0.0000 0.0000 0.0000
# 2 2.9843 69.4446 -23.9294 0.0000 0.0000 0.0000
# 3 23.7248 -23.9294 93.6792 0.0000 0.0000 0.0000
# 4 0.0000 0.0000 0.0000 -4.9588 0.0000 0.0000
# 5 0.0000 0.0000 0.0000 0.0000 48.3216 0.0000
# 6 0.0000 0.0000 0.0000 0.0000 0.0000 -8.4560
#
#
#
# Elastic Compliance Matrix: (Units=1/GPa)
#
#
# Indices 1 2 3 4 5 6 
#
# 1 0.012902 -0.001843 -0.003738 0.000000 0.000000 0.000000
# 2 -0.001843 0.016053 0.004567 0.000000 0.000000 0.000000
# 3 -0.003738 0.004567 0.012788 0.000000 0.000000 0.000000
# 4 0.000000 0.000000 0.000000 -0.201662 0.000000 0.000000
# 5 0.000000 0.000000 0.000000 0.000000 0.020695 0.000000
# 6 0.000000 0.000000 0.000000 0.000000 0.000000 -0.118259
#
#
# Mechanical properties :
#
#
# Convention : Reuss Voigt Hill
#
# Bulk Modulus (GPa) = 25.17876 28.16555 26.67215
# Shear Modulus (GPa) = -20.64265 23.32475 1.34105
#
# Velocity S-wave (km/s) = -3.06404 3.25702 0.78097
# Velocity P-wave (km/s) = 1.03267 5.19173 3.59775
#
# Compressibility (1/GPa) = 0.03971602
#
# Stress axis : x y z
#
# Youngs Moduli (GPa) = 77.50671 62.29387 78.19771
#
# Poissons Ratio (x) = 0.11478 0.29232
# Poissons Ratio (y) = 0.14281 -0.35715
# Poissons Ratio (z) = 0.28974 -0.28451
#
# Static dielectric constant tensor:
#      x y z
#    x 1.940330 0.000000 0.000000 
#    y 0.000000 1.851170 0.000000 
#    z 0.000000 0.000000 1.907130 
# 
# From -- ./inp_files/5823.got.cif
#   From: 2010.05.17/outbox.cif.g08.bks.cpg/sg54_3_cif.got.tgz:5823.got - 2010.06.03 13:09:01.
