data_PCOD9423576
_publ_section_title
;
Structure prediction by ZEFSAII (Michael W. Deem and Ramdas Pophale) SiO2 
 PCOD9423576
Probable space group: P C C A
;
_chemical_formula_sum "Si O2"
_cell_formula_units_Z 32
_cell_length_a 10.149710
_cell_length_b 5.973664
_cell_length_c 23.755641
_cell_angle_alpha 90.000000
_cell_angle_beta 90.000000
_cell_angle_gamma 90.000000
_cell_volume 1440.327254
_symmetry_space_group_name_H-M "P C C A"
_symmetry_group_IT_number 54
_symmetry_cell_setting 'orthorhombic'
loop_
_space_group_symop_operation_xyz
x,y,z
1/2-x,-y,z
1/2+x,-y,1/2-z
-x,y,1/2-z
-x,-y,-z
1/2+x,y,-z
1/2-x,y,1/2+z
x,-y,1/2+z
loop_
_atom_site_type_symbol
_atom_site_label
_atom_site_fract_x
_atom_site_fract_y
_atom_site_fract_z
Si Si1 0.098152 0.437085 0.137779
Si Si2 0.818552 0.241833 0.469584
Si Si3 0.000000 0.206817 0.250000
Si Si4 0.250000 0.000000 0.805908
Si Si5 0.639779 0.692325 0.596393
O O1 0.250000 0.500000 0.147841
O O2 0.089274 0.264618 0.085303
O O3 0.036630 0.348687 0.195099
O O4 0.007164 0.634739 0.115564
O O5 0.750000 0.500000 0.468739
O O6 0.873099 0.215718 0.532834
O O7 0.750000 0.000000 0.460380
O O8 0.128406 0.068345 0.267094
O O9 0.199023 0.180684 0.850337
O O10 0.750000 0.500000 0.589324
#
# Coordination Sequence:
#
# PCOD9423576 Si02
#       5
#     8   8   4   4   8
#     4  11  27  47  74 110 153 202 252 319 385 465
#     4  10  23  46  78 115 156 198 256 324 393 460
#     4  12  30  46  74 108 152 204 258 310 380 466
#     4  12  28  48  76 110 144 202 258 324 380 466
#     4  11  23  50  74 111 147 199 253 319 394 456
#
# _framework density 22.217171
#
# number of rings (size 3 to 8) (size 9 to 14) (size 15 to 20)
#    0.000    1.000    3.750    0.750    8.750    2.000 
#    0.000    8.750    0.000    0.000    0.000    0.000 
#    0.000    0.000    0.000    0.000    0.000    0.000 
#
# Total GULP energy -178263.878274 kJ/mol
# GULP energy per Si atom -5570.746196 kJ/mol
# Density = 2.216660 g / cm^3
# Si number density = 22.217171 Si / 1000 Ang^3
#
#
#
# Elastic Constant Matrix: (Units=GPa)
#
#
# Indices 1 2 3 4 5 6 
#
# 1 121.2813 18.3595 18.9979 0.0000 0.0000 0.0000
# 2 18.3595 58.4761 20.7343 0.0000 0.0000 0.0000
# 3 18.9979 20.7343 144.3262 0.0000 0.0000 0.0000
# 4 0.0000 0.0000 0.0000 -107.0500 0.0000 0.0000
# 5 0.0000 0.0000 0.0000 0.0000 48.3712 0.0000
# 6 0.0000 0.0000 0.0000 0.0000 0.0000 31.0796
#
#
#
# Elastic Compliance Matrix: (Units=1/GPa)
#
#
# Indices 1 2 3 4 5 6 
#
# 1 0.008743 -0.002462 -0.000797 0.000000 0.000000 0.000000
# 2 -0.002462 0.018712 -0.002364 0.000000 0.000000 0.000000
# 3 -0.000797 -0.002364 0.007373 0.000000 0.000000 0.000000
# 4 0.000000 0.000000 0.000000 -0.009341 0.000000 0.000000
# 5 0.000000 0.000000 0.000000 0.000000 0.020673 0.000000
# 6 0.000000 0.000000 0.000000 0.000000 0.000000 0.032175
#
#
# Mechanical properties :
#
#
# Convention : Reuss Voigt Hill
#
# Bulk Modulus (GPa) = 42.40627 48.91854 45.66240
# Shear Modulus (GPa) = 51.31170 12.21297 31.76233
#
# Velocity S-wave (km/s) = 4.81099 2.34713 3.78515
# Velocity P-wave (km/s) = 7.07032 5.42324 6.30083
#
# Compressibility (1/GPa) = 0.02358142
#
# Stress axis : x y z
#
# Youngs Moduli (GPa) = 114.37848 53.44058 135.62423
#
# Poissons Ratio (x) = 0.13159 0.10811
# Poissons Ratio (y) = 0.28164 0.32064
# Poissons Ratio (z) = 0.09117 0.12634
#
# Static dielectric constant tensor:
#      x y z
#    x 1.766200 0.000000 0.000000 
#    y 0.000000 1.904630 0.000000 
#    z 0.000000 0.000000 1.798140 
# 
# From -- ./inp_files/20885.got.cif
#   From: 2010.05.17/outbox.cif.g08.bks.cpg/sg54_11_cif.got.tgz:20885.got - 2010.06.03 13:09:01.
