data_PCOD9423780
_publ_section_title
;
Structure prediction by ZEFSAII (Michael W. Deem and Ramdas Pophale) SiO2 
 PCOD9423780
Probable space group: P C C A
;
_chemical_formula_sum "Si O2"
_cell_formula_units_Z 40
_cell_length_a 26.683741
_cell_length_b 6.527078
_cell_length_c 9.734496
_cell_angle_alpha 90.000000
_cell_angle_beta 90.000000
_cell_angle_gamma 90.000000
_cell_volume 1695.426591
_symmetry_space_group_name_H-M "P C C A"
_symmetry_group_IT_number 54
_symmetry_cell_setting 'orthorhombic'
loop_
_space_group_symop_operation_xyz
x,y,z
1/2-x,-y,z
1/2+x,-y,1/2-z
-x,y,1/2-z
-x,-y,-z
1/2+x,y,-z
1/2-x,y,1/2+z
x,-y,1/2+z
loop_
_atom_site_type_symbol
_atom_site_label
_atom_site_fract_x
_atom_site_fract_y
_atom_site_fract_z
Si Si1 0.442310 0.213533 0.349730
Si Si2 0.539539 0.346344 0.428900
Si Si3 0.309123 0.531815 0.248304
Si Si4 0.373026 0.867012 0.403924
Si Si5 0.650265 0.277125 0.017295
O O1 0.500000 0.500000 0.500000
O O2 0.498729 0.166146 0.393121
O O3 0.442499 0.382752 0.228274
O O4 0.409015 0.014979 0.311537
O O5 0.586389 0.264149 0.512871
O O6 0.590049 0.702452 0.520906
O O7 0.250000 0.500000 0.257854
O O8 0.333936 0.726825 0.324876
O O9 0.332182 0.341264 0.330645
O O10 0.324283 0.575326 0.091489
O O11 0.343055 0.033056 0.497239
#
# Coordination Sequence:
#
# PCOD9423780 Si02
#       5
#     8   8   8   8   8
#     4   9  23  40  67 105 148 191 241 290 369 451
#     4  11  21  41  70 110 149 196 241 298 369 457
#     4  12  26  48  74 110 145 193 252 318 383 445
#     4  10  24  45  74 105 151 193 250 307 374 451
#     4  10  26  45  76 106 151 191 248 311 375 446
#
# _framework density 23.592881999999999
#
# number of rings (size 3 to 8) (size 9 to 14) (size 15 to 20)
#    1.200    0.400    0.000    3.600    5.600    0.800 
#    0.000    2.000    0.000    0.000    0.000    0.000 
#    0.000    0.000    0.000    0.000    0.000    0.000 
#
# Total GULP energy -222762.467257 kJ/mol
# GULP energy per Si atom -5569.061681 kJ/mol
# Density = 2.353918 g / cm^3
# Si number density = 23.592882 Si / 1000 Ang^3
#
#
#
# Elastic Constant Matrix: (Units=GPa)
#
#
# Indices 1 2 3 4 5 6 
#
# 1 151.4632 25.2529 25.2909 0.0000 0.0000 0.0000
# 2 25.2529 100.6506 31.8352 0.0000 0.0000 0.0000
# 3 25.2909 31.8352 80.5905 0.0000 0.0000 0.0000
# 4 0.0000 0.0000 0.0000 31.5492 0.0000 0.0000
# 5 0.0000 0.0000 0.0000 0.0000 34.5943 0.0000
# 6 0.0000 0.0000 0.0000 0.0000 0.0000 28.4342
#
#
#
# Elastic Compliance Matrix: (Units=1/GPa)
#
#
# Indices 1 2 3 4 5 6 
#
# 1 0.007098 -0.001230 -0.001742 0.000000 0.000000 0.000000
# 2 -0.001230 0.011567 -0.004183 0.000000 0.000000 0.000000
# 3 -0.001742 -0.004183 0.014607 0.000000 0.000000 0.000000
# 4 0.000000 0.000000 0.000000 0.031697 0.000000 0.000000
# 5 0.000000 0.000000 0.000000 0.000000 0.028907 0.000000
# 6 0.000000 0.000000 0.000000 0.000000 0.000000 0.035169
#
#
# Mechanical properties :
#
#
# Convention : Reuss Voigt Hill
#
# Bulk Modulus (GPa) = 52.73476 55.27358 54.00417
# Shear Modulus (GPa) = 33.40557 35.60388 34.50473
#
# Velocity S-wave (km/s) = 3.76695 3.88892 3.82842
# Velocity P-wave (km/s) = 6.42809 6.60635 6.51783
#
# Compressibility (1/GPa) = 0.01896282
#
# Stress axis : x y z
#
# Youngs Moduli (GPa) = 140.88163 86.45192 68.45810
#
# Poissons Ratio (x) = 0.10634 0.11923
# Poissons Ratio (y) = 0.17329 0.28638
# Poissons Ratio (z) = 0.24537 0.36165
#
# Static dielectric constant tensor:
#      x y z
#    x 1.949010 0.000000 0.000000 
#    y 0.000000 2.061030 0.000000 
#    z 0.000000 0.000000 2.073550 
# 
# From -- ./inp_files/10128.got.cif
#   From: 2010.05.17/outbox.cif.g08.bks.cpg/sg54_6_cif.got.tgz:10128.got - 2010.06.03 13:09:01.
