data_PCOD9423047
_publ_section_title
;
Structure prediction by ZEFSAII (Michael W. Deem and Ramdas Pophale) SiO2 
 PCOD9423047
Probable space group: P C C A
;
_chemical_formula_sum "Si O2"
_cell_formula_units_Z 40
_cell_length_a 14.436181
_cell_length_b 12.960627
_cell_length_c 9.423965
_cell_angle_alpha 90.000000
_cell_angle_beta 90.000000
_cell_angle_gamma 90.000000
_cell_volume 1763.242297
_symmetry_space_group_name_H-M "P C C A"
_symmetry_group_IT_number 54
_symmetry_cell_setting 'orthorhombic'
loop_
_space_group_symop_operation_xyz
x,y,z
1/2-x,-y,z
1/2+x,-y,1/2-z
-x,y,1/2-z
-x,-y,-z
1/2+x,y,-z
1/2-x,y,1/2+z
x,-y,1/2+z
loop_
_atom_site_type_symbol
_atom_site_label
_atom_site_fract_x
_atom_site_fract_y
_atom_site_fract_z
Si Si1 0.759845 0.752765 0.744697
Si Si2 0.588688 0.916134 0.157679
Si Si3 0.335069 0.573697 0.887435
Si Si4 0.088922 0.126423 0.670892
Si Si5 0.092673 0.580677 0.669501
O O1 0.824587 0.843099 0.687788
O O2 0.703184 0.688065 0.628426
O O3 0.678756 0.801936 0.838625
O O4 0.827795 0.666327 0.808358
O O5 0.500000 0.879621 0.250000
O O6 0.608780 0.029119 0.224456
O O7 0.568504 0.911911 0.989162
O O8 0.250000 0.500000 0.934807
O O9 0.371196 0.524591 0.741649
O O10 0.415206 0.569058 0.002430
O O11 0.000000 0.177150 0.750000
O O12 0.000000 0.611988 0.750000
#
# Coordination Sequence:
#
# PCOD9423047 Si02
#       5
#     8   8   8   8   8
#     4  11  24  40  66  96 128 167 214 265 318 377
#     4  11  24  43  67  95 130 171 213 264 322 382
#     4  10  22  41  63  91 127 167 212 261 316 378
#     4  11  25  43  66  95 129 170 215 265 321 383
#     4  11  23  41  65  93 127 167 210 261 317 376
#
# _framework density 22.685482
#
# number of rings (size 3 to 8) (size 9 to 14) (size 15 to 20)
#    0.000    1.200    0.000    7.200    0.000   12.000 
#    0.000    0.000    0.000    0.000    0.000    0.000 
#    0.000    0.000    0.000    0.000    0.000    0.000 
#
# Total GULP energy -223554.533234 kJ/mol
# GULP energy per Si atom -5588.863331 kJ/mol
# Density = 2.263385 g / cm^3
# Si number density = 22.685482 Si / 1000 Ang^3
#
#
#
# Elastic Constant Matrix: (Units=GPa)
#
#
# Indices 1 2 3 4 5 6 
#
# 1 129.5136 51.4544 35.4612 0.0000 0.0000 0.0000
# 2 51.4544 49.1127 10.6437 0.0000 0.0000 0.0000
# 3 35.4612 10.6437 115.3914 0.0000 0.0000 0.0000
# 4 0.0000 0.0000 0.0000 -46.8937 0.0000 0.0000
# 5 0.0000 0.0000 0.0000 0.0000 27.1568 0.0000
# 6 0.0000 0.0000 0.0000 0.0000 0.0000 36.7563
#
#
#
# Elastic Compliance Matrix: (Units=1/GPa)
#
#
# Indices 1 2 3 4 5 6 
#
# 1 0.014209 -0.014224 -0.003054 0.000000 0.000000 0.000000
# 2 -0.014224 0.035016 0.001141 0.000000 0.000000 0.000000
# 3 -0.003054 0.001141 0.009500 0.000000 0.000000 0.000000
# 4 0.000000 0.000000 0.000000 -0.021325 0.000000 0.000000
# 5 0.000000 0.000000 0.000000 0.000000 0.036823 0.000000
# 6 0.000000 0.000000 0.000000 0.000000 0.000000 0.027206
#
#
# Mechanical properties :
#
#
# Convention : Reuss Voigt Hill
#
# Bulk Modulus (GPa) = 37.80714 54.34847 46.07781
# Shear Modulus (GPa) = 35.08274 16.50111 25.79193
#
# Velocity S-wave (km/s) = 3.93680 2.69994 3.37551
# Velocity P-wave (km/s) = 6.11282 5.80766 5.96219
#
# Compressibility (1/GPa) = 0.02645003
#
# Stress axis : x y z
#
# Youngs Moduli (GPa) = 70.37983 28.55812 105.26817
#
# Poissons Ratio (x) = 0.40621 0.32154
# Poissons Ratio (y) = 1.00109 -0.12015
# Poissons Ratio (z) = 0.21497 -0.03260
#
# Static dielectric constant tensor:
#      x y z
#    x 1.921170 0.000000 0.000000 
#    y 0.000000 1.829830 0.000000 
#    z 0.000000 0.000000 1.836810 
# 
# From -- ./inp_files/8305.got.cif
#   From: 2010.05.17/outbox.cif.g08.bks.cpg/sg54_5_cif.got.tgz:8305.got - 2010.06.03 13:09:01.
