data_PCOD9423060
_publ_section_title
;
Structure prediction by ZEFSAII (Michael W. Deem and Ramdas Pophale) SiO2 
 PCOD9423060
Probable space group: P C C A
;
_chemical_formula_sum "Si O2"
_cell_formula_units_Z 32
_cell_length_a 18.266836
_cell_length_b 4.998211
_cell_length_c 15.339132
_cell_angle_alpha 90.000000
_cell_angle_beta 90.000000
_cell_angle_gamma 90.000000
_cell_volume 1400.485770
_symmetry_space_group_name_H-M "P C C A"
_symmetry_group_IT_number 54
_symmetry_cell_setting 'orthorhombic'
loop_
_space_group_symop_operation_xyz
x,y,z
1/2-x,-y,z
1/2+x,-y,1/2-z
-x,y,1/2-z
-x,-y,-z
1/2+x,y,-z
1/2-x,y,1/2+z
x,-y,1/2+z
loop_
_atom_site_type_symbol
_atom_site_label
_atom_site_fract_x
_atom_site_fract_y
_atom_site_fract_z
Si Si1 0.953354 0.288726 0.557790
Si Si2 0.697799 0.259182 0.954661
Si Si3 0.300547 0.254590 0.746143
Si Si4 0.049096 0.786656 0.833408
O O1 0.874774 0.249382 0.512335
O O2 0.951223 0.472625 0.643998
O O3 0.000000 0.500000 0.500000
O O4 0.976269 0.993203 0.590904
O O5 0.750000 0.500000 0.982865
O O6 0.674067 0.313975 0.853670
O O7 0.750000 0.000000 0.958928
O O8 0.250000 0.500000 0.776597
O O9 0.366617 0.171937 0.808001
O O10 0.250000 0.000000 0.738137
O O11 0.000000 0.839254 0.750000
#
# Coordination Sequence:
#
# PCOD9423060 Si02
#       4
#     8   8   8   8
#     4  12  26  43  66  95 132 173 218 272 327 391
#     4  10  22  41  66  95 130 172 219 273 334 397
#     4  10  22  41  65  93 128 169 213 266 327 389
#     4  12  26  43  66  95 131 172 219 271 325 391
#
# _framework density 22.849216999999999
#
# number of rings (size 3 to 8) (size 9 to 14) (size 15 to 20)
#    0.000    1.000    0.000    6.000    0.000   12.000 
#    0.000    0.000    0.000    0.000    0.000    0.000 
#    0.000    0.000    0.000    0.000    0.000    0.000 
#
# Total GULP energy -178802.419363 kJ/mol
# GULP energy per Si atom -5587.575605 kJ/mol
# Density = 2.279721 g / cm^3
# Si number density = 22.849217 Si / 1000 Ang^3
#
#
#
# Elastic Constant Matrix: (Units=GPa)
#
#
# Indices 1 2 3 4 5 6 
#
# 1 69.0022 28.8651 21.9704 0.0000 0.0000 0.0000
# 2 28.8651 141.2282 14.4727 0.0000 0.0000 0.0000
# 3 21.9704 14.4727 53.1378 0.0000 0.0000 0.0000
# 4 0.0000 0.0000 0.0000 52.2007 0.0000 0.0000
# 5 0.0000 0.0000 0.0000 0.0000 53.8862 0.0000
# 6 0.0000 0.0000 0.0000 0.0000 0.0000 805.2061
#
#
#
# Elastic Compliance Matrix: (Units=1/GPa)
#
#
# Indices 1 2 3 4 5 6 
#
# 1 0.017824 -0.002971 -0.006560 0.000000 0.000000 0.000000
# 2 -0.002971 0.007779 -0.000890 0.000000 0.000000 0.000000
# 3 -0.006560 -0.000890 0.021774 0.000000 0.000000 0.000000
# 4 0.000000 0.000000 0.000000 0.019157 0.000000 0.000000
# 5 0.000000 0.000000 0.000000 0.000000 0.018558 0.000000
# 6 0.000000 0.000000 0.000000 0.000000 0.000000 0.001242
#
#
# Mechanical properties :
#
#
# Convention : Reuss Voigt Hill
#
# Bulk Modulus (GPa) = 37.68758 43.77606 40.73182
# Shear Modulus (GPa) = 43.09567 195.46261 119.27914
#
# Velocity S-wave (km/s) = 4.34762 9.25906 7.23298
# Velocity P-wave (km/s) = 6.46005 11.55454 9.36054
#
# Compressibility (1/GPa) = 0.02653394
#
# Stress axis : x y z
#
# Youngs Moduli (GPa) = 56.10476 128.54872 45.92641
#
# Poissons Ratio (x) = 0.38187 0.30129
# Poissons Ratio (y) = 0.16667 0.04090
# Poissons Ratio (z) = 0.36807 0.11447
#
# Static dielectric constant tensor:
#      x y z
#    x 1.732490 0.000000 0.000000 
#    y 0.000000 1.754300 0.000000 
#    z 0.000000 0.000000 1.979840 
# 
# From -- ./inp_files/13788.got.cif
#   From: 2010.05.17/outbox.cif.g08.bks.cpg/sg54_7_cif.got.tgz:13788.got - 2010.06.03 13:09:01.
