data_PCOD9423387
_publ_section_title
;
Structure prediction by ZEFSAII (Michael W. Deem and Ramdas Pophale) SiO2 
 PCOD9423387
Probable space group: P C C A
;
_chemical_formula_sum "Si O2"
_cell_formula_units_Z 48
_cell_length_a 17.841522
_cell_length_b 7.974962
_cell_length_c 16.136609
_cell_angle_alpha 90.000000
_cell_angle_beta 90.000000
_cell_angle_gamma 90.000000
_cell_volume 2296.004834
_symmetry_space_group_name_H-M "P C C A"
_symmetry_group_IT_number 54
_symmetry_cell_setting 'orthorhombic'
loop_
_space_group_symop_operation_xyz
x,y,z
1/2-x,-y,z
1/2+x,-y,1/2-z
-x,y,1/2-z
-x,-y,-z
1/2+x,y,-z
1/2-x,y,1/2+z
x,-y,1/2+z
loop_
_atom_site_type_symbol
_atom_site_label
_atom_site_fract_x
_atom_site_fract_y
_atom_site_fract_z
Si Si1 0.918787 0.048649 0.467104
Si Si2 0.578425 0.448206 0.959706
Si Si3 0.835372 0.451822 0.618414
Si Si4 0.335703 0.952328 0.874564
Si Si5 0.084900 0.597730 0.223945
Si Si6 0.662785 0.940790 0.802632
O O1 0.915112 0.248342 0.459413
O O2 0.867643 0.977667 0.540903
O O3 0.889123 0.983372 0.379967
O O4 0.000000 0.000000 0.500000
O O5 0.581858 0.510583 0.865486
O O6 0.500000 0.500000 0.000000
O O7 0.638744 0.513079 0.027579
O O8 0.750000 0.500000 0.633105
O O9 0.844464 0.249020 0.618400
O O10 0.886010 0.508044 0.696652
O O11 0.366583 0.012497 0.785748
O O12 0.250000 0.000000 0.870449
O O13 0.147565 0.742899 0.210462
O O14 0.000000 0.656455 0.250000
O O15 0.750000 0.000000 0.815138
#
# Coordination Sequence:
#
# PCOD9423387 Si02
#       6
#     8   8   8   8   8   8
#     4  11  24  39  63  97 127 167 216 266 320 393
#     4  11  23  42  63  93 131 172 218 262 331 386
#     4  10  23  40  65  94 127 168 214 264 327 386
#     4   9  21  41  61  86 126 165 207 259 322 379
#     4  11  23  43  70  92 135 176 218 276 329 397
#     4  10  23  42  66  93 125 169 213 265 327 387
#
# _framework density 20.905878999999999
#
# number of rings (size 3 to 8) (size 9 to 14) (size 15 to 20)
#    0.000    1.667    1.667    1.500    4.667   10.000 
#    3.000    0.000    0.000    0.000    0.000    0.000 
#    0.000    0.000    0.000    0.000    0.000    0.000 
#
# Total GULP energy -267463.902102 kJ/mol
# GULP energy per Si atom -5572.164627 kJ/mol
# Density = 2.085830 g / cm^3
# Si number density = 20.905879 Si / 1000 Ang^3
#
#
#
# Elastic Constant Matrix: (Units=GPa)
#
#
# Indices 1 2 3 4 5 6 
#
# 1 77.2169 -1.2335 50.6028 0.0000 0.0000 0.0000
# 2 -1.2335 24.3436 33.9706 0.0000 0.0000 0.0000
# 3 50.6028 33.9706 208.5992 0.0000 0.0000 0.0000
# 4 0.0000 0.0000 0.0000 25.3437 0.0000 0.0000
# 5 0.0000 0.0000 0.0000 0.0000 22.7865 0.0000
# 6 0.0000 0.0000 0.0000 0.0000 0.0000 30.2562
#
#
#
# Elastic Compliance Matrix: (Units=1/GPa)
#
#
# Indices 1 2 3 4 5 6 
#
# 1 0.016620 0.008370 -0.005395 0.000000 0.000000 0.000000
# 2 0.008370 0.057375 -0.011374 0.000000 0.000000 0.000000
# 3 -0.005395 -0.011374 0.007955 0.000000 0.000000 0.000000
# 4 0.000000 0.000000 0.000000 0.039457 0.000000 0.000000
# 5 0.000000 0.000000 0.000000 0.000000 0.043886 0.000000
# 6 0.000000 0.000000 0.000000 0.000000 0.000000 0.033051
#
#
# Mechanical properties :
#
#
# Convention : Reuss Voigt Hill
#
# Bulk Modulus (GPa) = 15.34868 52.98217 34.16543
# Shear Modulus (GPa) = 21.10972 30.79861 25.95416
#
# Velocity S-wave (km/s) = 3.18110 3.84240 3.52728
# Velocity P-wave (km/s) = 4.56621 6.71443 5.74168
#
# Compressibility (1/GPa) = 0.06515217
#
# Stress axis : x y z
#
# Youngs Moduli (GPa) = 60.16982 17.42929 125.70970
#
# Poissons Ratio (x) = -0.14589 0.67817
# Poissons Ratio (y) = -0.50364 1.42982
# Poissons Ratio (z) = 0.32460 0.19824
#
# Static dielectric constant tensor:
#      x y z
#    x 3.614850 0.000000 0.000000 
#    y 0.000000 1.759280 0.000000 
#    z 0.000000 0.000000 1.804370 
# 
# From -- ./inp_files/14139.got.cif
#   From: 2010.05.17/outbox.cif.g08.bks.cpg/sg54_8_cif.got.tgz:14139.got - 2010.06.03 13:09:01.
