data_PCOD9423124
_publ_section_title
;
Structure prediction by ZEFSAII (Michael W. Deem and Ramdas Pophale) SiO2 
 PCOD9423124
Probable space group: P C C A
;
_chemical_formula_sum "Si O2"
_cell_formula_units_Z 40
_cell_length_a 8.914708
_cell_length_b 8.895963
_cell_length_c 22.133984
_cell_angle_alpha 90.000000
_cell_angle_beta 90.000000
_cell_angle_gamma 90.000000
_cell_volume 1755.333665
_symmetry_space_group_name_H-M "P C C A"
_symmetry_group_IT_number 54
_symmetry_cell_setting 'orthorhombic'
loop_
_space_group_symop_operation_xyz
x,y,z
1/2-x,-y,z
1/2+x,-y,1/2-z
-x,y,1/2-z
-x,-y,-z
1/2+x,y,-z
1/2-x,y,1/2+z
x,-y,1/2+z
loop_
_atom_site_type_symbol
_atom_site_label
_atom_site_fract_x
_atom_site_fract_y
_atom_site_fract_z
Si Si1 0.784239 0.177018 0.295312
Si Si2 0.750000 0.000000 0.579730
Si Si3 0.734090 0.678413 0.916809
Si Si4 0.624324 0.749913 0.168599
Si Si5 0.566131 0.247635 0.016865
Si Si6 0.250000 0.500000 0.909112
O O1 0.697576 0.251388 0.351552
O O2 0.768863 0.243973 0.228078
O O3 0.956857 0.210785 0.311755
O O4 0.750000 0.000000 0.293007
O O5 0.677079 0.122911 0.622760
O O6 0.871648 0.089481 0.540587
O O7 0.750000 0.500000 0.911653
O O8 0.604795 0.726851 0.964134
O O9 0.887907 0.738154 0.947084
O O10 0.640666 0.592851 0.134553
O O11 0.655689 0.383594 0.050431
#
# Coordination Sequence:
#
# PCOD9423124 Si02
#       6
#     8   4   8   8   8   4
#     4  11  24  42  66  96 132 170 221 272 336 398
#     4  10  22  42  66  94 132 170 218 270 336 394
#     4  12  26  42  66  97 134 175 222 277 332 404
#     4  10  22  43  68  93 130 173 217 275 332 403
#     4  11  25  42  67  95 134 174 222 274 335 397
#     4  10  22  44  66  94 128 174 220 274 334 398
#
# _framework density 22.787689
#
# number of rings (size 3 to 8) (size 9 to 14) (size 15 to 20)
#    0.000    1.200    2.000    3.000    8.400    0.800 
#    0.000    0.000    0.000    0.000    0.000    0.000 
#    0.000    0.000    0.000    0.000    0.000    0.000 
#
# Total GULP energy -223981.333769 kJ/mol
# GULP energy per Si atom -5599.533344 kJ/mol
# Density = 2.273582 g / cm^3
# Si number density = 22.787689 Si / 1000 Ang^3
#
#
#
# Elastic Constant Matrix: (Units=GPa)
#
#
# Indices 1 2 3 4 5 6 
#
# 1 75.1882 19.1789 16.9299 0.0000 0.0000 0.0000
# 2 19.1789 87.1498 49.5285 0.0000 0.0000 0.0000
# 3 16.9299 49.5285 132.8622 0.0000 0.0000 0.0000
# 4 0.0000 0.0000 0.0000 2.8900 0.0000 0.0000
# 5 0.0000 0.0000 0.0000 0.0000 24.0008 0.0000
# 6 0.0000 0.0000 0.0000 0.0000 0.0000 30.4144
#
#
#
# Elastic Compliance Matrix: (Units=1/GPa)
#
#
# Indices 1 2 3 4 5 6 
#
# 1 0.014160 -0.002653 -0.000815 0.000000 0.000000 0.000000
# 2 -0.002653 0.015056 -0.005275 0.000000 0.000000 0.000000
# 3 -0.000815 -0.005275 0.009597 0.000000 0.000000 0.000000
# 4 0.000000 0.000000 0.000000 0.346024 0.000000 0.000000
# 5 0.000000 0.000000 0.000000 0.000000 0.041665 0.000000
# 6 0.000000 0.000000 0.000000 0.000000 0.000000 0.032879
#
#
# Mechanical properties :
#
#
# Convention : Reuss Voigt Hill
#
# Bulk Modulus (GPa) = 46.88815 51.83053 49.35934
# Shear Modulus (GPa) = 10.33108 25.43189 17.88149
#
# Velocity S-wave (km/s) = 2.13154 3.34434 2.80429
# Velocity P-wave (km/s) = 5.16514 6.14061 5.67388
#
# Compressibility (1/GPa) = 0.02132735
#
# Stress axis : x y z
#
# Youngs Moduli (GPa) = 70.62032 66.41932 104.20203
#
# Poissons Ratio (x) = 0.17620 0.08497
# Poissons Ratio (y) = 0.18734 0.54961
# Poissons Ratio (z) = 0.05759 0.35033
#
# Static dielectric constant tensor:
#      x y z
#    x 1.908400 0.000000 0.000000 
#    y 0.000000 1.792790 0.000000 
#    z 0.000000 0.000000 1.884830 
# 
# From -- ./inp_files/23329.got.cif
#   From: 2010.05.17/outbox.cif.g08.bks.cpg/sg54_12_cif.got.tgz:23329.got - 2010.06.03 13:09:01.
