data_PCOD9423605
_publ_section_title
;
Structure prediction by ZEFSAII (Michael W. Deem and Ramdas Pophale) SiO2 
 PCOD9423605
Probable space group: P C C A
;
_chemical_formula_sum "Si O2"
_cell_formula_units_Z 40
_cell_length_a 4.990939
_cell_length_b 13.060113
_cell_length_c 26.547792
_cell_angle_alpha 90.000000
_cell_angle_beta 90.000000
_cell_angle_gamma 90.000000
_cell_volume 1730.444213
_symmetry_space_group_name_H-M "P C C A"
_symmetry_group_IT_number 54
_symmetry_cell_setting 'orthorhombic'
loop_
_space_group_symop_operation_xyz
x,y,z
1/2-x,-y,z
1/2+x,-y,1/2-z
-x,y,1/2-z
-x,-y,-z
1/2+x,y,-z
1/2-x,y,1/2+z
x,-y,1/2+z
loop_
_atom_site_type_symbol
_atom_site_label
_atom_site_fract_x
_atom_site_fract_y
_atom_site_fract_z
Si Si1 0.307612 0.380713 0.381370
Si Si2 0.909566 0.083605 0.900513
Si Si3 0.250000 0.000000 0.313601
Si Si4 0.804925 0.724876 0.841284
Si Si5 0.000000 0.825473 0.250000
Si Si6 0.224877 0.220255 0.465953
O O1 0.250000 0.500000 0.382433
O O2 0.608546 0.361221 0.363409
O O3 0.264682 0.325188 0.434953
O O4 0.104721 0.317928 0.344402
O O5 0.739525 0.178334 0.878469
O O6 0.011987 0.018069 0.852750
O O7 0.162245 0.132360 0.929056
O O8 0.750000 0.000000 0.932822
O O9 0.290847 0.098891 0.278669
O O10 0.677711 0.760007 0.788579
O O11 0.425705 0.214976 0.513402
#
# Coordination Sequence:
#
# PCOD9423605 Si02
#       6
#     8   8   4   8   4   8
#     4  11  24  47  73  97 132 181 226 281 358 411
#     4  10  24  40  64  94 140 183 219 269 336 412
#     4  10  24  38  62  98 130 186 234 260 328 402
#     4  10  24  42  69 103 138 176 222 283 340 399
#     4  10  24  40  68 106 138 182 232 292 314 408
#     4  11  25  43  66 101 136 174 231 286 335 400
#
# _framework density 23.115449999999999
#
# number of rings (size 3 to 8) (size 9 to 14) (size 15 to 20)
#    0.000    1.600    0.000    3.000   16.800    2.400 
#    0.000    2.000    0.000    0.000    0.000    0.000 
#    0.000    0.000    0.000    0.000    0.000    0.000 
#
# Total GULP energy -223777.151984 kJ/mol
# GULP energy per Si atom -5594.428800 kJ/mol
# Density = 2.306284 g / cm^3
# Si number density = 23.115450 Si / 1000 Ang^3
#
#
#
# Elastic Constant Matrix: (Units=GPa)
#
#
# Indices 1 2 3 4 5 6 
#
# 1 66.6615 18.4069 0.5010 0.0000 0.0000 0.0000
# 2 18.4069 140.4102 31.3782 0.0000 0.0000 0.0000
# 3 0.5010 31.3782 98.4889 0.0000 0.0000 0.0000
# 4 0.0000 0.0000 0.0000 36.9590 0.0000 0.0000
# 5 0.0000 0.0000 0.0000 0.0000 -257.1104 0.0000
# 6 0.0000 0.0000 0.0000 0.0000 0.0000 38.9768
#
#
#
# Elastic Compliance Matrix: (Units=1/GPa)
#
#
# Indices 1 2 3 4 5 6 
#
# 1 0.015599 -0.002183 0.000616 0.000000 0.000000 0.000000
# 2 -0.002183 0.007973 -0.002529 0.000000 0.000000 0.000000
# 3 0.000616 -0.002529 0.010956 0.000000 0.000000 0.000000
# 4 0.000000 0.000000 0.000000 0.027057 0.000000 0.000000
# 5 0.000000 0.000000 0.000000 0.000000 -0.003889 0.000000
# 6 0.000000 0.000000 0.000000 0.000000 0.000000 0.025656
#
#
# Mechanical properties :
#
#
# Convention : Reuss Voigt Hill
#
# Bulk Modulus (GPa) = 37.96929 45.12587 41.54758
# Shear Modulus (GPa) = 49.83898 -19.21661 15.31119
#
# Velocity S-wave (km/s) = 4.64841 -2.88641 2.57646
# Velocity P-wave (km/s) = 6.72844 2.90789 5.18304
#
# Compressibility (1/GPa) = 0.02633707
#
# Stress axis : x y z
#
# Youngs Moduli (GPa) = 64.10585 125.41821 91.27354
#
# Poissons Ratio (x) = 0.27374 -0.05623
# Poissons Ratio (y) = 0.13992 0.23085
# Poissons Ratio (z) = -0.03949 0.31720
#
# Static dielectric constant tensor:
#      x y z
#    x 2.019300 0.000000 0.000000 
#    y 0.000000 1.841880 0.000000 
#    z 0.000000 0.000000 1.912530 
# 
# From -- ./inp_files/25193.got.cif
#   From: 2010.05.17/outbox.cif.g08.bks.cpg/sg54_13_cif.got.tgz:25193.got - 2010.06.03 13:09:01.
