data_PCOD9423669
_publ_section_title
;
Structure prediction by ZEFSAII (Michael W. Deem and Ramdas Pophale) SiO2 
 PCOD9423669
Probable space group: P C C A
;
_chemical_formula_sum "Si O2"
_cell_formula_units_Z 48
_cell_length_a 9.249626
_cell_length_b 17.872231
_cell_length_c 13.967740
_cell_angle_alpha 90.000000
_cell_angle_beta 90.000000
_cell_angle_gamma 90.000000
_cell_volume 2309.027388
_symmetry_space_group_name_H-M "P C C A"
_symmetry_group_IT_number 54
_symmetry_cell_setting 'orthorhombic'
loop_
_space_group_symop_operation_xyz
x,y,z
1/2-x,-y,z
1/2+x,-y,1/2-z
-x,y,1/2-z
-x,-y,-z
1/2+x,y,-z
1/2-x,y,1/2+z
x,-y,1/2+z
loop_
_atom_site_type_symbol
_atom_site_label
_atom_site_fract_x
_atom_site_fract_y
_atom_site_fract_z
Si Si1 0.000000 0.312891 0.250000
Si Si2 0.368784 0.051329 0.959725
Si Si3 0.750000 0.500000 0.029307
Si Si4 0.256016 0.164543 0.104621
Si Si5 0.953283 0.755572 0.037296
Si Si6 0.485799 0.398606 0.567862
Si Si7 0.702980 0.815005 0.176202
O O1 0.064866 0.364447 0.168120
O O2 0.890410 0.258503 0.196246
O O3 0.379700 0.120723 0.884942
O O4 0.250000 0.000000 0.909493
O O5 0.288931 0.086931 0.051821
O O6 0.500000 0.000000 0.000000
O O7 0.632883 0.456937 0.966354
O O8 0.855677 0.437930 0.079676
O O9 0.393771 0.213700 0.072898
O O10 0.242544 0.156454 0.217865
O O11 0.119322 0.205030 0.055621
O O12 0.840100 0.783482 0.117805
O O13 0.979500 0.669231 0.009423
#
# Coordination Sequence:
#
# PCOD9423669 Si02
#       7
#     4   8   4   8   8   8   8
#     4  12  24  40  72  98 128 176 236 296 334 396
#     4  11  25  44  65  93 137 184 218 288 366 422
#     4  10  24  42  66  96 140 178 218 264 352 444
#     4  11  23  43  67  99 134 176 242 294 340 425
#     4  11  22  42  70  99 138 178 234 295 348 400
#     4  11  22  42  67  98 134 183 216 278 350 410
#     4  11  25  41  68 103 131 178 247 293 343 417
#
# _framework density 20.787973999999998
#
# number of rings (size 3 to 8) (size 9 to 14) (size 15 to 20)
#    0.000    1.000    1.667    6.500    2.333    1.333 
#    0.000    0.000    0.000    0.000    0.000    0.000 
#    0.000    0.000    0.000    0.000    0.000    0.000 
#
# Total GULP energy -267697.959255 kJ/mol
# GULP energy per Si atom -5577.040818 kJ/mol
# Density = 2.074066 g / cm^3
# Si number density = 20.787974 Si / 1000 Ang^3
#
#
#
# Elastic Constant Matrix: (Units=GPa)
#
#
# Indices 1 2 3 4 5 6 
#
# 1 129.8321 51.8875 38.8344 0.0000 0.0000 0.0000
# 2 51.8875 117.1036 42.5102 0.0000 0.0000 0.0000
# 3 38.8344 42.5102 137.4394 0.0000 0.0000 0.0000
# 4 0.0000 0.0000 0.0000 20.7669 0.0000 0.0000
# 5 0.0000 0.0000 0.0000 0.0000 21.5110 0.0000
# 6 0.0000 0.0000 0.0000 0.0000 0.0000 38.3338
#
#
#
# Elastic Compliance Matrix: (Units=1/GPa)
#
#
# Indices 1 2 3 4 5 6 
#
# 1 0.009656 -0.003704 -0.001583 0.000000 0.000000 0.000000
# 2 -0.003704 0.011040 -0.002368 0.000000 0.000000 0.000000
# 3 -0.001583 -0.002368 0.008456 0.000000 0.000000 0.000000
# 4 0.000000 0.000000 0.000000 0.048154 0.000000 0.000000
# 5 0.000000 0.000000 0.000000 0.000000 0.046488 0.000000
# 6 0.000000 0.000000 0.000000 0.000000 0.000000 0.026087
#
#
# Mechanical properties :
#
#
# Convention : Reuss Voigt Hill
#
# Bulk Modulus (GPa) = 72.24295 72.31548 72.27922
# Shear Modulus (GPa) = 29.44578 32.86522 31.15550
#
# Velocity S-wave (km/s) = 3.76770 3.98046 3.87554
# Velocity P-wave (km/s) = 7.33179 7.48252 7.40754
#
# Compressibility (1/GPa) = 0.01384218
#
# Stress axis : x y z
#
# Youngs Moduli (GPa) = 103.56329 90.57721 118.26425
#
# Poissons Ratio (x) = 0.33549 0.18718
# Poissons Ratio (y) = 0.38359 0.28008
# Poissons Ratio (z) = 0.16391 0.21451
#
# Static dielectric constant tensor:
#      x y z
#    x 1.798790 0.000000 0.000000 
#    y 0.000000 1.855970 0.000000 
#    z 0.000000 0.000000 1.892370 
# 
# From -- ./inp_files/11787.got.cif
#   From: 2010.05.17/outbox.cif.g08.bks.cpg/sg54_6_cif.got.tgz:11787.got - 2010.06.03 13:09:01.
