data_PCOD9423612
_publ_section_title
;
Structure prediction by ZEFSAII (Michael W. Deem and Ramdas Pophale) SiO2 
 PCOD9423612
Probable space group: P C C A
;
_chemical_formula_sum "Si O2"
_cell_formula_units_Z 40
_cell_length_a 10.595463
_cell_length_b 18.750021
_cell_length_c 8.798723
_cell_angle_alpha 90.000000
_cell_angle_beta 90.000000
_cell_angle_gamma 90.000000
_cell_volume 1747.999658
_symmetry_space_group_name_H-M "P C C A"
_symmetry_group_IT_number 54
_symmetry_cell_setting 'orthorhombic'
loop_
_space_group_symop_operation_xyz
x,y,z
1/2-x,-y,z
1/2+x,-y,1/2-z
-x,y,1/2-z
-x,-y,-z
1/2+x,y,-z
1/2-x,y,1/2+z
x,-y,1/2+z
loop_
_atom_site_type_symbol
_atom_site_label
_atom_site_fract_x
_atom_site_fract_y
_atom_site_fract_z
Si Si1 0.190581 0.785966 0.867543
Si Si2 0.917284 0.265698 0.449753
Si Si3 0.750000 0.500000 0.618610
Si Si4 0.841791 0.938710 0.517809
Si Si5 0.110831 0.428708 0.144019
Si Si6 0.500000 0.966207 0.750000
O O1 0.148467 0.775238 0.693120
O O2 0.214496 0.868280 0.909667
O O3 0.063232 0.759924 0.957794
O O4 0.319313 0.745922 0.912857
O O5 0.918472 0.348876 0.405628
O O6 0.642862 0.524278 0.501192
O O7 0.775392 0.565205 0.733930
O O8 0.916522 0.980647 0.648434
O O9 0.750000 0.000000 0.456541
O O10 0.927739 0.919648 0.374049
O O11 0.000000 0.457458 0.250000
#
# Coordination Sequence:
#
# PCOD9423612 Si02
#       6
#     8   8   4   8   8   4
#     4  11  26  44  69  97 131 182 224 282 341 403
#     4  11  25  46  70  97 140 179 228 277 335 412
#     4  10  24  38  70 102 132 176 222 276 330 394
#     4  11  25  41  67  93 131 166 228 280 340 403
#     4  11  21  43  66  98 136 176 222 275 330 390
#     4  10  24  42  62  94 122 172 204 290 332 406
#
# _framework density 22.883299000000001
#
# number of rings (size 3 to 8) (size 9 to 14) (size 15 to 20)
#    0.000    1.200    2.000    3.600   11.200    0.800 
#    0.000    0.000    0.000    0.000    0.000    0.000 
#    0.000    0.000    0.000    0.000    0.000    0.000 
#
# Total GULP energy -223386.818294 kJ/mol
# GULP energy per Si atom -5584.670457 kJ/mol
# Density = 2.283122 g / cm^3
# Si number density = 22.883299 Si / 1000 Ang^3
#
#
#
# Elastic Constant Matrix: (Units=GPa)
#
#
# Indices 1 2 3 4 5 6 
#
# 1 49.2242 -5.9944 -5.2380 0.0000 0.0000 0.0000
# 2 -5.9944 85.0878 4.2798 0.0000 0.0000 0.0000
# 3 -5.2380 4.2798 67.5319 0.0000 0.0000 0.0000
# 4 0.0000 0.0000 0.0000 2.8006 0.0000 0.0000
# 5 0.0000 0.0000 0.0000 0.0000 27.5711 0.0000
# 6 0.0000 0.0000 0.0000 0.0000 0.0000 28.2100
#
#
#
# Elastic Compliance Matrix: (Units=1/GPa)
#
#
# Indices 1 2 3 4 5 6 
#
# 1 0.020644 0.001378 0.001514 0.000000 0.000000 0.000000
# 2 0.001378 0.011882 -0.000646 0.000000 0.000000 0.000000
# 3 0.001514 -0.000646 0.014966 0.000000 0.000000 0.000000
# 4 0.000000 0.000000 0.000000 0.357062 0.000000 0.000000
# 5 0.000000 0.000000 0.000000 0.000000 0.036270 0.000000
# 6 0.000000 0.000000 0.000000 0.000000 0.000000 0.035448
#
#
# Mechanical properties :
#
#
# Convention : Reuss Voigt Hill
#
# Bulk Modulus (GPa) = 19.23649 20.88205 20.05927
# Shear Modulus (GPa) = 10.22267 25.63609 17.92938
#
# Velocity S-wave (km/s) = 2.11589 3.35072 2.80217
# Velocity P-wave (km/s) = 3.79393 4.91070 4.38799
#
# Compressibility (1/GPa) = 0.05198454
#
# Stress axis : x y z
#
# Youngs Moduli (GPa) = 48.43984 84.15973 66.81725
#
# Poissons Ratio (x) = -0.11599 -0.10115
# Poissons Ratio (y) = -0.06676 0.04317
# Poissons Ratio (z) = -0.07333 0.05438
#
# Static dielectric constant tensor:
#      x y z
#    x 2.005180 0.000000 0.000000 
#    y 0.000000 1.812100 0.000000 
#    z 0.000000 0.000000 1.843150 
# 
# From -- ./inp_files/3026.got.cif
#   From: 2010.05.17/outbox.cif.g08.bks.cpg/sg54_2_cif.got.tgz:3026.got - 2010.06.03 13:09:01.
