data_PCOD9423947
_publ_section_title
;
Structure prediction by ZEFSAII (Michael W. Deem and Ramdas Pophale) SiO2 
 PCOD9423947
Probable space group: P C C A
;
_chemical_formula_sum "Si O2"
_cell_formula_units_Z 60
_cell_length_a 9.321269
_cell_length_b 10.972629
_cell_length_c 27.242576
_cell_angle_alpha 90.000000
_cell_angle_beta 90.000000
_cell_angle_gamma 90.000000
_cell_volume 2786.338705
_symmetry_space_group_name_H-M "P C C A"
_symmetry_group_IT_number 54
_symmetry_cell_setting 'orthorhombic'
loop_
_space_group_symop_operation_xyz
x,y,z
1/2-x,-y,z
1/2+x,-y,1/2-z
-x,y,1/2-z
-x,-y,-z
1/2+x,y,-z
1/2-x,y,1/2+z
x,-y,1/2+z
loop_
_atom_site_type_symbol
_atom_site_label
_atom_site_fract_x
_atom_site_fract_y
_atom_site_fract_z
Si Si1 0.484373 0.617306 0.034775
Si Si2 0.206651 0.139893 0.681538
Si Si3 0.912903 0.461949 0.662788
Si Si4 0.500000 0.286191 0.250000
Si Si5 0.031246 0.703281 0.640630
Si Si6 0.781720 0.760012 0.499727
Si Si7 0.714963 0.132528 0.592763
Si Si8 0.024827 0.250659 0.597865
O O1 0.429637 0.628506 0.090510
O O2 0.379696 0.718961 0.010636
O O3 0.500000 0.500000 0.000000
O O4 0.648995 0.658049 0.034971
O O5 0.122987 0.201753 0.726485
O O6 0.342868 0.220134 0.664913
O O7 0.097781 0.158534 0.636277
O O8 0.250000 0.000000 0.689279
O O9 0.750000 0.500000 0.648606
O O10 0.999588 0.384897 0.621158
O O11 0.926644 0.371848 0.708984
O O12 0.982267 0.592566 0.674748
O O13 0.906655 0.797155 0.623414
O O14 0.818451 0.875394 0.533918
O O15 0.872109 0.752800 0.449496
O O16 0.864008 0.204253 0.591491
O O17 0.750000 0.000000 0.613188
#
# Coordination Sequence:
#
# PCOD9423947 Si02
#       8
#     8   8   8   4   8   8   8   8
#     4  11  22  37  60  95 139 183 238 288 345 408
#     4  11  25  50  75 106 144 185 235 291 357 449
#     4  11  24  45  72 101 138 170 223 303 368 442
#     4  10  28  48  74 112 140 172 224 298 388 432
#     4  11  24  42  73 103 136 190 240 287 367 420
#     4  11  22  38  57  92 134 189 236 286 341 399
#     4  11  24  41  62  96 140 191 247 292 340 407
#     4  11  22  43  68  97 143 183 240 297 354 415
#
# _framework density 21.533635
#
# number of rings (size 3 to 8) (size 9 to 14) (size 15 to 20)
#    0.000    1.067    4.000    2.000    1.867    2.667 
#    2.400    1.333    0.000    0.000    0.000    0.000 
#    0.000    0.000    0.000    0.000    0.000    0.000 
#
# Total GULP energy -334289.599267 kJ/mol
# GULP energy per Si atom -5571.493321 kJ/mol
# Density = 2.148462 g / cm^3
# Si number density = 21.533635 Si / 1000 Ang^3
#
#
#
# Elastic Constant Matrix: (Units=GPa)
#
#
# Indices 1 2 3 4 5 6 
#
# 1 114.2003 51.1680 54.0703 0.0000 0.0000 0.0000
# 2 51.1680 141.5313 71.8872 0.0000 0.0000 0.0000
# 3 54.0703 71.8872 87.5691 0.0000 0.0000 0.0000
# 4 0.0000 0.0000 0.0000 15.8177 0.0000 0.0000
# 5 0.0000 0.0000 0.0000 0.0000 32.0157 0.0000
# 6 0.0000 0.0000 0.0000 0.0000 0.0000 35.3499
#
#
#
# Elastic Compliance Matrix: (Units=1/GPa)
#
#
# Indices 1 2 3 4 5 6 
#
# 1 0.012460 -0.001024 -0.006853 0.000000 0.000000 0.000000
# 2 -0.001024 0.012203 -0.009385 0.000000 0.000000 0.000000
# 3 -0.006853 -0.009385 0.023356 0.000000 0.000000 0.000000
# 4 0.000000 0.000000 0.000000 0.063220 0.000000 0.000000
# 5 0.000000 0.000000 0.000000 0.000000 0.031235 0.000000
# 6 0.000000 0.000000 0.000000 0.000000 0.000000 0.028289
#
#
# Mechanical properties :
#
#
# Convention : Reuss Voigt Hill
#
# Bulk Modulus (GPa) = 74.10710 77.50574 75.80642
# Shear Modulus (GPa) = 23.83402 27.71502 25.77452
#
# Velocity S-wave (km/s) = 3.33051 3.59145 3.46344
# Velocity P-wave (km/s) = 7.01990 7.29856 7.16059
#
# Compressibility (1/GPa) = 0.01349398
#
# Stress axis : x y z
#
# Youngs Moduli (GPa) = 80.25698 81.94875 42.81632
#
# Poissons Ratio (x) = 0.08390 0.29342
# Poissons Ratio (y) = 0.08217 0.40184
# Poissons Ratio (z) = 0.55000 0.76911
#
# Static dielectric constant tensor:
#      x y z
#    x 1.781370 0.000000 0.000000 
#    y 0.000000 1.869560 0.000000 
#    z 0.000000 0.000000 1.876000 
# 
# From -- ./inp_files/27902.got.cif
#   From: 2010.05.17/outbox.cif.g08.bks.cpg/sg54_14_cif.got.tgz:27902.got - 2010.06.03 13:09:01.
