data_PCOD9423261
_publ_section_title
;
Structure prediction by ZEFSAII (Michael W. Deem and Ramdas Pophale) SiO2 
 PCOD9423261
Probable space group: P C C A
;
_chemical_formula_sum "Si O2"
_cell_formula_units_Z 32
_cell_length_a 18.424259
_cell_length_b 5.787692
_cell_length_c 13.095532
_cell_angle_alpha 90.000000
_cell_angle_beta 90.000000
_cell_angle_gamma 90.000000
_cell_volume 1396.428127
_symmetry_space_group_name_H-M "P C C A"
_symmetry_group_IT_number 54
_symmetry_cell_setting 'orthorhombic'
loop_
_space_group_symop_operation_xyz
x,y,z
1/2-x,-y,z
1/2+x,-y,1/2-z
-x,y,1/2-z
-x,-y,-z
1/2+x,y,-z
1/2-x,y,1/2+z
x,-y,1/2+z
loop_
_atom_site_type_symbol
_atom_site_label
_atom_site_fract_x
_atom_site_fract_y
_atom_site_fract_z
Si Si1 0.438336 0.027387 0.914343
Si Si2 0.614189 0.744252 0.765244
Si Si3 0.500000 0.615703 0.250000
Si Si4 0.750000 0.500000 0.336379
Si Si5 0.169680 0.907447 0.579781
O O1 0.460673 0.233911 0.838471
O O2 0.423654 0.811763 0.840281
O O3 0.500000 0.000000 0.000000
O O4 0.363992 0.020905 0.978858
O O5 0.560835 0.544220 0.803754
O O6 0.696616 0.651246 0.764933
O O7 0.620142 0.979539 0.831382
O O8 0.809275 0.361474 0.405499
O O9 0.250000 0.000000 0.592261
#
# Coordination Sequence:
#
# PCOD9423261 Si02
#       5
#     8   8   4   4   8
#     4  12  25  42  65  98 135 176 230 282 337 410
#     4  11  24  43  67  97 135 178 228 282 343 411
#     4  12  26  44  66  96 138 186 228 286 344 394
#     4  10  22  44  70  98 136 176 220 284 352 406
#     4  10  24  44  68 100 134 172 224 281 342 416
#
# _framework density 22.915607000000001
#
# number of rings (size 3 to 8) (size 9 to 14) (size 15 to 20)
#    0.000    1.000    0.000    6.750    0.000   14.000 
#    0.000    0.000    0.000    0.000    0.000    0.000 
#    0.000    0.000    0.000    0.000    0.000    0.000 
#
# Total GULP energy -178180.122719 kJ/mol
# GULP energy per Si atom -5568.128835 kJ/mol
# Density = 2.286345 g / cm^3
# Si number density = 22.915607 Si / 1000 Ang^3
#
#
#
# Elastic Constant Matrix: (Units=GPa)
#
#
# Indices 1 2 3 4 5 6 
#
# 1 134.7445 57.0038 52.1369 0.0000 0.0000 0.0000
# 2 57.0038 94.2897 44.8846 0.0000 0.0000 0.0000
# 3 52.1369 44.8846 98.1415 0.0000 0.0000 0.0000
# 4 0.0000 0.0000 0.0000 10.2992 0.0000 0.0000
# 5 0.0000 0.0000 0.0000 0.0000 34.5042 0.0000
# 6 0.0000 0.0000 0.0000 0.0000 0.0000 49.8989
#
#
#
# Elastic Compliance Matrix: (Units=1/GPa)
#
#
# Indices 1 2 3 4 5 6 
#
# 1 0.010853 -0.004879 -0.003534 0.000000 0.000000 0.000000
# 2 -0.004879 0.015750 -0.004612 0.000000 0.000000 0.000000
# 3 -0.003534 -0.004612 0.014176 0.000000 0.000000 0.000000
# 4 0.000000 0.000000 0.000000 0.097095 0.000000 0.000000
# 5 0.000000 0.000000 0.000000 0.000000 0.028982 0.000000
# 6 0.000000 0.000000 0.000000 0.000000 0.000000 0.020041
#
#
# Mechanical properties :
#
#
# Convention : Reuss Voigt Hill
#
# Bulk Modulus (GPa) = 67.88824 70.58071 69.23448
# Shear Modulus (GPa) = 22.95096 30.48382 26.71739
#
# Velocity S-wave (km/s) = 3.16815 3.65124 3.41824
# Velocity P-wave (km/s) = 6.56297 6.97442 6.77182
#
# Compressibility (1/GPa) = 0.01473009
#
# Stress axis : x y z
#
# Youngs Moduli (GPa) = 92.14062 63.49043 70.54198
#
# Poissons Ratio (x) = 0.30976 0.24931
# Poissons Ratio (y) = 0.44954 0.32531
# Poissons Ratio (z) = 0.32565 0.29279
#
# Static dielectric constant tensor:
#      x y z
#    x 1.936250 0.000000 0.000000 
#    y 0.000000 2.084290 0.000000 
#    z 0.000000 0.000000 1.900910 
# 
# From -- ./inp_files/9271.got.cif
#   From: 2010.05.17/outbox.cif.g08.bks.cpg/sg54_5_cif.got.tgz:9271.got - 2010.06.03 13:09:01.
