data_PCOD9423310
_publ_section_title
;
Structure prediction by ZEFSAII (Michael W. Deem and Ramdas Pophale) SiO2 
 PCOD9423310
Probable space group: P C C A
;
_chemical_formula_sum "Si O2"
_cell_formula_units_Z 28
_cell_length_a 9.948991
_cell_length_b 9.682564
_cell_length_c 13.672453
_cell_angle_alpha 90.000000
_cell_angle_beta 90.000000
_cell_angle_gamma 90.000000
_cell_volume 1317.091216
_symmetry_space_group_name_H-M "P C C A"
_symmetry_group_IT_number 54
_symmetry_cell_setting 'orthorhombic'
loop_
_space_group_symop_operation_xyz
x,y,z
1/2-x,-y,z
1/2+x,-y,1/2-z
-x,y,1/2-z
-x,-y,-z
1/2+x,y,-z
1/2-x,y,1/2+z
x,-y,1/2+z
loop_
_atom_site_type_symbol
_atom_site_label
_atom_site_fract_x
_atom_site_fract_y
_atom_site_fract_z
Si Si1 0.000000 0.405125 0.250000
Si Si2 0.569763 0.156375 0.607754
Si Si3 0.750000 0.500000 0.360802
Si Si4 0.750000 0.000000 0.753518
Si Si5 0.735298 0.193977 0.928217
O O1 0.061111 0.301124 0.331880
O O2 0.117191 0.496573 0.205102
O O3 0.418727 0.141063 0.567033
O O4 0.674147 0.155795 0.519484
O O5 0.626696 0.046400 0.685351
O O6 0.759796 0.359161 0.420929
O O7 0.715539 0.873715 0.826395
#
# Coordination Sequence:
#
# PCOD9423310 Si02
#       5
#     4   8   4   4   8
#     4  10  22  46  68 102 144 178 228 296 342 428
#     4  11  24  46  69 102 142 178 233 288 347 415
#     4  10  22  46  68 106 136 182 232 290 352 412
#     4  12  22  46  70  96 144 186 230 288 340 412
#     4  11  26  44  71 105 138 184 235 288 349 420
#
# _framework density 21.258966999999998
#
# number of rings (size 3 to 8) (size 9 to 14) (size 15 to 20)
#    0.000    1.143    5.714    0.857    0.000   14.857 
#    5.143    0.000    0.000    0.000    0.000    0.000 
#    0.000    0.000    0.000    0.000    0.000    0.000 
#
# Total GULP energy -156513.315671 kJ/mol
# GULP energy per Si atom -5589.761274 kJ/mol
# Density = 2.121058 g / cm^3
# Si number density = 21.258967 Si / 1000 Ang^3
#
#
#
# Elastic Constant Matrix: (Units=GPa)
#
#
# Indices 1 2 3 4 5 6 
#
# 1 160.0813 48.0756 101.7442 0.0000 0.0000 0.0000
# 2 48.0756 104.7798 41.6181 0.0000 0.0000 0.0000
# 3 101.7442 41.6181 151.8197 0.0000 0.0000 0.0000
# 4 0.0000 0.0000 0.0000 124.0197 0.0000 0.0000
# 5 0.0000 0.0000 0.0000 0.0000 32.9260 0.0000
# 6 0.0000 0.0000 0.0000 0.0000 0.0000 39.5433
#
#
#
# Elastic Compliance Matrix: (Units=1/GPa)
#
#
# Indices 1 2 3 4 5 6 
#
# 1 0.011424 -0.002470 -0.006979 0.000000 0.000000 0.000000
# 2 -0.002470 0.011244 -0.001427 0.000000 0.000000 0.000000
# 3 -0.006979 -0.001427 0.011655 0.000000 0.000000 0.000000
# 4 0.000000 0.000000 0.000000 0.008063 0.000000 0.000000
# 5 0.000000 0.000000 0.000000 0.000000 0.030371 0.000000
# 6 0.000000 0.000000 0.000000 0.000000 0.000000 0.025289
#
#
# Mechanical properties :
#
#
# Convention : Reuss Voigt Hill
#
# Bulk Modulus (GPa) = 79.54614 88.83965 84.19289
# Shear Modulus (GPa) = 40.32617 54.31399 47.32008
#
# Velocity S-wave (km/s) = 4.36007 5.06006 4.72305
# Velocity P-wave (km/s) = 7.92754 8.71888 8.33261
#
# Compressibility (1/GPa) = 0.01257132
#
# Stress axis : x y z
#
# Youngs Moduli (GPa) = 87.53246 88.93757 85.79872
#
# Poissons Ratio (x) = 0.21965 0.59880
# Poissons Ratio (y) = 0.21618 0.12245
# Poissons Ratio (z) = 0.61090 0.12693
#
# Static dielectric constant tensor:
#      x y z
#    x 1.770500 0.000000 0.000000 
#    y 0.000000 1.776670 0.000000 
#    z 0.000000 0.000000 1.758940 
# 
# From -- ./inp_files/11199.got.cif
#   From: 2010.05.17/outbox.cif.g08.bks.cpg/sg54_6_cif.got.tgz:11199.got - 2010.06.03 13:09:01.
