data_PCOD9423027
_publ_section_title
;
Structure prediction by ZEFSAII (Michael W. Deem and Ramdas Pophale) SiO2 
 PCOD9423027
Probable space group: P C C A
;
_chemical_formula_sum "Si O2"
_cell_formula_units_Z 48
_cell_length_a 13.269819
_cell_length_b 8.452696
_cell_length_c 22.904995
_cell_angle_alpha 90.000000
_cell_angle_beta 90.000000
_cell_angle_gamma 90.000000
_cell_volume 2569.155851
_symmetry_space_group_name_H-M "P C C A"
_symmetry_group_IT_number 54
_symmetry_cell_setting 'orthorhombic'
loop_
_space_group_symop_operation_xyz
x,y,z
1/2-x,-y,z
1/2+x,-y,1/2-z
-x,y,1/2-z
-x,-y,-z
1/2+x,y,-z
1/2-x,y,1/2+z
x,-y,1/2+z
loop_
_atom_site_type_symbol
_atom_site_label
_atom_site_fract_x
_atom_site_fract_y
_atom_site_fract_z
Si Si1 0.967227 0.879162 0.448782
Si Si2 0.765501 0.312377 0.981353
Si Si3 0.657861 0.116815 0.882347
Si Si4 0.664118 0.264420 0.103251
Si Si5 0.250000 0.500000 0.309937
Si Si6 0.750000 0.000000 0.188245
Si Si7 0.119553 0.243221 0.241054
O O1 0.874104 0.766179 0.467365
O O2 0.057573 0.771305 0.426087
O O3 0.932343 0.998336 0.397679
O O4 0.000000 0.000000 0.500000
O O5 0.750000 0.500000 0.970455
O O6 0.688936 0.215706 0.939695
O O7 0.740473 0.282210 0.049087
O O8 0.637856 0.228153 0.827874
O O9 0.750000 0.000000 0.868136
O O10 0.672874 0.413097 0.146105
O O11 0.696046 0.122235 0.145235
O O12 0.184670 0.383023 0.270041
O O13 0.666999 0.912152 0.227932
O O14 0.000000 0.258194 0.250000
#
# Coordination Sequence:
#
# PCOD9423027 Si02
#       7
#     8   8   8   8   4   4   8
#     4  11  22  39  67  98 121 170 213 256 320 391
#     4  11  24  39  61  95 133 164 199 267 329 378
#     4  10  22  42  63  93 127 159 214 265 315 376
#     4  11  21  43  62  92 131 160 215 260 316 380
#     4  10  26  44  60  92 130 170 210 268 314 388
#     4  10  22  40  70  92 120 170 212 274 300 380
#     4  11  23  44  66  91 124 170 217 260 324 375
#
# _framework density 18.68318
#
# number of rings (size 3 to 8) (size 9 to 14) (size 15 to 20)
#    0.000    1.333    3.333    2.000    2.333    3.333 
#    3.000    1.667    0.000    0.000    0.000    0.000 
#    0.000    0.000    0.000    0.000    0.000    0.000 
#
# Total GULP energy -267882.115838 kJ/mol
# GULP energy per Si atom -5580.877413 kJ/mol
# Density = 1.864066 g / cm^3
# Si number density = 18.683180 Si / 1000 Ang^3
#
#
#
# Elastic Constant Matrix: (Units=GPa)
#
#
# Indices 1 2 3 4 5 6 
#
# 1 92.9444 42.6224 33.8864 0.0000 0.0000 0.0000
# 2 42.6224 100.2569 37.2571 0.0000 0.0000 0.0000
# 3 33.8864 37.2571 110.0613 0.0000 0.0000 0.0000
# 4 0.0000 0.0000 0.0000 23.5458 0.0000 0.0000
# 5 0.0000 0.0000 0.0000 0.0000 -8.7892 0.0000
# 6 0.0000 0.0000 0.0000 0.0000 0.0000 20.0918
#
#
#
# Elastic Compliance Matrix: (Units=1/GPa)
#
#
# Indices 1 2 3 4 5 6 
#
# 1 0.013998 -0.004975 -0.002626 0.000000 0.000000 0.000000
# 2 -0.004975 0.013178 -0.002929 0.000000 0.000000 0.000000
# 3 -0.002626 -0.002929 0.010886 0.000000 0.000000 0.000000
# 4 0.000000 0.000000 0.000000 0.042470 0.000000 0.000000
# 5 0.000000 0.000000 0.000000 0.000000 -0.113776 0.000000
# 6 0.000000 0.000000 0.000000 0.000000 0.000000 0.049772
#
#
# Mechanical properties :
#
#
# Convention : Reuss Voigt Hill
#
# Bulk Modulus (GPa) = 58.81727 58.97717 58.89722
# Shear Modulus (GPa) = 115.59503 19.60279 67.59891
#
# Velocity S-wave (km/s) = 7.87436 3.24268 6.02165
# Velocity P-wave (km/s) = 10.68755 6.75689 8.94090
#
# Compressibility (1/GPa) = 0.01700181
#
# Stress axis : x y z
#
# Youngs Moduli (GPa) = 71.43916 75.88393 91.86300
#
# Poissons Ratio (x) = 0.37754 0.24119
# Poissons Ratio (y) = 0.35543 0.26908
# Poissons Ratio (z) = 0.18757 0.22227
#
# Static dielectric constant tensor:
#      x y z
#    x 1.648230 0.000000 0.000000 
#    y 0.000000 1.683990 0.000000 
#    z 0.000000 0.000000 1.629940 
# 
# From -- ./inp_files/21485.got.cif
#   From: 2010.05.17/outbox.cif.g08.bks.cpg/sg54_11_cif.got.tgz:21485.got - 2010.06.03 13:09:01.
