data_PCOD9423846
_publ_section_title
;
Structure prediction by ZEFSAII (Michael W. Deem and Ramdas Pophale) SiO2 
 PCOD9423846
Probable space group: P C C A
;
_chemical_formula_sum "Si O2"
_cell_formula_units_Z 40
_cell_length_a 14.698880
_cell_length_b 10.396901
_cell_length_c 10.908689
_cell_angle_alpha 90.000000
_cell_angle_beta 90.000000
_cell_angle_gamma 90.000000
_cell_volume 1667.096399
_symmetry_space_group_name_H-M "P C C A"
_symmetry_group_IT_number 54
_symmetry_cell_setting 'orthorhombic'
loop_
_space_group_symop_operation_xyz
x,y,z
1/2-x,-y,z
1/2+x,-y,1/2-z
-x,y,1/2-z
-x,-y,-z
1/2+x,y,-z
1/2-x,y,1/2+z
x,-y,1/2+z
loop_
_atom_site_type_symbol
_atom_site_label
_atom_site_fract_x
_atom_site_fract_y
_atom_site_fract_z
Si Si1 0.100739 0.218992 0.233572
Si Si2 0.062835 0.263856 0.853950
Si Si3 0.855695 0.505996 0.312074
Si Si4 0.881136 0.704832 0.495807
Si Si5 0.785132 0.863538 0.979057
O O1 0.101301 0.365520 0.183578
O O2 0.138234 0.247249 0.368369
O O3 0.153610 0.127630 0.142475
O O4 0.000000 0.169022 0.250000
O O5 0.095249 0.393837 0.781309
O O6 0.000000 0.193708 0.750000
O O7 0.150841 0.201263 0.917191
O O8 0.985880 0.276467 0.959348
O O9 0.750000 0.500000 0.277068
O O10 0.862326 0.561151 0.450359
O O11 0.801581 0.783334 0.428534
O O12 0.750000 0.000000 0.023162
#
# Coordination Sequence:
#
# PCOD9423846 Si02
#       5
#     8   8   8   8   8
#     4  12  25  46  74 112 155 199 253 316 388 457
#     4  10  24  49  74 115 153 197 253 317 388 450
#     4  11  23  43  76 112 154 200 247 320 385 453
#     4  11  25  46  72 111 153 200 252 316 385 453
#     4  12  28  50  76 109 152 208 262 313 372 458
#
# _framework density 23.993814
#
# number of rings (size 3 to 8) (size 9 to 14) (size 15 to 20)
#    0.000    0.800    4.000    3.000    5.600    4.000 
#    0.000    0.000    0.000    0.000    0.000    0.000 
#    0.000    0.000    0.000    0.000    0.000    0.000 
#
# Total GULP energy -223337.883509 kJ/mol
# GULP energy per Si atom -5583.447088 kJ/mol
# Density = 2.393920 g / cm^3
# Si number density = 23.993814 Si / 1000 Ang^3
#
#
#
# Elastic Constant Matrix: (Units=GPa)
#
#
# Indices 1 2 3 4 5 6 
#
# 1 176.8663 33.1762 33.2176 0.0000 0.0000 0.0000
# 2 33.1762 43.3264 6.4761 0.0000 0.0000 0.0000
# 3 33.2176 6.4761 93.5848 0.0000 0.0000 0.0000
# 4 0.0000 0.0000 0.0000 17.3597 0.0000 0.0000
# 5 0.0000 0.0000 0.0000 0.0000 28.7280 0.0000
# 6 0.0000 0.0000 0.0000 0.0000 0.0000 -7.9263
#
#
#
# Elastic Compliance Matrix: (Units=1/GPa)
#
#
# Indices 1 2 3 4 5 6 
#
# 1 0.007001 -0.005041 -0.002136 0.000000 0.000000 0.000000
# 2 -0.005041 0.026952 -0.000076 0.000000 0.000000 0.000000
# 3 -0.002136 -0.000076 0.011449 0.000000 0.000000 0.000000
# 4 0.000000 0.000000 0.000000 0.057605 0.000000 0.000000
# 5 0.000000 0.000000 0.000000 0.000000 0.034809 0.000000
# 6 0.000000 0.000000 0.000000 0.000000 0.000000 -0.126162
#
#
# Mechanical properties :
#
#
# Convention : Reuss Voigt Hill
#
# Bulk Modulus (GPa) = 32.36692 51.05748 41.71220
# Shear Modulus (GPa) = 137.14063 23.69278 80.41671
#
# Velocity S-wave (km/s) = 7.56840 3.14579 5.79555
# Velocity P-wave (km/s) = 9.48121 5.87539 7.88713
#
# Compressibility (1/GPa) = 0.03089574
#
# Stress axis : x y z
#
# Youngs Moduli (GPa) = 142.84029 37.10256 87.34453
#
# Poissons Ratio (x) = 0.18705 0.18657
# Poissons Ratio (y) = 0.72012 0.00661
# Poissons Ratio (z) = 0.30511 0.00281
#
# Static dielectric constant tensor:
#      x y z
#    x 2.204310 0.000000 0.000000 
#    y 0.000000 1.936500 0.000000 
#    z 0.000000 0.000000 2.056320 
# 
# From -- ./inp_files/8203.got.cif
#   From: 2010.05.17/outbox.cif.g08.bks.cpg/sg54_5_cif.got.tgz:8203.got - 2010.06.03 13:09:01.
