data_PCOD9423149
_publ_section_title
;
Structure prediction by ZEFSAII (Michael W. Deem and Ramdas Pophale) SiO2 
 PCOD9423149
Probable space group: P C C A
;
_chemical_formula_sum "Si O2"
_cell_formula_units_Z 60
_cell_length_a 19.451816
_cell_length_b 5.517534
_cell_length_c 25.933202
_cell_angle_alpha 90.000000
_cell_angle_beta 90.000000
_cell_angle_gamma 90.000000
_cell_volume 2783.308294
_symmetry_space_group_name_H-M "P C C A"
_symmetry_group_IT_number 54
_symmetry_cell_setting 'orthorhombic'
loop_
_space_group_symop_operation_xyz
x,y,z
1/2-x,-y,z
1/2+x,-y,1/2-z
-x,y,1/2-z
-x,-y,-z
1/2+x,y,-z
1/2-x,y,1/2+z
x,-y,1/2+z
loop_
_atom_site_type_symbol
_atom_site_label
_atom_site_fract_x
_atom_site_fract_y
_atom_site_fract_z
Si Si1 0.063730 0.355458 0.721474
Si Si2 0.065212 0.967686 0.884329
Si Si3 0.429953 0.315262 0.626279
Si Si4 0.826821 0.616164 0.435361
Si Si5 0.683157 0.143067 0.542031
Si Si6 0.892091 0.535785 0.170539
Si Si7 0.825578 0.956533 0.335333
Si Si8 0.250000 0.500000 0.874557
O O1 0.040813 0.513068 0.671966
O O2 0.124058 0.187086 0.701886
O O3 0.000000 0.222668 0.750000
O O4 0.907412 0.505880 0.730556
O O5 0.117013 0.991406 0.933330
O O6 0.091498 0.720116 0.856892
O O7 0.984783 0.889687 0.890908
O O8 0.072897 0.219436 0.853347
O O9 0.393807 0.457853 0.580002
O O10 0.363325 0.205061 0.653699
O O11 0.750000 0.500000 0.435448
O O12 0.840563 0.707661 0.492770
O O13 0.822408 0.817080 0.390168
O O14 0.717600 0.301485 0.587299
O O15 0.750000 0.000000 0.521938
O O16 0.811938 0.592139 0.160320
O O17 0.750000 0.000000 0.314767
#
# Coordination Sequence:
#
# PCOD9423149 Si02
#       8
#     8   8   8   8   8   8   8   4
#     4  11  24  43  69 100 136 191 236 287 366 434
#     4  11  25  45  70 104 149 181 241 293 362 425
#     4  11  25  43  68 100 142 188 236 302 357 436
#     4  11  23  42  69 100 136 182 241 295 367 430
#     4  11  22  42  71 101 136 190 234 296 363 438
#     4  11  24  44  69 102 141 186 233 294 350 431
#     4  11  24  43  68  99 138 179 242 297 351 427
#     4  10  22  42  68  98 138 178 238 290 358 420
#
# _framework density 21.557079000000002
#
# number of rings (size 3 to 8) (size 9 to 14) (size 15 to 20)
#    0.000    1.067    4.667    1.200    3.733    2.133 
#    2.400    0.667    0.000    0.000    0.000    0.000 
#    0.000    0.000    0.000    0.000    0.000    0.000 
#
# Total GULP energy -334553.648987 kJ/mol
# GULP energy per Si atom -5575.894150 kJ/mol
# Density = 2.150801 g / cm^3
# Si number density = 21.557079 Si / 1000 Ang^3
#
#
#
# Elastic Constant Matrix: (Units=GPa)
#
#
# Indices 1 2 3 4 5 6 
#
# 1 132.7322 32.0115 43.1614 0.0000 0.0000 0.0000
# 2 32.0115 74.4572 13.3709 0.0000 0.0000 0.0000
# 3 43.1614 13.3709 55.6869 0.0000 0.0000 0.0000
# 4 0.0000 0.0000 0.0000 28.0896 0.0000 0.0000
# 5 0.0000 0.0000 0.0000 0.0000 56.6480 0.0000
# 6 0.0000 0.0000 0.0000 0.0000 0.0000 31.2969
#
#
#
# Elastic Compliance Matrix: (Units=1/GPa)
#
#
# Indices 1 2 3 4 5 6 
#
# 1 0.010787 -0.003278 -0.007574 0.000000 0.000000 0.000000
# 2 -0.003278 0.015032 -0.001069 0.000000 0.000000 0.000000
# 3 -0.007574 -0.001069 0.024085 0.000000 0.000000 0.000000
# 4 0.000000 0.000000 0.000000 0.035600 0.000000 0.000000
# 5 0.000000 0.000000 0.000000 0.000000 0.017653 0.000000
# 6 0.000000 0.000000 0.000000 0.000000 0.000000 0.031952
#
#
# Mechanical properties :
#
#
# Convention : Reuss Voigt Hill
#
# Bulk Modulus (GPa) = 38.36908 48.88487 43.62698
# Shear Modulus (GPa) = 29.82631 34.82907 32.32769
#
# Velocity S-wave (km/s) = 3.72371 4.02390 3.87671
# Velocity P-wave (km/s) = 6.02706 6.65696 6.34983
#
# Compressibility (1/GPa) = 0.02606265
#
# Stress axis : x y z
#
# Youngs Moduli (GPa) = 92.70124 66.52629 41.52038
#
# Poissons Ratio (x) = 0.21805 0.31447
# Poissons Ratio (y) = 0.30385 0.04438
# Poissons Ratio (z) = 0.70212 0.07110
#
# Static dielectric constant tensor:
#      x y z
#    x 1.879800 0.000000 0.000000 
#    y 0.000000 1.815960 0.000000 
#    z 0.000000 0.000000 1.809650 
# 
# From -- ./inp_files/26663.got.cif
#   From: 2010.05.17/outbox.cif.g08.bks.cpg/sg54_14_cif.got.tgz:26663.got - 2010.06.03 13:09:01.
