data_PCOD9423361
_publ_section_title
;
Structure prediction by ZEFSAII (Michael W. Deem and Ramdas Pophale) SiO2 
 PCOD9423361
Probable space group: P C C A
;
_chemical_formula_sum "Si O2"
_cell_formula_units_Z 48
_cell_length_a 7.848262
_cell_length_b 13.333584
_cell_length_c 21.756989
_cell_angle_alpha 90.000000
_cell_angle_beta 90.000000
_cell_angle_gamma 90.000000
_cell_volume 2276.770136
_symmetry_space_group_name_H-M "P C C A"
_symmetry_group_IT_number 54
_symmetry_cell_setting 'orthorhombic'
loop_
_space_group_symop_operation_xyz
x,y,z
1/2-x,-y,z
1/2+x,-y,1/2-z
-x,y,1/2-z
-x,-y,-z
1/2+x,y,-z
1/2-x,y,1/2+z
x,-y,1/2+z
loop_
_atom_site_type_symbol
_atom_site_label
_atom_site_fract_x
_atom_site_fract_y
_atom_site_fract_z
Si Si1 0.490990 0.328062 0.176334
Si Si2 0.500000 0.346954 0.750000
Si Si3 0.000000 0.055262 0.250000
Si Si4 0.161539 0.208819 0.336493
Si Si5 0.750000 0.000000 0.344480
Si Si6 0.250000 0.500000 0.701246
Si Si7 0.160893 0.821370 0.080511
Si Si8 0.717630 0.116779 0.043356
O O1 0.500000 0.307396 0.250000
O O2 0.676821 0.283843 0.158362
O O3 0.410225 0.440892 0.170057
O O4 0.370998 0.265988 0.129471
O O5 0.512673 0.280931 0.688391
O O6 0.336448 0.415528 0.742536
O O7 0.854011 0.124480 0.217711
O O8 0.085533 0.989373 0.197958
O O9 0.162430 0.150061 0.400222
O O10 0.727203 0.903173 0.384864
O O11 0.976274 0.869923 0.065351
O O12 0.246391 0.809708 0.014033
O O13 0.750000 0.000000 0.027263
#
# Coordination Sequence:
#
# PCOD9423361 Si02
#       8
#     8   4   4   8   4   4   8   8
#     4  11  22  42  64  98 128 167 214 283 344 400
#     4  11  20  38  61 100 120 174 205 284 345 408
#     4  11  26  38  61  96 140 178 225 286 337 400
#     4  10  23  39  62  91 133 170 222 270 340 395
#     4  12  26  40  60  98 132 186 222 282 336 390
#     4  12  22  38  70  94 134 156 224 276 358 422
#     4  11  26  40  66  91 138 177 230 274 325 400
#     4  11  23  42  64  93 133 186 230 269 315 400
#
# _framework density 21.082497
#
# number of rings (size 3 to 8) (size 9 to 14) (size 15 to 20)
#    0.000    1.000    3.333    2.500   11.667    0.000 
#    0.000    0.000    0.000   10.000    0.000    0.000 
#    0.000    0.000    0.000    0.000    0.000    0.000 
#
# Total GULP energy -267368.956732 kJ/mol
# GULP energy per Si atom -5570.186599 kJ/mol
# Density = 2.103451 g / cm^3
# Si number density = 21.082497 Si / 1000 Ang^3
#
#
#
# Elastic Constant Matrix: (Units=GPa)
#
#
# Indices 1 2 3 4 5 6 
#
# 1 76.1049 6.7607 19.7595 0.0000 0.0000 0.0000
# 2 6.7607 64.4091 31.2775 0.0000 0.0000 0.0000
# 3 19.7595 31.2775 120.3171 0.0000 0.0000 0.0000
# 4 0.0000 0.0000 0.0000 14.1933 0.0000 0.0000
# 5 0.0000 0.0000 0.0000 0.0000 12.2001 0.0000
# 6 0.0000 0.0000 0.0000 0.0000 0.0000 29.3520
#
#
#
# Elastic Compliance Matrix: (Units=1/GPa)
#
#
# Indices 1 2 3 4 5 6 
#
# 1 0.013734 -0.000396 -0.002152 0.000000 0.000000 0.000000
# 2 -0.000396 0.017780 -0.004557 0.000000 0.000000 0.000000
# 3 -0.002152 -0.004557 0.009850 0.000000 0.000000 0.000000
# 4 0.000000 0.000000 0.000000 0.070456 0.000000 0.000000
# 5 0.000000 0.000000 0.000000 0.000000 0.081966 0.000000
# 6 0.000000 0.000000 0.000000 0.000000 0.000000 0.034069
#
#
# Mechanical properties :
#
#
# Convention : Reuss Voigt Hill
#
# Bulk Modulus (GPa) = 36.82974 41.82514 39.32744
# Shear Modulus (GPa) = 19.91102 24.68465 22.29784
#
# Velocity S-wave (km/s) = 3.07650 3.42550 3.25568
# Velocity P-wave (km/s) = 5.48881 5.96047 5.72950
#
# Compressibility (1/GPa) = 0.02715197
#
# Stress axis : x y z
#
# Youngs Moduli (GPa) = 72.81292 56.24210 101.52790
#
# Poissons Ratio (x) = 0.02229 0.21853
# Poissons Ratio (y) = 0.02886 0.46267
# Poissons Ratio (z) = 0.15673 0.25630
#
# Static dielectric constant tensor:
#      x y z
#    x 1.860750 0.000000 0.000000 
#    y 0.000000 1.781290 0.000000 
#    z 0.000000 0.000000 1.733970 
# 
# From -- ./inp_files/20442.got.cif
#   From: 2010.05.17/outbox.cif.g08.bks.cpg/sg54_11_cif.got.tgz:20442.got - 2010.06.03 13:09:01.
