data_PCOD9423610
_publ_section_title
;
Structure prediction by ZEFSAII (Michael W. Deem and Ramdas Pophale) SiO2 
 PCOD9423610
Probable space group: P C C A
;
_chemical_formula_sum "Si O2"
_cell_formula_units_Z 28
_cell_length_a 9.757420
_cell_length_b 14.526620
_cell_length_c 8.771144
_cell_angle_alpha 90.000000
_cell_angle_beta 90.000000
_cell_angle_gamma 90.000000
_cell_volume 1243.242409
_symmetry_space_group_name_H-M "P C C A"
_symmetry_group_IT_number 54
_symmetry_cell_setting 'orthorhombic'
loop_
_space_group_symop_operation_xyz
x,y,z
1/2-x,-y,z
1/2+x,-y,1/2-z
-x,y,1/2-z
-x,-y,-z
1/2+x,y,-z
1/2-x,y,1/2+z
x,-y,1/2+z
loop_
_atom_site_type_symbol
_atom_site_label
_atom_site_fract_x
_atom_site_fract_y
_atom_site_fract_z
Si Si1 0.649589 0.633072 0.243208
Si Si2 0.450303 0.103756 0.524036
Si Si3 0.712137 0.828637 0.179249
Si Si4 0.250000 0.500000 0.499429
O O1 0.500000 0.675093 0.250000
O O2 0.742504 0.721276 0.213347
O O3 0.684383 0.577288 0.394377
O O4 0.651228 0.556589 0.111477
O O5 0.351813 0.128931 0.383824
O O6 0.353973 0.121447 0.673150
O O7 0.590045 0.161544 0.553038
O O8 0.500000 0.000000 0.500000
#
# Coordination Sequence:
#
# PCOD9423610 Si02
#       4
#     8   8   8   4
#     4  11  21  43  67  98 139 176 235 275 354 408
#     4  11  25  45  70 100 136 178 236 287 354 413
#     4  11  25  46  71 100 139 185 226 293 343 426
#     4  10  24  38  68 102 134 182 222 294 336 416
#
# _framework density 22.521754000000001
#
# number of rings (size 3 to 8) (size 9 to 14) (size 15 to 20)
#    0.000    1.143    2.857    3.429    0.000   10.286 
#    0.000    0.000    0.000    0.000    0.000    0.000 
#    0.000    0.000    0.000    0.000    0.000    0.000 
#
# Total GULP energy -156506.717902 kJ/mol
# GULP energy per Si atom -5589.525639 kJ/mol
# Density = 2.247049 g / cm^3
# Si number density = 22.521754 Si / 1000 Ang^3
#
#
#
# Elastic Constant Matrix: (Units=GPa)
#
#
# Indices 1 2 3 4 5 6 
#
# 1 65.5473 29.4258 17.5436 0.0000 0.0000 0.0000
# 2 29.4258 156.2083 41.7955 0.0000 0.0000 0.0000
# 3 17.5436 41.7955 74.3188 0.0000 0.0000 0.0000
# 4 0.0000 0.0000 0.0000 29.7767 0.0000 0.0000
# 5 0.0000 0.0000 0.0000 0.0000 30.9222 0.0000
# 6 0.0000 0.0000 0.0000 0.0000 0.0000 43.9678
#
#
#
# Elastic Compliance Matrix: (Units=1/GPa)
#
#
# Indices 1 2 3 4 5 6 
#
# 1 0.017087 -0.002519 -0.002617 0.000000 0.000000 0.000000
# 2 -0.002519 0.007907 -0.003852 0.000000 0.000000 0.000000
# 3 -0.002617 -0.003852 0.016240 0.000000 0.000000 0.000000
# 4 0.000000 0.000000 0.000000 0.033583 0.000000 0.000000
# 5 0.000000 0.000000 0.000000 0.000000 0.032339 0.000000
# 6 0.000000 0.000000 0.000000 0.000000 0.000000 0.022744
#
#
# Mechanical properties :
#
#
# Convention : Reuss Voigt Hill
#
# Bulk Modulus (GPa) = 42.99587 52.62268 47.80928
# Shear Modulus (GPa) = 32.12775 34.75399 33.44087
#
# Velocity S-wave (km/s) = 3.78103 3.93253 3.85752
# Velocity P-wave (km/s) = 6.18012 6.63594 6.41208
#
# Compressibility (1/GPa) = 0.02325805
#
# Stress axis : x y z
#
# Youngs Moduli (GPa) = 58.52303 126.47301 61.57743
#
# Poissons Ratio (x) = 0.31853 0.16116
# Poissons Ratio (y) = 0.14739 0.23720
# Poissons Ratio (z) = 0.15317 0.48719
#
# Static dielectric constant tensor:
#      x y z
#    x 1.770400 0.000000 0.000000 
#    y 0.000000 1.770490 0.000000 
#    z 0.000000 0.000000 1.895810 
# 
# From -- ./inp_files/2747.got.cif
#   From: 2010.05.17/outbox.cif.g08.bks.cpg/sg54_2_cif.got.tgz:2747.got - 2010.06.03 13:09:01.
