data_PCOD9423653
_publ_section_title
;
Structure prediction by ZEFSAII (Michael W. Deem and Ramdas Pophale) SiO2 
 PCOD9423653
Probable space group: P C C A
;
_chemical_formula_sum "Si O2"
_cell_formula_units_Z 40
_cell_length_a 12.610995
_cell_length_b 24.217148
_cell_length_c 5.490765
_cell_angle_alpha 90.000000
_cell_angle_beta 90.000000
_cell_angle_gamma 90.000000
_cell_volume 1676.892437
_symmetry_space_group_name_H-M "P C C A"
_symmetry_group_IT_number 54
_symmetry_cell_setting 'orthorhombic'
loop_
_space_group_symop_operation_xyz
x,y,z
1/2-x,-y,z
1/2+x,-y,1/2-z
-x,y,1/2-z
-x,-y,-z
1/2+x,y,-z
1/2-x,y,1/2+z
x,-y,1/2+z
loop_
_atom_site_type_symbol
_atom_site_label
_atom_site_fract_x
_atom_site_fract_y
_atom_site_fract_z
Si Si1 0.868831 0.476525 0.951790
Si Si2 0.000000 0.124682 0.750000
Si Si3 0.371523 0.023856 0.116481
Si Si4 0.688423 0.184967 0.007721
Si Si5 0.811917 0.682133 0.006645
Si Si6 0.000000 0.622461 0.250000
O O1 0.750000 0.500000 0.973506
O O2 0.904043 0.512920 0.723905
O O3 0.912153 0.416700 0.877813
O O4 0.088335 0.086894 0.611427
O O5 0.072706 0.159643 0.935166
O O6 0.250000 0.000000 0.124567
O O7 0.410792 0.005216 0.377246
O O8 0.762450 0.169358 0.243345
O O9 0.681044 0.251414 0.009357
O O10 0.737618 0.666364 0.242316
O O11 0.928379 0.657642 0.063249
#
# Coordination Sequence:
#
# PCOD9423653 Si02
#       6
#     8   4   8   8   8   4
#     4  10  24  42  62  95 137 170 224 277 317 390
#     4  12  25  42  78  92 136 186 223 260 352 394
#     4  10  24  42  62  95 137 170 224 277 317 390
#     4  10  25  46  69 103 137 167 223 283 330 399
#     4  10  25  46  69 103 137 167 223 283 330 399
#     4  12  25  42  78  92 136 186 223 260 352 394
#
# _framework density 23.853646000000001
#
# number of rings (size 3 to 8) (size 9 to 14) (size 15 to 20)
#    0.000    1.600    0.000    1.800   11.200    4.800 
#    0.000    6.000    0.000    0.000    0.000    0.000 
#    0.000    0.000    0.000    0.000    0.000    0.000 
#
# Total GULP energy -222712.054542 kJ/mol
# GULP energy per Si atom -5567.801364 kJ/mol
# Density = 2.379935 g / cm^3
# Si number density = 23.853646 Si / 1000 Ang^3
#
#
#
# Elastic Constant Matrix: (Units=GPa)
#
#
# Indices 1 2 3 4 5 6 
#
# 1 174.2959 45.5812 33.3175 0.0000 0.0000 0.0000
# 2 45.5812 62.4048 33.8232 0.0000 0.0000 0.0000
# 3 33.3175 33.8232 187.7389 0.0000 0.0000 0.0000
# 4 0.0000 0.0000 0.0000 -64.9472 0.0000 0.0000
# 5 0.0000 0.0000 0.0000 0.0000 23.1230 0.0000
# 6 0.0000 0.0000 0.0000 0.0000 0.0000 65.2631
#
#
#
# Elastic Compliance Matrix: (Units=1/GPa)
#
#
# Indices 1 2 3 4 5 6 
#
# 1 0.007114 -0.005000 -0.000362 0.000000 0.000000 0.000000
# 2 -0.005000 0.021273 -0.002945 0.000000 0.000000 0.000000
# 3 -0.000362 -0.002945 0.005921 0.000000 0.000000 0.000000
# 4 0.000000 0.000000 0.000000 -0.015397 0.000000 0.000000
# 5 0.000000 0.000000 0.000000 0.000000 0.043247 0.000000
# 6 0.000000 0.000000 0.000000 0.000000 0.000000 0.015323
#
#
# Mechanical properties :
#
#
# Convention : Reuss Voigt Hill
#
# Bulk Modulus (GPa) = 56.51559 72.20927 64.36243
# Shear Modulus (GPa) = 50.00349 25.46896 37.73622
#
# Velocity S-wave (km/s) = 4.58346 3.27114 3.98174
# Velocity P-wave (km/s) = 7.19409 6.67867 6.94117
#
# Compressibility (1/GPa) = 0.01769423
#
# Stress axis : x y z
#
# Youngs Moduli (GPa) = 140.56506 47.00821 168.88080
#
# Poissons Ratio (x) = 0.23505 0.06108
# Poissons Ratio (y) = 0.70286 0.49738
# Poissons Ratio (z) = 0.05084 0.13845
#
# Static dielectric constant tensor:
#      x y z
#    x 1.077300 0.000000 0.000000 
#    y 0.000000 2.006040 0.000000 
#    z 0.000000 0.000000 1.868180 
# 
# From -- ./inp_files/557.got.cif
#   From: 2010.05.17/outbox.cif.g08.bks.cpg/sg54_1_cif.got.tgz:557.got - 2010.06.03 13:09:01.
