data_PCOD9423573
_publ_section_title
;
Structure prediction by ZEFSAII (Michael W. Deem and Ramdas Pophale) SiO2 
 PCOD9423573
Probable space group: P C C A
;
_chemical_formula_sum "Si O2"
_cell_formula_units_Z 28
_cell_length_a 10.967257
_cell_length_b 5.027290
_cell_length_c 19.679241
_cell_angle_alpha 90.000000
_cell_angle_beta 90.000000
_cell_angle_gamma 90.000000
_cell_volume 1085.026395
_symmetry_space_group_name_H-M "P C C A"
_symmetry_group_IT_number 54
_symmetry_cell_setting 'orthorhombic'
loop_
_space_group_symop_operation_xyz
x,y,z
1/2-x,-y,z
1/2+x,-y,1/2-z
-x,y,1/2-z
-x,-y,-z
1/2+x,y,-z
1/2-x,y,1/2+z
x,-y,1/2+z
loop_
_atom_site_type_symbol
_atom_site_label
_atom_site_fract_x
_atom_site_fract_y
_atom_site_fract_z
Si Si1 0.250000 0.500000 0.166648
Si Si2 0.400569 0.180016 0.563635
Si Si3 0.934797 0.680120 0.079452
Si Si4 0.872638 0.833542 0.229162
O O1 0.196173 0.273597 0.118438
O O2 0.356825 0.400343 0.216006
O O3 0.356953 0.241118 0.486905
O O4 0.515369 0.381462 0.573637
O O5 0.450755 0.884287 0.572886
O O6 0.876483 0.732156 0.152128
O O7 0.000000 0.971836 0.250000
O O8 0.750000 0.000000 0.237193
#
# Coordination Sequence:
#
# PCOD9423573 Si02
#       4
#     4   8   8   8
#     4  12  26  42  76 108 158 194 254 320 396 456
#     4  10  23  46  76 106 149 196 255 318 382 452
#     4  10  23  48  73 106 147 200 256 313 378 462
#     4  12  27  47  75 114 155 207 253 324 389 471
#
# _framework density 25.805821999999999
#
# number of rings (size 3 to 8) (size 9 to 14) (size 15 to 20)
#    0.000    1.143    2.857    1.714    4.000    2.286 
#   10.286    0.000    0.000    0.000    0.000    0.000 
#    0.000    0.000    0.000    0.000    0.000    0.000 
#
# Total GULP energy -157043.655756 kJ/mol
# GULP energy per Si atom -5608.701991 kJ/mol
# Density = 2.574709 g / cm^3
# Si number density = 25.805822 Si / 1000 Ang^3
#
#
#
# Elastic Constant Matrix: (Units=GPa)
#
#
# Indices 1 2 3 4 5 6 
#
# 1 111.8148 32.9594 51.9956 0.0000 0.0000 0.0000
# 2 32.9594 86.9072 21.0505 0.0000 0.0000 0.0000
# 3 51.9956 21.0505 245.9867 0.0000 0.0000 0.0000
# 4 0.0000 0.0000 0.0000 20.5135 0.0000 0.0000
# 5 0.0000 0.0000 0.0000 0.0000 41.9173 0.0000
# 6 0.0000 0.0000 0.0000 0.0000 0.0000 37.8652
#
#
#
# Elastic Compliance Matrix: (Units=1/GPa)
#
#
# Indices 1 2 3 4 5 6 
#
# 1 0.010956 -0.003670 -0.002002 0.000000 0.000000 0.000000
# 2 -0.003670 0.012980 -0.000335 0.000000 0.000000 0.000000
# 3 -0.002002 -0.000335 0.004517 0.000000 0.000000 0.000000
# 4 0.000000 0.000000 0.000000 0.048748 0.000000 0.000000
# 5 0.000000 0.000000 0.000000 0.000000 0.023856 0.000000
# 6 0.000000 0.000000 0.000000 0.000000 0.000000 0.026409
#
#
# Mechanical properties :
#
#
# Convention : Reuss Voigt Hill
#
# Bulk Modulus (GPa) = 60.83147 72.96886 66.90017
# Shear Modulus (GPa) = 34.49215 42.63942 38.56578
#
# Velocity S-wave (km/s) = 3.65992 4.06928 3.87002
# Velocity P-wave (km/s) = 6.44081 7.10044 6.77865
#
# Compressibility (1/GPa) = 0.01643886
#
# Stress axis : x y z
#
# Youngs Moduli (GPa) = 91.27356 77.04411 221.38352
#
# Poissons Ratio (x) = 0.28277 0.44316
# Poissons Ratio (y) = 0.33499 0.07415
# Poissons Ratio (z) = 0.18271 0.02581
#
# Static dielectric constant tensor:
#      x y z
#    x 2.062470 0.000000 0.000000 
#    y 0.000000 2.010750 0.000000 
#    z 0.000000 0.000000 2.004350 
# 
# From -- ./inp_files/20740.got.cif
#   From: 2010.05.17/outbox.cif.g08.bks.cpg/sg54_11_cif.got.tgz:20740.got - 2010.06.03 13:09:01.
