data_PCOD9423764
_publ_section_title
;
Structure prediction by ZEFSAII (Michael W. Deem and Ramdas Pophale) SiO2 
 PCOD9423764
Probable space group: P C C A
;
_chemical_formula_sum "Si O2"
_cell_formula_units_Z 40
_cell_length_a 17.757624
_cell_length_b 11.905682
_cell_length_c 8.197714
_cell_angle_alpha 90.000000
_cell_angle_beta 90.000000
_cell_angle_gamma 90.000000
_cell_volume 1733.133022
_symmetry_space_group_name_H-M "P C C A"
_symmetry_group_IT_number 54
_symmetry_cell_setting 'orthorhombic'
loop_
_space_group_symop_operation_xyz
x,y,z
1/2-x,-y,z
1/2+x,-y,1/2-z
-x,y,1/2-z
-x,-y,-z
1/2+x,y,-z
1/2-x,y,1/2+z
x,-y,1/2+z
loop_
_atom_site_type_symbol
_atom_site_label
_atom_site_fract_x
_atom_site_fract_y
_atom_site_fract_z
Si Si1 0.250000 0.500000 0.112378
Si Si2 0.658615 0.810549 0.657234
Si Si3 0.312373 0.666952 0.356541
Si Si4 0.836214 0.999369 0.446805
Si Si5 0.445283 0.162125 0.901072
Si Si6 0.000000 0.772545 0.250000
O O1 0.307157 0.577755 0.211867
O O2 0.202323 0.588527 0.010807
O O3 0.738767 0.747717 0.657835
O O4 0.662128 0.910424 0.795477
O O5 0.586860 0.732583 0.709303
O O6 0.646643 0.867776 0.477098
O O7 0.389750 0.733100 0.373325
O O8 0.890554 0.942306 0.577504
O O9 0.750000 0.000000 0.499580
O O10 0.500000 0.147361 0.750000
O O11 0.485549 0.167887 0.076682
#
# Coordination Sequence:
#
# PCOD9423764 Si02
#       6
#     4   8   8   8   8   4
#     4  10  24  44  82 100 138 178 266 322 378 448
#     4  11  25  40  72  98 153 191 252 293 371 439
#     4  11  24  48  73 109 136 196 245 319 380 448
#     4  11  23  40  64 107 141 202 240 286 346 447
#     4  11  26  45  73 107 154 201 246 299 377 446
#     4  10  26  44  62 106 150 196 238 308 354 440
#
# _framework density 23.07959
#
# number of rings (size 3 to 8) (size 9 to 14) (size 15 to 20)
#    0.000    1.200    2.000    3.000    7.000    1.600 
#    0.000    1.000    8.800    0.000    0.000    0.000 
#    0.000    0.000    0.000    0.000    0.000    0.000 
#
# Total GULP energy -222819.270820 kJ/mol
# GULP energy per Si atom -5570.481771 kJ/mol
# Density = 2.302706 g / cm^3
# Si number density = 23.079590 Si / 1000 Ang^3
#
#
#
# Elastic Constant Matrix: (Units=GPa)
#
#
# Indices 1 2 3 4 5 6 
#
# 1 138.6629 28.4399 55.5807 0.0000 0.0000 0.0000
# 2 28.4399 85.4216 60.2027 0.0000 0.0000 0.0000
# 3 55.5807 60.2027 123.5045 0.0000 0.0000 0.0000
# 4 0.0000 0.0000 0.0000 20.4516 0.0000 0.0000
# 5 0.0000 0.0000 0.0000 0.0000 976.9106 0.0000
# 6 0.0000 0.0000 0.0000 0.0000 0.0000 14.0095
#
#
#
# Elastic Compliance Matrix: (Units=1/GPa)
#
#
# Indices 1 2 3 4 5 6 
#
# 1 0.008801 -0.000211 -0.003858 0.000000 0.000000 0.000000
# 2 -0.000211 0.017838 -0.008600 0.000000 0.000000 0.000000
# 3 -0.003858 -0.008600 0.014025 0.000000 0.000000 0.000000
# 4 0.000000 0.000000 0.000000 0.048896 0.000000 0.000000
# 5 0.000000 0.000000 0.000000 0.000000 0.001024 0.000000
# 6 0.000000 0.000000 0.000000 0.000000 0.000000 0.071380
#
#
# Mechanical properties :
#
#
# Convention : Reuss Voigt Hill
#
# Bulk Modulus (GPa) = 65.24860 70.67060 67.95960
# Shear Modulus (GPa) = 25.98594 215.83206 120.90900
#
# Velocity S-wave (km/s) = 3.35912 9.68088 7.24580
# Velocity P-wave (km/s) = 6.58616 12.47582 9.97556
#
# Compressibility (1/GPa) = 0.01532600
#
# Stress axis : x y z
#
# Youngs Moduli (GPa) = 113.61760 56.05959 71.30033
#
# Poissons Ratio (x) = 0.01185 0.27507
# Poissons Ratio (y) = 0.02402 0.61319
# Poissons Ratio (z) = 0.43832 0.48212
#
# Static dielectric constant tensor:
#      x y z
#    x 1.875930 0.000000 0.000000 
#    y 0.000000 1.902300 0.000000 
#    z 0.000000 0.000000 2.008680 
# 
# From -- ./inp_files/4016.got.cif
#   From: 2010.05.17/outbox.cif.g08.bks.cpg/sg54_3_cif.got.tgz:4016.got - 2010.06.03 13:09:01.
