data_PCOD9423126
_publ_section_title
;
Structure prediction by ZEFSAII (Michael W. Deem and Ramdas Pophale) SiO2 
 PCOD9423126
Probable space group: P C C A
;
_chemical_formula_sum "Si O2"
_cell_formula_units_Z 48
_cell_length_a 25.540209
_cell_length_b 5.501461
_cell_length_c 13.957895
_cell_angle_alpha 90.000000
_cell_angle_beta 90.000000
_cell_angle_gamma 90.000000
_cell_volume 1961.202384
_symmetry_space_group_name_H-M "P C C A"
_symmetry_group_IT_number 54
_symmetry_cell_setting 'orthorhombic'
loop_
_space_group_symop_operation_xyz
x,y,z
1/2-x,-y,z
1/2+x,-y,1/2-z
-x,y,1/2-z
-x,-y,-z
1/2+x,y,-z
1/2-x,y,1/2+z
x,-y,1/2+z
loop_
_atom_site_type_symbol
_atom_site_label
_atom_site_fract_x
_atom_site_fract_y
_atom_site_fract_z
Si Si1 0.000000 0.315435 0.250000
Si Si2 0.414325 0.308209 0.203518
Si Si3 0.601825 0.829552 0.599601
Si Si4 0.942743 0.919037 0.914553
Si Si5 0.250000 0.500000 0.533111
Si Si6 0.335166 0.680518 0.170512
Si Si7 0.335725 0.310585 0.894076
O O1 0.050958 0.483455 0.251857
O O2 0.010775 0.174855 0.152347
O O3 0.413366 0.120185 0.290427
O O4 0.357633 0.405105 0.177391
O O5 0.440027 0.203818 0.108629
O O6 0.555874 0.826244 0.521902
O O7 0.632669 0.570297 0.598461
O O8 0.634231 0.069821 0.571582
O O9 0.885474 0.822169 0.874233
O O10 0.214003 0.669560 0.600789
O O11 0.213520 0.346270 0.462377
O O12 0.322852 0.737567 0.281440
#
# Coordination Sequence:
#
# PCOD9423126 Si02
#       7
#     4   8   8   8   4   8   8
#     4  10  24  40  68 102 134 176 232 282 346 412
#     4  10  22  44  67  96 141 177 227 284 346 408
#     4  11  24  43  73  94 137 184 224 276 339 408
#     4  11  21  43  67  97 133 182 223 279 347 409
#     4  12  22  42  68 104 136 178 234 284 336 408
#     4  10  22  42  66  94 139 184 217 286 341 398
#     4  11  24  44  64 103 135 179 231 277 334 405
#
# _framework density 24.474779999999999
#
# number of rings (size 3 to 8) (size 9 to 14) (size 15 to 20)
#    0.000    1.333    3.333    2.000    2.333    1.333 
#    3.000    3.333    0.000    0.000    0.000    0.000 
#    0.000    0.000    0.000    0.000    0.000    0.000 
#
# Total GULP energy -268160.000408 kJ/mol
# GULP energy per Si atom -5586.666675 kJ/mol
# Density = 2.441907 g / cm^3
# Si number density = 24.474780 Si / 1000 Ang^3
#
#
#
# Elastic Constant Matrix: (Units=GPa)
#
#
# Indices 1 2 3 4 5 6 
#
# 1 90.4680 23.6734 44.1480 0.0000 0.0000 0.0000
# 2 23.6734 74.2805 21.8322 0.0000 0.0000 0.0000
# 3 44.1480 21.8322 142.7769 0.0000 0.0000 0.0000
# 4 0.0000 0.0000 0.0000 20.7805 0.0000 0.0000
# 5 0.0000 0.0000 0.0000 0.0000 55.8537 0.0000
# 6 0.0000 0.0000 0.0000 0.0000 0.0000 22.8223
#
#
#
# Elastic Compliance Matrix: (Units=1/GPa)
#
#
# Indices 1 2 3 4 5 6 
#
# 1 0.013740 -0.003278 -0.003747 0.000000 0.000000 0.000000
# 2 -0.003278 0.014878 -0.001262 0.000000 0.000000 0.000000
# 3 -0.003747 -0.001262 0.008356 0.000000 0.000000 0.000000
# 4 0.000000 0.000000 0.000000 0.048122 0.000000 0.000000
# 5 0.000000 0.000000 0.000000 0.000000 0.017904 0.000000
# 6 0.000000 0.000000 0.000000 0.000000 0.000000 0.043817
#
#
# Mechanical properties :
#
#
# Convention : Reuss Voigt Hill
#
# Bulk Modulus (GPa) = 49.01849 54.09253 51.55551
# Shear Modulus (GPa) = 29.37907 34.41608 31.89757
#
# Velocity S-wave (km/s) = 3.46841 3.75398 3.61402
# Velocity P-wave (km/s) = 6.00928 6.39837 6.20688
#
# Compressibility (1/GPa) = 0.02040046
#
# Stress axis : x y z
#
# Youngs Moduli (GPa) = 72.78020 67.21406 119.68080
#
# Poissons Ratio (x) = 0.22030 0.44849
# Poissons Ratio (y) = 0.23854 0.15098
# Poissons Ratio (z) = 0.27273 0.08479
#
# Static dielectric constant tensor:
#      x y z
#    x 1.950490 0.000000 0.000000 
#    y 0.000000 2.049510 0.000000 
#    z 0.000000 0.000000 1.966300 
# 
# From -- ./inp_files/15197.got.cif
#   From: 2010.05.17/outbox.cif.g08.bks.cpg/sg54_8_cif.got.tgz:15197.got - 2010.06.03 13:09:01.
