data_PCOD9423748
_publ_section_title
;
Structure prediction by ZEFSAII (Michael W. Deem and Ramdas Pophale) SiO2 
 PCOD9423748
Probable space group: P C C A
;
_chemical_formula_sum "Si O2"
_cell_formula_units_Z 24
_cell_length_a 16.665316
_cell_length_b 4.531457
_cell_length_c 11.188573
_cell_angle_alpha 90.000000
_cell_angle_beta 90.000000
_cell_angle_gamma 90.000000
_cell_volume 844.940478
_symmetry_space_group_name_H-M "P C C A"
_symmetry_group_IT_number 54
_symmetry_cell_setting 'orthorhombic'
loop_
_space_group_symop_operation_xyz
x,y,z
1/2-x,-y,z
1/2+x,-y,1/2-z
-x,y,1/2-z
-x,-y,-z
1/2+x,y,-z
1/2-x,y,1/2+z
x,-y,1/2+z
loop_
_atom_site_type_symbol
_atom_site_label
_atom_site_fract_x
_atom_site_fract_y
_atom_site_fract_z
Si Si1 0.500000 0.601262 0.750000
Si Si2 0.378946 0.028972 0.091942
Si Si3 0.250000 0.000000 0.279095
Si Si4 0.365273 0.541420 0.918657
O O1 0.552953 0.806070 0.835749
O O2 0.433788 0.431727 0.827922
O O3 0.316640 0.887219 0.185679
O O4 0.338588 0.272054 0.003236
O O5 0.408041 0.769933 0.007641
O O6 0.201270 0.745418 0.350884
#
# Coordination Sequence:
#
# PCOD9423748 Si02
#       4
#     4   8   4   8
#     4  10  24  44  72 104 140 182 238 296 356 422
#     4  11  25  44  70 103 142 188 238 294 356 423
#     4  10  26  44  68 102 144 190 234 286 352 426
#     4  11  25  44  70 103 142 188 238 294 356 423
#
# _framework density 28.404368000000002
#
# number of rings (size 3 to 8) (size 9 to 14) (size 15 to 20)
#    0.000    1.333    0.000    3.000    0.000   21.333 
#    0.000    0.000    0.000    4.000    0.000    0.000 
#    0.000    0.000    0.000    0.000    0.000    0.000 
#
# Total GULP energy -134569.459917 kJ/mol
# GULP energy per Si atom -5607.060830 kJ/mol
# Density = 2.833972 g / cm^3
# Si number density = 28.404368 Si / 1000 Ang^3
#
#
#
# Elastic Constant Matrix: (Units=GPa)
#
#
# Indices 1 2 3 4 5 6 
#
# 1 158.2425 26.4107 93.7802 0.0000 0.0000 0.0000
# 2 26.4107 104.6184 55.7720 0.0000 0.0000 0.0000
# 3 93.7802 55.7720 135.9296 0.0000 0.0000 0.0000
# 4 0.0000 0.0000 0.0000 16.7806 0.0000 0.0000
# 5 0.0000 0.0000 0.0000 0.0000 80.2458 0.0000
# 6 0.0000 0.0000 0.0000 0.0000 0.0000 34.9184
#
#
#
# Elastic Compliance Matrix: (Units=1/GPa)
#
#
# Indices 1 2 3 4 5 6 
#
# 1 0.010898 0.001609 -0.008179 0.000000 0.000000 0.000000
# 2 0.001609 0.012472 -0.006227 0.000000 0.000000 0.000000
# 3 -0.008179 -0.006227 0.015555 0.000000 0.000000 0.000000
# 4 0.000000 0.000000 0.000000 0.059593 0.000000 0.000000
# 5 0.000000 0.000000 0.000000 0.000000 0.012462 0.000000
# 6 0.000000 0.000000 0.000000 0.000000 0.000000 0.028638
#
#
# Mechanical properties :
#
#
# Convention : Reuss Voigt Hill
#
# Bulk Modulus (GPa) = 75.01779 83.41292 79.21535
# Shear Modulus (GPa) = 29.47153 41.24414 35.35784
#
# Velocity S-wave (km/s) = 3.22463 3.81469 3.53200
# Velocity P-wave (km/s) = 6.35077 6.98802 6.67700
#
# Compressibility (1/GPa) = 0.01333017
#
# Stress axis : x y z
#
# Youngs Moduli (GPa) = 91.76029 80.17833 64.28969
#
# Poissons Ratio (x) = -0.12901 0.52582
# Poissons Ratio (y) = -0.14764 0.40036
# Poissons Ratio (z) = 0.75049 0.49930
#
# Static dielectric constant tensor:
#      x y z
#    x 2.213070 0.000000 0.000000 
#    y 0.000000 2.091210 0.000000 
#    z 0.000000 0.000000 2.173150 
# 
# From -- ./inp_files/8609.got.cif
#   From: 2010.05.17/outbox.cif.g08.bks.cpg/sg54_5_cif.got.tgz:8609.got - 2010.06.03 13:09:01.
