data_PCOD9423431
_publ_section_title
;
Structure prediction by ZEFSAII (Michael W. Deem and Ramdas Pophale) SiO2 
 PCOD9423431
Probable space group: P C C A
;
_chemical_formula_sum "Si O2"
_cell_formula_units_Z 24
_cell_length_a 8.746699
_cell_length_b 8.780140
_cell_length_c 13.059700
_cell_angle_alpha 90.000000
_cell_angle_beta 90.000000
_cell_angle_gamma 90.000000
_cell_volume 1002.948938
_symmetry_space_group_name_H-M "P C C A"
_symmetry_group_IT_number 54
_symmetry_cell_setting 'orthorhombic'
loop_
_space_group_symop_operation_xyz
x,y,z
1/2-x,-y,z
1/2+x,-y,1/2-z
-x,y,1/2-z
-x,-y,-z
1/2+x,y,-z
1/2-x,y,1/2+z
x,-y,1/2+z
loop_
_atom_site_type_symbol
_atom_site_label
_atom_site_fract_x
_atom_site_fract_y
_atom_site_fract_z
Si Si1 0.776170 0.821114 0.008301
Si Si2 0.103629 0.601489 0.836426
Si Si3 0.051692 0.294178 0.633269
O O1 0.674978 0.722953 0.088143
O O2 0.944418 0.794445 0.052977
O O3 0.750000 0.000000 0.007254
O O4 0.722645 0.751341 0.899186
O O5 0.250000 0.500000 0.798616
O O6 0.000000 0.675744 0.750000
O O7 0.991381 0.471425 0.881798
O O8 0.000000 0.257264 0.750000
#
# Coordination Sequence:
#
# PCOD9423431 Si02
#       3
#     8   8   8
#     4  11  23  39  62  93 129 168 212 272 332 381
#     4   9  20  39  64  94 126 170 222 266 318 389
#     4  10  23  42  62  91 129 172 221 264 315 390
#
# _framework density 23.929434000000001
#
# number of rings (size 3 to 8) (size 9 to 14) (size 15 to 20)
#    0.000    2.000    0.000    2.000    0.000   10.667 
#    0.000    8.333    0.000    0.000    0.000    0.000 
#    0.000    0.000    0.000    0.000    0.000    0.000 
#
# Total GULP energy -134081.616647 kJ/mol
# GULP energy per Si atom -5586.734027 kJ/mol
# Density = 2.387497 g / cm^3
# Si number density = 23.929434 Si / 1000 Ang^3
#
#
#
# Elastic Constant Matrix: (Units=GPa)
#
#
# Indices 1 2 3 4 5 6 
#
# 1 88.5153 42.9674 71.4946 0.0000 0.0000 0.0000
# 2 42.9674 86.0494 -8.0407 0.0000 0.0000 0.0000
# 3 71.4946 -8.0407 105.0057 0.0000 0.0000 0.0000
# 4 0.0000 0.0000 0.0000 110.3245 0.0000 0.0000
# 5 0.0000 0.0000 0.0000 0.0000 42.2248 0.0000
# 6 0.0000 0.0000 0.0000 0.0000 0.0000 20.7791
#
#
#
# Elastic Compliance Matrix: (Units=1/GPa)
#
#
# Indices 1 2 3 4 5 6 
#
# 1 0.080841 -0.045838 -0.058552 0.000000 0.000000 0.000000
# 2 -0.045838 0.037696 0.034096 0.000000 0.000000 0.000000
# 3 -0.058552 0.034096 0.052000 0.000000 0.000000 0.000000
# 4 0.000000 0.000000 0.000000 0.009064 0.000000 0.000000
# 5 0.000000 0.000000 0.000000 0.000000 0.023683 0.000000
# 6 0.000000 0.000000 0.000000 0.000000 0.000000 0.048125
#
#
# Mechanical properties :
#
#
# Convention : Reuss Voigt Hill
#
# Bulk Modulus (GPa) = 33.38999 54.71253 44.05126
# Shear Modulus (GPa) = 12.43847 46.20898 29.32373
#
# Velocity S-wave (km/s) = 2.28238 4.39914 3.50440
# Velocity P-wave (km/s) = 4.57488 6.97976 5.90112
#
# Compressibility (1/GPa) = 0.02994910
#
# Stress axis : x y z
#
# Youngs Moduli (GPa) = 12.36999 26.52829 19.23084
#
# Poissons Ratio (x) = 1.21600 1.12600
# Poissons Ratio (y) = 0.56701 -0.65569
# Poissons Ratio (z) = 0.72428 -0.90450
#
# Static dielectric constant tensor:
#      x y z
#    x 2.241920 0.000000 0.000000 
#    y 0.000000 1.823790 0.000000 
#    z 0.000000 0.000000 1.992660 
# 
# From -- ./inp_files/7106.got.cif
#   From: 2010.05.17/outbox.cif.g08.bks.cpg/sg54_4_cif.got.tgz:7106.got - 2010.06.03 13:09:01.
