data_PCOD9423440
_publ_section_title
;
Structure prediction by ZEFSAII (Michael W. Deem and Ramdas Pophale) SiO2 
 PCOD9423440
Probable space group: P C C A
;
_chemical_formula_sum "Si O2"
_cell_formula_units_Z 40
_cell_length_a 7.583789
_cell_length_b 15.894424
_cell_length_c 13.551396
_cell_angle_alpha 90.000000
_cell_angle_beta 90.000000
_cell_angle_gamma 90.000000
_cell_volume 1633.484703
_symmetry_space_group_name_H-M "P C C A"
_symmetry_group_IT_number 54
_symmetry_cell_setting 'orthorhombic'
loop_
_space_group_symop_operation_xyz
x,y,z
1/2-x,-y,z
1/2+x,-y,1/2-z
-x,y,1/2-z
-x,-y,-z
1/2+x,y,-z
1/2-x,y,1/2+z
x,-y,1/2+z
loop_
_atom_site_type_symbol
_atom_site_label
_atom_site_fract_x
_atom_site_fract_y
_atom_site_fract_z
Si Si1 0.953513 0.605376 0.363713
Si Si2 0.500000 0.053527 0.750000
Si Si3 0.250000 0.000000 0.924144
Si Si4 0.969541 0.416895 0.365905
Si Si5 0.410246 0.269554 0.991668
Si Si6 0.843229 0.857025 0.914569
O O1 0.018342 0.512608 0.393752
O O2 0.740368 0.600110 0.381001
O O3 0.030644 0.682635 0.426225
O O4 0.000000 0.616631 0.250000
O O5 0.587470 0.010270 0.653580
O O6 0.655609 0.105528 0.805019
O O7 0.303416 0.925666 0.000654
O O8 0.000000 0.411398 0.250000
O O9 0.090898 0.347561 0.416983
O O10 0.469546 0.188089 0.930139
O O11 0.273831 0.224373 0.064354
#
# Coordination Sequence:
#
# PCOD9423440 Si02
#       6
#     8   4   4   8   8   8
#     4  10  23  42  64  99 139 191 241 287 359 427
#     4  12  28  50  80 104 150 194 238 304 374 440
#     4  12  28  52  76 108 144 192 240 298 374 450
#     4  10  23  42  66  96 142 190 238 293 354 427
#     4  12  25  44  69 103 142 182 237 305 351 429
#     4  12  28  48  73 107 146 186 246 300 366 444
#
# _framework density 24.487527
#
# number of rings (size 3 to 8) (size 9 to 14) (size 15 to 20)
#    0.000    0.800    4.000    1.800    7.000    1.600 
#    0.000    0.000    0.000    0.000    0.000    0.000 
#    0.000    0.000    0.000    0.000    0.000    0.000 
#
# Total GULP energy -222885.730255 kJ/mol
# GULP energy per Si atom -5572.143256 kJ/mol
# Density = 2.443179 g / cm^3
# Si number density = 24.487527 Si / 1000 Ang^3
#
#
#
# Elastic Constant Matrix: (Units=GPa)
#
#
# Indices 1 2 3 4 5 6 
#
# 1 52.0412 4.6413 3.6631 0.0000 0.0000 0.0000
# 2 4.6413 154.7122 75.5185 0.0000 0.0000 0.0000
# 3 3.6631 75.5185 179.6111 0.0000 0.0000 0.0000
# 4 0.0000 0.0000 0.0000 39.3397 0.0000 0.0000
# 5 0.0000 0.0000 0.0000 0.0000 28.4773 0.0000
# 6 0.0000 0.0000 0.0000 0.0000 0.0000 -26.0800
#
#
#
# Elastic Compliance Matrix: (Units=1/GPa)
#
#
# Indices 1 2 3 4 5 6 
#
# 1 0.019272 -0.000486 -0.000189 0.000000 0.000000 0.000000
# 2 -0.000486 0.008145 -0.003415 0.000000 0.000000 0.000000
# 3 -0.000189 -0.003415 0.007007 0.000000 0.000000 0.000000
# 4 0.000000 0.000000 0.000000 0.025420 0.000000 0.000000
# 5 0.000000 0.000000 0.000000 0.000000 0.035116 0.000000
# 6 0.000000 0.000000 0.000000 0.000000 0.000000 -0.038344
#
#
# Mechanical properties :
#
#
# Convention : Reuss Voigt Hill
#
# Bulk Modulus (GPa) = 38.10186 61.55672 49.82929
# Shear Modulus (GPa) = 67.98702 28.51683 48.25193
#
# Velocity S-wave (km/s) = 5.27487 3.41625 4.44381
# Velocity P-wave (km/s) = 7.25896 6.38385 6.83542
#
# Compressibility (1/GPa) = 0.02624544
#
# Stress axis : x y z
#
# Youngs Moduli (GPa) = 51.88832 122.77502 142.71125
#
# Poissons Ratio (x) = 0.05968 0.02693
# Poissons Ratio (y) = 0.02522 0.48731
# Poissons Ratio (z) = 0.00979 0.41924
#
# Static dielectric constant tensor:
#      x y z
#    x 2.771610 0.000000 0.000000 
#    y 0.000000 1.901580 0.000000 
#    z 0.000000 0.000000 1.908980 
# 
# From -- ./inp_files/11566.got.cif
#   From: 2010.05.17/outbox.cif.g08.bks.cpg/sg54_6_cif.got.tgz:11566.got - 2010.06.03 13:09:01.
