data_PCOD9423705
_publ_section_title
;
Structure prediction by ZEFSAII (Michael W. Deem and Ramdas Pophale) SiO2 
 PCOD9423705
Probable space group: P C C A
;
_chemical_formula_sum "Si O2"
_cell_formula_units_Z 60
_cell_length_a 30.145707
_cell_length_b 5.223966
_cell_length_c 17.291666
_cell_angle_alpha 90.000000
_cell_angle_beta 90.000000
_cell_angle_gamma 90.000000
_cell_volume 2723.094128
_symmetry_space_group_name_H-M "P C C A"
_symmetry_group_IT_number 54
_symmetry_cell_setting 'orthorhombic'
loop_
_space_group_symop_operation_xyz
x,y,z
1/2-x,-y,z
1/2+x,-y,1/2-z
-x,y,1/2-z
-x,-y,-z
1/2+x,y,-z
1/2-x,y,1/2+z
x,-y,1/2+z
loop_
_atom_site_type_symbol
_atom_site_label
_atom_site_fract_x
_atom_site_fract_y
_atom_site_fract_z
Si Si1 0.549710 0.794759 0.219199
Si Si2 0.366489 0.365719 0.508650
Si Si3 0.179680 0.409964 0.778799
Si Si4 0.866430 0.210639 0.317544
Si Si5 0.586564 0.716853 0.641400
Si Si6 0.210102 0.174315 0.641392
Si Si7 0.750000 0.000000 0.653068
Si Si8 0.187636 0.854582 0.977010
O O1 0.500000 0.791793 0.250000
O O2 0.583830 0.840222 0.290163
O O3 0.562223 0.528648 0.177628
O O4 0.560017 0.029546 0.162592
O O5 0.371599 0.369645 0.601540
O O6 0.406466 0.301104 0.450853
O O7 0.349824 0.640192 0.478564
O O8 0.330794 0.140092 0.490454
O O9 0.156891 0.687220 0.762346
O O10 0.135791 0.278086 0.817282
O O11 0.200980 0.420571 0.691076
O O12 0.219260 0.229520 0.812278
O O13 0.836072 0.974142 0.343420
O O14 0.250000 0.000000 0.670319
O O15 0.216901 0.218879 0.551573
O O16 0.716075 0.157659 0.599470
#
# Coordination Sequence:
#
# PCOD9423705 Si02
#       8
#     8   8   8   8   8   8   4   8
#     4  11  24  45  72  99 135 170 218 281 348 418
#     4  11  23  43  70  91 134 178 222 280 339 400
#     4  11  22  41  59  93 128 176 219 280 316 397
#     4  10  24  43  67  95 132 178 224 277 344 402
#     4  11  23  43  66 100 130 169 220 272 344 398
#     4  11  21  40  60  88 130 176 226 271 325 393
#     4  12  24  40  60  96 140 182 236 282 324 388
#     4  11  24  42  58  95 131 184 226 275 332 386
#
# _framework density 22.033759
#
# number of rings (size 3 to 8) (size 9 to 14) (size 15 to 20)
#    0.000    1.067    5.333    1.200    0.000    1.067 
#    4.800    1.333    0.000    0.000    0.000    0.000 
#    0.000    0.000    0.000    0.000    0.000    0.000 
#
# Total GULP energy -334038.245011 kJ/mol
# GULP energy per Si atom -5567.304084 kJ/mol
# Density = 2.198361 g / cm^3
# Si number density = 22.033759 Si / 1000 Ang^3
#
#
#
# Elastic Constant Matrix: (Units=GPa)
#
#
# Indices 1 2 3 4 5 6 
#
# 1 105.1941 27.4188 41.3411 0.0000 0.0000 0.0000
# 2 27.4188 71.8274 19.2930 0.0000 0.0000 0.0000
# 3 41.3411 19.2930 65.3847 0.0000 0.0000 0.0000
# 4 0.0000 0.0000 0.0000 0.0300 0.0000 0.0000
# 5 0.0000 0.0000 0.0000 0.0000 20.3217 0.0000
# 6 0.0000 0.0000 0.0000 0.0000 0.0000 24.5782
#
#
#
# Elastic Compliance Matrix: (Units=1/GPa)
#
#
# Indices 1 2 3 4 5 6 
#
# 1 0.013236 -0.003046 -0.007470 0.000000 0.000000 0.000000
# 2 -0.003046 0.015822 -0.002743 0.000000 0.000000 0.000000
# 3 -0.007470 -0.002743 0.020826 0.000000 0.000000 0.000000
# 4 0.000000 0.000000 0.000000 33.315379 0.000000 0.000000
# 5 0.000000 0.000000 0.000000 0.000000 0.049209 0.000000
# 6 0.000000 0.000000 0.000000 0.000000 0.000000 0.040686
#
#
# Mechanical properties :
#
#
# Convention : Reuss Voigt Hill
#
# Bulk Modulus (GPa) = 42.79561 46.50133 44.64847
# Shear Modulus (GPa) = 0.14930 19.27620 9.71275
#
# Velocity S-wave (km/s) = 0.26059 2.96099 2.10183
# Velocity P-wave (km/s) = 4.42215 5.73065 5.11839
#
# Compressibility (1/GPa) = 0.02336688
#
# Stress axis : x y z
#
# Youngs Moduli (GPa) = 75.55239 63.20431 48.01608
#
# Poissons Ratio (x) = 0.19253 0.35867
# Poissons Ratio (y) = 0.23014 0.13169
# Poissons Ratio (z) = 0.56437 0.17334
#
# Static dielectric constant tensor:
#      x y z
#    x 1.915320 0.000000 0.000000 
#    y 0.000000 1.910480 0.000000 
#    z 0.000000 0.000000 1.992730 
# 
# From -- ./inp_files/19269.got.cif
#   From: 2010.05.17/outbox.cif.g08.bks.cpg/sg54_10_cif.got.tgz:19269.got - 2010.06.03 13:09:01.
