data_PCOD9423865
_publ_section_title
;
Structure prediction by ZEFSAII (Michael W. Deem and Ramdas Pophale) SiO2 
 PCOD9423865
Probable space group: P C C A
;
_chemical_formula_sum "Si O2"
_cell_formula_units_Z 48
_cell_length_a 17.308270
_cell_length_b 9.628134
_cell_length_c 13.494264
_cell_angle_alpha 90.000000
_cell_angle_beta 90.000000
_cell_angle_gamma 90.000000
_cell_volume 2248.769745
_symmetry_space_group_name_H-M "P C C A"
_symmetry_group_IT_number 54
_symmetry_cell_setting 'orthorhombic'
loop_
_space_group_symop_operation_xyz
x,y,z
1/2-x,-y,z
1/2+x,-y,1/2-z
-x,y,1/2-z
-x,-y,-z
1/2+x,y,-z
1/2-x,y,1/2+z
x,-y,1/2+z
loop_
_atom_site_type_symbol
_atom_site_label
_atom_site_fract_x
_atom_site_fract_y
_atom_site_fract_z
Si Si1 0.778619 0.857373 0.269787
Si Si2 0.436495 0.931118 0.834002
Si Si3 0.075624 0.692262 0.484279
Si Si4 0.536843 0.570210 0.148289
Si Si5 0.749193 0.333211 0.947430
Si Si6 0.149656 0.201169 0.386393
O O1 0.864744 0.870888 0.229702
O O2 0.764392 0.726356 0.338850
O O3 0.723390 0.845209 0.175606
O O4 0.750000 0.000000 0.322872
O O5 0.500000 0.961986 0.750000
O O6 0.456708 0.818986 0.918443
O O7 0.406570 0.069230 0.889329
O O8 0.024772 0.653842 0.580399
O O9 0.164761 0.715471 0.514441
O O10 0.069397 0.556699 0.415013
O O11 0.500000 0.519495 0.250000
O O12 0.604681 0.677908 0.170850
O O13 0.750000 0.500000 0.951881
O O14 0.817680 0.266984 0.013281
#
# Coordination Sequence:
#
# PCOD9423865 Si02
#       6
#     8   8   8   8   8   8
#     4  10  25  43  70 100 134 182 232 286 347 415
#     4  11  25  44  70 103 138 183 229 290 354 415
#     4  11  25  43  69 102 136 187 232 285 357 413
#     4  11  24  44  68 100 143 180 232 294 346 415
#     4  12  25  43  69 101 136 184 231 286 355 418
#     4  11  24  47  67 101 138 177 237 286 346 422
#
# _framework density 21.345003999999999
#
# number of rings (size 3 to 8) (size 9 to 14) (size 15 to 20)
#    0.000    1.000    3.333    2.000    4.667    5.333 
#    0.000    0.000    0.000    0.000    0.000    0.000 
#    0.000    0.000    0.000    0.000    0.000    0.000 
#
# Total GULP energy -268414.013249 kJ/mol
# GULP energy per Si atom -5591.958609 kJ/mol
# Density = 2.129642 g / cm^3
# Si number density = 21.345004 Si / 1000 Ang^3
#
#
#
# Elastic Constant Matrix: (Units=GPa)
#
#
# Indices 1 2 3 4 5 6 
#
# 1 71.2228 15.7524 12.7725 0.0000 0.0000 0.0000
# 2 15.7524 106.1961 35.8525 0.0000 0.0000 0.0000
# 3 12.7725 35.8525 72.1366 0.0000 0.0000 0.0000
# 4 0.0000 0.0000 0.0000 64.1162 0.0000 0.0000
# 5 0.0000 0.0000 0.0000 0.0000 6.6616 0.0000
# 6 0.0000 0.0000 0.0000 0.0000 0.0000 30.0679
#
#
#
# Elastic Compliance Matrix: (Units=1/GPa)
#
#
# Indices 1 2 3 4 5 6 
#
# 1 0.014714 -0.001566 -0.001827 0.000000 0.000000 0.000000
# 2 -0.001566 0.011482 -0.005429 0.000000 0.000000 0.000000
# 3 -0.001827 -0.005429 0.016885 0.000000 0.000000 0.000000
# 4 0.000000 0.000000 0.000000 0.015597 0.000000 0.000000
# 5 0.000000 0.000000 0.000000 0.000000 0.150115 0.000000
# 6 0.000000 0.000000 0.000000 0.000000 0.000000 0.033258
#
#
# Mechanical properties :
#
#
# Convention : Reuss Voigt Hill
#
# Bulk Modulus (GPa) = 39.31395 42.03448 40.67422
# Shear Modulus (GPa) = 18.64466 32.51433 25.57949
#
# Velocity S-wave (km/s) = 2.95869 3.90715 3.46552
# Velocity P-wave (km/s) = 5.48909 6.33167 5.92538
#
# Compressibility (1/GPa) = 0.02543626
#
# Stress axis : x y z
#
# Youngs Moduli (GPa) = 67.96055 87.09456 59.22588
#
# Poissons Ratio (x) = 0.13637 0.10821
# Poissons Ratio (y) = 0.10641 0.32156
# Poissons Ratio (z) = 0.12417 0.47286
#
# Static dielectric constant tensor:
#      x y z
#    x 1.769070 0.000000 0.000000 
#    y 0.000000 1.784280 0.000000 
#    z 0.000000 0.000000 1.742530 
# 
# From -- ./inp_files/14101.got.cif
#   From: 2010.05.17/outbox.cif.g08.bks.cpg/sg54_8_cif.got.tgz:14101.got - 2010.06.03 13:09:01.
