data_PCOD9423135
_publ_section_title
;
Structure prediction by ZEFSAII (Michael W. Deem and Ramdas Pophale) SiO2 
 PCOD9423135
Probable space group: P C C A
;
_chemical_formula_sum "Si O2"
_cell_formula_units_Z 48
_cell_length_a 27.541813
_cell_length_b 8.699500
_cell_length_c 8.199463
_cell_angle_alpha 90.000000
_cell_angle_beta 90.000000
_cell_angle_gamma 90.000000
_cell_volume 1964.591353
_symmetry_space_group_name_H-M "P C C A"
_symmetry_group_IT_number 54
_symmetry_cell_setting 'orthorhombic'
loop_
_space_group_symop_operation_xyz
x,y,z
1/2-x,-y,z
1/2+x,-y,1/2-z
-x,y,1/2-z
-x,-y,-z
1/2+x,y,-z
1/2-x,y,1/2+z
x,-y,1/2+z
loop_
_atom_site_type_symbol
_atom_site_label
_atom_site_fract_x
_atom_site_fract_y
_atom_site_fract_z
Si Si1 0.938248 0.399091 0.639958
Si Si2 0.788363 0.860577 0.506719
Si Si3 0.134744 0.228714 0.026048
Si Si4 0.608393 0.059886 0.636605
Si Si5 0.963171 0.709394 0.494038
Si Si6 0.733118 0.327150 0.805172
O O1 0.890377 0.385270 0.530213
O O2 0.954248 0.576683 0.627242
O O3 0.937740 0.347602 0.826897
O O4 0.980095 0.297014 0.551091
O O5 0.843361 0.905639 0.530381
O O6 0.783179 0.713672 0.624440
O O7 0.776783 0.793007 0.331678
O O8 0.750000 0.000000 0.536952
O O9 0.115284 0.142394 0.188970
O O10 0.190247 0.269930 0.072910
O O11 0.114754 0.122903 0.876074
O O12 0.560720 0.132909 0.555072
O O13 0.750000 0.500000 0.824617
#
# Coordination Sequence:
#
# PCOD9423135 Si02
#       6
#     8   8   8   8   8   8
#     4  10  22  42  67  98 132 175 214 275 332 404
#     4  11  23  43  66  91 131 177 219 274 338 404
#     4  11  24  42  63  97 131 171 227 272 340 399
#     4  11  24  40  64  96 126 177 219 274 333 402
#     4  10  22  42  68  96 134 173 219 267 339 401
#     4  11  25  42  64  96 130 172 222 280 337 399
#
# _framework density 24.432562999999998
#
# number of rings (size 3 to 8) (size 9 to 14) (size 15 to 20)
#    0.000    1.333    1.667    3.000    4.667    4.000 
#    0.000    0.000    0.000    0.000    0.000    0.000 
#    0.000    0.000    0.000    0.000    0.000    0.000 
#
# Total GULP energy -267952.278354 kJ/mol
# GULP energy per Si atom -5582.339132 kJ/mol
# Density = 2.437695 g / cm^3
# Si number density = 24.432563 Si / 1000 Ang^3
#
#
#
# Elastic Constant Matrix: (Units=GPa)
#
#
# Indices 1 2 3 4 5 6 
#
# 1 51.8367 23.4695 -2.8837 0.0000 0.0000 0.0000
# 2 23.4695 93.2361 14.1884 0.0000 0.0000 0.0000
# 3 -2.8837 14.1884 66.4205 0.0000 0.0000 0.0000
# 4 0.0000 0.0000 0.0000 -26.8291 0.0000 0.0000
# 5 0.0000 0.0000 0.0000 0.0000 21.4945 0.0000
# 6 0.0000 0.0000 0.0000 0.0000 0.0000 44.0259
#
#
#
# Elastic Compliance Matrix: (Units=1/GPa)
#
#
# Indices 1 2 3 4 5 6 
#
# 1 0.022085 -0.005897 0.002218 0.000000 0.000000 0.000000
# 2 -0.005897 0.012660 -0.002960 0.000000 0.000000 0.000000
# 3 0.002218 -0.002960 0.015784 0.000000 0.000000 0.000000
# 4 0.000000 0.000000 0.000000 -0.037273 0.000000 0.000000
# 5 0.000000 0.000000 0.000000 0.000000 0.046523 0.000000
# 6 0.000000 0.000000 0.000000 0.000000 0.000000 0.022714
#
#
# Mechanical properties :
#
#
# Convention : Reuss Voigt Hill
#
# Bulk Modulus (GPa) = 26.84441 31.22687 29.03564
# Shear Modulus (GPa) = 46.21571 19.51953 32.86762
#
# Velocity S-wave (km/s) = 4.35393 2.82957 3.67173
# Velocity P-wave (km/s) = 6.02383 4.84602 5.46674
#
# Compressibility (1/GPa) = 0.03725170
#
# Stress axis : x y z
#
# Youngs Moduli (GPa) = 45.28051 78.98701 63.35403
#
# Poissons Ratio (x) = 0.46577 -0.14055
# Poissons Ratio (y) = 0.26701 0.18756
# Poissons Ratio (z) = -0.10045 0.23384
#
# Static dielectric constant tensor:
#      x y z
#    x 1.964920 0.000000 0.000000 
#    y 0.000000 2.525040 0.000000 
#    z 0.000000 0.000000 1.906530 
# 
# From -- ./inp_files/5840.got.cif
#   From: 2010.05.17/outbox.cif.g08.bks.cpg/sg54_3_cif.got.tgz:5840.got - 2010.06.03 13:09:01.
