data_PCOD9423882
_publ_section_title
;
Structure prediction by ZEFSAII (Michael W. Deem and Ramdas Pophale) SiO2 
 PCOD9423882
Probable space group: P C C A
;
_chemical_formula_sum "Si O2"
_cell_formula_units_Z 32
_cell_length_a 9.093673
_cell_length_b 14.580879
_cell_length_c 10.287020
_cell_angle_alpha 90.000000
_cell_angle_beta 90.000000
_cell_angle_gamma 90.000000
_cell_volume 1363.994514
_symmetry_space_group_name_H-M "P C C A"
_symmetry_group_IT_number 54
_symmetry_cell_setting 'orthorhombic'
loop_
_space_group_symop_operation_xyz
x,y,z
1/2-x,-y,z
1/2+x,-y,1/2-z
-x,y,1/2-z
-x,-y,-z
1/2+x,y,-z
1/2-x,y,1/2+z
x,-y,1/2+z
loop_
_atom_site_type_symbol
_atom_site_label
_atom_site_fract_x
_atom_site_fract_y
_atom_site_fract_z
Si Si1 0.727254 0.242508 0.930604
Si Si2 0.473961 0.321955 0.394626
Si Si3 0.591222 0.046237 0.881834
Si Si4 0.608976 0.567840 0.368343
O O1 0.901739 0.245580 0.922406
O O2 0.637149 0.152377 0.899569
O O3 0.675298 0.329620 0.845404
O O4 0.680222 0.273635 0.075770
O O5 0.500000 0.352399 0.250000
O O6 0.476065 0.406504 0.496041
O O7 0.500000 0.034561 0.750000
O O8 0.750000 0.000000 0.871808
O O9 0.500000 0.000000 0.000000
O O10 0.750000 0.500000 0.379267
O O11 0.500000 0.547212 0.250000
#
# Coordination Sequence:
#
# PCOD9423882 Si02
#       4
#     8   8   8   8
#     4  10  25  46  79 107 156 200 260 317 396 466
#     4  10  25  46  77 113 149 205 260 321 389 463
#     4  12  27  48  77 121 161 209 269 336 407 489
#     4  10  25  50  79 114 153 202 260 317 390 472
#
# _framework density 23.460505000000001
#
# number of rings (size 3 to 8) (size 9 to 14) (size 15 to 20)
#    1.500    0.000    0.000    3.000    3.500    8.000 
#    0.000    2.500    0.000    0.000    0.000    0.000 
#    0.000    0.000    0.000    0.000    0.000    0.000 
#
# Total GULP energy -178580.088940 kJ/mol
# GULP energy per Si atom -5580.627779 kJ/mol
# Density = 2.340711 g / cm^3
# Si number density = 23.460505 Si / 1000 Ang^3
#
#
#
# Elastic Constant Matrix: (Units=GPa)
#
#
# Indices 1 2 3 4 5 6 
#
# 1 150.2470 70.4379 97.4038 0.0000 0.0000 0.0000
# 2 70.4379 156.9341 60.3867 0.0000 0.0000 0.0000
# 3 97.4038 60.3867 220.0000 0.0000 0.0000 0.0000
# 4 0.0000 0.0000 0.0000 13.7603 0.0000 0.0000
# 5 0.0000 0.0000 0.0000 0.0000 44.1613 0.0000
# 6 0.0000 0.0000 0.0000 0.0000 0.0000 51.6333
#
#
#
# Elastic Compliance Matrix: (Units=1/GPa)
#
#
# Indices 1 2 3 4 5 6 
#
# 1 0.010693 -0.003330 -0.003821 0.000000 0.000000 0.000000
# 2 -0.003330 0.008161 -0.000766 0.000000 0.000000 0.000000
# 3 -0.003821 -0.000766 0.006447 0.000000 0.000000 0.000000
# 4 0.000000 0.000000 0.000000 0.072673 0.000000 0.000000
# 5 0.000000 0.000000 0.000000 0.000000 0.022644 0.000000
# 6 0.000000 0.000000 0.000000 0.000000 0.000000 0.019367
#
#
# Mechanical properties :
#
#
# Convention : Reuss Voigt Hill
#
# Bulk Modulus (GPa) = 105.59910 109.29311 107.44611
# Shear Modulus (GPa) = 31.45148 41.84117 36.64632
#
# Velocity S-wave (km/s) = 3.66541 4.22770 3.95656
# Velocity P-wave (km/s) = 7.93869 8.39752 8.17133
#
# Compressibility (1/GPa) = 0.00946978
#
# Stress axis : x y z
#
# Youngs Moduli (GPa) = 93.51499 122.52996 155.10475
#
# Poissons Ratio (x) = 0.40796 0.59259
# Poissons Ratio (y) = 0.31136 0.11881
# Poissons Ratio (z) = 0.35728 0.09386
#
# Static dielectric constant tensor:
#      x y z
#    x 1.913860 0.000000 0.000000 
#    y 0.000000 2.003850 0.000000 
#    z 0.000000 0.000000 1.927500 
# 
# From -- ./inp_files/6794.got.cif
#   From: 2010.05.17/outbox.cif.g08.bks.cpg/sg54_4_cif.got.tgz:6794.got - 2010.06.03 13:09:01.
