data_PCOD9423729
_publ_section_title
;
Structure prediction by ZEFSAII (Michael W. Deem and Ramdas Pophale) SiO2 
 PCOD9423729
Probable space group: P C C A
;
_chemical_formula_sum "Si O2"
_cell_formula_units_Z 20
_cell_length_a 9.673108
_cell_length_b 7.673896
_cell_length_c 9.474171
_cell_angle_alpha 90.000000
_cell_angle_beta 90.000000
_cell_angle_gamma 90.000000
_cell_volume 703.271738
_symmetry_space_group_name_H-M "P C C A"
_symmetry_group_IT_number 54
_symmetry_cell_setting 'orthorhombic'
loop_
_space_group_symop_operation_xyz
x,y,z
1/2-x,-y,z
1/2+x,-y,1/2-z
-x,y,1/2-z
-x,-y,-z
1/2+x,y,-z
1/2-x,y,1/2+z
x,-y,1/2+z
loop_
_atom_site_type_symbol
_atom_site_label
_atom_site_fract_x
_atom_site_fract_y
_atom_site_fract_z
Si Si1 0.008180 0.750016 0.416894
Si Si2 0.750000 0.000000 0.154216
Si Si3 0.286198 0.685164 0.141664
O O1 0.088080 0.645354 0.537439
O O2 0.000000 0.698944 0.250000
O O3 0.845864 0.751748 0.449201
O O4 0.111001 0.917472 0.413218
O O5 0.691470 0.843050 0.252616
O O6 0.250000 0.500000 0.212051
#
# Coordination Sequence:
#
# PCOD9423729 Si02
#       3
#     8   4   8
#     4  10  24  44  69 103 141 189 241 297 361 426
#     4  10  24  44  70 106 146 190 246 300 366 436
#     4  11  24  46  73 104 148 195 245 302 365 438
#
# _framework density 28.438509
#
# number of rings (size 3 to 8) (size 9 to 14) (size 15 to 20)
#    0.000    1.600    0.000    2.400    0.000   24.000 
#    0.000   24.000    0.000    0.000    0.000    0.000 
#    0.000    0.000    0.000    0.000    0.000    0.000 
#
# Total GULP energy -111847.214207 kJ/mol
# GULP energy per Si atom -5592.360710 kJ/mol
# Density = 2.837378 g / cm^3
# Si number density = 28.438509 Si / 1000 Ang^3
#
#
#
# Elastic Constant Matrix: (Units=GPa)
#
#
# Indices 1 2 3 4 5 6 
#
# 1 222.5777 -0.4986 15.0815 0.0000 0.0000 0.0000
# 2 -0.4986 157.0806 9.3083 0.0000 0.0000 0.0000
# 3 15.0815 9.3083 82.7613 0.0000 0.0000 0.0000
# 4 0.0000 0.0000 0.0000 -1.2794 0.0000 0.0000
# 5 0.0000 0.0000 0.0000 0.0000 56.4159 0.0000
# 6 0.0000 0.0000 0.0000 0.0000 0.0000 46.3570
#
#
#
# Elastic Compliance Matrix: (Units=1/GPa)
#
#
# Indices 1 2 3 4 5 6 
#
# 1 0.004550 0.000064 -0.000836 0.000000 0.000000 0.000000
# 2 0.000064 0.006410 -0.000733 0.000000 0.000000 0.000000
# 3 -0.000836 -0.000733 0.012318 0.000000 0.000000 0.000000
# 4 0.000000 0.000000 0.000000 -0.781636 0.000000 0.000000
# 5 0.000000 0.000000 0.000000 0.000000 0.017726 0.000000
# 6 0.000000 0.000000 0.000000 0.000000 0.000000 0.021572
#
#
# Mechanical properties :
#
#
# Convention : Reuss Voigt Hill
#
# Bulk Modulus (GPa) = 49.34028 56.68911 53.01470
# Shear Modulus (GPa) = -7.04924 49.53393 21.24235
#
# Velocity S-wave (km/s) = -1.57612 4.17800 2.73602
# Velocity P-wave (km/s) = 3.75170 6.57659 5.35382
#
# Compressibility (1/GPa) = 0.02026741
#
# Stress axis : x y z
#
# Youngs Moduli (GPa) = 219.79861 156.01178 81.18382
#
# Poissons Ratio (x) = -0.00998 0.06789
# Poissons Ratio (y) = -0.01407 0.05947
# Poissons Ratio (z) = 0.18381 0.11429
#
# Static dielectric constant tensor:
#      x y z
#    x 2.279750 0.000000 0.000000 
#    y 0.000000 2.304510 0.000000 
#    z 0.000000 0.000000 2.194480 
# 
# From -- ./inp_files/6578.got.cif
#   From: 2010.05.17/outbox.cif.g08.bks.cpg/sg54_4_cif.got.tgz:6578.got - 2010.06.03 13:09:01.
