data_PCOD9423330
_publ_section_title
;
Structure prediction by ZEFSAII (Michael W. Deem and Ramdas Pophale) SiO2 
 PCOD9423330
Probable space group: P C C A
;
_chemical_formula_sum "Si O2"
_cell_formula_units_Z 40
_cell_length_a 9.185101
_cell_length_b 17.470368
_cell_length_c 9.075677
_cell_angle_alpha 90.000000
_cell_angle_beta 90.000000
_cell_angle_gamma 90.000000
_cell_volume 1456.347520
_symmetry_space_group_name_H-M "P C C A"
_symmetry_group_IT_number 54
_symmetry_cell_setting 'orthorhombic'
loop_
_space_group_symop_operation_xyz
x,y,z
1/2-x,-y,z
1/2+x,-y,1/2-z
-x,y,1/2-z
-x,-y,-z
1/2+x,y,-z
1/2-x,y,1/2+z
x,-y,1/2+z
loop_
_atom_site_type_symbol
_atom_site_label
_atom_site_fract_x
_atom_site_fract_y
_atom_site_fract_z
Si Si1 0.265785 0.747407 0.135489
Si Si2 0.250000 0.500000 0.560148
Si Si3 0.271339 0.359225 0.871418
Si Si4 0.000000 0.169155 0.750000
Si Si5 0.250000 0.000000 0.249648
Si Si6 0.386489 0.901697 0.005973
Si Si7 0.500000 0.549781 0.750000
O O1 0.335219 0.676497 0.222614
O O2 0.140055 0.777269 0.245191
O O3 0.206386 0.708588 0.988853
O O4 0.353868 0.821837 0.086357
O O5 0.183301 0.433728 0.459769
O O6 0.387979 0.493619 0.666938
O O7 0.106956 0.390422 0.835054
O O8 0.022500 0.120212 0.599334
O O9 0.289748 0.066909 0.367080
O O10 0.130173 0.035778 0.135768
#
# Coordination Sequence:
#
# PCOD9423330 Si02
#       7
#     8   4   8   4   4   8   4
#     4  12  25  47  75 111 152 206 259 333 396 480
#     4  12  28  52  82 122 162 216 278 336 418 488
#     4  12  26  47  78 108 159 205 266 333 401 480
#     4  12  25  46  76 108 155 200 268 324 407 488
#     4  10  22  46  74 106 160 194 256 334 388 488
#     4  11  23  45  73 110 152 200 259 325 396 482
#     4  12  27  54  80 120 163 214 274 344 411 494
#
# _framework density 27.465972000000001
#
# number of rings (size 3 to 8) (size 9 to 14) (size 15 to 20)
#    0.000    0.400    6.000    1.800    0.000    0.800 
#    0.000    5.000    0.000    0.000    0.000    0.000 
#    0.000    0.000    0.000    0.000    0.000    0.000 
#
# Total GULP energy -223037.647702 kJ/mol
# GULP energy per Si atom -5575.941193 kJ/mol
# Density = 2.740346 g / cm^3
# Si number density = 27.465972 Si / 1000 Ang^3
#
#
#
# Elastic Constant Matrix: (Units=GPa)
#
#
# Indices 1 2 3 4 5 6 
#
# 1 78.0444 15.7231 30.1557 0.0000 0.0000 0.0000
# 2 15.7231 196.2398 53.7410 0.0000 0.0000 0.0000
# 3 30.1557 53.7410 175.8072 0.0000 0.0000 0.0000
# 4 0.0000 0.0000 0.0000 75.8012 0.0000 0.0000
# 5 0.0000 0.0000 0.0000 0.0000 47.4766 0.0000
# 6 0.0000 0.0000 0.0000 0.0000 0.0000 34.9312
#
#
#
# Elastic Compliance Matrix: (Units=1/GPa)
#
#
# Indices 1 2 3 4 5 6 
#
# 1 0.013767 -0.000498 -0.002209 0.000000 0.000000 0.000000
# 2 -0.000498 0.005579 -0.001620 0.000000 0.000000 0.000000
# 3 -0.002209 -0.001620 0.006562 0.000000 0.000000 0.000000
# 4 0.000000 0.000000 0.000000 0.013192 0.000000 0.000000
# 5 0.000000 0.000000 0.000000 0.000000 0.021063 0.000000
# 6 0.000000 0.000000 0.000000 0.000000 0.000000 0.028628
#
#
# Mechanical properties :
#
#
# Convention : Reuss Voigt Hill
#
# Bulk Modulus (GPa) = 57.95725 72.14789 65.05257
# Shear Modulus (GPa) = 48.45060 55.00658 51.72859
#
# Velocity S-wave (km/s) = 4.20458 4.48003 4.34449
# Velocity P-wave (km/s) = 6.68720 7.28601 6.99302
#
# Compressibility (1/GPa) = 0.01725410
#
# Stress axis : x y z
#
# Youngs Moduli (GPa) = 72.63655 179.23148 152.38759
#
# Poissons Ratio (x) = 0.08927 0.33665
# Poissons Ratio (y) = 0.03618 0.24688
# Poissons Ratio (z) = 0.16047 0.29037
#
# Static dielectric constant tensor:
#      x y z
#    x 2.385170 0.000000 0.000000 
#    y 0.000000 2.213260 0.000000 
#    z 0.000000 0.000000 2.349040 
# 
# From -- ./inp_files/2987.got.cif
#   From: 2010.05.17/outbox.cif.g08.bks.cpg/sg54_2_cif.got.tgz:2987.got - 2010.06.03 13:09:01.
