data_PCOD9423870
_publ_section_title
;
Structure prediction by ZEFSAII (Michael W. Deem and Ramdas Pophale) SiO2 
 PCOD9423870
Probable space group: P C C A
;
_chemical_formula_sum "Si O2"
_cell_formula_units_Z 40
_cell_length_a 15.510800
_cell_length_b 10.742413
_cell_length_c 9.263842
_cell_angle_alpha 90.000000
_cell_angle_beta 90.000000
_cell_angle_gamma 90.000000
_cell_volume 1543.573032
_symmetry_space_group_name_H-M "P C C A"
_symmetry_group_IT_number 54
_symmetry_cell_setting 'orthorhombic'
loop_
_space_group_symop_operation_xyz
x,y,z
1/2-x,-y,z
1/2+x,-y,1/2-z
-x,y,1/2-z
-x,-y,-z
1/2+x,y,-z
1/2-x,y,1/2+z
x,-y,1/2+z
loop_
_atom_site_type_symbol
_atom_site_label
_atom_site_fract_x
_atom_site_fract_y
_atom_site_fract_z
Si Si1 0.344205 0.997925 0.138742
Si Si2 0.311486 0.286904 0.658761
Si Si3 0.559534 0.921442 0.621364
Si Si4 0.682030 0.609602 0.029856
Si Si5 0.989960 0.690211 0.925027
O O1 0.347809 0.852453 0.186817
O O2 0.250000 0.000000 0.073676
O O3 0.356123 0.088948 0.274978
O O4 0.410746 0.010964 0.006824
O O5 0.223316 0.282568 0.569349
O O6 0.296367 0.356723 0.806342
O O7 0.390963 0.357301 0.577349
O O8 0.500000 0.973810 0.750000
O O9 0.523274 0.798104 0.546518
O O10 0.750000 0.500000 0.990038
O O11 0.576792 0.616043 0.028463
O O12 0.000000 0.715620 0.750000
#
# Coordination Sequence:
#
# PCOD9423870 Si02
#       5
#     8   8   8   8   8
#     4  11  26  42  68 104 152 199 253 305 377 454
#     4  10  25  44  71 102 148 193 250 319 375 448
#     4  11  25  42  67 103 149 204 248 301 374 454
#     4  11  24  45  74 102 140 191 254 319 386 447
#     4   9  23  47  70 104 148 192 244 315 384 451
#
# _framework density 25.913902
#
# number of rings (size 3 to 8) (size 9 to 14) (size 15 to 20)
#    0.000    1.600    0.000    1.800   11.200   10.400 
#    0.000    2.000    0.000    0.000    0.000    0.000 
#    0.000    0.000    0.000    0.000    0.000    0.000 
#
# Total GULP energy -222686.058054 kJ/mol
# GULP energy per Si atom -5567.151451 kJ/mol
# Density = 2.585492 g / cm^3
# Si number density = 25.913902 Si / 1000 Ang^3
#
#
#
# Elastic Constant Matrix: (Units=GPa)
#
#
# Indices 1 2 3 4 5 6 
#
# 1 135.8230 43.8589 39.9737 0.0000 0.0000 0.0000
# 2 43.8589 81.3746 37.4390 0.0000 0.0000 0.0000
# 3 39.9737 37.4390 124.8772 0.0000 0.0000 0.0000
# 4 0.0000 0.0000 0.0000 32.5732 0.0000 0.0000
# 5 0.0000 0.0000 0.0000 0.0000 48.8615 0.0000
# 6 0.0000 0.0000 0.0000 0.0000 0.0000 30.3977
#
#
#
# Elastic Compliance Matrix: (Units=1/GPa)
#
#
# Indices 1 2 3 4 5 6 
#
# 1 0.009213 -0.004186 -0.001694 0.000000 0.000000 0.000000
# 2 -0.004186 0.016157 -0.003504 0.000000 0.000000 0.000000
# 3 -0.001694 -0.003504 0.009601 0.000000 0.000000 0.000000
# 4 0.000000 0.000000 0.000000 0.030700 0.000000 0.000000
# 5 0.000000 0.000000 0.000000 0.000000 0.020466 0.000000
# 6 0.000000 0.000000 0.000000 0.000000 0.000000 0.032897
#
#
# Mechanical properties :
#
#
# Convention : Reuss Voigt Hill
#
# Bulk Modulus (GPa) = 61.71948 64.95754 63.33851
# Shear Modulus (GPa) = 34.91541 37.08668 36.00104
#
# Velocity S-wave (km/s) = 3.67463 3.78716 3.73132
# Velocity P-wave (km/s) = 6.47091 6.65166 6.56190
#
# Compressibility (1/GPa) = 0.01620234
#
# Stress axis : x y z
#
# Youngs Moduli (GPa) = 108.54425 61.89194 104.15934
#
# Poissons Ratio (x) = 0.25908 0.17645
# Poissons Ratio (y) = 0.45438 0.36498
# Poissons Ratio (z) = 0.18388 0.21687
#
# Static dielectric constant tensor:
#      x y z
#    x 2.411800 0.000000 0.000000 
#    y 0.000000 2.143900 0.000000 
#    z 0.000000 0.000000 2.004840 
# 
# From -- ./inp_files/3968.got.cif
#   From: 2010.05.17/outbox.cif.g08.bks.cpg/sg54_2_cif.got.tgz:3968.got - 2010.06.03 13:09:01.
