data_PCOD9423982
_publ_section_title
;
Structure prediction by ZEFSAII (Michael W. Deem and Ramdas Pophale) SiO2 
 PCOD9423982
Probable space group: P C C A
;
_chemical_formula_sum "Si O2"
_cell_formula_units_Z 64
_cell_length_a 24.277032
_cell_length_b 15.824368
_cell_length_c 8.626695
_cell_angle_alpha 90.000000
_cell_angle_beta 90.000000
_cell_angle_gamma 90.000000
_cell_volume 3314.106103
_symmetry_space_group_name_H-M "P C C A"
_symmetry_group_IT_number 54
_symmetry_cell_setting 'orthorhombic'
loop_
_space_group_symop_operation_xyz
x,y,z
1/2-x,-y,z
1/2+x,-y,1/2-z
-x,y,1/2-z
-x,-y,-z
1/2+x,y,-z
1/2-x,y,1/2+z
x,-y,1/2+z
loop_
_atom_site_type_symbol
_atom_site_label
_atom_site_fract_x
_atom_site_fract_y
_atom_site_fract_z
Si Si1 0.616378 0.910799 0.435537
Si Si2 0.811619 0.252121 0.436257
Si Si3 0.119089 0.408959 0.936377
Si Si4 0.311619 0.252121 0.936257
Si Si5 0.119089 0.591041 0.063623
Si Si6 0.500000 0.654958 0.937970
Si Si7 0.383622 0.910799 0.435537
Si Si8 0.500000 0.852262 0.563762
O O1 0.654328 0.831693 0.482424
O O2 0.614303 0.914112 0.250000
O O3 0.555162 0.894528 0.499914
O O4 0.637135 0.000000 0.500000
O O5 0.842666 0.333949 0.502358
O O6 0.750000 0.248064 0.500000
O O7 0.810882 0.256651 0.250000
O O8 0.120188 0.409356 0.750000
O O9 0.056311 0.389182 0.989692
O O10 0.136145 0.500000 1.000000
O O11 0.345672 0.168307 0.982424
O O12 0.342666 0.333949 0.002358
O O13 0.056311 0.610818 0.010308
O O14 0.500000 0.653444 0.750000
O O15 0.500000 0.753386 0.984055
O O16 0.444838 0.894528 0.499914
O O17 0.500000 0.856656 0.750000
#
# Coordination Sequence:
#
# PCOD9423982 Si02
#       8
#     8   8   8   8   8   8   8   8
#     4  11  24  41  63  93 126 162 204 251 307 366
#     4  11  25  44  65  90 120 160 208 258 308 361
#     4  11  22  40  64  94 128 163 204 249 304 364
#     4  11  25  44  65  90 120 160 208 258 308 361
#     4  11  22  40  64  94 128 163 204 249 304 364
#     4   9  19  35  61  93 125 163 199 242 302 363
#     4  11  24  41  63  93 126 162 204 251 307 366
#     4  11  20  37  64  93 126 164 204 247 304 365
#
# _framework density 19.311392000000001
#
# number of rings (size 3 to 8) (size 9 to 14) (size 15 to 20)
#    0.000    1.250    2.500    3.375    0.000    4.000 
#    0.000    6.875    0.000    0.000    0.000    0.000 
#    0.000    0.000    0.000    0.000    0.000    0.000 
#
# Total GULP energy -357969.603029 kJ/mol
# GULP energy per Si atom -5593.275047 kJ/mol
# Density = 1.926744 g / cm^3
# Si number density = 19.311392 Si / 1000 Ang^3
#
#
#
# Elastic Constant Matrix: (Units=GPa)
#
#
# Indices 1 2 3 4 5 6 
#
# 1 154.6867 87.9667 46.3268 0.0000 0.0000 0.0000
# 2 87.9667 204.4715 57.7849 0.0000 0.0000 0.0000
# 3 46.3268 57.7849 63.2110 0.0000 0.0000 0.0000
# 4 0.0000 0.0000 0.0000 31.2825 0.0000 0.0000
# 5 0.0000 0.0000 0.0000 0.0000 14.3350 0.0000
# 6 0.0000 0.0000 0.0000 0.0000 0.0000 -6.8894
#
#
#
# Elastic Compliance Matrix: (Units=1/GPa)
#
#
# Indices 1 2 3 4 5 6 
#
# 1 0.009345 -0.002811 -0.004279 0.000000 0.000000 0.000000
# 2 -0.002811 0.007440 -0.004741 0.000000 0.000000 0.000000
# 3 -0.004279 -0.004741 0.023290 0.000000 0.000000 0.000000
# 4 0.000000 0.000000 0.000000 0.031967 0.000000 0.000000
# 5 0.000000 0.000000 0.000000 0.000000 0.069760 0.000000
# 6 0.000000 0.000000 0.000000 0.000000 0.000000 -0.145151
#
#
# Mechanical properties :
#
#
# Convention : Reuss Voigt Hill
#
# Bulk Modulus (GPa) = 60.92858 89.61400 75.27129
# Shear Modulus (GPa) = 193.92429 23.09833 108.51131
#
# Velocity S-wave (km/s) = 10.03183 3.46222 7.50415
# Velocity P-wave (km/s) = 12.87644 7.90494 10.68388
#
# Compressibility (1/GPa) = 0.01641266
#
# Stress axis : x y z
#
# Youngs Moduli (GPa) = 107.01232 134.41173 42.93664
#
# Poissons Ratio (x) = 0.37783 0.18373
# Poissons Ratio (y) = 0.30081 0.20356
# Poissons Ratio (z) = 0.45791 0.63725
#
# Static dielectric constant tensor:
#      x y z
#    x 1.643580 0.000000 0.000000 
#    y 0.000000 1.664670 0.000000 
#    z 0.000000 0.000000 1.645770 
# 
# From -- ./inp_files/5303.got.cif
#   From: 2010.05.17/outbox.cif.g08.bks.cpg/sg54_3_cif.got.tgz:5303.got - 2010.06.03 13:09:01.
