data_PCOD9423012
_publ_section_title
;
Structure prediction by ZEFSAII (Michael W. Deem and Ramdas Pophale) SiO2 
 PCOD9423012
Probable space group: P C C A
;
_chemical_formula_sum "Si O2"
_cell_formula_units_Z 52
_cell_length_a 13.515919
_cell_length_b 8.500048
_cell_length_c 22.211552
_cell_angle_alpha 90.000000
_cell_angle_beta 90.000000
_cell_angle_gamma 90.000000
_cell_volume 2551.795480
_symmetry_space_group_name_H-M "P C C A"
_symmetry_group_IT_number 54
_symmetry_cell_setting 'orthorhombic'
loop_
_space_group_symop_operation_xyz
x,y,z
1/2-x,-y,z
1/2+x,-y,1/2-z
-x,y,1/2-z
-x,-y,-z
1/2+x,y,-z
1/2-x,y,1/2+z
x,-y,1/2+z
loop_
_atom_site_type_symbol
_atom_site_label
_atom_site_fract_x
_atom_site_fract_y
_atom_site_fract_z
Si Si1 0.250000 0.000000 0.161914
Si Si2 0.153189 0.105107 0.377404
Si Si3 0.747734 0.318111 0.023462
Si Si4 0.687574 0.257295 0.744930
Si Si5 0.359497 0.732027 0.596377
Si Si6 0.390268 0.403545 0.227127
Si Si7 0.454544 0.873292 0.953688
O O1 0.191834 0.121144 0.205104
O O2 0.323170 0.098688 0.120138
O O3 0.178038 0.218213 0.433927
O O4 0.139148 0.200121 0.316685
O O5 0.250000 0.000000 0.366478
O O6 0.070771 0.980824 0.396003
O O7 0.750000 0.500000 0.044708
O O8 0.644417 0.221134 0.027173
O O9 0.782659 0.320531 0.954308
O O10 0.631026 0.412730 0.765076
O O11 0.803437 0.309207 0.737466
O O12 0.371933 0.632892 0.656903
O O13 0.463462 0.747372 0.563293
O O14 0.500000 0.362328 0.250000
O O15 0.500000 0.000000 0.000000
#
# Coordination Sequence:
#
# PCOD9423012 Si02
#       7
#     4   8   8   8   8   8   8
#     4  10  22  40  68  94 128 180 216 274 338 394
#     4  10  22  41  68  93 128 173 225 272 335 395
#     4  11  26  42  67  97 135 180 218 276 352 400
#     4  10  22  43  65  94 132 175 220 274 335 398
#     4  11  24  43  67  99 138 170 226 278 332 408
#     4  10  25  41  64  96 136 175 219 272 337 394
#     4  11  23  44  67 101 134 175 226 280 334 407
#
# _framework density 20.377808000000002
#
# number of rings (size 3 to 8) (size 9 to 14) (size 15 to 20)
#    0.000    1.538    2.308    0.923   11.846    1.846 
#    2.769    0.769    0.000    0.000    0.000    0.000 
#    0.000    0.000    0.000    0.000    0.000    0.000 
#
# Total GULP energy -290352.358853 kJ/mol
# GULP energy per Si atom -5583.699209 kJ/mol
# Density = 2.033143 g / cm^3
# Si number density = 20.377808 Si / 1000 Ang^3
#
#
#
# Elastic Constant Matrix: (Units=GPa)
#
#
# Indices 1 2 3 4 5 6 
#
# 1 79.3698 11.7419 23.0379 0.0000 0.0000 0.0000
# 2 11.7419 88.6049 12.5993 0.0000 0.0000 0.0000
# 3 23.0379 12.5993 65.2504 0.0000 0.0000 0.0000
# 4 0.0000 0.0000 0.0000 14.1786 0.0000 0.0000
# 5 0.0000 0.0000 0.0000 0.0000 22.7369 0.0000
# 6 0.0000 0.0000 0.0000 0.0000 0.0000 8.8743
#
#
#
# Elastic Compliance Matrix: (Units=1/GPa)
#
#
# Indices 1 2 3 4 5 6 
#
# 1 0.014161 -0.001199 -0.004768 0.000000 0.000000 0.000000
# 2 -0.001199 0.011706 -0.001837 0.000000 0.000000 0.000000
# 3 -0.004768 -0.001837 0.017364 0.000000 0.000000 0.000000
# 4 0.000000 0.000000 0.000000 0.070529 0.000000 0.000000
# 5 0.000000 0.000000 0.000000 0.000000 0.043981 0.000000
# 6 0.000000 0.000000 0.000000 0.000000 0.000000 0.112685
#
#
# Mechanical properties :
#
#
# Convention : Reuss Voigt Hill
#
# Bulk Modulus (GPa) = 36.20219 36.44259 36.32239
# Shear Modulus (GPa) = 16.93531 21.54770 19.24151
#
# Velocity S-wave (km/s) = 2.88595 3.25531 3.07618
# Velocity P-wave (km/s) = 5.37671 5.66142 5.52090
#
# Compressibility (1/GPa) = 0.02762264
#
# Stress axis : x y z
#
# Youngs Moduli (GPa) = 70.61855 85.42535 57.59097
#
# Poissons Ratio (x) = 0.10238 0.27461
# Poissons Ratio (y) = 0.08464 0.10581
# Poissons Ratio (z) = 0.33673 0.15694
#
# Static dielectric constant tensor:
#      x y z
#    x 1.778530 0.000000 0.000000 
#    y 0.000000 1.733430 0.000000 
#    z 0.000000 0.000000 1.721650 
# 
# From -- ./inp_files/21528.got.cif
#   From: 2010.05.17/outbox.cif.g08.bks.cpg/sg54_11_cif.got.tgz:21528.got - 2010.06.03 13:09:01.
