data_PCOD9423014
_publ_section_title
;
Structure prediction by ZEFSAII (Michael W. Deem and Ramdas Pophale) SiO2 
 PCOD9423014
Probable space group: P C C A
;
_chemical_formula_sum "Si O2"
_cell_formula_units_Z 48
_cell_length_a 23.891079
_cell_length_b 5.330298
_cell_length_c 18.396167
_cell_angle_alpha 90.000000
_cell_angle_beta 90.000000
_cell_angle_gamma 90.000000
_cell_volume 2342.688780
_symmetry_space_group_name_H-M "P C C A"
_symmetry_group_IT_number 54
_symmetry_cell_setting 'orthorhombic'
loop_
_space_group_symop_operation_xyz
x,y,z
1/2-x,-y,z
1/2+x,-y,1/2-z
-x,y,1/2-z
-x,-y,-z
1/2+x,y,-z
1/2-x,y,1/2+z
x,-y,1/2+z
loop_
_atom_site_type_symbol
_atom_site_label
_atom_site_fract_x
_atom_site_fract_y
_atom_site_fract_z
Si Si1 0.438045 0.743501 0.871501
Si Si2 0.128699 0.946296 0.491098
Si Si3 0.543203 0.671177 0.954487
Si Si4 0.750000 0.000000 0.495412
Si Si5 0.250000 0.500000 0.602654
Si Si6 0.437088 0.229101 0.779709
Si Si7 0.369478 0.653306 0.136825
O O1 0.500063 0.812131 0.901194
O O2 0.438177 0.483116 0.827985
O O3 0.420150 0.980483 0.823476
O O4 0.396931 0.730256 0.940804
O O5 0.135849 0.870026 0.575601
O O6 0.081042 0.157816 0.493705
O O7 0.190817 0.003464 0.463152
O O8 0.585880 0.527156 0.902385
O O9 0.500000 0.500000 0.000000
O O10 0.753202 0.747429 0.447365
O O11 0.191554 0.528391 0.645039
O O12 0.500000 0.193358 0.750000
O O13 0.395452 0.262610 0.712192
#
# Coordination Sequence:
#
# PCOD9423014 Si02
#       7
#     8   8   8   4   4   8   8
#     4  12  26  41  63  97 137 169 211 264 341 393
#     4  11  24  42  68  96 130 171 226 272 330 389
#     4  12  22  40  65 103 131 170 217 281 332 401
#     4  10  22  40  68  96 128 166 224 280 324 382
#     4  10  22  42  66  98 126 170 228 278 320 384
#     4  12  26  42  61  95 134 174 209 265 331 399
#     4  11  24  42  69  95 132 175 225 273 328 392
#
# _framework density 20.489276
#
# number of rings (size 3 to 8) (size 9 to 14) (size 15 to 20)
#    0.000    0.667    5.000    3.000    2.333    0.000 
#    0.000    1.667    0.000    0.000    0.000    0.000 
#    0.000    0.000    0.000    0.000    0.000    0.000 
#
# Total GULP energy -268115.900374 kJ/mol
# GULP energy per Si atom -5585.747924 kJ/mol
# Density = 2.044264 g / cm^3
# Si number density = 20.489276 Si / 1000 Ang^3
#
#
#
# Elastic Constant Matrix: (Units=GPa)
#
#
# Indices 1 2 3 4 5 6 
#
# 1 160.5348 14.2337 33.7719 0.0000 0.0000 0.0000
# 2 14.2337 84.4700 23.7007 0.0000 0.0000 0.0000
# 3 33.7719 23.7007 75.3191 0.0000 0.0000 0.0000
# 4 0.0000 0.0000 0.0000 26.6998 0.0000 0.0000
# 5 0.0000 0.0000 0.0000 0.0000 8.0348 0.0000
# 6 0.0000 0.0000 0.0000 0.0000 0.0000 23.2651
#
#
#
# Elastic Compliance Matrix: (Units=1/GPa)
#
#
# Indices 1 2 3 4 5 6 
#
# 1 0.006886 -0.000322 -0.002986 0.000000 0.000000 0.000000
# 2 -0.000322 0.013000 -0.003946 0.000000 0.000000 0.000000
# 3 -0.002986 -0.003946 0.015857 0.000000 0.000000 0.000000
# 4 0.000000 0.000000 0.000000 0.037454 0.000000 0.000000
# 5 0.000000 0.000000 0.000000 0.000000 0.124458 0.000000
# 6 0.000000 0.000000 0.000000 0.000000 0.000000 0.042983
#
#
# Mechanical properties :
#
#
# Convention : Reuss Voigt Hill
#
# Bulk Modulus (GPa) = 47.09404 51.52629 49.31016
# Shear Modulus (GPa) = 19.06757 28.17445 23.62101
#
# Velocity S-wave (km/s) = 3.05390 3.71223 3.39904
# Velocity P-wave (km/s) = 5.95565 6.60127 6.28675
#
# Compressibility (1/GPa) = 0.02123411
#
# Stress axis : x y z
#
# Youngs Moduli (GPa) = 145.22312 76.92263 63.06172
#
# Poissons Ratio (x) = 0.02481 0.18831
# Poissons Ratio (y) = 0.04683 0.24885
# Poissons Ratio (z) = 0.43365 0.30355
#
# Static dielectric constant tensor:
#      x y z
#    x 1.690350 0.000000 0.000000 
#    y 0.000000 1.804210 0.000000 
#    z 0.000000 0.000000 1.769900 
# 
# From -- ./inp_files/19097.got.cif
#   From: 2010.05.17/outbox.cif.g08.bks.cpg/sg54_10_cif.got.tgz:19097.got - 2010.06.03 13:09:01.
