data_PCOD9423405
_publ_section_title
;
Structure prediction by ZEFSAII (Michael W. Deem and Ramdas Pophale) SiO2 
 PCOD9423405
Probable space group: P C C A
;
_chemical_formula_sum "Si O2"
_cell_formula_units_Z 40
_cell_length_a 9.492094
_cell_length_b 15.143669
_cell_length_c 14.308436
_cell_angle_alpha 90.000000
_cell_angle_beta 90.000000
_cell_angle_gamma 90.000000
_cell_volume 2056.767988
_symmetry_space_group_name_H-M "P C C A"
_symmetry_group_IT_number 54
_symmetry_cell_setting 'orthorhombic'
loop_
_space_group_symop_operation_xyz
x,y,z
1/2-x,-y,z
1/2+x,-y,1/2-z
-x,y,1/2-z
-x,-y,-z
1/2+x,y,-z
1/2-x,y,1/2+z
x,-y,1/2+z
loop_
_atom_site_type_symbol
_atom_site_label
_atom_site_fract_x
_atom_site_fract_y
_atom_site_fract_z
Si Si1 0.420573 0.495943 0.848904
Si Si2 0.836230 0.087187 0.353809
Si Si3 0.663704 0.911390 0.130298
Si Si4 0.780024 0.765481 0.992533
Si Si5 0.967947 0.642551 0.490863
O O1 0.250000 0.500000 0.839139
O O2 0.500000 0.493573 0.750000
O O3 0.474368 0.579549 0.909426
O O4 0.464803 0.412023 0.912483
O O5 0.827889 0.098649 0.242370
O O6 0.771872 0.171712 0.403507
O O7 0.997342 0.077740 0.387828
O O8 0.750000 0.000000 0.378491
O O9 0.750000 0.000000 0.104859
O O10 0.725832 0.826172 0.077785
O O11 0.689022 0.677795 0.976758
O O12 0.936970 0.729849 0.005895
#
# Coordination Sequence:
#
# PCOD9423405 Si02
#       5
#     8   8   8   8   8
#     4  11  26  46  70  95 129 170 206 258 326 387
#     4  10  23  41  62  88 127 173 212 258 315 373
#     4  10  23  41  61  90 128 168 215 259 313 377
#     4  12  23  41  66  94 126 168 210 269 313 368
#     4  11  26  44  65  96 131 160 216 264 315 384
#
# _framework density 19.447987999999999
#
# number of rings (size 3 to 8) (size 9 to 14) (size 15 to 20)
#    0.000    1.200    4.000    0.600    5.600    4.800 
#    0.000    0.000    0.000    0.000    0.000    0.000 
#    0.000    0.000    0.000    0.000    0.000    0.000 
#
# Total GULP energy -223479.579929 kJ/mol
# GULP energy per Si atom -5586.989498 kJ/mol
# Density = 1.940372 g / cm^3
# Si number density = 19.447988 Si / 1000 Ang^3
#
#
#
# Elastic Constant Matrix: (Units=GPa)
#
#
# Indices 1 2 3 4 5 6 
#
# 1 62.8425 14.7640 49.5088 0.0000 0.0000 0.0000
# 2 14.7640 89.9344 49.3477 0.0000 0.0000 0.0000
# 3 49.5088 49.3477 112.9544 0.0000 0.0000 0.0000
# 4 0.0000 0.0000 0.0000 34.3611 0.0000 0.0000
# 5 0.0000 0.0000 0.0000 0.0000 42.3172 0.0000
# 6 0.0000 0.0000 0.0000 0.0000 0.0000 49.0321
#
#
#
# Elastic Compliance Matrix: (Units=1/GPa)
#
#
# Indices 1 2 3 4 5 6 
#
# 1 0.024720 0.002482 -0.011919 0.000000 0.000000 0.000000
# 2 0.002482 0.014874 -0.007586 0.000000 0.000000 0.000000
# 3 -0.011919 -0.007586 0.017392 0.000000 0.000000 0.000000
# 4 0.000000 0.000000 0.000000 0.029103 0.000000 0.000000
# 5 0.000000 0.000000 0.000000 0.000000 0.023631 0.000000
# 6 0.000000 0.000000 0.000000 0.000000 0.000000 0.020395
#
#
# Mechanical properties :
#
#
# Convention : Reuss Voigt Hill
#
# Bulk Modulus (GPa) = 43.59364 54.77469 49.18417
# Shear Modulus (GPa) = 29.10224 35.28282 32.19253
#
# Velocity S-wave (km/s) = 3.87255 4.26398 4.07297
# Velocity P-wave (km/s) = 6.51611 7.24347 6.88940
#
# Compressibility (1/GPa) = 0.02293912
#
# Stress axis : x y z
#
# Youngs Moduli (GPa) = 40.45304 67.22969 57.49839
#
# Poissons Ratio (x) = -0.16687 0.68534
# Poissons Ratio (y) = -0.10041 0.43620
# Poissons Ratio (z) = 0.48217 0.51002
#
# Static dielectric constant tensor:
#      x y z
#    x 1.665320 0.000000 0.000000 
#    y 0.000000 6.929160 0.000000 
#    z 0.000000 0.000000 1.651330 
# 
# From -- ./inp_files/11457.got.cif
#   From: 2010.05.17/outbox.cif.g08.bks.cpg/sg54_6_cif.got.tgz:11457.got - 2010.06.03 13:09:01.
