data_PCOD9423681
_publ_section_title
;
Structure prediction by ZEFSAII (Michael W. Deem and Ramdas Pophale) SiO2 
 PCOD9423681
Probable space group: P C C A
;
_chemical_formula_sum "Si O2"
_cell_formula_units_Z 32
_cell_length_a 8.307590
_cell_length_b 10.539397
_cell_length_c 16.386177
_cell_angle_alpha 90.000000
_cell_angle_beta 90.000000
_cell_angle_gamma 90.000000
_cell_volume 1434.724321
_symmetry_space_group_name_H-M "P C C A"
_symmetry_group_IT_number 54
_symmetry_cell_setting 'orthorhombic'
loop_
_space_group_symop_operation_xyz
x,y,z
1/2-x,-y,z
1/2+x,-y,1/2-z
-x,y,1/2-z
-x,-y,-z
1/2+x,y,-z
1/2-x,y,1/2+z
x,-y,1/2+z
loop_
_atom_site_type_symbol
_atom_site_label
_atom_site_fract_x
_atom_site_fract_y
_atom_site_fract_z
Si Si1 0.500000 0.179820 0.250000
Si Si2 0.050932 0.318317 0.587637
Si Si3 0.071208 0.445238 0.340058
Si Si4 0.086078 0.222995 0.080071
Si Si5 0.750000 0.000000 0.332771
O O1 0.472433 0.264843 0.329390
O O2 0.649891 0.093854 0.275720
O O3 0.240453 0.290714 0.588917
O O4 0.021413 0.468033 0.593685
O O5 0.974563 0.244203 0.511701
O O6 0.250000 0.500000 0.341326
O O7 0.000000 0.461598 0.250000
O O8 0.042604 0.299590 0.365233
O O9 0.126075 0.081409 0.111386
#
# Coordination Sequence:
#
# PCOD9423681 Si02
#       5
#     4   8   8   8   4
#     4  10  24  42  68  90 142 178 242 296 354 428
#     4  11  23  45  66 102 138 183 232 300 363 426
#     4  12  25  42  72 106 141 183 233 303 370 433
#     4  11  25  43  70 101 144 184 243 294 362 434
#     4  10  26  44  66 106 134 198 244 290 354 434
#
# _framework density 22.303936
#
# number of rings (size 3 to 8) (size 9 to 14) (size 15 to 20)
#    0.000    1.000    1.250    4.500    5.250    7.000 
#    0.000    0.000    0.000    0.000    0.000    0.000 
#    0.000    0.000    0.000    0.000    0.000    0.000 
#
# Total GULP energy -178966.566569 kJ/mol
# GULP energy per Si atom -5592.705205 kJ/mol
# Density = 2.225317 g / cm^3
# Si number density = 22.303936 Si / 1000 Ang^3
#
#
#
# Elastic Constant Matrix: (Units=GPa)
#
#
# Indices 1 2 3 4 5 6 
#
# 1 85.9900 29.8557 37.7592 0.0000 0.0000 0.0000
# 2 29.8557 102.3923 39.5222 0.0000 0.0000 0.0000
# 3 37.7592 39.5222 148.1577 0.0000 0.0000 0.0000
# 4 0.0000 0.0000 0.0000 12.7803 0.0000 0.0000
# 5 0.0000 0.0000 0.0000 0.0000 24.8975 0.0000
# 6 0.0000 0.0000 0.0000 0.0000 0.0000 38.7979
#
#
#
# Elastic Compliance Matrix: (Units=1/GPa)
#
#
# Indices 1 2 3 4 5 6 
#
# 1 0.013869 -0.002987 -0.002738 0.000000 0.000000 0.000000
# 2 -0.002987 0.011531 -0.002315 0.000000 0.000000 0.000000
# 3 -0.002738 -0.002315 0.008065 0.000000 0.000000 0.000000
# 4 0.000000 0.000000 0.000000 0.078245 0.000000 0.000000
# 5 0.000000 0.000000 0.000000 0.000000 0.040165 0.000000
# 6 0.000000 0.000000 0.000000 0.000000 0.000000 0.025775
#
#
# Mechanical properties :
#
#
# Convention : Reuss Voigt Hill
#
# Bulk Modulus (GPa) = 57.52014 61.20156 59.36085
# Shear Modulus (GPa) = 25.05983 30.58867 27.82425
#
# Velocity S-wave (km/s) = 3.35559 3.70732 3.53583
# Velocity P-wave (km/s) = 6.39207 6.76942 6.58345
#
# Compressibility (1/GPa) = 0.01738522
#
# Stress axis : x y z
#
# Youngs Moduli (GPa) = 72.10571 86.72453 123.99675
#
# Poissons Ratio (x) = 0.25905 0.33946
# Poissons Ratio (y) = 0.21539 0.28701
# Poissons Ratio (z) = 0.19740 0.20074
#
# Static dielectric constant tensor:
#      x y z
#    x 1.769570 0.000000 0.000000 
#    y 0.000000 1.898320 0.000000 
#    z 0.000000 0.000000 1.796870 
# 
# From -- ./inp_files/11253.got.cif
#   From: 2010.05.17/outbox.cif.g08.bks.cpg/sg54_6_cif.got.tgz:11253.got - 2010.06.03 13:09:01.
