data_PCOD9423205
_publ_section_title
;
Structure prediction by ZEFSAII (Michael W. Deem and Ramdas Pophale) SiO2 
 PCOD9423205
Probable space group: P C C A
;
_chemical_formula_sum "Si O2"
_cell_formula_units_Z 56
_cell_length_a 20.866231
_cell_length_b 6.861029
_cell_length_c 19.267540
_cell_angle_alpha 90.000000
_cell_angle_beta 90.000000
_cell_angle_gamma 90.000000
_cell_volume 2758.414552
_symmetry_space_group_name_H-M "P C C A"
_symmetry_group_IT_number 54
_symmetry_cell_setting 'orthorhombic'
loop_
_space_group_symop_operation_xyz
x,y,z
1/2-x,-y,z
1/2+x,-y,1/2-z
-x,y,1/2-z
-x,-y,-z
1/2+x,y,-z
1/2-x,y,1/2+z
x,-y,1/2+z
loop_
_atom_site_type_symbol
_atom_site_label
_atom_site_fract_x
_atom_site_fract_y
_atom_site_fract_z
Si Si1 0.319286 0.415415 0.982206
Si Si2 0.988561 0.382600 0.070835
Si Si3 0.398007 0.685407 0.882250
Si Si4 0.612505 0.941296 0.021031
Si Si5 0.172068 0.524922 0.639398
Si Si6 0.075724 0.251983 0.730721
Si Si7 0.903294 0.891323 0.868878
O O1 0.250000 0.500000 0.986255
O O2 0.346076 0.465812 0.059328
O O3 0.351286 0.530837 0.918886
O O4 0.323080 0.184558 0.969951
O O5 0.961952 0.554820 0.118583
O O6 0.939856 0.214354 0.046273
O O7 0.042487 0.266148 0.111537
O O8 0.000000 0.500000 0.000000
O O9 0.388444 0.759479 0.805032
O O10 0.397818 0.866786 0.934241
O O11 0.607246 0.994745 0.940753
O O12 0.250000 0.500000 0.649360
O O13 0.121813 0.401715 0.687068
O O14 0.156780 0.754095 0.649312
O O15 0.000000 0.290981 0.750000
O O16 0.077804 0.047360 0.689105
#
# Coordination Sequence:
#
# PCOD9423205 Si02
#       7
#     8   8   8   8   8   8   8
#     4  10  22  43  70 101 135 185 242 291 346 419
#     4  11  22  36  70  98 134 174 224 283 350 413
#     4  11  24  42  65 102 136 176 227 292 346 417
#     4  11  21  39  67 100 131 177 234 284 339 414
#     4  11  25  48  72  99 140 193 243 293 361 441
#     4  12  28  44  68 105 152 185 237 300 369 437
#     4  12  23  41  69 102 136 186 234 291 355 431
#
# _framework density 20.301515999999999
#
# number of rings (size 3 to 8) (size 9 to 14) (size 15 to 20)
#    0.000    0.857    4.286    3.000    2.000    5.714 
#    0.000    1.429    0.000    0.000    0.000    0.000 
#    0.000    0.000    0.000    0.000    0.000    0.000 
#
# Total GULP energy -312084.540929 kJ/mol
# GULP energy per Si atom -5572.938231 kJ/mol
# Density = 2.025531 g / cm^3
# Si number density = 20.301516 Si / 1000 Ang^3
#
#
#
# Elastic Constant Matrix: (Units=GPa)
#
#
# Indices 1 2 3 4 5 6 
#
# 1 87.1794 47.2315 45.7317 0.0000 0.0000 0.0000
# 2 47.2315 144.5485 59.5348 0.0000 0.0000 0.0000
# 3 45.7317 59.5348 149.9394 0.0000 0.0000 0.0000
# 4 0.0000 0.0000 0.0000 34.2636 0.0000 0.0000
# 5 0.0000 0.0000 0.0000 0.0000 20.5973 0.0000
# 6 0.0000 0.0000 0.0000 0.0000 0.0000 21.3343
#
#
#
# Elastic Compliance Matrix: (Units=1/GPa)
#
#
# Indices 1 2 3 4 5 6 
#
# 1 0.015097 -0.003630 -0.003163 0.000000 0.000000 0.000000
# 2 -0.003630 0.009144 -0.002523 0.000000 0.000000 0.000000
# 3 -0.003163 -0.002523 0.008636 0.000000 0.000000 0.000000
# 4 0.000000 0.000000 0.000000 0.029185 0.000000 0.000000
# 5 0.000000 0.000000 0.000000 0.000000 0.048550 0.000000
# 6 0.000000 0.000000 0.000000 0.000000 0.000000 0.046873
#
#
# Mechanical properties :
#
#
# Convention : Reuss Voigt Hill
#
# Bulk Modulus (GPa) = 70.20962 76.29592 73.25277
# Shear Modulus (GPa) = 27.64491 30.51700 29.08096
#
# Velocity S-wave (km/s) = 3.69415 3.88130 3.78888
# Velocity P-wave (km/s) = 7.27009 7.59928 7.43650
#
# Compressibility (1/GPa) = 0.01424306
#
# Stress axis : x y z
#
# Youngs Moduli (GPa) = 66.24034 109.36730 115.79384
#
# Poissons Ratio (x) = 0.39701 0.36627
# Poissons Ratio (y) = 0.24045 0.29219
# Poissons Ratio (z) = 0.20953 0.27597
#
# Static dielectric constant tensor:
#      x y z
#    x 1.657430 0.000000 0.000000 
#    y 0.000000 2.251730 0.000000 
#    z 0.000000 0.000000 1.755880 
# 
# From -- ./inp_files/22289.got.cif
#   From: 2010.05.17/outbox.cif.g08.bks.cpg/sg54_12_cif.got.tgz:22289.got - 2010.06.03 13:09:01.
