data_PCOD9423650
_publ_section_title
;
Structure prediction by ZEFSAII (Michael W. Deem and Ramdas Pophale) SiO2 
 PCOD9423650
Probable space group: P C C A
;
_chemical_formula_sum "Si O2"
_cell_formula_units_Z 32
_cell_length_a 18.853045
_cell_length_b 5.082646
_cell_length_c 13.771938
_cell_angle_alpha 90.000000
_cell_angle_beta 90.000000
_cell_angle_gamma 90.000000
_cell_volume 1319.673287
_symmetry_space_group_name_H-M "P C C A"
_symmetry_group_IT_number 54
_symmetry_cell_setting 'orthorhombic'
loop_
_space_group_symop_operation_xyz
x,y,z
1/2-x,-y,z
1/2+x,-y,1/2-z
-x,y,1/2-z
-x,-y,-z
1/2+x,y,-z
1/2-x,y,1/2+z
x,-y,1/2+z
loop_
_atom_site_type_symbol
_atom_site_label
_atom_site_fract_x
_atom_site_fract_y
_atom_site_fract_z
Si Si1 0.962063 0.628459 0.090863
Si Si2 0.825933 0.585104 0.543264
Si Si3 0.123672 0.376485 0.258851
Si Si4 0.896727 0.120793 0.868577
O O1 0.880913 0.662038 0.055776
O O2 0.947225 0.418112 0.175752
O O3 0.017380 0.847665 0.123758
O O4 0.000000 0.500000 0.000000
O O5 0.750000 0.500000 0.506255
O O6 0.820998 0.685369 0.654767
O O7 0.862062 0.790455 0.470105
O O8 0.130733 0.657181 0.206761
O O9 0.121085 0.158186 0.176847
#
# Coordination Sequence:
#
# PCOD9423650 Si02
#       4
#     8   8   8   8
#     4   8  19  42  70 105 141 185 241 300 361 426
#     4   9  22  47  72 103 149 194 246 303 367 445
#     4  10  24  41  74 102 145 185 240 309 366 430
#     4  11  22  45  73 107 139 191 244 304 369 430
#
# _framework density 24.248422999999999
#
# number of rings (size 3 to 8) (size 9 to 14) (size 15 to 20)
#    1.500    1.000    0.000    0.750    0.000    7.000 
#    0.000   12.500    5.500    0.000    0.000    0.000 
#    0.000    0.000    0.000    0.000    0.000    0.000 
#
# Total GULP energy -178404.522110 kJ/mol
# GULP energy per Si atom -5575.141316 kJ/mol
# Density = 2.419323 g / cm^3
# Si number density = 24.248423 Si / 1000 Ang^3
#
#
#
# Elastic Constant Matrix: (Units=GPa)
#
#
# Indices 1 2 3 4 5 6 
#
# 1 124.4301 16.7092 10.3681 0.0000 0.0000 0.0000
# 2 16.7092 66.9558 17.0585 0.0000 0.0000 0.0000
# 3 10.3681 17.0585 112.9587 0.0000 0.0000 0.0000
# 4 0.0000 0.0000 0.0000 4.6692 0.0000 0.0000
# 5 0.0000 0.0000 0.0000 0.0000 22.3900 0.0000
# 6 0.0000 0.0000 0.0000 0.0000 0.0000 5.7786
#
#
#
# Elastic Compliance Matrix: (Units=1/GPa)
#
#
# Indices 1 2 3 4 5 6 
#
# 1 0.008339 -0.001962 -0.000469 0.000000 0.000000 0.000000
# 2 -0.001962 0.015994 -0.002235 0.000000 0.000000 0.000000
# 3 -0.000469 -0.002235 0.009233 0.000000 0.000000 0.000000
# 4 0.000000 0.000000 0.000000 0.214169 0.000000 0.000000
# 5 0.000000 0.000000 0.000000 0.000000 0.044663 0.000000
# 6 0.000000 0.000000 0.000000 0.000000 0.000000 0.173052
#
#
# Mechanical properties :
#
#
# Convention : Reuss Voigt Hill
#
# Bulk Modulus (GPa) = 41.26321 43.62403 42.44362
# Shear Modulus (GPa) = 10.35494 23.91481 17.13487
#
# Velocity S-wave (km/s) = 2.06873 3.14386 2.66115
# Velocity P-wave (km/s) = 4.77074 5.58641 5.19461
#
# Compressibility (1/GPa) = 0.02423466
#
# Stress axis : x y z
#
# Youngs Moduli (GPa) = 119.91640 62.52252 108.30213
#
# Poissons Ratio (x) = 0.12264 0.05082
# Poissons Ratio (y) = 0.23522 0.24209
# Poissons Ratio (z) = 0.05626 0.13976
#
# Static dielectric constant tensor:
#      x y z
#    x 2.099280 0.000000 0.000000 
#    y 0.000000 2.045410 0.000000 
#    z 0.000000 0.000000 2.115570 
# 
# From -- ./inp_files/13726.got.cif
#   From: 2010.05.17/outbox.cif.g08.bks.cpg/sg54_7_cif.got.tgz:13726.got - 2010.06.03 13:09:01.
