data_PCOD9423103
_publ_section_title
;
Structure prediction by ZEFSAII (Michael W. Deem and Ramdas Pophale) SiO2 
 PCOD9423103
Probable space group: P C C A
;
_chemical_formula_sum "Si O2"
_cell_formula_units_Z 48
_cell_length_a 9.618625
_cell_length_b 7.329780
_cell_length_c 29.038481
_cell_angle_alpha 90.000000
_cell_angle_beta 90.000000
_cell_angle_gamma 90.000000
_cell_volume 2047.282752
_symmetry_space_group_name_H-M "P C C A"
_symmetry_group_IT_number 54
_symmetry_cell_setting 'orthorhombic'
loop_
_space_group_symop_operation_xyz
x,y,z
1/2-x,-y,z
1/2+x,-y,1/2-z
-x,y,1/2-z
-x,-y,-z
1/2+x,y,-z
1/2-x,y,1/2+z
x,-y,1/2+z
loop_
_atom_site_type_symbol
_atom_site_label
_atom_site_fract_x
_atom_site_fract_y
_atom_site_fract_z
Si Si1 0.912388 0.975524 0.792475
Si Si2 0.017330 0.702832 0.454310
Si Si3 0.397220 0.438734 0.876384
Si Si4 0.913051 0.458880 0.293662
Si Si5 0.501449 0.948521 0.391596
Si Si6 0.792592 0.799834 0.963078
O O1 0.933398 0.758674 0.793648
O O2 0.959453 0.038894 0.842930
O O3 0.000000 0.051356 0.750000
O O4 0.750000 0.000000 0.785229
O O5 0.078973 0.539531 0.424531
O O6 0.094249 0.716744 0.502875
O O7 0.850468 0.690808 0.458679
O O8 0.041995 0.893879 0.426825
O O9 0.250000 0.500000 0.856373
O O10 0.517480 0.508657 0.842179
O O11 0.397935 0.220152 0.883209
O O12 0.750000 0.500000 0.290816
O O13 0.000000 0.530770 0.250000
O O14 0.634864 0.845675 0.414301
O O15 0.750000 0.000000 0.982091
#
# Coordination Sequence:
#
# PCOD9423103 Si02
#       6
#     8   8   8   8   8   8
#     4  10  22  42  64 100 133 168 220 269 322 399
#     4  11  25  44  70  95 133 181 218 287 339 398
#     4  11  27  43  66 102 135 175 232 274 335 399
#     4  10  23  44  71  97 139 174 219 276 330 399
#     4  10  23  45  69  93 136 175 223 274 332 405
#     4  10  22  42  69  97 129 173 233 269 343 402
#
# _framework density 23.445713000000001
#
# number of rings (size 3 to 8) (size 9 to 14) (size 15 to 20)
#    0.000    1.667    0.000    4.000   11.667    1.333 
#    9.000    0.000    0.000    0.000    0.000    0.000 
#    0.000    0.000    0.000    0.000    0.000    0.000 
#
# Total GULP energy -268681.905723 kJ/mol
# GULP energy per Si atom -5597.539703 kJ/mol
# Density = 2.339235 g / cm^3
# Si number density = 23.445713 Si / 1000 Ang^3
#
#
#
# Elastic Constant Matrix: (Units=GPa)
#
#
# Indices 1 2 3 4 5 6 
#
# 1 106.6702 13.6860 42.7351 0.0000 0.0000 0.0000
# 2 13.6860 79.0849 15.7171 0.0000 0.0000 0.0000
# 3 42.7351 15.7171 134.2197 0.0000 0.0000 0.0000
# 4 0.0000 0.0000 0.0000 -124.9929 0.0000 0.0000
# 5 0.0000 0.0000 0.0000 0.0000 33.0218 0.0000
# 6 0.0000 0.0000 0.0000 0.0000 0.0000 22.6112
#
#
#
# Elastic Compliance Matrix: (Units=1/GPa)
#
#
# Indices 1 2 3 4 5 6 
#
# 1 0.010859 -0.001220 -0.003315 0.000000 0.000000 0.000000
# 2 -0.001220 0.013083 -0.001143 0.000000 0.000000 0.000000
# 3 -0.003315 -0.001143 0.008640 0.000000 0.000000 0.000000
# 4 0.000000 0.000000 0.000000 -0.008000 0.000000 0.000000
# 5 0.000000 0.000000 0.000000 0.000000 0.030283 0.000000
# 6 0.000000 0.000000 0.000000 0.000000 0.000000 0.044226
#
#
# Mechanical properties :
#
#
# Convention : Reuss Voigt Hill
#
# Bulk Modulus (GPa) = 47.11434 51.58345 49.34890
# Shear Modulus (GPa) = 42.54502 2.65045 22.59773
#
# Velocity S-wave (km/s) = 4.26445 1.06439 3.10793
# Velocity P-wave (km/s) = 6.66229 4.85382 5.82862
#
# Compressibility (1/GPa) = 0.02122496
#
# Stress axis : x y z
#
# Youngs Moduli (GPa) = 92.08769 76.43454 115.74436
#
# Poissons Ratio (x) = 0.09329 0.38365
# Poissons Ratio (y) = 0.11239 0.13234
# Poissons Ratio (z) = 0.30524 0.08740
#
# Static dielectric constant tensor:
#      x y z
#    x 1.944360 0.000000 0.000000 
#    y 0.000000 1.830720 0.000000 
#    z 0.000000 0.000000 1.897690 
# 
# From -- ./inp_files/27753.got.cif
#   From: 2010.05.17/outbox.cif.g08.bks.cpg/sg54_14_cif.got.tgz:27753.got - 2010.06.03 13:09:01.
