data_PCOD9423233
_publ_section_title
;
Structure prediction by ZEFSAII (Michael W. Deem and Ramdas Pophale) SiO2 
 PCOD9423233
Probable space group: P C C A
;
_chemical_formula_sum "Si O2"
_cell_formula_units_Z 32
_cell_length_a 4.866582
_cell_length_b 8.911942
_cell_length_c 28.450844
_cell_angle_alpha 90.000000
_cell_angle_beta 90.000000
_cell_angle_gamma 90.000000
_cell_volume 1233.932921
_symmetry_space_group_name_H-M "P C C A"
_symmetry_group_IT_number 54
_symmetry_cell_setting 'orthorhombic'
loop_
_space_group_symop_operation_xyz
x,y,z
1/2-x,-y,z
1/2+x,-y,1/2-z
-x,y,1/2-z
-x,-y,-z
1/2+x,y,-z
1/2-x,y,1/2+z
x,-y,1/2+z
loop_
_atom_site_type_symbol
_atom_site_label
_atom_site_fract_x
_atom_site_fract_y
_atom_site_fract_z
Si Si1 0.250000 0.500000 0.716703
Si Si2 0.500000 0.104807 0.250000
Si Si3 0.750000 0.500000 0.907771
Si Si4 0.932475 0.739114 0.341372
Si Si5 0.750000 0.000000 0.909250
Si Si6 0.460981 0.754565 0.468844
O O1 0.500000 0.529614 0.750000
O O2 0.310278 0.348943 0.687094
O O3 0.404378 0.196109 0.296535
O O4 0.250000 0.000000 0.234062
O O5 0.530928 0.599194 0.877083
O O6 0.926972 0.615863 0.938487
O O7 0.885177 0.877906 0.375139
O O8 0.541644 0.094364 0.941419
O O9 0.144941 0.749995 0.483626
#
# Coordination Sequence:
#
# PCOD9423233 Si02
#       6
#     4   4   4   8   4   8
#     4  11  24  42  66  93 130 180 231 274 334 398
#     4  12  26  46  70 100 140 190 236 282 344 406
#     4   9  22  44  70 103 138 174 227 286 338 410
#     4  10  22  44  67 100 137 179 228 283 336 398
#     4  10  22  44  66 104 136 176 228 286 332 410
#     4  11  23  45  71  99 135 177 221 277 352 416
#
# _framework density 25.933337000000002
#
# number of rings (size 3 to 8) (size 9 to 14) (size 15 to 20)
#    0.000    1.500    2.500    1.500    1.750    0.000 
#    9.000   20.000    0.000    0.000    0.000    0.000 
#    0.000    0.000    0.000    0.000    0.000    0.000 
#
# Total GULP energy -178650.978254 kJ/mol
# GULP energy per Si atom -5582.843070 kJ/mol
# Density = 2.587431 g / cm^3
# Si number density = 25.933337 Si / 1000 Ang^3
#
#
#
# Elastic Constant Matrix: (Units=GPa)
#
#
# Indices 1 2 3 4 5 6 
#
# 1 71.2518 21.2304 15.7467 0.0000 0.0000 0.0000
# 2 21.2304 183.9374 66.6641 0.0000 0.0000 0.0000
# 3 15.7467 66.6641 142.6308 0.0000 0.0000 0.0000
# 4 0.0000 0.0000 0.0000 20.3947 0.0000 0.0000
# 5 0.0000 0.0000 0.0000 0.0000 6.5426 0.0000
# 6 0.0000 0.0000 0.0000 0.0000 0.0000 21.5930
#
#
#
# Elastic Compliance Matrix: (Units=1/GPa)
#
#
# Indices 1 2 3 4 5 6 
#
# 1 0.014651 -0.001330 -0.000996 0.000000 0.000000 0.000000
# 2 -0.001330 0.006666 -0.002969 0.000000 0.000000 0.000000
# 3 -0.000996 -0.002969 0.008509 0.000000 0.000000 0.000000
# 4 0.000000 0.000000 0.000000 0.049032 0.000000 0.000000
# 5 0.000000 0.000000 0.000000 0.000000 0.152844 0.000000
# 6 0.000000 0.000000 0.000000 0.000000 0.000000 0.046311
#
#
# Mechanical properties :
#
#
# Convention : Reuss Voigt Hill
#
# Bulk Modulus (GPa) = 51.98492 67.23358 59.60925
# Shear Modulus (GPa) = 16.94828 29.31798 23.13313
#
# Velocity S-wave (km/s) = 2.55920 3.36596 2.98992
# Velocity P-wave (km/s) = 5.36859 6.41000 5.91227
#
# Compressibility (1/GPa) = 0.01923635
#
# Stress axis : x y z
#
# Youngs Moduli (GPa) = 68.25400 150.01164 117.52746
#
# Poissons Ratio (x) = 0.19954 0.11704
# Poissons Ratio (y) = 0.09079 0.34892
# Poissons Ratio (z) = 0.06797 0.44536
#
# Static dielectric constant tensor:
#      x y z
#    x 1.987230 0.000000 0.000000 
#    y 0.000000 2.082450 0.000000 
#    z 0.000000 0.000000 2.099540 
# 
# From -- ./inp_files/26918.got.cif
#   From: 2010.05.17/outbox.cif.g08.bks.cpg/sg54_14_cif.got.tgz:26918.got - 2010.06.03 13:09:01.
