data_PCOD9423086
_publ_section_title
;
Structure prediction by ZEFSAII (Michael W. Deem and Ramdas Pophale) SiO2 
 PCOD9423086
Probable space group: P C C A
;
_chemical_formula_sum "Si O2"
_cell_formula_units_Z 60
_cell_length_a 5.330166
_cell_length_b 24.806426
_cell_length_c 18.573906
_cell_angle_alpha 90.000000
_cell_angle_beta 90.000000
_cell_angle_gamma 90.000000
_cell_volume 2455.885843
_symmetry_space_group_name_H-M "P C C A"
_symmetry_group_IT_number 54
_symmetry_cell_setting 'orthorhombic'
loop_
_space_group_symop_operation_xyz
x,y,z
1/2-x,-y,z
1/2+x,-y,1/2-z
-x,y,1/2-z
-x,-y,-z
1/2+x,y,-z
1/2-x,y,1/2+z
x,-y,1/2+z
loop_
_atom_site_type_symbol
_atom_site_label
_atom_site_fract_x
_atom_site_fract_y
_atom_site_fract_z
Si Si1 0.619750 0.552188 0.323020
Si Si2 0.130710 0.287888 0.328133
Si Si3 0.285031 0.300471 0.537351
Si Si4 0.536119 0.438747 0.529629
Si Si5 0.745650 0.170836 0.461567
Si Si6 0.500000 0.635944 0.750000
Si Si7 0.252717 0.941633 0.799159
Si Si8 0.923614 0.167591 0.167048
O O1 0.750000 0.500000 0.356895
O O2 0.500000 0.531155 0.250000
O O3 0.420986 0.566597 0.385072
O O4 0.804669 0.598202 0.293931
O O5 0.932728 0.309535 0.387170
O O6 0.360781 0.326693 0.308785
O O7 0.196969 0.226202 0.350991
O O8 0.000000 0.284845 0.250000
O O9 0.997407 0.316894 0.521610
O O10 0.253862 0.235642 0.533052
O O11 0.500000 0.500000 0.500000
O O12 0.763704 0.414558 0.485182
O O13 0.981071 0.151112 0.509419
O O14 0.827331 0.159830 0.380140
O O15 0.500000 0.939315 0.750000
O O16 0.238725 0.886018 0.842688
O O17 0.000000 0.942014 0.750000
O O18 0.250000 0.000000 0.837726
O O19 0.000000 0.170916 0.250000
#
# Coordination Sequence:
#
# PCOD9423086 Si02
#       8
#     8   8   8   8   8   4   8   8
#     4  12  26  44  75  99 131 177 222 259 331 405
#     4  10  23  43  64  93 136 174 215 276 331 393
#     4   9  19  37  64  90 121 168 220 264 316 386
#     4  10  22  41  71 108 140 164 212 277 323 375
#     4   9  18  33  52  83 120 160 208 262 318 381
#     4  12  28  44  66  98 138 172 220 272 330 394
#     4   9  18  32  52  85 125 160 208 273 330 383
#     4   9  19  36  62  92 119 170 219 267 323 389
#
# _framework density 24.431101999999999
#
# number of rings (size 3 to 8) (size 9 to 14) (size 15 to 20)
#    0.000    2.133    2.000    0.400    6.533    2.133 
#    4.800    1.333    0.000    0.800    0.000    0.000 
#    0.000    0.000    0.000    0.000    0.000    0.000 
#
# Total GULP energy -335224.714549 kJ/mol
# GULP energy per Si atom -5587.078576 kJ/mol
# Density = 2.437550 g / cm^3
# Si number density = 24.431102 Si / 1000 Ang^3
#
#
#
# Elastic Constant Matrix: (Units=GPa)
#
#
# Indices 1 2 3 4 5 6 
#
# 1 99.1879 18.3368 13.6146 0.0000 0.0000 0.0000
# 2 18.3368 135.2502 -4.4061 0.0000 0.0000 0.0000
# 3 13.6146 -4.4061 138.6819 0.0000 0.0000 0.0000
# 4 0.0000 0.0000 0.0000 1.3294 0.0000 0.0000
# 5 0.0000 0.0000 0.0000 0.0000 41.4018 0.0000
# 6 0.0000 0.0000 0.0000 0.0000 0.0000 21.2899
#
#
#
# Elastic Compliance Matrix: (Units=1/GPa)
#
#
# Indices 1 2 3 4 5 6 
#
# 1 0.010499 -0.001459 -0.001077 0.000000 0.000000 0.000000
# 2 -0.001459 0.007604 0.000385 0.000000 0.000000 0.000000
# 3 -0.001077 0.000385 0.007329 0.000000 0.000000 0.000000
# 4 0.000000 0.000000 0.000000 0.752237 0.000000 0.000000
# 5 0.000000 0.000000 0.000000 0.000000 0.024154 0.000000
# 6 0.000000 0.000000 0.000000 0.000000 0.000000 0.046971
#
#
# Mechanical properties :
#
#
# Convention : Reuss Voigt Hill
#
# Bulk Modulus (GPa) = 47.32533 47.57896 47.45214
# Shear Modulus (GPa) = 5.81302 35.84254 20.82778
#
# Velocity S-wave (km/s) = 1.54419 3.83441 2.92295
# Velocity P-wave (km/s) = 4.75314 6.25465 5.55486
#
# Compressibility (1/GPa) = 0.02113034
#
# Stress axis : x y z
#
# Youngs Moduli (GPa) = 95.24390 131.51002 136.44971
#
# Poissons Ratio (x) = 0.19181 0.14697
# Poissons Ratio (y) = 0.13892 -0.05250
# Poissons Ratio (z) = 0.10259 -0.05060
#
# Static dielectric constant tensor:
#      x y z
#    x 3.907730 0.000000 0.000000 
#    y 0.000000 1.843180 0.000000 
#    z 0.000000 0.000000 1.977970 
# 
# From -- ./inp_files/15983.got.cif
#   From: 2010.05.17/outbox.cif.g08.bks.cpg/sg54_8_cif.got.tgz:15983.got - 2010.06.03 13:09:01.
