data_PCOD9423873
_publ_section_title
;
Structure prediction by ZEFSAII (Michael W. Deem and Ramdas Pophale) SiO2 
 PCOD9423873
Probable space group: P C C A
;
_chemical_formula_sum "Si O2"
_cell_formula_units_Z 40
_cell_length_a 5.255616
_cell_length_b 13.930853
_cell_length_c 23.782332
_cell_angle_alpha 90.000000
_cell_angle_beta 90.000000
_cell_angle_gamma 90.000000
_cell_volume 1741.228525
_symmetry_space_group_name_H-M "P C C A"
_symmetry_group_IT_number 54
_symmetry_cell_setting 'orthorhombic'
loop_
_space_group_symop_operation_xyz
x,y,z
1/2-x,-y,z
1/2+x,-y,1/2-z
-x,y,1/2-z
-x,-y,-z
1/2+x,y,-z
1/2-x,y,1/2+z
x,-y,1/2+z
loop_
_atom_site_type_symbol
_atom_site_label
_atom_site_fract_x
_atom_site_fract_y
_atom_site_fract_z
Si Si1 0.144085 0.252321 0.873489
Si Si2 0.744876 0.109496 0.923907
Si Si3 0.000021 0.713840 0.530790
Si Si4 0.003627 0.561698 0.183064
Si Si5 0.587986 0.093913 0.686328
O O1 0.994004 0.176022 0.913102
O O2 0.375443 0.300603 0.908230
O O3 0.981323 0.339159 0.850465
O O4 0.247421 0.189319 0.822225
O O5 0.557349 0.171402 0.963263
O O6 0.629053 0.102941 0.860658
O O7 0.750000 0.000000 0.944030
O O8 0.776707 0.678607 0.488937
O O9 0.750000 0.500000 0.170404
O O10 0.250000 0.500000 0.170114
O O11 0.000000 0.581992 0.250000
O O12 0.500000 0.084177 0.750000
O O13 0.750000 0.000000 0.671360
#
# Coordination Sequence:
#
# PCOD9423873 Si02
#       5
#     8   8   8   8   8
#     4  11  25  43  69  96 136 181 222 285 339 399
#     4  11  23  41  62  96 136 179 232 275 328 407
#     4  11  24  44  67  97 133 179 231 284 340 397
#     4  10  25  45  71 103 135 172 225 276 335 409
#     4  11  24  36  59  95 141 186 224 265 326 410
#
# _framework density 22.972289
#
# number of rings (size 3 to 8) (size 9 to 14) (size 15 to 20)
#    0.000    1.200    4.000    0.600    8.400    1.600 
#    0.000    0.000    0.000    3.600    0.000    0.000 
#    0.000    0.000    0.000    0.000    0.000    0.000 
#
# Total GULP energy -223365.129532 kJ/mol
# GULP energy per Si atom -5584.128238 kJ/mol
# Density = 2.292000 g / cm^3
# Si number density = 22.972289 Si / 1000 Ang^3
#
#
#
# Elastic Constant Matrix: (Units=GPa)
#
#
# Indices 1 2 3 4 5 6 
#
# 1 117.7823 11.2502 8.2922 0.0000 0.0000 0.0000
# 2 11.2502 71.9319 1.2147 0.0000 0.0000 0.0000
# 3 8.2922 1.2147 42.8659 0.0000 0.0000 0.0000
# 4 0.0000 0.0000 0.0000 -6.1564 0.0000 0.0000
# 5 0.0000 0.0000 0.0000 0.0000 3.6716 0.0000
# 6 0.0000 0.0000 0.0000 0.0000 0.0000 21.7561
#
#
#
# Elastic Compliance Matrix: (Units=1/GPa)
#
#
# Indices 1 2 3 4 5 6 
#
# 1 0.008734 -0.001338 -0.001652 0.000000 0.000000 0.000000
# 2 -0.001338 0.014114 -0.000141 0.000000 0.000000 0.000000
# 3 -0.001652 -0.000141 0.023652 0.000000 0.000000 0.000000
# 4 0.000000 0.000000 0.000000 -0.162433 0.000000 0.000000
# 5 0.000000 0.000000 0.000000 0.000000 0.272362 0.000000
# 6 0.000000 0.000000 0.000000 0.000000 0.000000 0.045964
#
#
# Mechanical properties :
#
#
# Convention : Reuss Voigt Hill
#
# Bulk Modulus (GPa) = 24.85199 30.45492 27.65346
# Shear Modulus (GPa) = 22.51571 17.97580 20.24576
#
# Velocity S-wave (km/s) = 3.13409 2.80035 2.97191
# Velocity P-wave (km/s) = 4.89269 4.87258 4.88264
#
# Compressibility (1/GPa) = 0.04023823
#
# Stress axis : x y z
#
# Youngs Moduli (GPa) = 114.49064 70.85305 42.27961
#
# Poissons Ratio (x) = 0.09481 0.06983
# Poissons Ratio (y) = 0.15321 0.00597
# Poissons Ratio (z) = 0.18910 0.01000
#
# Static dielectric constant tensor:
#      x y z
#    x 1.939410 0.000000 0.000000 
#    y 0.000000 1.834590 0.000000 
#    z 0.000000 0.000000 1.869760 
# 
# From -- ./inp_files/25163.got.cif
#   From: 2010.05.17/outbox.cif.g08.bks.cpg/sg54_13_cif.got.tgz:25163.got - 2010.06.03 13:09:01.
