data_PCOD9423599
_publ_section_title
;
Structure prediction by ZEFSAII (Michael W. Deem and Ramdas Pophale) SiO2 
 PCOD9423599
Probable space group: P C C A
;
_chemical_formula_sum "Si O2"
_cell_formula_units_Z 60
_cell_length_a 8.798807
_cell_length_b 11.804516
_cell_length_c 23.918085
_cell_angle_alpha 90.000000
_cell_angle_beta 90.000000
_cell_angle_gamma 90.000000
_cell_volume 2484.267637
_symmetry_space_group_name_H-M "P C C A"
_symmetry_group_IT_number 54
_symmetry_cell_setting 'orthorhombic'
loop_
_space_group_symop_operation_xyz
x,y,z
1/2-x,-y,z
1/2+x,-y,1/2-z
-x,y,1/2-z
-x,-y,-z
1/2+x,y,-z
1/2-x,y,1/2+z
x,-y,1/2+z
loop_
_atom_site_type_symbol
_atom_site_label
_atom_site_fract_x
_atom_site_fract_y
_atom_site_fract_z
Si Si1 0.667888 0.803073 0.057022
Si Si2 0.646937 0.275759 0.785022
Si Si3 0.737488 0.370802 0.389810
Si Si4 0.384000 0.072827 0.537268
Si Si5 0.150987 0.100557 0.772783
Si Si6 0.640579 0.420485 0.509859
Si Si7 0.250000 0.500000 0.284030
Si Si8 0.401539 0.307071 0.355142
O O1 0.519770 0.875193 0.075915
O O2 0.777285 0.740497 0.101186
O O3 0.780573 0.858511 0.009582
O O4 0.581268 0.697142 0.030644
O O5 0.500000 0.243419 0.750000
O O6 0.645987 0.302754 0.850921
O O7 0.759050 0.170734 0.774539
O O8 0.691522 0.396368 0.754979
O O9 0.750000 0.500000 0.370154
O O10 0.741773 0.383348 0.456412
O O11 0.569193 0.322351 0.379404
O O12 0.250000 0.000000 0.566697
O O13 0.500000 0.000000 0.500000
O O14 0.099824 0.203628 0.811862
O O15 0.000000 0.044075 0.750000
O O16 0.250000 0.000000 0.799077
O O17 0.750000 0.500000 0.547040
O O18 0.500000 0.500000 0.500000
O O19 0.360601 0.426155 0.324465
#
# Coordination Sequence:
#
# PCOD9423599 Si02
#       8
#     8   8   8   8   8   8   4   8
#     4  11  22  42  67  99 146 189 240 305 369 441
#     4  11  22  42  69  99 138 182 240 303 372 437
#     4  11  22  39  68  99 144 191 246 299 369 452
#     4   9  20  40  69  94 129 186 241 304 362 420
#     4  11  24  46  73  99 139 179 236 303 374 440
#     4  11  24  40  63  99 148 197 234 288 361 442
#     4  10  24  36  64  98 132 178 234 294 368 436
#     4  11  24  41  68 103 139 189 241 294 370 460
#
# _framework density 24.151986999999998
#
# number of rings (size 3 to 8) (size 9 to 14) (size 15 to 20)
#    0.000    1.333    2.000    3.600    2.800    1.600 
#    7.200    0.000    2.933    0.000    0.000    0.000 
#    0.000    0.000    0.000    0.000    0.000    0.000 
#
# Total GULP energy -334056.618681 kJ/mol
# GULP energy per Si atom -5567.610311 kJ/mol
# Density = 2.409702 g / cm^3
# Si number density = 24.151987 Si / 1000 Ang^3
#
#
#
# Elastic Constant Matrix: (Units=GPa)
#
#
# Indices 1 2 3 4 5 6 
#
# 1 135.7367 46.2023 14.2021 0.0000 0.0000 0.0000
# 2 46.2023 92.9021 -2.2799 0.0000 0.0000 0.0000
# 3 14.2021 -2.2799 55.0868 0.0000 0.0000 0.0000
# 4 0.0000 0.0000 0.0000 13.6454 0.0000 0.0000
# 5 0.0000 0.0000 0.0000 0.0000 21.6930 0.0000
# 6 0.0000 0.0000 0.0000 0.0000 0.0000 53.9033
#
#
#
# Elastic Compliance Matrix: (Units=1/GPa)
#
#
# Indices 1 2 3 4 5 6 
#
# 1 0.009218 -0.004647 -0.002569 0.000000 0.000000 0.000000
# 2 -0.004647 0.013118 0.001741 0.000000 0.000000 0.000000
# 3 -0.002569 0.001741 0.018887 0.000000 0.000000 0.000000
# 4 0.000000 0.000000 0.000000 0.073285 0.000000 0.000000
# 5 0.000000 0.000000 0.000000 0.000000 0.046098 0.000000
# 6 0.000000 0.000000 0.000000 0.000000 0.000000 0.018552
#
#
# Mechanical properties :
#
#
# Convention : Reuss Voigt Hill
#
# Bulk Modulus (GPa) = 33.03255 44.44162 38.73708
# Shear Modulus (GPa) = 24.97518 32.88841 28.93180
#
# Velocity S-wave (km/s) = 3.21921 3.69416 3.46483
# Velocity P-wave (km/s) = 5.24637 6.05281 5.66396
#
# Compressibility (1/GPa) = 0.03027317
#
# Stress axis : x y z
#
# Youngs Moduli (GPa) = 108.48552 76.23149 52.94512
#
# Poissons Ratio (x) = 0.35427 0.13601
# Poissons Ratio (y) = 0.50416 -0.09218
# Poissons Ratio (z) = 0.27868 -0.13272
#
# Static dielectric constant tensor:
#      x y z
#    x 2.034540 0.000000 0.000000 
#    y 0.000000 2.013230 0.000000 
#    z 0.000000 0.000000 3.201530 
# 
# From -- ./inp_files/25956.got.cif
#   From: 2010.05.17/outbox.cif.g08.bks.cpg/sg54_13_cif.got.tgz:25956.got - 2010.06.03 13:09:01.
