data_PCOD9423658
_publ_section_title
;
Structure prediction by ZEFSAII (Michael W. Deem and Ramdas Pophale) SiO2 
 PCOD9423658
Probable space group: P C C A
;
_chemical_formula_sum "Si O2"
_cell_formula_units_Z 40
_cell_length_a 8.717964
_cell_length_b 8.862657
_cell_length_c 23.925971
_cell_angle_alpha 90.000000
_cell_angle_beta 90.000000
_cell_angle_gamma 90.000000
_cell_volume 1848.623991
_symmetry_space_group_name_H-M "P C C A"
_symmetry_group_IT_number 54
_symmetry_cell_setting 'orthorhombic'
loop_
_space_group_symop_operation_xyz
x,y,z
1/2-x,-y,z
1/2+x,-y,1/2-z
-x,y,1/2-z
-x,-y,-z
1/2+x,y,-z
1/2-x,y,1/2+z
x,-y,1/2+z
loop_
_atom_site_type_symbol
_atom_site_label
_atom_site_fract_x
_atom_site_fract_y
_atom_site_fract_z
Si Si1 0.084996 0.351802 0.471966
Si Si2 0.790033 0.169854 0.444999
Si Si3 0.331751 0.343283 0.150856
Si Si4 0.800903 0.653660 0.139628
Si Si5 0.819168 0.160020 0.743713
O O1 0.187353 0.286249 0.520762
O O2 0.199766 0.353940 0.417580
O O3 0.000000 0.500000 0.500000
O O4 0.960316 0.225826 0.456377
O O5 0.743191 0.204176 0.381986
O O6 0.750000 0.000000 0.461013
O O7 0.250000 0.500000 0.135280
O O8 0.512950 0.350923 0.135065
O O9 0.294940 0.300825 0.214684
O O10 0.750000 0.500000 0.169606
O O11 0.769529 0.792501 0.181106
O O12 0.000000 0.138076 0.750000
O O13 0.750000 0.000000 0.759605
#
# Coordination Sequence:
#
# PCOD9423658 Si02
#       5
#     8   8   8   8   8
#     4  12  25  44  68  96 132 178 229 281 341 417
#     4  12  25  41  64  96 132 171 218 278 341 402
#     4  11  23  42  66  95 130 173 224 276 335 410
#     4  11  23  41  65  94 126 170 222 275 333 405
#     4  10  24  42  64  95 132 172 219 276 344 414
#
# _framework density 21.637716000000001
#
# number of rings (size 3 to 8) (size 9 to 14) (size 15 to 20)
#    0.000    0.800    0.000    8.400    0.000    7.200 
#    0.000    0.000    0.000    0.000    0.000    0.000 
#    0.000    0.000    0.000    0.000    0.000    0.000 
#
# Total GULP energy -223087.467128 kJ/mol
# GULP energy per Si atom -5577.186678 kJ/mol
# Density = 2.158847 g / cm^3
# Si number density = 21.637716 Si / 1000 Ang^3
#
#
#
# Elastic Constant Matrix: (Units=GPa)
#
#
# Indices 1 2 3 4 5 6 
#
# 1 81.4233 36.5795 40.2223 0.0000 0.0000 0.0000
# 2 36.5795 110.2844 36.6666 0.0000 0.0000 0.0000
# 3 40.2223 36.6666 112.5968 0.0000 0.0000 0.0000
# 4 0.0000 0.0000 0.0000 21.8616 0.0000 0.0000
# 5 0.0000 0.0000 0.0000 0.0000 154.1764 0.0000
# 6 0.0000 0.0000 0.0000 0.0000 0.0000 17.6084
#
#
#
# Elastic Compliance Matrix: (Units=1/GPa)
#
#
# Indices 1 2 3 4 5 6 
#
# 1 0.016274 -0.003886 -0.004548 0.000000 0.000000 0.000000
# 2 -0.003886 0.011096 -0.002225 0.000000 0.000000 0.000000
# 3 -0.004548 -0.002225 0.011231 0.000000 0.000000 0.000000
# 4 0.000000 0.000000 0.000000 0.045742 0.000000 0.000000
# 5 0.000000 0.000000 0.000000 0.000000 0.006486 0.000000
# 6 0.000000 0.000000 0.000000 0.000000 0.000000 0.056791
#
#
# Mechanical properties :
#
#
# Convention : Reuss Voigt Hill
#
# Bulk Modulus (GPa) = 57.86222 59.02682 58.44452
# Shear Modulus (GPa) = 28.62064 51.45168 40.03616
#
# Velocity S-wave (km/s) = 3.64087 4.88163 4.30617
# Velocity P-wave (km/s) = 6.66888 7.68847 7.19675
#
# Compressibility (1/GPa) = 0.01728243
#
# Stress axis : x y z
#
# Youngs Moduli (GPa) = 61.44836 90.12139 89.04247
#
# Poissons Ratio (x) = 0.35018 0.40497
# Poissons Ratio (y) = 0.23877 0.19815
# Poissons Ratio (z) = 0.27947 0.20055
#
# Static dielectric constant tensor:
#      x y z
#    x 2.275670 0.000000 0.000000 
#    y 0.000000 2.024060 0.000000 
#    z 0.000000 0.000000 1.872410 
# 
# From -- ./inp_files/23214.got.cif
#   From: 2010.05.17/outbox.cif.g08.bks.cpg/sg54_12_cif.got.tgz:23214.got - 2010.06.03 13:09:01.
