data_PCOD9423301
_publ_section_title
;
Structure prediction by ZEFSAII (Michael W. Deem and Ramdas Pophale) SiO2 
 PCOD9423301
Probable space group: P C C A
;
_chemical_formula_sum "Si O2"
_cell_formula_units_Z 28
_cell_length_a 10.379981
_cell_length_b 8.832776
_cell_length_c 13.941754
_cell_angle_alpha 90.000000
_cell_angle_beta 90.000000
_cell_angle_gamma 90.000000
_cell_volume 1278.236430
_symmetry_space_group_name_H-M "P C C A"
_symmetry_group_IT_number 54
_symmetry_cell_setting 'orthorhombic'
loop_
_space_group_symop_operation_xyz
x,y,z
1/2-x,-y,z
1/2+x,-y,1/2-z
-x,y,1/2-z
-x,-y,-z
1/2+x,y,-z
1/2-x,y,1/2+z
x,-y,1/2+z
loop_
_atom_site_type_symbol
_atom_site_label
_atom_site_fract_x
_atom_site_fract_y
_atom_site_fract_z
Si Si1 0.108794 0.459793 0.919785
Si Si2 0.629367 0.890832 0.597505
Si Si3 0.000000 0.340863 0.250000
Si Si4 0.118950 0.080064 0.132351
O O1 0.250000 0.500000 0.960195
O O2 0.121252 0.287289 0.882163
O O3 0.075705 0.561515 0.827860
O O4 0.000000 0.500000 0.000000
O O5 0.626082 0.888678 0.481285
O O6 0.750000 0.000000 0.622105
O O7 0.504155 0.971421 0.640191
O O8 0.905129 0.231398 0.308830
O O9 0.250000 0.000000 0.161423
#
# Coordination Sequence:
#
# PCOD9423301 Si02
#       4
#     8   8   4   8
#     4  12  28  47  74 108 152 195 247 310 375 438
#     4  10  22  45  73 102 138 194 242 293 366 437
#     4  12  26  46  70 118 148 188 246 312 374 440
#     4  10  23  42  74 101 141 186 242 297 358 442
#
# _framework density 21.905180000000001
#
# number of rings (size 3 to 8) (size 9 to 14) (size 15 to 20)
#    0.000    1.143    2.857    1.714    8.000    8.000 
#    0.000    0.000    0.000    0.000    0.000    0.000 
#    0.000    0.000    0.000    0.000    0.000    0.000 
#
# Total GULP energy -156604.711184 kJ/mol
# GULP energy per Si atom -5593.025399 kJ/mol
# Density = 2.185532 g / cm^3
# Si number density = 21.905180 Si / 1000 Ang^3
#
#
#
# Elastic Constant Matrix: (Units=GPa)
#
#
# Indices 1 2 3 4 5 6 
#
# 1 214.2933 103.1983 54.0288 0.0000 0.0000 0.0000
# 2 103.1983 214.0524 57.3444 0.0000 0.0000 0.0000
# 3 54.0288 57.3444 137.5708 0.0000 0.0000 0.0000
# 4 0.0000 0.0000 0.0000 36.7108 0.0000 0.0000
# 5 0.0000 0.0000 0.0000 0.0000 -103.0730 0.0000
# 6 0.0000 0.0000 0.0000 0.0000 0.0000 13.8266
#
#
#
# Elastic Compliance Matrix: (Units=1/GPa)
#
#
# Indices 1 2 3 4 5 6 
#
# 1 0.006295 -0.002671 -0.001359 0.000000 0.000000 0.000000
# 2 -0.002671 0.006392 -0.001616 0.000000 0.000000 0.000000
# 3 -0.001359 -0.001616 0.008476 0.000000 0.000000 0.000000
# 4 0.000000 0.000000 0.000000 0.027240 0.000000 0.000000
# 5 0.000000 0.000000 0.000000 0.000000 -0.009702 0.000000
# 6 0.000000 0.000000 0.000000 0.000000 0.000000 0.072324
#
#
# Mechanical properties :
#
#
# Convention : Reuss Voigt Hill
#
# Bulk Modulus (GPa) = 101.29003 110.56217 105.92610
# Shear Modulus (GPa) = 39.80625 12.91587 26.36106
#
# Velocity S-wave (km/s) = 4.26750 2.43086 3.47279
# Velocity P-wave (km/s) = 8.40373 7.64601 8.03380
#
# Compressibility (1/GPa) = 0.00987264
#
# Stress axis : x y z
#
# Youngs Moduli (GPa) = 158.84431 156.43781 117.97821
#
# Poissons Ratio (x) = 0.41786 0.16034
# Poissons Ratio (y) = 0.42428 0.19060
# Poissons Ratio (z) = 0.21588 0.25273
#
# Static dielectric constant tensor:
#      x y z
#    x 1.787630 0.000000 0.000000 
#    y 0.000000 1.796730 0.000000 
#    z 0.000000 0.000000 1.814340 
# 
# From -- ./inp_files/16179.got.cif
#   From: 2010.05.17/outbox.cif.g08.bks.cpg/sg54_9_cif.got.tgz:16179.got - 2010.06.03 13:09:01.
