data_PCOD9423616
_publ_section_title
;
Structure prediction by ZEFSAII (Michael W. Deem and Ramdas Pophale) SiO2 
 PCOD9423616
Probable space group: P C C A
;
_chemical_formula_sum "Si O2"
_cell_formula_units_Z 32
_cell_length_a 8.818192
_cell_length_b 5.995131
_cell_length_c 29.904206
_cell_angle_alpha 90.000000
_cell_angle_beta 90.000000
_cell_angle_gamma 90.000000
_cell_volume 1580.922220
_symmetry_space_group_name_H-M "P C C A"
_symmetry_group_IT_number 54
_symmetry_cell_setting 'orthorhombic'
loop_
_space_group_symop_operation_xyz
x,y,z
1/2-x,-y,z
1/2+x,-y,1/2-z
-x,y,1/2-z
-x,-y,-z
1/2+x,y,-z
1/2-x,y,1/2+z
x,-y,1/2+z
loop_
_atom_site_type_symbol
_atom_site_label
_atom_site_fract_x
_atom_site_fract_y
_atom_site_fract_z
Si Si1 0.599820 0.371695 0.792262
Si Si2 0.750000 0.000000 0.353987
Si Si3 0.750000 0.000000 0.997037
Si Si4 0.420265 0.400908 0.121023
Si Si5 0.495464 0.316746 0.961198
O O1 0.750000 0.500000 0.776109
O O2 0.500000 0.312869 0.750000
O O3 0.523806 0.535316 0.829293
O O4 0.657517 0.164234 0.821467
O O5 0.878415 0.860630 0.381044
O O6 0.645834 0.164926 0.967437
O O7 0.856838 0.152535 0.028127
O O8 0.250000 0.500000 0.117013
O O9 0.510998 0.536119 0.083737
O O10 0.500000 0.500000 0.000000
#
# Coordination Sequence:
#
# PCOD9423616 Si02
#       5
#     8   4   4   8   8
#     4   9  19  36  57  83 112 147 189 235 285 344
#     4   8  18  33  57  86 110 144 191 236 292 345
#     4  10  24  39  59  86 118 154 193 242 296 341
#     4   9  19  35  58  84 112 150 194 235 283 349
#     4  11  22  39  60  86 118 154 195 240 290 350
#
# _framework density 20.241349
#
# number of rings (size 3 to 8) (size 9 to 14) (size 15 to 20)
#    0.000    3.000    0.000    2.250    0.000   17.000 
#    0.000    3.750    0.000    0.000    0.000    0.000 
#    0.000    0.000    0.000    0.000    0.000    0.000 
#
# Total GULP energy -178335.170261 kJ/mol
# GULP energy per Si atom -5572.974071 kJ/mol
# Density = 2.019528 g / cm^3
# Si number density = 20.241349 Si / 1000 Ang^3
#
#
#
# Elastic Constant Matrix: (Units=GPa)
#
#
# Indices 1 2 3 4 5 6 
#
# 1 63.4262 45.7942 37.9462 0.0000 0.0000 0.0000
# 2 45.7942 136.3348 48.1505 0.0000 0.0000 0.0000
# 3 37.9462 48.1505 114.3009 0.0000 0.0000 0.0000
# 4 0.0000 0.0000 0.0000 23.7201 0.0000 0.0000
# 5 0.0000 0.0000 0.0000 0.0000 18.5025 0.0000
# 6 0.0000 0.0000 0.0000 0.0000 0.0000 23.4867
#
#
#
# Elastic Compliance Matrix: (Units=1/GPa)
#
#
# Indices 1 2 3 4 5 6 
#
# 1 0.023163 -0.005950 -0.005183 0.000000 0.000000 0.000000
# 2 -0.005950 0.010145 -0.002299 0.000000 0.000000 0.000000
# 3 -0.005183 -0.002299 0.011438 0.000000 0.000000 0.000000
# 4 0.000000 0.000000 0.000000 0.042158 0.000000 0.000000
# 5 0.000000 0.000000 0.000000 0.000000 0.054047 0.000000
# 6 0.000000 0.000000 0.000000 0.000000 0.000000 0.042577
#
#
# Mechanical properties :
#
#
# Convention : Reuss Voigt Hill
#
# Bulk Modulus (GPa) = 55.91938 64.20485 60.06212
# Shear Modulus (GPa) = 23.11036 25.28659 24.19848
#
# Velocity S-wave (km/s) = 3.38263 3.53831 3.46135
# Velocity P-wave (km/s) = 6.55306 6.96286 6.76106
#
# Compressibility (1/GPa) = 0.01788289
#
# Stress axis : x y z
#
# Youngs Moduli (GPa) = 43.17184 98.56908 87.42814
#
# Poissons Ratio (x) = 0.58646 0.45318
# Poissons Ratio (y) = 0.25686 0.20096
# Poissons Ratio (z) = 0.22378 0.22656
#
# Static dielectric constant tensor:
#      x y z
#    x 1.704540 0.000000 0.000000 
#    y 0.000000 1.831880 0.000000 
#    z 0.000000 0.000000 1.757330 
# 
# From -- ./inp_files/27417.got.cif
#   From: 2010.05.17/outbox.cif.g08.bks.cpg/sg54_14_cif.got.tgz:27417.got - 2010.06.03 13:09:01.
