data_PCOD9423439
_publ_section_title
;
Structure prediction by ZEFSAII (Michael W. Deem and Ramdas Pophale) SiO2 
 PCOD9423439
Probable space group: P C C A
;
_chemical_formula_sum "Si O2"
_cell_formula_units_Z 40
_cell_length_a 9.515514
_cell_length_b 15.459221
_cell_length_c 12.298815
_cell_angle_alpha 90.000000
_cell_angle_beta 90.000000
_cell_angle_gamma 90.000000
_cell_volume 1809.185620
_symmetry_space_group_name_H-M "P C C A"
_symmetry_group_IT_number 54
_symmetry_cell_setting 'orthorhombic'
loop_
_space_group_symop_operation_xyz
x,y,z
1/2-x,-y,z
1/2+x,-y,1/2-z
-x,y,1/2-z
-x,-y,-z
1/2+x,y,-z
1/2-x,y,1/2+z
x,-y,1/2+z
loop_
_atom_site_type_symbol
_atom_site_label
_atom_site_fract_x
_atom_site_fract_y
_atom_site_fract_z
Si Si1 0.750000 0.000000 0.098041
Si Si2 0.438371 0.734132 0.038979
Si Si3 0.387449 0.383331 0.344395
Si Si4 0.179896 0.846322 0.063656
Si Si5 0.000000 0.941274 0.250000
Si Si6 0.918081 0.568337 0.645931
O O1 0.610901 0.006330 0.174150
O O2 0.755631 0.081069 0.015913
O O3 0.384421 0.697189 0.924386
O O4 0.564703 0.797697 0.009629
O O5 0.307579 0.781910 0.095517
O O6 0.503585 0.649416 0.094924
O O7 0.500000 0.366479 0.250000
O O8 0.229577 0.398445 0.306735
O O9 0.407435 0.474336 0.411655
O O10 0.098409 0.886120 0.167338
O O11 0.000000 0.538272 0.750000
#
# Coordination Sequence:
#
# PCOD9423439 Si02
#       6
#     4   8   8   8   4   8
#     4  12  28  52  76 110 144 186 238 292 368 444
#     4  12  25  44  70 101 140 183 234 301 344 424
#     4  10  23  42  66  96 141 187 237 289 358 421
#     4  12  28  48  72 107 146 183 244 294 360 437
#     4  12  28  50  82 104 146 194 230 300 370 434
#     4  10  23  42  64  99 138 188 238 289 353 424
#
# _framework density 22.109394000000002
#
# number of rings (size 3 to 8) (size 9 to 14) (size 15 to 20)
#    0.000    0.800    4.000    1.800    7.000    1.600 
#    0.000    0.000    0.000    0.000    0.000    0.000 
#    0.000    0.000    0.000    0.000    0.000    0.000 
#
# Total GULP energy -223113.419738 kJ/mol
# GULP energy per Si atom -5577.835493 kJ/mol
# Density = 2.205907 g / cm^3
# Si number density = 22.109394 Si / 1000 Ang^3
#
#
#
# Elastic Constant Matrix: (Units=GPa)
#
#
# Indices 1 2 3 4 5 6 
#
# 1 123.4150 18.9704 14.3087 0.0000 0.0000 0.0000
# 2 18.9704 79.8492 9.4388 0.0000 0.0000 0.0000
# 3 14.3087 9.4388 45.2768 0.0000 0.0000 0.0000
# 4 0.0000 0.0000 0.0000 -6.9768 0.0000 0.0000
# 5 0.0000 0.0000 0.0000 0.0000 34.6195 0.0000
# 6 0.0000 0.0000 0.0000 0.0000 0.0000 32.3626
#
#
#
# Elastic Compliance Matrix: (Units=1/GPa)
#
#
# Indices 1 2 3 4 5 6 
#
# 1 0.008650 -0.001776 -0.002363 0.000000 0.000000 0.000000
# 2 -0.001776 0.013205 -0.002192 0.000000 0.000000 0.000000
# 3 -0.002363 -0.002192 0.023290 0.000000 0.000000 0.000000
# 4 0.000000 0.000000 0.000000 -0.143332 0.000000 0.000000
# 5 0.000000 0.000000 0.000000 0.000000 0.028885 0.000000
# 6 0.000000 0.000000 0.000000 0.000000 0.000000 0.030900
#
#
# Mechanical properties :
#
#
# Convention : Reuss Voigt Hill
#
# Bulk Modulus (GPa) = 30.78514 37.10852 33.94683
# Shear Modulus (GPa) = -335.26553 25.72258 -154.77147
#
# Velocity S-wave (km/s) = -12.32755 3.41460 -8.37583
# Velocity P-wave (km/s) = 13.73574 5.68915 8.84036
#
# Compressibility (1/GPa) = 0.03248320
#
# Stress axis : x y z
#
# Youngs Moduli (GPa) = 115.61114 75.73163 42.93663
#
# Poissons Ratio (x) = 0.13447 0.10148
# Poissons Ratio (y) = 0.20528 0.09410
# Poissons Ratio (z) = 0.27323 0.16597
#
# Static dielectric constant tensor:
#      x y z
#    x 1.766870 0.000000 0.000000 
#    y 0.000000 1.868590 0.000000 
#    z 0.000000 0.000000 1.817750 
# 
# From -- ./inp_files/6896.got.cif
#   From: 2010.05.17/outbox.cif.g08.bks.cpg/sg54_4_cif.got.tgz:6896.got - 2010.06.03 13:09:01.
