data_PCOD9423364
_publ_section_title
;
Structure prediction by ZEFSAII (Michael W. Deem and Ramdas Pophale) SiO2 
 PCOD9423364
Probable space group: P C C A
;
_chemical_formula_sum "Si O2"
_cell_formula_units_Z 44
_cell_length_a 9.185978
_cell_length_b 13.185023
_cell_length_c 16.240548
_cell_angle_alpha 90.000000
_cell_angle_beta 90.000000
_cell_angle_gamma 90.000000
_cell_volume 1967.011831
_symmetry_space_group_name_H-M "P C C A"
_symmetry_group_IT_number 54
_symmetry_cell_setting 'orthorhombic'
loop_
_space_group_symop_operation_xyz
x,y,z
1/2-x,-y,z
1/2+x,-y,1/2-z
-x,y,1/2-z
-x,-y,-z
1/2+x,y,-z
1/2-x,y,1/2+z
x,-y,1/2+z
loop_
_atom_site_type_symbol
_atom_site_label
_atom_site_fract_x
_atom_site_fract_y
_atom_site_fract_z
Si Si1 0.667656 0.167863 0.219233
Si Si2 0.656482 0.402503 0.211326
Si Si3 0.973706 0.222697 0.430477
Si Si4 0.629830 0.574487 0.514801
Si Si5 0.000000 0.167463 0.250000
Si Si6 0.770161 0.118609 0.536541
O O1 0.500000 0.140395 0.250000
O O2 0.693544 0.287470 0.238941
O O3 0.830899 0.118785 0.243005
O O4 0.654624 0.155362 0.120721
O O5 0.750000 0.500000 0.236871
O O6 0.500000 0.421251 0.250000
O O7 0.656968 0.402761 0.111221
O O8 0.905676 0.322386 0.468850
O O9 0.994761 0.229727 0.333887
O O10 0.862894 0.134439 0.454887
O O11 0.125348 0.186355 0.469326
O O12 0.750000 0.500000 0.479103
O O13 0.500000 0.500000 0.500000
O O14 0.750000 0.000000 0.547930
#
# Coordination Sequence:
#
# PCOD9423364 Si02
#       6
#     8   8   8   8   4   8
#     4  10  23  45  69 100 147 187 233 301 365 426
#     4  10  23  39  64  99 137 183 234 291 357 432
#     4  11  24  46  70 101 146 181 238 308 358 441
#     4  11  24  40  66  97 132 183 230 283 357 436
#     4  10  26  42  72 104 138 190 234 294 368 426
#     4  11  24  45  73 105 138 190 247 300 373 443
#
# _framework density 22.368957000000002
#
# number of rings (size 3 to 8) (size 9 to 14) (size 15 to 20)
#    0.000    1.455    1.818    1.636   11.455    3.636 
#    6.545    0.909    0.000    0.000    0.000    0.000 
#    0.000    0.000    0.000    0.000    0.000    0.000 
#
# Total GULP energy -245039.923226 kJ/mol
# GULP energy per Si atom -5569.089164 kJ/mol
# Density = 2.231804 g / cm^3
# Si number density = 22.368957 Si / 1000 Ang^3
#
#
#
# Elastic Constant Matrix: (Units=GPa)
#
#
# Indices 1 2 3 4 5 6 
#
# 1 157.6289 35.9774 34.8603 0.0000 0.0000 0.0000
# 2 35.9774 75.7754 12.0484 0.0000 0.0000 0.0000
# 3 34.8603 12.0484 56.9241 0.0000 0.0000 0.0000
# 4 0.0000 0.0000 0.0000 11.7297 0.0000 0.0000
# 5 0.0000 0.0000 0.0000 0.0000 43.8212 0.0000
# 6 0.0000 0.0000 0.0000 0.0000 0.0000 8.2069
#
#
#
# Elastic Compliance Matrix: (Units=1/GPa)
#
#
# Indices 1 2 3 4 5 6 
#
# 1 0.007993 -0.003122 -0.004234 0.000000 0.000000 0.000000
# 2 -0.003122 0.014876 -0.001237 0.000000 0.000000 0.000000
# 3 -0.004234 -0.001237 0.020422 0.000000 0.000000 0.000000
# 4 0.000000 0.000000 0.000000 0.085253 0.000000 0.000000
# 5 0.000000 0.000000 0.000000 0.000000 0.022820 0.000000
# 6 0.000000 0.000000 0.000000 0.000000 0.000000 0.121849
#
#
# Mechanical properties :
#
#
# Convention : Reuss Voigt Hill
#
# Bulk Modulus (GPa) = 38.30634 50.67782 44.49208
# Shear Modulus (GPa) = 16.71679 26.58104 21.64892
#
# Velocity S-wave (km/s) = 2.73668 3.45091 3.11434
# Velocity P-wave (km/s) = 5.21036 6.21152 5.73284
#
# Compressibility (1/GPa) = 0.02610534
#
# Stress axis : x y z
#
# Youngs Moduli (GPa) = 125.11083 67.22367 48.96677
#
# Poissons Ratio (x) = 0.20985 0.20733
# Poissons Ratio (y) = 0.39056 0.06056
# Poissons Ratio (z) = 0.52973 0.08314
#
# Static dielectric constant tensor:
#      x y z
#    x 1.845280 0.000000 0.000000 
#    y 0.000000 1.822110 0.000000 
#    z 0.000000 0.000000 1.775630 
# 
# From -- ./inp_files/16552.got.cif
#   From: 2010.05.17/outbox.cif.g08.bks.cpg/sg54_9_cif.got.tgz:16552.got - 2010.06.03 13:09:01.
