data_PCOD9423343
_publ_section_title
;
Structure prediction by ZEFSAII (Michael W. Deem and Ramdas Pophale) SiO2 
 PCOD9423343
Probable space group: P C C A
;
_chemical_formula_sum "Si O2"
_cell_formula_units_Z 48
_cell_length_a 24.851548
_cell_length_b 6.516386
_cell_length_c 13.912857
_cell_angle_alpha 90.000000
_cell_angle_beta 90.000000
_cell_angle_gamma 90.000000
_cell_volume 2253.079776
_symmetry_space_group_name_H-M "P C C A"
_symmetry_group_IT_number 54
_symmetry_cell_setting 'orthorhombic'
loop_
_space_group_symop_operation_xyz
x,y,z
1/2-x,-y,z
1/2+x,-y,1/2-z
-x,y,1/2-z
-x,-y,-z
1/2+x,y,-z
1/2-x,y,1/2+z
x,-y,1/2+z
loop_
_atom_site_type_symbol
_atom_site_label
_atom_site_fract_x
_atom_site_fract_y
_atom_site_fract_z
Si Si1 0.500000 0.987590 0.250000
Si Si2 0.250000 0.500000 0.463780
Si Si3 0.979535 0.195637 0.560832
Si Si4 0.891938 0.224941 0.300552
Si Si5 0.695201 0.116100 0.949563
Si Si6 0.658457 0.215632 0.591382
Si Si7 0.916261 0.474485 0.950211
O O1 0.546700 0.855572 0.300517
O O2 0.469991 0.119206 0.331326
O O3 0.212670 0.651155 0.527082
O O4 0.287604 0.649164 0.402463
O O5 0.931198 0.319001 0.510500
O O6 0.028805 0.353491 0.566711
O O7 0.000000 0.000000 0.500000
O O8 0.850553 0.102860 0.368757
O O9 0.871218 0.213980 0.192349
O O10 0.893153 0.449859 0.348824
O O11 0.750000 0.000000 0.919775
O O12 0.674223 0.002624 0.045678
O O13 0.621324 0.329465 0.512964
#
# Coordination Sequence:
#
# PCOD9423343 Si02
#       7
#     4   4   8   8   8   8   8
#     4  12  26  40  72 102 146 188 244 284 362 434
#     4  10  22  48  72 102 138 178 234 302 352 432
#     4  11  24  45  65  94 139 189 235 296 344 417
#     4  12  26  44  70 108 140 190 238 288 367 434
#     4  10  24  49  73 100 140 181 235 298 362 434
#     4  11  25  44  71 100 139 177 235 294 359 432
#     4  11  25  44  69  98 142 187 240 296 358 428
#
# _framework density 21.304171
#
# number of rings (size 3 to 8) (size 9 to 14) (size 15 to 20)
#    0.000    1.000    3.333    2.000    7.000    2.667 
#    3.000    0.000    0.000    0.000    0.000    0.000 
#    0.000    0.000    0.000    0.000    0.000    0.000 
#
# Total GULP energy -268371.314731 kJ/mol
# GULP energy per Si atom -5591.069057 kJ/mol
# Density = 2.125568 g / cm^3
# Si number density = 21.304171 Si / 1000 Ang^3
#
#
#
# Elastic Constant Matrix: (Units=GPa)
#
#
# Indices 1 2 3 4 5 6 
#
# 1 99.5601 24.8391 39.2521 0.0000 0.0000 0.0000
# 2 24.8391 98.1017 45.3685 0.0000 0.0000 0.0000
# 3 39.2521 45.3685 109.6205 0.0000 0.0000 0.0000
# 4 0.0000 0.0000 0.0000 30.8880 0.0000 0.0000
# 5 0.0000 0.0000 0.0000 0.0000 41.1075 0.0000
# 6 0.0000 0.0000 0.0000 0.0000 0.0000 48.3273
#
#
#
# Elastic Compliance Matrix: (Units=1/GPa)
#
#
# Indices 1 2 3 4 5 6 
#
# 1 0.011824 -0.001281 -0.003704 0.000000 0.000000 0.000000
# 2 -0.001281 0.012745 -0.004816 0.000000 0.000000 0.000000
# 3 -0.003704 -0.004816 0.012442 0.000000 0.000000 0.000000
# 4 0.000000 0.000000 0.000000 0.032375 0.000000 0.000000
# 5 0.000000 0.000000 0.000000 0.000000 0.024326 0.000000
# 6 0.000000 0.000000 0.000000 0.000000 0.000000 0.020692
#
#
# Mechanical properties :
#
#
# Convention : Reuss Voigt Hill
#
# Bulk Modulus (GPa) = 57.44044 58.46685 57.95364
# Shear Modulus (GPa) = 35.76299 37.25273 36.50786
#
# Velocity S-wave (km/s) = 4.10162 4.18618 4.14411
# Velocity P-wave (km/s) = 7.03219 7.13224 7.08239
#
# Compressibility (1/GPa) = 0.01740934
#
# Stress axis : x y z
#
# Youngs Moduli (GPa) = 84.57391 78.46131 80.37413
#
# Poissons Ratio (x) = 0.10051 0.29768
# Poissons Ratio (y) = 0.10834 0.38709
# Poissons Ratio (z) = 0.31324 0.37788
#
# Static dielectric constant tensor:
#      x y z
#    x 1.818790 0.000000 0.000000 
#    y 0.000000 1.790600 0.000000 
#    z 0.000000 0.000000 1.745500 
# 
# From -- ./inp_files/15189.got.cif
#   From: 2010.05.17/outbox.cif.g08.bks.cpg/sg54_8_cif.got.tgz:15189.got - 2010.06.03 13:09:01.
