data_PCOD9423646
_publ_section_title
;
Structure prediction by ZEFSAII (Michael W. Deem and Ramdas Pophale) SiO2 
 PCOD9423646
Probable space group: P C C A
;
_chemical_formula_sum "Si O2"
_cell_formula_units_Z 40
_cell_length_a 9.085404
_cell_length_b 18.618782
_cell_length_c 9.783127
_cell_angle_alpha 90.000000
_cell_angle_beta 90.000000
_cell_angle_gamma 90.000000
_cell_volume 1654.905511
_symmetry_space_group_name_H-M "P C C A"
_symmetry_group_IT_number 54
_symmetry_cell_setting 'orthorhombic'
loop_
_space_group_symop_operation_xyz
x,y,z
1/2-x,-y,z
1/2+x,-y,1/2-z
-x,y,1/2-z
-x,-y,-z
1/2+x,y,-z
1/2-x,y,1/2+z
x,-y,1/2+z
loop_
_atom_site_type_symbol
_atom_site_label
_atom_site_fract_x
_atom_site_fract_y
_atom_site_fract_z
Si Si1 0.699872 0.214256 0.167950
Si Si2 0.429955 0.577307 0.534003
Si Si3 0.791272 0.627244 0.198047
Si Si4 0.234191 0.919221 0.153792
Si Si5 0.480619 0.846860 0.462577
O O1 0.704600 0.289498 0.244400
O O2 0.670260 0.140734 0.247314
O O3 0.862808 0.202723 0.111168
O O4 0.574664 0.208307 0.054441
O O5 0.500000 0.500000 0.500000
O O6 0.347819 0.606321 0.397662
O O7 0.318149 0.580449 0.664990
O O8 0.569516 0.619681 0.595728
O O9 0.394594 0.889313 0.118008
O O10 0.250000 0.000000 0.203095
O O11 0.122379 0.909319 0.028055
#
# Coordination Sequence:
#
# PCOD9423646 Si02
#       5
#     8   8   8   8   8
#     4  11  24  43  70 102 142 191 247 304 371 449
#     4  11  27  50  79 113 152 198 248 310 388 464
#     4  11  27  48  81 111 157 197 254 312 382 451
#     4  11  24  42  67  99 144 192 248 309 373 441
#     4  10  24  41  67  97 144 183 256 298 382 427
#
# _framework density 24.170563999999999
#
# number of rings (size 3 to 8) (size 9 to 14) (size 15 to 20)
#    0.000    1.200    0.000    3.600   11.200   13.600 
#    3.600    0.000    0.000    0.000    0.000    0.000 
#    0.000    0.000    0.000    0.000    0.000    0.000 
#
# Total GULP energy -223496.422333 kJ/mol
# GULP energy per Si atom -5587.410558 kJ/mol
# Density = 2.411555 g / cm^3
# Si number density = 24.170564 Si / 1000 Ang^3
#
#
#
# Elastic Constant Matrix: (Units=GPa)
#
#
# Indices 1 2 3 4 5 6 
#
# 1 124.1708 24.1912 32.1211 0.0000 0.0000 0.0000
# 2 24.1912 183.3857 47.7101 0.0000 0.0000 0.0000
# 3 32.1211 47.7101 73.3695 0.0000 0.0000 0.0000
# 4 0.0000 0.0000 0.0000 37.1755 0.0000 0.0000
# 5 0.0000 0.0000 0.0000 0.0000 38.1040 0.0000
# 6 0.0000 0.0000 0.0000 0.0000 0.0000 -30.3115
#
#
#
# Elastic Compliance Matrix: (Units=1/GPa)
#
#
# Indices 1 2 3 4 5 6 
#
# 1 0.009088 -0.000197 -0.003851 0.000000 0.000000 0.000000
# 2 -0.000197 0.006568 -0.004184 0.000000 0.000000 0.000000
# 3 -0.003851 -0.004184 0.018036 0.000000 0.000000 0.000000
# 4 0.000000 0.000000 0.000000 0.026899 0.000000 0.000000
# 5 0.000000 0.000000 0.000000 0.000000 0.026244 0.000000
# 6 0.000000 0.000000 0.000000 0.000000 0.000000 -0.032991
#
#
# Mechanical properties :
#
#
# Convention : Reuss Voigt Hill
#
# Bulk Modulus (GPa) = 58.04559 65.44121 61.74340
# Shear Modulus (GPa) = 65.74506 27.45383 46.59945
#
# Velocity S-wave (km/s) = 5.22106 3.37387 4.39560
# Velocity P-wave (km/s) = 7.77259 6.50468 7.16673
#
# Compressibility (1/GPa) = 0.01722784
#
# Stress axis : x y z
#
# Youngs Moduli (GPa) = 110.03662 152.26202 55.44332
#
# Poissons Ratio (x) = 0.03000 0.21349
# Poissons Ratio (y) = 0.02168 0.23200
# Poissons Ratio (z) = 0.42370 0.63714
#
# Static dielectric constant tensor:
#      x y z
#    x 1.917960 0.000000 0.000000 
#    y 0.000000 1.884000 0.000000 
#    z 0.000000 0.000000 2.255560 
# 
# From -- ./inp_files/6871.got.cif
#   From: 2010.05.17/outbox.cif.g08.bks.cpg/sg54_4_cif.got.tgz:6871.got - 2010.06.03 13:09:01.
