data_PCOD9423506
_publ_section_title
;
Structure prediction by ZEFSAII (Michael W. Deem and Ramdas Pophale) SiO2 
 PCOD9423506
Probable space group: P C C A
;
_chemical_formula_sum "Si O2"
_cell_formula_units_Z 56
_cell_length_a 14.788996
_cell_length_b 12.067458
_cell_length_c 14.364108
_cell_angle_alpha 90.000000
_cell_angle_beta 90.000000
_cell_angle_gamma 90.000000
_cell_volume 2563.498982
_symmetry_space_group_name_H-M "P C C A"
_symmetry_group_IT_number 54
_symmetry_cell_setting 'orthorhombic'
loop_
_space_group_symop_operation_xyz
x,y,z
1/2-x,-y,z
1/2+x,-y,1/2-z
-x,y,1/2-z
-x,-y,-z
1/2+x,y,-z
1/2-x,y,1/2+z
x,-y,1/2+z
loop_
_atom_site_type_symbol
_atom_site_label
_atom_site_fract_x
_atom_site_fract_y
_atom_site_fract_z
Si Si1 0.557130 0.148438 0.033533
Si Si2 0.461277 0.496108 0.396470
Si Si3 0.126993 0.296078 0.321535
Si Si4 0.757369 0.371839 0.337319
Si Si5 0.533200 0.066261 0.647275
Si Si6 0.300045 0.343771 0.447806
Si Si7 0.938440 0.284000 0.834437
O O1 0.467862 0.211439 0.075821
O O2 0.574312 0.040088 0.095751
O O3 0.540819 0.109925 0.927769
O O4 0.636592 0.236133 0.044773
O O5 0.500000 0.500000 0.500000
O O6 0.449299 0.616139 0.352468
O O7 0.363168 0.438123 0.402723
O O8 0.527833 0.410272 0.347396
O O9 0.158856 0.319185 0.216885
O O10 0.097146 0.171208 0.337010
O O11 0.213350 0.321180 0.385845
O O12 0.750000 0.500000 0.305889
O O13 0.771639 0.373813 0.447792
O O14 0.667724 0.298320 0.317186
O O15 0.500000 0.034689 0.750000
O O16 0.000000 0.239349 0.750000
#
# Coordination Sequence:
#
# PCOD9423506 Si02
#       7
#     8   8   8   8   8   8   8
#     4  10  23  44  66  88 119 166 218 264 315 382
#     4  11  22  38  60  87 125 171 211 254 317 393
#     4  12  24  39  60  94 131 161 207 266 322 382
#     4  12  23  37  62  99 135 168 207 263 334 401
#     4  11  24  43  66  91 121 162 214 268 320 380
#     4  11  22  40  62  89 127 165 208 262 324 384
#     4  11  22  39  62  88 123 170 212 252 312 391
#
# _framework density 21.845141999999999
#
# number of rings (size 3 to 8) (size 9 to 14) (size 15 to 20)
#    0.000    0.857    0.000   10.286    0.000    2.286 
#    0.000    0.000    0.000    6.857    0.000    0.000 
#    0.000    0.000    0.000    0.000    0.000    0.000 
#
# Total GULP energy -313545.881521 kJ/mol
# GULP energy per Si atom -5599.033599 kJ/mol
# Density = 2.179542 g / cm^3
# Si number density = 21.845142 Si / 1000 Ang^3
#
#
#
# Elastic Constant Matrix: (Units=GPa)
#
#
# Indices 1 2 3 4 5 6 
#
# 1 61.4176 24.8694 11.8312 0.0000 0.0000 0.0000
# 2 24.8694 121.4966 7.0415 0.0000 0.0000 0.0000
# 3 11.8312 7.0415 102.4045 0.0000 0.0000 0.0000
# 4 0.0000 0.0000 0.0000 30.0497 0.0000 0.0000
# 5 0.0000 0.0000 0.0000 0.0000 32.5937 0.0000
# 6 0.0000 0.0000 0.0000 0.0000 0.0000 17.1551
#
#
#
# Elastic Compliance Matrix: (Units=1/GPa)
#
#
# Indices 1 2 3 4 5 6 
#
# 1 0.018093 -0.003597 -0.001843 0.000000 0.000000 0.000000
# 2 -0.003597 0.008979 -0.000202 0.000000 0.000000 0.000000
# 3 -0.001843 -0.000202 0.009992 0.000000 0.000000 0.000000
# 4 0.000000 0.000000 0.000000 0.033278 0.000000 0.000000
# 5 0.000000 0.000000 0.000000 0.000000 0.030681 0.000000
# 6 0.000000 0.000000 0.000000 0.000000 0.000000 0.058292
#
#
# Mechanical properties :
#
#
# Convention : Reuss Voigt Hill
#
# Bulk Modulus (GPa) = 38.78875 41.42255 40.10565
# Shear Modulus (GPa) = 27.90310 32.06481 29.98396
#
# Velocity S-wave (km/s) = 3.57783 3.83537 3.70884
# Velocity P-wave (km/s) = 5.90446 6.21422 6.06132
#
# Compressibility (1/GPa) = 0.02578067
#
# Stress axis : x y z
#
# Youngs Moduli (GPa) = 55.26867 111.37577 100.07992
#
# Poissons Ratio (x) = 0.40059 0.18446
# Poissons Ratio (y) = 0.19879 0.02020
# Poissons Ratio (z) = 0.10187 0.02248
#
# Static dielectric constant tensor:
#      x y z
#    x 1.806100 0.000000 0.000000 
#    y 0.000000 1.784300 0.000000 
#    z 0.000000 0.000000 3.203620 
# 
# From -- ./inp_files/13477.got.cif
#   From: 2010.05.17/outbox.cif.g08.bks.cpg/sg54_7_cif.got.tgz:13477.got - 2010.06.03 13:09:01.
