data_PCOD9423458
_publ_section_title
;
Structure prediction by ZEFSAII (Michael W. Deem and Ramdas Pophale) SiO2 
 PCOD9423458
Probable space group: P C C A
;
_chemical_formula_sum "Si O2"
_cell_formula_units_Z 32
_cell_length_a 9.552312
_cell_length_b 5.811327
_cell_length_c 21.333999
_cell_angle_alpha 90.000000
_cell_angle_beta 90.000000
_cell_angle_gamma 90.000000
_cell_volume 1184.284603
_symmetry_space_group_name_H-M "P C C A"
_symmetry_group_IT_number 54
_symmetry_cell_setting 'orthorhombic'
loop_
_space_group_symop_operation_xyz
x,y,z
1/2-x,-y,z
1/2+x,-y,1/2-z
-x,y,1/2-z
-x,-y,-z
1/2+x,y,-z
1/2-x,y,1/2+z
x,-y,1/2+z
loop_
_atom_site_type_symbol
_atom_site_label
_atom_site_fract_x
_atom_site_fract_y
_atom_site_fract_z
Si Si1 0.461570 0.000591 0.823208
Si Si2 0.804590 0.250000 0.036198
Si Si3 0.883120 0.750001 0.917741
Si Si4 0.961570 0.499407 0.176792
O O1 0.500000 0.998016 0.750000
O O2 0.593147 0.038542 0.869567
O O3 0.387852 0.249999 0.832246
O O4 0.403267 0.749999 0.836787
O O5 0.750000 0.500000 0.060904
O O6 0.742510 0.250000 0.965664
O O7 0.750000 0.000000 0.060904
O O8 0.973195 0.250000 0.039943
O O9 0.906853 0.538544 0.869567
O O10 0.000000 0.501982 0.250000
#
# Coordination Sequence:
#
# PCOD9423458 Si02
#       4
#     8   8   8   8
#     4   8  16  32  63  95 122 162 214 267 318 373
#     4  12  28  42  64  94 134 176 220 260 320 386
#     4  10  23  42  68  94 135 166 216 268 322 386
#     4   8  16  32  63  95 122 162 214 267 318 373
#
# _framework density 27.020533
#
# number of rings (size 3 to 8) (size 9 to 14) (size 15 to 20)
#    1.500    1.000    0.000    1.500    7.000    0.000 
#    0.000    0.000    0.000   12.000    0.000    7.000 
#    0.000    0.000    0.000    0.000    0.000    0.000 
#
# Total GULP energy -178176.586863 kJ/mol
# GULP energy per Si atom -5568.018339 kJ/mol
# Density = 2.695903 g / cm^3
# Si number density = 27.020533 Si / 1000 Ang^3
#
#
#
# Elastic Constant Matrix: (Units=GPa)
#
#
# Indices 1 2 3 4 5 6 
#
# 1 89.7412 1.4321 76.2568 0.0000 0.0000 0.0000
# 2 1.4321 329.4955 59.0223 0.0000 0.0000 0.0000
# 3 76.2568 59.0223 194.2749 0.0000 0.0000 0.0000
# 4 0.0000 0.0000 0.0000 22.2890 0.0000 0.0000
# 5 0.0000 0.0000 0.0000 0.0000 -8.3411 0.0000
# 6 0.0000 0.0000 0.0000 0.0000 0.0000 7.8203
#
#
#
# Elastic Compliance Matrix: (Units=1/GPa)
#
#
# Indices 1 2 3 4 5 6 
#
# 1 0.017155 0.001197 -0.007097 0.000000 0.000000 0.000000
# 2 0.001197 0.003293 -0.001470 0.000000 0.000000 0.000000
# 3 -0.007097 -0.001470 0.008380 0.000000 0.000000 0.000000
# 4 0.000000 0.000000 0.000000 0.044865 0.000000 0.000000
# 5 0.000000 0.000000 0.000000 0.000000 -0.119888 0.000000
# 6 0.000000 0.000000 0.000000 0.000000 0.000000 0.127872
#
#
# Mechanical properties :
#
#
# Convention : Reuss Voigt Hill
#
# Bulk Modulus (GPa) = 70.99038 98.54820 84.76929
# Shear Modulus (GPa) = 49.44937 36.14035 42.79486
#
# Velocity S-wave (km/s) = 4.28257 3.66117 3.98400
# Velocity P-wave (km/s) = 7.12626 7.37720 7.25282
#
# Compressibility (1/GPa) = 0.01408641
#
# Stress axis : x y z
#
# Youngs Moduli (GPa) = 58.29259 303.66515 119.33455
#
# Poissons Ratio (x) = -0.36341 0.84694
# Poissons Ratio (y) = -0.06976 0.17545
# Poissons Ratio (z) = 0.41371 0.44646
#
# Static dielectric constant tensor:
#      x y z
#    x 2.480040 0.000000 0.000000 
#    y 0.000000 2.187250 0.000000 
#    z 0.000000 0.000000 2.126390 
# 
# From -- ./inp_files/23769.got.cif
#   From: 2010.05.17/outbox.cif.g08.bks.cpg/sg54_12_cif.got.tgz:23769.got - 2010.06.03 13:09:01.
