data_PCOD9423037
_publ_section_title
;
Structure prediction by ZEFSAII (Michael W. Deem and Ramdas Pophale) SiO2 
 PCOD9423037
Probable space group: P C C A
;
_chemical_formula_sum "Si O2"
_cell_formula_units_Z 60
_cell_length_a 17.996635
_cell_length_b 18.887154
_cell_length_c 8.543935
_cell_angle_alpha 90.000000
_cell_angle_beta 90.000000
_cell_angle_gamma 90.000000
_cell_volume 2904.128078
_symmetry_space_group_name_H-M "P C C A"
_symmetry_group_IT_number 54
_symmetry_cell_setting 'orthorhombic'
loop_
_space_group_symop_operation_xyz
x,y,z
1/2-x,-y,z
1/2+x,-y,1/2-z
-x,y,1/2-z
-x,-y,-z
1/2+x,y,-z
1/2-x,y,1/2+z
x,-y,1/2+z
loop_
_atom_site_type_symbol
_atom_site_label
_atom_site_fract_x
_atom_site_fract_y
_atom_site_fract_z
Si Si1 0.053256 0.792889 0.600415
Si Si2 0.433350 0.668566 0.858843
Si Si3 0.750000 0.500000 0.210256
Si Si4 0.800723 0.278677 0.859261
Si Si5 0.430842 0.950836 0.039269
Si Si6 0.683966 0.402715 0.949605
Si Si7 0.327102 0.969607 0.320951
Si Si8 0.809234 0.193274 0.171896
O O1 0.043780 0.736900 0.461715
O O2 0.043747 0.870266 0.525823
O O3 0.133807 0.793756 0.684592
O O4 0.000000 0.782021 0.750000
O O5 0.500000 0.641800 0.750000
O O6 0.367595 0.686787 0.736748
O O7 0.396977 0.619518 0.992660
O O8 0.721211 0.437981 0.100735
O O9 0.811844 0.463677 0.319158
O O10 0.768432 0.218053 0.745149
O O11 0.735688 0.336569 0.895757
O O12 0.824712 0.242835 0.022505
O O13 0.357595 0.973470 0.943498
O O14 0.399185 0.961352 0.212153
O O15 0.500000 0.000000 0.000000
O O16 0.311688 0.889102 0.376190
O O17 0.250000 0.000000 0.252414
#
# Coordination Sequence:
#
# PCOD9423037 Si02
#       8
#     8   8   4   8   8   8   8   8
#     4  11  24  45  63  97 133 183 234 289 357 414
#     4  12  26  43  68 107 145 181 231 292 352 409
#     4  10  22  40  78 104 140 180 238 266 326 420
#     4  12  22  42  70  98 137 180 228 281 345 414
#     4  11  24  44  63  86 125 179 228 282 346 426
#     4  11  21  43  70 108 136 183 229 274 327 408
#     4  11  26  38  60  91 125 163 223 290 353 404
#     4  11  23  38  65  92 129 175 228 287 350 413
#
# _framework density 20.660245
#
# number of rings (size 3 to 8) (size 9 to 14) (size 15 to 20)
#    0.000    0.800    4.000    3.200    7.467    1.067 
#    0.000    0.667    0.000    0.000    0.000    0.000 
#    0.000    0.000    0.000    0.000    0.000    0.000 
#
# Total GULP energy -334909.916431 kJ/mol
# GULP energy per Si atom -5581.831941 kJ/mol
# Density = 2.061322 g / cm^3
# Si number density = 20.660245 Si / 1000 Ang^3
#
#
#
# Elastic Constant Matrix: (Units=GPa)
#
#
# Indices 1 2 3 4 5 6 
#
# 1 81.2658 14.9721 4.7304 0.0000 0.0000 0.0000
# 2 14.9721 76.6443 38.3454 0.0000 0.0000 0.0000
# 3 4.7304 38.3454 67.8001 0.0000 0.0000 0.0000
# 4 0.0000 0.0000 0.0000 26.2061 0.0000 0.0000
# 5 0.0000 0.0000 0.0000 0.0000 41.5453 0.0000
# 6 0.0000 0.0000 0.0000 0.0000 0.0000 21.7117
#
#
#
# Elastic Compliance Matrix: (Units=1/GPa)
#
#
# Indices 1 2 3 4 5 6 
#
# 1 0.012790 -0.002862 0.000726 0.000000 0.000000 0.000000
# 2 -0.002862 0.018836 -0.010453 0.000000 0.000000 0.000000
# 3 0.000726 -0.010453 0.020611 0.000000 0.000000 0.000000
# 4 0.000000 0.000000 0.000000 0.038159 0.000000 0.000000
# 5 0.000000 0.000000 0.000000 0.000000 0.024070 0.000000
# 6 0.000000 0.000000 0.000000 0.000000 0.000000 0.046058
#
#
# Mechanical properties :
#
#
# Convention : Reuss Voigt Hill
#
# Bulk Modulus (GPa) = 36.95630 37.97845 37.46738
# Shear Modulus (GPa) = 25.67756 29.07010 27.37383
#
# Velocity S-wave (km/s) = 3.52923 3.75514 3.64394
# Velocity P-wave (km/s) = 5.87654 6.10113 5.98989
#
# Compressibility (1/GPa) = 0.02705899
#
# Stress axis : x y z
#
# Youngs Moduli (GPa) = 78.18434 53.08913 48.51846
#
# Poissons Ratio (x) = 0.15193 -0.03523
# Poissons Ratio (y) = 0.22375 0.50719
# Poissons Ratio (z) = -0.05678 0.55497
#
# Static dielectric constant tensor:
#      x y z
#    x 1.774410 0.000000 0.000000 
#    y 0.000000 1.797180 0.000000 
#    z 0.000000 0.000000 1.658280 
# 
# From -- ./inp_files/4356.got.cif
#   From: 2010.05.17/outbox.cif.g08.bks.cpg/sg54_3_cif.got.tgz:4356.got - 2010.06.03 13:09:01.
