data_PCOD9423855
_publ_section_title
;
Structure prediction by ZEFSAII (Michael W. Deem and Ramdas Pophale) SiO2 
 PCOD9423855
Probable space group: P C C A
;
_chemical_formula_sum "Si O2"
_cell_formula_units_Z 28
_cell_length_a 10.913483
_cell_length_b 11.519333
_cell_length_c 8.168566
_cell_angle_alpha 90.000000
_cell_angle_beta 90.000000
_cell_angle_gamma 90.000000
_cell_volume 1026.919810
_symmetry_space_group_name_H-M "P C C A"
_symmetry_group_IT_number 54
_symmetry_cell_setting 'orthorhombic'
loop_
_space_group_symop_operation_xyz
x,y,z
1/2-x,-y,z
1/2+x,-y,1/2-z
-x,y,1/2-z
-x,-y,-z
1/2+x,y,-z
1/2-x,y,1/2+z
x,-y,1/2+z
loop_
_atom_site_type_symbol
_atom_site_label
_atom_site_fract_x
_atom_site_fract_y
_atom_site_fract_z
Si Si1 0.502287 0.792755 0.559720
Si Si2 0.750000 0.500000 0.410547
Si Si3 0.263601 0.127551 0.620727
Si Si4 0.863141 0.344177 0.175885
O O1 0.500000 0.753952 0.750000
O O2 0.621443 0.865162 0.506065
O O3 0.485960 0.696654 0.417127
O O4 0.371837 0.856903 0.546173
O O5 0.716648 0.391457 0.522318
O O6 0.856976 0.457518 0.290750
O O7 0.294404 0.235072 0.741075
O O8 0.250000 0.000000 0.698637
#
# Coordination Sequence:
#
# PCOD9423855 Si02
#       4
#     8   4   8   8
#     4  12  28  50  84 125 171 223 281 350 434 515
#     4  10  24  50  90 120 170 230 290 356 422 518
#     4  12  28  54  85 127 173 223 283 358 437 519
#     4  11  24  50  88 121 174 222 290 352 435 503
#
# _framework density 27.266005
#
# number of rings (size 3 to 8) (size 9 to 14) (size 15 to 20)
#    0.000    0.571    2.857    3.429    0.000    6.857 
#    0.000   10.000    0.000    0.000    0.000    0.000 
#    0.000    0.000    0.000    0.000    0.000    0.000 
#
# Total GULP energy -156494.375328 kJ/mol
# GULP energy per Si atom -5589.084833 kJ/mol
# Density = 2.720395 g / cm^3
# Si number density = 27.266005 Si / 1000 Ang^3
#
#
#
# Elastic Constant Matrix: (Units=GPa)
#
#
# Indices 1 2 3 4 5 6 
#
# 1 205.6492 59.9358 46.4468 0.0000 0.0000 0.0000
# 2 59.9358 156.9373 86.4367 0.0000 0.0000 0.0000
# 3 46.4468 86.4367 143.7956 0.0000 0.0000 0.0000
# 4 0.0000 0.0000 0.0000 23.8185 0.0000 0.0000
# 5 0.0000 0.0000 0.0000 0.0000 36.3658 0.0000
# 6 0.0000 0.0000 0.0000 0.0000 0.0000 36.2910
#
#
#
# Elastic Compliance Matrix: (Units=1/GPa)
#
#
# Indices 1 2 3 4 5 6 
#
# 1 0.005528 -0.001686 -0.000772 0.000000 0.000000 0.000000
# 2 -0.001686 0.010040 -0.005490 0.000000 0.000000 0.000000
# 3 -0.000772 -0.005490 0.010504 0.000000 0.000000 0.000000
# 4 0.000000 0.000000 0.000000 0.041984 0.000000 0.000000
# 5 0.000000 0.000000 0.000000 0.000000 0.027498 0.000000
# 6 0.000000 0.000000 0.000000 0.000000 0.000000 0.027555
#
#
# Mechanical properties :
#
#
# Convention : Reuss Voigt Hill
#
# Bulk Modulus (GPa) = 98.28018 99.11340 98.69679
# Shear Modulus (GPa) = 35.11260 40.19927 37.65593
#
# Velocity S-wave (km/s) = 3.59246 3.84387 3.72029
# Velocity P-wave (km/s) = 7.30280 7.49199 7.39800
#
# Compressibility (1/GPa) = 0.01017499
#
# Stress axis : x y z
#
# Youngs Moduli (GPa) = 180.88249 99.60287 95.20092
#
# Poissons Ratio (x) = 0.16793 0.07352
# Poissons Ratio (y) = 0.30498 0.52270
# Poissons Ratio (z) = 0.13968 0.54686
#
# Static dielectric constant tensor:
#      x y z
#    x 2.226450 0.000000 0.000000 
#    y 0.000000 2.068810 0.000000 
#    z 0.000000 0.000000 2.316350 
# 
# From -- ./inp_files/3202.got.cif
#   From: 2010.05.17/outbox.cif.g08.bks.cpg/sg54_2_cif.got.tgz:3202.got - 2010.06.03 13:09:01.
