data_PCOD9423259
_publ_section_title
;
Structure prediction by ZEFSAII (Michael W. Deem and Ramdas Pophale) SiO2 
 PCOD9423259
Probable space group: P C C A
;
_chemical_formula_sum "Si O2"
_cell_formula_units_Z 44
_cell_length_a 17.253431
_cell_length_b 9.362042
_cell_length_c 13.495762
_cell_angle_alpha 90.000000
_cell_angle_beta 90.000000
_cell_angle_gamma 90.000000
_cell_volume 2179.934614
_symmetry_space_group_name_H-M "P C C A"
_symmetry_group_IT_number 54
_symmetry_cell_setting 'orthorhombic'
loop_
_space_group_symop_operation_xyz
x,y,z
1/2-x,-y,z
1/2+x,-y,1/2-z
-x,y,1/2-z
-x,-y,-z
1/2+x,y,-z
1/2-x,y,1/2+z
x,-y,1/2+z
loop_
_atom_site_type_symbol
_atom_site_label
_atom_site_fract_x
_atom_site_fract_y
_atom_site_fract_z
Si Si1 0.007692 0.314488 0.928567
Si Si2 0.629244 0.142870 0.736353
Si Si3 0.000000 0.903861 0.250000
Si Si4 0.588220 0.600508 0.108713
Si Si5 0.164437 0.770046 0.541795
Si Si6 0.250000 0.500000 0.460987
Si Si7 0.750000 0.000000 0.092072
O O1 0.032272 0.464517 0.878367
O O2 0.995325 0.195461 0.846438
O O3 0.079908 0.271534 0.999035
O O4 0.934999 0.338490 0.000502
O O5 0.582963 0.274593 0.687973
O O6 0.658721 0.186615 0.844267
O O7 0.574188 0.005837 0.744262
O O8 0.698271 0.100707 0.662109
O O9 0.676528 0.546730 0.104335
O O10 0.219805 0.633589 0.524961
O O11 0.196935 0.900413 0.476686
#
# Coordination Sequence:
#
# PCOD9423259 Si02
#       7
#     8   8   4   8   8   4   4
#     4  10  24  44  68  95 137 178 232 288 333 413
#     4  12  26  41  71 102 136 184 224 281 350 421
#     4  12  26  42  70 102 132 184 224 278 360 402
#     4  10  23  44  67  97 136 178 231 284 341 406
#     4  11  24  45  67  99 137 178 228 281 346 405
#     4  10  22  44  70  96 134 182 222 292 332 400
#     4  12  24  46  64 102 142 178 224 284 340 420
#
# _framework density 20.184090999999999
#
# number of rings (size 3 to 8) (size 9 to 14) (size 15 to 20)
#    0.000    1.091    3.636    1.636    2.545    8.727 
#    0.000    0.000    0.000    0.000    0.000    0.000 
#    0.000    0.000    0.000    0.000    0.000    0.000 
#
# Total GULP energy -246178.748551 kJ/mol
# GULP energy per Si atom -5594.971558 kJ/mol
# Density = 2.013815 g / cm^3
# Si number density = 20.184091 Si / 1000 Ang^3
#
#
#
# Elastic Constant Matrix: (Units=GPa)
#
#
# Indices 1 2 3 4 5 6 
#
# 1 50.9576 9.8476 20.2478 0.0000 0.0000 0.0000
# 2 9.8476 119.2042 69.8935 0.0000 0.0000 0.0000
# 3 20.2478 69.8935 118.3020 0.0000 0.0000 0.0000
# 4 0.0000 0.0000 0.0000 53.1099 0.0000 0.0000
# 5 0.0000 0.0000 0.0000 0.0000 33.3014 0.0000
# 6 0.0000 0.0000 0.0000 0.0000 0.0000 32.4654
#
#
#
# Elastic Compliance Matrix: (Units=1/GPa)
#
#
# Indices 1 2 3 4 5 6 
#
# 1 0.021082 0.000572 -0.003946 0.000000 0.000000 0.000000
# 2 0.000572 0.012851 -0.007690 0.000000 0.000000 0.000000
# 3 -0.003946 -0.007690 0.013672 0.000000 0.000000 0.000000
# 4 0.000000 0.000000 0.000000 0.018829 0.000000 0.000000
# 5 0.000000 0.000000 0.000000 0.000000 0.030029 0.000000
# 6 0.000000 0.000000 0.000000 0.000000 0.000000 0.030802
#
#
# Mechanical properties :
#
#
# Convention : Reuss Voigt Hill
#
# Bulk Modulus (GPa) = 39.25318 54.27128 46.76223
# Shear Modulus (GPa) = 31.66879 36.34034 34.00456
#
# Velocity S-wave (km/s) = 3.96535 4.24777 4.10899
# Velocity P-wave (km/s) = 6.36044 7.14175 6.76239
#
# Compressibility (1/GPa) = 0.02547564
#
# Stress axis : x y z
#
# Youngs Moduli (GPa) = 47.43467 77.81660 73.14330
#
# Poissons Ratio (x) = -0.04453 0.28864
# Poissons Ratio (y) = -0.02715 0.56249
# Poissons Ratio (z) = 0.18719 0.59843
#
# Static dielectric constant tensor:
#      x y z
#    x 1.719690 0.000000 0.000000 
#    y 0.000000 1.710150 0.000000 
#    z 0.000000 0.000000 1.664580 
# 
# From -- ./inp_files/14052.got.cif
#   From: 2010.05.17/outbox.cif.g08.bks.cpg/sg54_8_cif.got.tgz:14052.got - 2010.06.03 13:09:01.
