data_PCOD9423988
_publ_section_title
;
Structure prediction by ZEFSAII (Michael W. Deem and Ramdas Pophale) SiO2 
 PCOD9423988
Probable space group: P C C A
;
_chemical_formula_sum "Si O2"
_cell_formula_units_Z 32
_cell_length_a 11.022897
_cell_length_b 9.213397
_cell_length_c 13.702359
_cell_angle_alpha 90.000000
_cell_angle_beta 90.000000
_cell_angle_gamma 90.000000
_cell_volume 1391.588644
_symmetry_space_group_name_H-M "P C C A"
_symmetry_group_IT_number 54
_symmetry_cell_setting 'orthorhombic'
loop_
_space_group_symop_operation_xyz
x,y,z
1/2-x,-y,z
1/2+x,-y,1/2-z
-x,y,1/2-z
-x,-y,-z
1/2+x,y,-z
1/2-x,y,1/2+z
x,-y,1/2+z
loop_
_atom_site_type_symbol
_atom_site_label
_atom_site_fract_x
_atom_site_fract_y
_atom_site_fract_z
Si Si1 0.260807 0.717173 0.581174
Si Si2 0.136767 0.904605 0.240107
Si Si3 0.052476 0.532066 0.640047
Si Si4 0.824445 0.369186 0.624175
O O1 0.322220 0.856682 0.630847
O O2 0.123083 0.682061 0.617565
O O3 0.346952 0.589571 0.619904
O O4 0.249387 0.702506 0.464818
O O5 0.135807 0.757388 0.304230
O O6 0.000000 0.966129 0.250000
O O7 0.250000 0.000000 0.276839
O O8 0.000000 0.539399 0.750000
O O9 0.937840 0.460851 0.584088
O O10 0.750000 0.500000 0.673327
#
# Coordination Sequence:
#
# PCOD9423988 Si02
#       4
#     8   8   8   8
#     4  11  23  41  69 105 135 179 227 290 355 423
#     4  12  28  51  69  99 145 197 241 293 351 432
#     4  11  20  39  67 103 145 172 219 285 356 415
#     4  12  23  40  75 106 139 173 230 295 362 418
#
# _framework density 22.995301999999999
#
# number of rings (size 3 to 8) (size 9 to 14) (size 15 to 20)
#    0.000    0.500    7.500    2.250    0.000    4.000 
#    0.000    2.500    0.000    0.000    0.000    0.000 
#    0.000    0.000    0.000    0.000    0.000    0.000 
#
# Total GULP energy -178392.611140 kJ/mol
# GULP energy per Si atom -5574.769098 kJ/mol
# Density = 2.294296 g / cm^3
# Si number density = 22.995302 Si / 1000 Ang^3
#
#
#
# Elastic Constant Matrix: (Units=GPa)
#
#
# Indices 1 2 3 4 5 6 
#
# 1 160.1521 38.8932 5.7099 0.0000 0.0000 0.0000
# 2 38.8932 34.5450 -7.0644 0.0000 0.0000 0.0000
# 3 5.7099 -7.0644 83.4342 0.0000 0.0000 0.0000
# 4 0.0000 0.0000 0.0000 19.0229 0.0000 0.0000
# 5 0.0000 0.0000 0.0000 0.0000 41.7610 0.0000
# 6 0.0000 0.0000 0.0000 0.0000 0.0000 34.2684
#
#
#
# Elastic Compliance Matrix: (Units=1/GPa)
#
#
# Indices 1 2 3 4 5 6 
#
# 1 0.008765 -0.010167 -0.001461 0.000000 0.000000 0.000000
# 2 -0.010167 0.041251 0.004189 0.000000 0.000000 0.000000
# 3 -0.001461 0.004189 0.012440 0.000000 0.000000 0.000000
# 4 0.000000 0.000000 0.000000 0.052568 0.000000 0.000000
# 5 0.000000 0.000000 0.000000 0.000000 0.023946 0.000000
# 6 0.000000 0.000000 0.000000 0.000000 0.000000 0.029181
#
#
# Mechanical properties :
#
#
# Convention : Reuss Voigt Hill
#
# Bulk Modulus (GPa) = 21.01816 39.24541 30.13178
# Shear Modulus (GPa) = 25.13949 35.04998 30.09473
#
# Velocity S-wave (km/s) = 3.31001 3.90837 3.62157
# Velocity P-wave (km/s) = 4.87527 6.12134 5.53350
#
# Compressibility (1/GPa) = 0.04757790
#
# Stress axis : x y z
#
# Youngs Moduli (GPa) = 114.08641 24.24162 80.38515
#
# Poissons Ratio (x) = 0.24647 0.11742
# Poissons Ratio (y) = 1.15995 -0.33670
# Poissons Ratio (z) = 0.16665 -0.10154
#
# Static dielectric constant tensor:
#      x y z
#    x 1.988650 0.000000 0.000000 
#    y 0.000000 1.882950 0.000000 
#    z 0.000000 0.000000 1.929590 
# 
# From -- ./inp_files/12191.got.cif
#   From: 2010.05.17/outbox.cif.g08.bks.cpg/sg54_7_cif.got.tgz:12191.got - 2010.06.03 13:09:01.
