data_PCOD9423174
_publ_section_title
;
Structure prediction by ZEFSAII (Michael W. Deem and Ramdas Pophale) SiO2 
 PCOD9423174
Probable space group: P C C A
;
_chemical_formula_sum "Si O2"
_cell_formula_units_Z 60
_cell_length_a 11.278296
_cell_length_b 13.190198
_cell_length_c 17.783596
_cell_angle_alpha 90.000000
_cell_angle_beta 90.000000
_cell_angle_gamma 90.000000
_cell_volume 2645.540333
_symmetry_space_group_name_H-M "P C C A"
_symmetry_group_IT_number 54
_symmetry_cell_setting 'orthorhombic'
loop_
_space_group_symop_operation_xyz
x,y,z
1/2-x,-y,z
1/2+x,-y,1/2-z
-x,y,1/2-z
-x,-y,-z
1/2+x,y,-z
1/2-x,y,1/2+z
x,-y,1/2+z
loop_
_atom_site_type_symbol
_atom_site_label
_atom_site_fract_x
_atom_site_fract_y
_atom_site_fract_z
Si Si1 0.644546 0.309230 0.896684
Si Si2 0.250000 0.500000 0.027790
Si Si3 0.303826 0.176905 0.010789
Si Si4 0.968537 0.899884 0.358990
Si Si5 0.679059 0.190781 0.222879
Si Si6 0.712541 0.614066 0.243228
Si Si7 0.148353 0.926428 0.857318
Si Si8 0.614926 0.627776 0.075691
O O1 0.727473 0.402206 0.922263
O O2 0.637379 0.328788 0.807730
O O3 0.517125 0.331513 0.929671
O O4 0.697767 0.204805 0.930493
O O5 0.357959 0.472494 0.972250
O O6 0.311168 0.098466 0.941999
O O7 0.313290 0.281345 0.963839
O O8 0.409081 0.137567 0.064644
O O9 0.874261 0.873159 0.292993
O O10 0.086080 0.833752 0.343082
O O11 0.022689 0.014951 0.355839
O O12 0.675238 0.309913 0.239499
O O13 0.814516 0.167813 0.195499
O O14 0.750000 0.500000 0.263153
O O15 0.652889 0.609616 0.161292
O O16 0.250000 0.000000 0.825752
#
# Coordination Sequence:
#
# PCOD9423174 Si02
#       8
#     8   4   8   8   8   8   8   8
#     4  11  24  42  64  98 138 181 233 291 354 417
#     4  10  22  44  62  98 136 178 242 286 342 428
#     4  11  23  42  68 101 139 177 228 299 351 432
#     4  10  22  43  72 100 133 188 233 284 368 422
#     4  10  22  45  68 100 141 181 235 298 346 427
#     4  12  23  46  67  99 142 190 241 287 350 433
#     4  10  22  42  72  99 135 178 236 287 356 433
#     4  11  24  40  67  96 139 186 229 294 358 399
#
# _framework density 22.679677000000002
#
# number of rings (size 3 to 8) (size 9 to 14) (size 15 to 20)
#    0.000    1.333    4.000    1.200    3.733    0.000 
#    9.600   10.000    0.000    0.000    0.000    0.000 
#    0.000    0.000    0.000    0.000    0.000    0.000 
#
# Total GULP energy -334116.112748 kJ/mol
# GULP energy per Si atom -5568.601879 kJ/mol
# Density = 2.262806 g / cm^3
# Si number density = 22.679677 Si / 1000 Ang^3
#
#
#
# Elastic Constant Matrix: (Units=GPa)
#
#
# Indices 1 2 3 4 5 6 
#
# 1 62.6268 22.6916 28.0876 0.0000 0.0000 0.0000
# 2 22.6916 94.9422 38.5754 0.0000 0.0000 0.0000
# 3 28.0876 38.5754 116.8031 0.0000 0.0000 0.0000
# 4 0.0000 0.0000 0.0000 44.2521 0.0000 0.0000
# 5 0.0000 0.0000 0.0000 0.0000 26.9172 0.0000
# 6 0.0000 0.0000 0.0000 0.0000 0.0000 30.9409
#
#
#
# Elastic Compliance Matrix: (Units=1/GPa)
#
#
# Indices 1 2 3 4 5 6 
#
# 1 0.018628 -0.003040 -0.003475 0.000000 0.000000 0.000000
# 2 -0.003040 0.012661 -0.003450 0.000000 0.000000 0.000000
# 3 -0.003475 -0.003450 0.010537 0.000000 0.000000 0.000000
# 4 0.000000 0.000000 0.000000 0.022598 0.000000 0.000000
# 5 0.000000 0.000000 0.000000 0.000000 0.037151 0.000000
# 6 0.000000 0.000000 0.000000 0.000000 0.000000 0.032320
#
#
# Mechanical properties :
#
#
# Convention : Reuss Voigt Hill
#
# Bulk Modulus (GPa) = 45.67485 50.34236 48.00860
# Shear Modulus (GPa) = 31.03200 32.75654 31.89427
#
# Velocity S-wave (km/s) = 3.70303 3.80453 3.75413
# Velocity P-wave (km/s) = 6.20210 6.44551 6.32498
#
# Compressibility (1/GPa) = 0.02189389
#
# Stress axis : x y z
#
# Youngs Moduli (GPa) = 53.68321 78.98120 94.90638
#
# Poissons Ratio (x) = 0.24011 0.32984
# Poissons Ratio (y) = 0.16320 0.32747
# Poissons Ratio (z) = 0.18657 0.27252
#
# Static dielectric constant tensor:
#      x y z
#    x 1.878250 0.000000 0.000000 
#    y 0.000000 1.988950 0.000000 
#    z 0.000000 0.000000 1.903830 
# 
# From -- ./inp_files/17430.got.cif
#   From: 2010.05.17/outbox.cif.g08.bks.cpg/sg54_9_cif.got.tgz:17430.got - 2010.06.03 13:09:01.
