data_PCOD9423325
_publ_section_title
;
Structure prediction by ZEFSAII (Michael W. Deem and Ramdas Pophale) SiO2 
 PCOD9423325
Probable space group: P C C A
;
_chemical_formula_sum "Si O2"
_cell_formula_units_Z 32
_cell_length_a 12.986886
_cell_length_b 13.511196
_cell_length_c 9.338961
_cell_angle_alpha 90.000000
_cell_angle_beta 90.000000
_cell_angle_gamma 90.000000
_cell_volume 1638.692191
_symmetry_space_group_name_H-M "P C C A"
_symmetry_group_IT_number 54
_symmetry_cell_setting 'orthorhombic'
loop_
_space_group_symop_operation_xyz
x,y,z
1/2-x,-y,z
1/2+x,-y,1/2-z
-x,y,1/2-z
-x,-y,-z
1/2+x,y,-z
1/2-x,y,1/2+z
x,-y,1/2+z
loop_
_atom_site_type_symbol
_atom_site_label
_atom_site_fract_x
_atom_site_fract_y
_atom_site_fract_z
Si Si1 0.897260 0.671005 0.333573
Si Si2 0.750000 0.500000 0.741005
Si Si3 0.750000 0.000000 0.505209
Si Si4 0.446396 0.584781 0.401259
Si Si5 0.623328 0.107248 0.254874
O O1 0.810129 0.586772 0.324450
O O2 0.934283 0.679539 0.497233
O O3 0.863301 0.774284 0.267531
O O4 0.000000 0.636993 0.250000
O O5 0.665228 0.451289 0.642092
O O6 0.824298 0.939961 0.396393
O O7 0.680514 0.934067 0.613478
O O8 0.500000 0.603027 0.250000
O O9 0.500000 0.500000 0.500000
O O10 0.500000 0.087851 0.250000
#
# Coordination Sequence:
#
# PCOD9423325 Si02
#       5
#     8   4   4   8   8
#     4  11  24  43  61  96 131 172 222 265 315 388
#     4  12  22  38  66  84 138 172 212 258 316 360
#     4  10  22  46  72  98 122 174 216 272 358 396
#     4  12  23  41  59  89 129 174 218 263 309 375
#     4  10  23  44  70  98 134 164 219 282 331 400
#
# _framework density 19.527767000000001
#
# number of rings (size 3 to 8) (size 9 to 14) (size 15 to 20)
#    0.000    1.000    5.000    1.500    3.500    0.000 
#    4.500    1.250    0.000    0.000    0.000    0.000 
#    0.000    0.000    0.000    0.000    0.000    0.000 
#
# Total GULP energy -178518.111203 kJ/mol
# GULP energy per Si atom -5578.690975 kJ/mol
# Density = 1.948332 g / cm^3
# Si number density = 19.527767 Si / 1000 Ang^3
#
#
#
# Elastic Constant Matrix: (Units=GPa)
#
#
# Indices 1 2 3 4 5 6 
#
# 1 145.8265 57.2041 71.3382 0.0000 0.0000 0.0000
# 2 57.2041 99.2639 52.7804 0.0000 0.0000 0.0000
# 3 71.3382 52.7804 165.6820 0.0000 0.0000 0.0000
# 4 0.0000 0.0000 0.0000 23.1917 0.0000 0.0000
# 5 0.0000 0.0000 0.0000 0.0000 31.9970 0.0000
# 6 0.0000 0.0000 0.0000 0.0000 0.0000 29.1679
#
#
#
# Elastic Compliance Matrix: (Units=1/GPa)
#
#
# Indices 1 2 3 4 5 6 
#
# 1 0.009931 -0.004153 -0.002953 0.000000 0.000000 0.000000
# 2 -0.004153 0.013865 -0.002629 0.000000 0.000000 0.000000
# 3 -0.002953 -0.002629 0.008145 0.000000 0.000000 0.000000
# 4 0.000000 0.000000 0.000000 0.043119 0.000000 0.000000
# 5 0.000000 0.000000 0.000000 0.000000 0.031253 0.000000
# 6 0.000000 0.000000 0.000000 0.000000 0.000000 0.034284
#
#
# Mechanical properties :
#
#
# Convention : Reuss Voigt Hill
#
# Bulk Modulus (GPa) = 80.18425 85.93532 83.05978
# Shear Modulus (GPa) = 30.44618 32.16796 31.30707
#
# Velocity S-wave (km/s) = 3.95286 4.06309 4.00835
# Velocity P-wave (km/s) = 7.87301 8.13104 8.00306
#
# Compressibility (1/GPa) = 0.01247128
#
# Stress axis : x y z
#
# Youngs Moduli (GPa) = 100.69225 72.12282 122.78008
#
# Poissons Ratio (x) = 0.29952 0.36259
# Poissons Ratio (y) = 0.41817 0.32277
# Poissons Ratio (z) = 0.29736 0.18960
#
# Static dielectric constant tensor:
#      x y z
#    x 1.701950 0.000000 0.000000 
#    y 0.000000 1.706440 0.000000 
#    z 0.000000 0.000000 1.750120 
# 
# From -- ./inp_files/2805.got.cif
#   From: 2010.05.17/outbox.cif.g08.bks.cpg/sg54_2_cif.got.tgz:2805.got - 2010.06.03 13:09:01.
