data_PCOD9423372
_publ_section_title
;
Structure prediction by ZEFSAII (Michael W. Deem and Ramdas Pophale) SiO2 
 PCOD9423372
Probable space group: P C C A
;
_chemical_formula_sum "Si O2"
_cell_formula_units_Z 60
_cell_length_a 8.163143
_cell_length_b 27.379742
_cell_length_c 11.156792
_cell_angle_alpha 90.000000
_cell_angle_beta 90.000000
_cell_angle_gamma 90.000000
_cell_volume 2493.595998
_symmetry_space_group_name_H-M "P C C A"
_symmetry_group_IT_number 54
_symmetry_cell_setting 'orthorhombic'
loop_
_space_group_symop_operation_xyz
x,y,z
1/2-x,-y,z
1/2+x,-y,1/2-z
-x,y,1/2-z
-x,-y,-z
1/2+x,y,-z
1/2-x,y,1/2+z
x,-y,1/2+z
loop_
_atom_site_type_symbol
_atom_site_label
_atom_site_fract_x
_atom_site_fract_y
_atom_site_fract_z
Si Si1 0.378696 0.756396 0.646064
Si Si2 0.710172 0.867845 0.850632
Si Si3 0.945314 0.080184 0.492890
Si Si4 0.017731 0.568417 0.412160
Si Si5 0.697139 0.951184 0.178428
Si Si6 0.944519 0.293153 0.420357
Si Si7 0.715073 0.363459 0.578099
Si Si8 0.250000 0.500000 0.576891
O O1 0.500000 0.737153 0.750000
O O2 0.359462 0.814380 0.662208
O O3 0.463005 0.740529 0.520208
O O4 0.191447 0.737163 0.651717
O O5 0.863369 0.870674 0.940525
O O6 0.764621 0.898221 0.734943
O O7 0.578911 0.902617 0.913576
O O8 0.818022 0.048155 0.564118
O O9 0.017947 0.051928 0.378924
O O10 0.172459 0.668408 0.510294
O O11 0.135791 0.534079 0.493140
O O12 0.903430 0.601102 0.500725
O O13 0.881149 0.533198 0.352086
O O14 0.750000 0.000000 0.247574
O O15 0.850153 0.395256 0.650214
O O16 0.090332 0.325318 0.361836
#
# Coordination Sequence:
#
# PCOD9423372 Si02
#       8
#     8   8   8   8   8   8   8   4
#     4  11  22  39  60  84 112 147 188 244 302 367
#     4  11  23  40  60  85 115 148 186 230 287 344
#     4  10  23  40  60  85 115 150 185 224 270 334
#     4   8  12  19  35  60 103 150 194 236 296 349
#     4  11  23  40  62  88 117 149 186 226 271 332
#     4   9  19  35  56  79 108 146 195 245 306 363
#     4   8  14  27  45  68  99 150 192 240 305 348
#     4   8  12  16  28  62 102 152 194 236 290 344
#
# _framework density 24.061634999999999
#
# number of rings (size 3 to 8) (size 9 to 14) (size 15 to 20)
#    0.000    2.400    0.000    2.800    0.000    5.333 
#    0.000    5.333    0.000    0.000    0.000    0.000 
#    0.000    0.000    0.000 2385.600    0.000    0.000 
#
# Total GULP energy -334612.011737 kJ/mol
# GULP energy per Si atom -5576.866862 kJ/mol
# Density = 2.400687 g / cm^3
# Si number density = 24.061635 Si / 1000 Ang^3
#
#
#
# Elastic Constant Matrix: (Units=GPa)
#
#
# Indices 1 2 3 4 5 6 
#
# 1 152.0416 60.5192 23.3241 0.0000 0.0000 0.0000
# 2 60.5192 132.6556 23.6198 0.0000 0.0000 0.0000
# 3 23.3241 23.6198 46.6737 0.0000 0.0000 0.0000
# 4 0.0000 0.0000 0.0000 19.5627 0.0000 0.0000
# 5 0.0000 0.0000 0.0000 0.0000 24.5733 0.0000
# 6 0.0000 0.0000 0.0000 0.0000 0.0000 64.3412
#
#
#
# Elastic Compliance Matrix: (Units=1/GPa)
#
#
# Indices 1 2 3 4 5 6 
#
# 1 0.008283 -0.003343 -0.002448 0.000000 0.000000 0.000000
# 2 -0.003343 0.009634 -0.003205 0.000000 0.000000 0.000000
# 3 -0.002448 -0.003205 0.024270 0.000000 0.000000 0.000000
# 4 0.000000 0.000000 0.000000 0.051118 0.000000 0.000000
# 5 0.000000 0.000000 0.000000 0.000000 0.040695 0.000000
# 6 0.000000 0.000000 0.000000 0.000000 0.000000 0.015542
#
#
# Mechanical properties :
#
#
# Convention : Reuss Voigt Hill
#
# Bulk Modulus (GPa) = 41.32794 60.69968 51.01381
# Shear Modulus (GPa) = 28.47401 36.62264 32.54833
#
# Velocity S-wave (km/s) = 3.44376 3.90556 3.68191
# Velocity P-wave (km/s) = 5.74681 6.75421 6.27077
#
# Compressibility (1/GPa) = 0.02419671
#
# Stress axis : x y z
#
# Youngs Moduli (GPa) = 120.72417 103.79755 41.20268
#
# Poissons Ratio (x) = 0.34701 0.10085
# Poissons Ratio (y) = 0.40360 0.13205
# Poissons Ratio (z) = 0.29548 0.33265
#
# Static dielectric constant tensor:
#      x y z
#    x 1.993910 0.000000 0.000000 
#    y 0.000000 1.951870 0.000000 
#    z 0.000000 0.000000 1.933520 
# 
# From -- ./inp_files/7008.got.cif
#   From: 2010.05.17/outbox.cif.g08.bks.cpg/sg54_4_cif.got.tgz:7008.got - 2010.06.03 13:09:01.
