data_PCOD9423784
_publ_section_title
;
Structure prediction by ZEFSAII (Michael W. Deem and Ramdas Pophale) SiO2 
 PCOD9423784
Probable space group: P C C A
;
_chemical_formula_sum "Si O2"
_cell_formula_units_Z 60
_cell_length_a 15.074323
_cell_length_b 11.454852
_cell_length_c 14.331623
_cell_angle_alpha 90.000000
_cell_angle_beta 90.000000
_cell_angle_gamma 90.000000
_cell_volume 2474.700661
_symmetry_space_group_name_H-M "P C C A"
_symmetry_group_IT_number 54
_symmetry_cell_setting 'orthorhombic'
loop_
_space_group_symop_operation_xyz
x,y,z
1/2-x,-y,z
1/2+x,-y,1/2-z
-x,y,1/2-z
-x,-y,-z
1/2+x,y,-z
1/2-x,y,1/2+z
x,-y,1/2+z
loop_
_atom_site_type_symbol
_atom_site_label
_atom_site_fract_x
_atom_site_fract_y
_atom_site_fract_z
Si Si1 0.433979 0.175534 0.670510
Si Si2 0.000000 0.064354 0.750000
Si Si3 0.365484 0.667086 0.030012
Si Si4 0.686031 0.760190 0.052128
Si Si5 0.891591 0.515517 0.333245
Si Si6 0.906522 0.477026 0.125372
Si Si7 0.252527 0.862043 0.254217
Si Si8 0.408970 0.214852 0.128585
O O1 0.500000 0.226504 0.750000
O O2 0.437059 0.240043 0.571244
O O3 0.331699 0.194458 0.695611
O O4 0.449483 0.037095 0.687030
O O5 0.001223 0.159738 0.835547
O O6 0.334380 0.573884 0.107980
O O7 0.278693 0.731591 0.995865
O O8 0.399144 0.583009 0.947433
O O9 0.639564 0.640139 0.087271
O O10 0.714678 0.834858 0.141516
O O11 0.625577 0.821894 0.973399
O O12 0.866385 0.513213 0.225203
O O13 0.901615 0.645878 0.370141
O O14 0.989807 0.462695 0.352456
O O15 0.159130 0.821580 0.212104
O O16 0.250000 0.000000 0.243511
#
# Coordination Sequence:
#
# PCOD9423784 Si02
#       8
#     8   4   8   8   8   8   8   8
#     4  10  24  45  77 104 142 200 251 315 391 459
#     4  10  24  48  76 104 142 202 260 314 390 462
#     4  12  24  45  73 112 153 196 255 316 392 473
#     4  12  28  43  74 114 152 201 259 325 389 471
#     4  11  26  46  77 104 159 208 242 320 396 466
#     4  11  25  46  70 114 153 194 257 309 384 478
#     4  12  25  49  74 107 154 203 262 323 389 468
#     4  12  25  49  75 107 152 202 256 324 398 460
#
# _framework density 24.245358
#
# number of rings (size 3 to 8) (size 9 to 14) (size 15 to 20)
#    0.400    0.267    4.000    3.200    3.733    1.600 
#    0.000    0.667    0.000    0.000    0.000    0.000 
#    0.000    0.000    0.000    0.000    0.000    0.000 
#
# Total GULP energy -334721.126262 kJ/mol
# GULP energy per Si atom -5578.685438 kJ/mol
# Density = 2.419017 g / cm^3
# Si number density = 24.245358 Si / 1000 Ang^3
#
#
#
# Elastic Constant Matrix: (Units=GPa)
#
#
# Indices 1 2 3 4 5 6 
#
# 1 61.8885 21.2132 14.7754 0.0000 0.0000 0.0000
# 2 21.2132 66.6975 6.6924 0.0000 0.0000 0.0000
# 3 14.7754 6.6924 124.0874 0.0000 0.0000 0.0000
# 4 0.0000 0.0000 0.0000 10.2576 0.0000 0.0000
# 5 0.0000 0.0000 0.0000 0.0000 31.8527 0.0000
# 6 0.0000 0.0000 0.0000 0.0000 0.0000 17.0255
#
#
#
# Elastic Compliance Matrix: (Units=1/GPa)
#
#
# Indices 1 2 3 4 5 6 
#
# 1 0.018572 -0.005716 -0.001903 0.000000 0.000000 0.000000
# 2 -0.005716 0.016834 -0.000227 0.000000 0.000000 0.000000
# 3 -0.001903 -0.000227 0.008298 0.000000 0.000000 0.000000
# 4 0.000000 0.000000 0.000000 0.097488 0.000000 0.000000
# 5 0.000000 0.000000 0.000000 0.000000 0.031394 0.000000
# 6 0.000000 0.000000 0.000000 0.000000 0.000000 0.058735
#
#
# Mechanical properties :
#
#
# Convention : Reuss Voigt Hill
#
# Bulk Modulus (GPa) = 35.70060 37.55951 36.63005
# Shear Modulus (GPa) = 19.50454 25.82667 22.66560
#
# Velocity S-wave (km/s) = 2.83939 3.26731 3.06084
# Velocity P-wave (km/s) = 5.05036 5.45517 5.25666
#
# Compressibility (1/GPa) = 0.02801073
#
# Stress axis : x y z
#
# Youngs Moduli (GPa) = 53.84567 59.40439 120.51527
#
# Poissons Ratio (x) = 0.33954 0.22935
# Poissons Ratio (y) = 0.30777 0.02739
# Poissons Ratio (z) = 0.10247 0.01350
#
# Static dielectric constant tensor:
#      x y z
#    x 2.189220 0.000000 0.000000 
#    y 0.000000 1.932060 0.000000 
#    z 0.000000 0.000000 2.235360 
# 
# From -- ./inp_files/14313.got.cif
#   From: 2010.05.17/outbox.cif.g08.bks.cpg/sg54_8_cif.got.tgz:14313.got - 2010.06.03 13:09:01.
