data_PCOD9423800
_publ_section_title
;
Structure prediction by ZEFSAII (Michael W. Deem and Ramdas Pophale) SiO2 
 PCOD9423800
Probable space group: P C C A
;
_chemical_formula_sum "Si O2"
_cell_formula_units_Z 20
_cell_length_a 5.090713
_cell_length_b 10.197943
_cell_length_c 17.596056
_cell_angle_alpha 90.000000
_cell_angle_beta 90.000000
_cell_angle_gamma 90.000000
_cell_volume 913.495746
_symmetry_space_group_name_H-M "P C C A"
_symmetry_group_IT_number 54
_symmetry_cell_setting 'orthorhombic'
loop_
_space_group_symop_operation_xyz
x,y,z
1/2-x,-y,z
1/2+x,-y,1/2-z
-x,y,1/2-z
-x,-y,-z
1/2+x,y,-z
1/2-x,y,1/2+z
x,-y,1/2+z
loop_
_atom_site_type_symbol
_atom_site_label
_atom_site_fract_x
_atom_site_fract_y
_atom_site_fract_z
Si Si1 0.913145 0.137517 0.834783
Si Si2 0.750000 0.000000 0.055465
Si Si3 0.711762 0.350089 0.946596
O O1 0.752493 0.248401 0.878759
O O2 0.000000 0.170923 0.750000
O O3 0.750000 0.000000 0.833142
O O4 0.172185 0.113972 0.885991
O O5 0.500000 0.000000 0.000000
O O6 0.750000 0.500000 0.919844
O O7 0.437556 0.331561 0.989690
#
# Coordination Sequence:
#
# PCOD9423800 Si02
#       3
#     8   4   8
#     4  12  26  43  68 107 145 183 230 291 360 427
#     4  12  24  40  66  98 134 180 228 282 340 408
#     4  10  24  46  71  99 133 182 240 288 339 416
#
# _framework density 21.893916999999998
#
# number of rings (size 3 to 8) (size 9 to 14) (size 15 to 20)
#    0.000    0.800    4.000    2.400    5.600    0.000 
#    0.000    8.000    0.000    0.000    0.000    0.000 
#    0.000    0.000    0.000    0.000    0.000    0.000 
#
# Total GULP energy -111906.818945 kJ/mol
# GULP energy per Si atom -5595.340947 kJ/mol
# Density = 2.184409 g / cm^3
# Si number density = 21.893917 Si / 1000 Ang^3
#
#
#
# Elastic Constant Matrix: (Units=GPa)
#
#
# Indices 1 2 3 4 5 6 
#
# 1 133.9912 24.1190 38.1869 0.0000 0.0000 0.0000
# 2 24.1190 148.6952 69.1353 0.0000 0.0000 0.0000
# 3 38.1869 69.1353 157.9590 0.0000 0.0000 0.0000
# 4 0.0000 0.0000 0.0000 29.6485 0.0000 0.0000
# 5 0.0000 0.0000 0.0000 0.0000 15.4597 0.0000
# 6 0.0000 0.0000 0.0000 0.0000 0.0000 32.5372
#
#
#
# Elastic Compliance Matrix: (Units=1/GPa)
#
#
# Indices 1 2 3 4 5 6 
#
# 1 0.008045 -0.000503 -0.001725 0.000000 0.000000 0.000000
# 2 -0.000503 0.008475 -0.003588 0.000000 0.000000 0.000000
# 3 -0.001725 -0.003588 0.008318 0.000000 0.000000 0.000000
# 4 0.000000 0.000000 0.000000 0.033729 0.000000 0.000000
# 5 0.000000 0.000000 0.000000 0.000000 0.064684 0.000000
# 6 0.000000 0.000000 0.000000 0.000000 0.000000 0.030734
#
#
# Mechanical properties :
#
#
# Convention : Reuss Voigt Hill
#
# Bulk Modulus (GPa) = 75.71674 78.16976 76.94325
# Shear Modulus (GPa) = 29.40860 36.14268 32.77564
#
# Velocity S-wave (km/s) = 3.66899 4.06742 3.87333
# Velocity P-wave (km/s) = 7.25308 7.60526 7.43126
#
# Compressibility (1/GPa) = 0.01320712
#
# Stress axis : x y z
#
# Youngs Moduli (GPa) = 124.29639 117.99655 120.22173
#
# Poissons Ratio (x) = 0.05936 0.20736
# Poissons Ratio (y) = 0.06253 0.43131
# Poissons Ratio (z) = 0.21439 0.42333
#
# Static dielectric constant tensor:
#      x y z
#    x 1.898760 0.000000 0.000000 
#    y 0.000000 1.897540 0.000000 
#    z 0.000000 0.000000 1.751340 
# 
# From -- ./inp_files/10646.got.cif
#   From: 2010.05.17/outbox.cif.g08.bks.cpg/sg54_6_cif.got.tgz:10646.got - 2010.06.03 13:09:01.
