data_PCOD9423139
_publ_section_title
;
Structure prediction by ZEFSAII (Michael W. Deem and Ramdas Pophale) SiO2 
 PCOD9423139
Probable space group: P C C A
;
_chemical_formula_sum "Si O2"
_cell_formula_units_Z 36
_cell_length_a 23.488245
_cell_length_b 5.649299
_cell_length_c 10.572652
_cell_angle_alpha 90.000000
_cell_angle_beta 90.000000
_cell_angle_gamma 90.000000
_cell_volume 1402.907597
_symmetry_space_group_name_H-M "P C C A"
_symmetry_group_IT_number 54
_symmetry_cell_setting 'orthorhombic'
loop_
_space_group_symop_operation_xyz
x,y,z
1/2-x,-y,z
1/2+x,-y,1/2-z
-x,y,1/2-z
-x,-y,-z
1/2+x,y,-z
1/2-x,y,1/2+z
x,-y,1/2+z
loop_
_atom_site_type_symbol
_atom_site_label
_atom_site_fract_x
_atom_site_fract_y
_atom_site_fract_z
Si Si1 0.065164 0.480049 0.295426
Si Si2 0.155863 0.203344 0.152018
Si Si3 0.250000 0.500000 0.756739
Si Si4 0.539386 0.991166 0.622789
Si Si5 0.313311 0.113920 0.382418
O O1 0.107935 0.401014 0.182285
O O2 0.070880 0.736061 0.361095
O O3 0.000000 0.486592 0.250000
O O4 0.070027 0.247990 0.383331
O O5 0.217957 0.318556 0.167314
O O6 0.154592 0.090888 0.014610
O O7 0.157284 0.008004 0.261942
O O8 0.201893 0.382867 0.844391
O O9 0.500000 0.001566 0.750000
O O10 0.500000 0.000000 0.500000
O O11 0.250000 0.000000 0.396414
#
# Coordination Sequence:
#
# PCOD9423139 Si02
#       5
#     8   8   4   8   8
#     4  10  24  45  71 108 142 192 240 302 365 447
#     4  11  24  43  72 100 145 187 246 307 377 447
#     4  10  22  42  68 102 138 186 246 304 376 446
#     4  10  22  45  70  98 142 186 239 292 353 433
#     4  10  22  43  68 102 139 189 244 307 376 452
#
# _framework density 25.660989000000001
#
# number of rings (size 3 to 8) (size 9 to 14) (size 15 to 20)
#    0.000    1.778    0.000    3.333    3.111    5.333 
#    8.000    0.000    0.000    0.000    0.000    0.000 
#    0.000    0.000    0.000    0.000    0.000    0.000 
#
# Total GULP energy -201193.926448 kJ/mol
# GULP energy per Si atom -5588.720179 kJ/mol
# Density = 2.560258 g / cm^3
# Si number density = 25.660989 Si / 1000 Ang^3
#
#
#
# Elastic Constant Matrix: (Units=GPa)
#
#
# Indices 1 2 3 4 5 6 
#
# 1 84.0163 35.2577 56.1574 0.0000 0.0000 0.0000
# 2 35.2577 194.9329 70.4731 0.0000 0.0000 0.0000
# 3 56.1574 70.4731 203.5993 0.0000 0.0000 0.0000
# 4 0.0000 0.0000 0.0000 42.3231 0.0000 0.0000
# 5 0.0000 0.0000 0.0000 0.0000 44.8019 0.0000
# 6 0.0000 0.0000 0.0000 0.0000 0.0000 63.1421
#
#
#
# Elastic Compliance Matrix: (Units=1/GPa)
#
#
# Indices 1 2 3 4 5 6 
#
# 1 0.014912 -0.001383 -0.003634 0.000000 0.000000 0.000000
# 2 -0.001383 0.005992 -0.001693 0.000000 0.000000 0.000000
# 3 -0.003634 -0.001693 0.006500 0.000000 0.000000 0.000000
# 4 0.000000 0.000000 0.000000 0.023628 0.000000 0.000000
# 5 0.000000 0.000000 0.000000 0.000000 0.022320 0.000000
# 6 0.000000 0.000000 0.000000 0.000000 0.000000 0.015837
#
#
# Mechanical properties :
#
#
# Convention : Reuss Voigt Hill
#
# Bulk Modulus (GPa) = 71.51106 89.59166 80.55136
# Shear Modulus (GPa) = 46.61085 51.43078 49.02081
#
# Velocity S-wave (km/s) = 4.26656 4.48173 4.37547
# Velocity P-wave (km/s) = 7.22492 7.85943 7.54884
#
# Compressibility (1/GPa) = 0.01398385
#
# Stress axis : x y z
#
# Youngs Moduli (GPa) = 67.05936 166.88755 153.84905
#
# Poissons Ratio (x) = 0.23085 0.55914
# Poissons Ratio (y) = 0.09276 0.26039
# Poissons Ratio (z) = 0.24371 0.28246
#
# Static dielectric constant tensor:
#      x y z
#    x 2.117130 0.000000 0.000000 
#    y 0.000000 2.090740 0.000000 
#    z 0.000000 0.000000 1.974640 
# 
# From -- ./inp_files/9769.got.cif
#   From: 2010.05.17/outbox.cif.g08.bks.cpg/sg54_5_cif.got.tgz:9769.got - 2010.06.03 13:09:01.
