data_PCOD9423849
_publ_section_title
;
Structure prediction by ZEFSAII (Michael W. Deem and Ramdas Pophale) SiO2 
 PCOD9423849
Probable space group: P C C A
;
_chemical_formula_sum "Si O2"
_cell_formula_units_Z 40
_cell_length_a 10.766375
_cell_length_b 15.115323
_cell_length_c 9.185797
_cell_angle_alpha 90.000000
_cell_angle_beta 90.000000
_cell_angle_gamma 90.000000
_cell_volume 1494.871211
_symmetry_space_group_name_H-M "P C C A"
_symmetry_group_IT_number 54
_symmetry_cell_setting 'orthorhombic'
loop_
_space_group_symop_operation_xyz
x,y,z
1/2-x,-y,z
1/2+x,-y,1/2-z
-x,y,1/2-z
-x,-y,-z
1/2+x,y,-z
1/2-x,y,1/2+z
x,-y,1/2+z
loop_
_atom_site_type_symbol
_atom_site_label
_atom_site_fract_x
_atom_site_fract_y
_atom_site_fract_z
Si Si1 0.882567 0.034663 0.860024
Si Si2 0.632435 0.652693 0.817897
Si Si3 0.287602 0.290910 0.465422
Si Si4 0.914854 0.543439 0.877365
Si Si5 0.985697 0.852198 0.926996
O O1 0.000000 0.049744 0.750000
O O2 0.750000 0.000000 0.790317
O O3 0.911564 0.944118 0.942733
O O4 0.892736 0.117222 0.974958
O O5 0.500000 0.671118 0.750000
O O6 0.649750 0.700799 0.969828
O O7 0.724820 0.699374 0.706153
O O8 0.645036 0.546841 0.813524
O O9 0.338610 0.382791 0.537319
O O10 0.388991 0.219226 0.509262
O O11 0.000000 0.582446 0.750000
O O12 0.000000 0.500000 0.000000
O O13 0.000000 0.838488 0.750000
#
# Coordination Sequence:
#
# PCOD9423849 Si02
#       5
#     8   8   8   8   8
#     4  10  24  49  80 113 161 205 258 334 413 503
#     4  11  27  46  66 106 147 203 263 329 398 467
#     4  12  26  44  73 104 152 205 266 332 394 479
#     4  11  22  44  71 101 146 198 263 331 396 473
#     4  10  25  46  74 114 151 207 266 324 404 471
#
# _framework density 26.758158999999999
#
# number of rings (size 3 to 8) (size 9 to 14) (size 15 to 20)
#    0.000    1.200    4.000    1.200    2.800   16.000 
#    0.000    0.000    0.000    0.000    0.000    0.000 
#    0.000    0.000    0.000    0.000    0.000    0.000 
#
# Total GULP energy -223108.864974 kJ/mol
# GULP energy per Si atom -5577.721624 kJ/mol
# Density = 2.669726 g / cm^3
# Si number density = 26.758159 Si / 1000 Ang^3
#
#
#
# Elastic Constant Matrix: (Units=GPa)
#
#
# Indices 1 2 3 4 5 6 
#
# 1 108.0230 13.6021 18.1041 0.0000 0.0000 0.0000
# 2 13.6021 114.1764 -7.5352 0.0000 0.0000 0.0000
# 3 18.1041 -7.5352 111.1604 0.0000 0.0000 0.0000
# 4 0.0000 0.0000 0.0000 21.1944 0.0000 0.0000
# 5 0.0000 0.0000 0.0000 0.0000 49.9512 0.0000
# 6 0.0000 0.0000 0.0000 0.0000 0.0000 31.9181
#
#
#
# Elastic Compliance Matrix: (Units=1/GPa)
#
#
# Indices 1 2 3 4 5 6 
#
# 1 0.009696 -0.001265 -0.001665 0.000000 0.000000 0.000000
# 2 -0.001265 0.008963 0.000814 0.000000 0.000000 0.000000
# 3 -0.001665 0.000814 0.009322 0.000000 0.000000 0.000000
# 4 0.000000 0.000000 0.000000 0.047182 0.000000 0.000000
# 5 0.000000 0.000000 0.000000 0.000000 0.020020 0.000000
# 6 0.000000 0.000000 0.000000 0.000000 0.000000 0.031330
#
#
# Mechanical properties :
#
#
# Convention : Reuss Voigt Hill
#
# Bulk Modulus (GPa) = 42.10830 42.41132 42.25981
# Shear Modulus (GPa) = 36.05914 41.22533 38.64223
#
# Velocity S-wave (km/s) = 3.67494 3.92939 3.80429
# Velocity P-wave (km/s) = 5.81186 6.03913 5.92658
#
# Compressibility (1/GPa) = 0.02374829
#
# Stress axis : x y z
#
# Youngs Moduli (GPa) = 103.13979 111.57274 107.26968
#
# Poissons Ratio (x) = 0.14113 0.17858
# Poissons Ratio (y) = 0.13046 -0.08727
# Poissons Ratio (z) = 0.17171 -0.09077
#
# Static dielectric constant tensor:
#      x y z
#    x 2.487640 0.000000 0.000000 
#    y 0.000000 1.974160 0.000000 
#    z 0.000000 0.000000 2.184970 
# 
# From -- ./inp_files/2918.got.cif
#   From: 2010.05.17/outbox.cif.g08.bks.cpg/sg54_2_cif.got.tgz:2918.got - 2010.06.03 13:09:01.
