data_PCOD9423643
_publ_section_title
;
Structure prediction by ZEFSAII (Michael W. Deem and Ramdas Pophale) SiO2 
 PCOD9423643
Probable space group: P C C A
;
_chemical_formula_sum "Si O2"
_cell_formula_units_Z 48
_cell_length_a 13.906530
_cell_length_b 11.537200
_cell_length_c 14.221624
_cell_angle_alpha 90.000000
_cell_angle_beta 90.000000
_cell_angle_gamma 90.000000
_cell_volume 2281.751741
_symmetry_space_group_name_H-M "P C C A"
_symmetry_group_IT_number 54
_symmetry_cell_setting 'orthorhombic'
loop_
_space_group_symop_operation_xyz
x,y,z
1/2-x,-y,z
1/2+x,-y,1/2-z
-x,y,1/2-z
-x,-y,-z
1/2+x,y,-z
1/2-x,y,1/2+z
x,-y,1/2+z
loop_
_atom_site_type_symbol
_atom_site_label
_atom_site_fract_x
_atom_site_fract_y
_atom_site_fract_z
Si Si1 0.848397 0.570929 0.996739
Si Si2 0.645356 0.038699 0.247263
Si Si3 0.288662 0.174091 0.437335
Si Si4 0.420205 0.188148 0.861207
Si Si5 0.021149 0.442745 0.350202
Si Si6 0.079968 0.957398 0.571302
O O1 0.750000 0.500000 0.977095
O O2 0.822812 0.699620 0.031536
O O3 0.906434 0.510298 0.081758
O O4 0.921955 0.571248 0.908678
O O5 0.601215 0.921125 0.205081
O O6 0.590359 0.052937 0.345844
O O7 0.750000 0.000000 0.280135
O O8 0.665136 0.130811 0.163512
O O9 0.172727 0.178964 0.429380
O O10 0.327737 0.083393 0.513785
O O11 0.427083 0.319603 0.827322
O O12 0.527793 0.160017 0.894269
O O13 0.000000 0.500894 0.250000
O O14 0.000000 0.000000 0.500000
#
# Coordination Sequence:
#
# PCOD9423643 Si02
#       6
#     8   8   8   8   8   8
#     4  11  24  47  70 100 141 187 234 293 346 413
#     4  10  24  41  63  99 131 172 224 275 341 410
#     4  11  24  44  67  99 139 178 232 279 342 418
#     4  11  22  42  66  94 134 175 219 284 339 410
#     4  11  24  44  71 101 136 181 240 287 352 413
#     4  12  24  39  67  96 137 175 221 277 349 411
#
# _framework density 21.036470000000001
#
# number of rings (size 3 to 8) (size 9 to 14) (size 15 to 20)
#    0.000    1.000    5.000    1.500    2.333    0.667 
#    3.000    0.000    0.000    0.000    0.000    0.000 
#    0.000    0.000    0.000    0.000    0.000    0.000 
#
# Total GULP energy -267506.307534 kJ/mol
# GULP energy per Si atom -5573.048074 kJ/mol
# Density = 2.098859 g / cm^3
# Si number density = 21.036470 Si / 1000 Ang^3
#
#
#
# Elastic Constant Matrix: (Units=GPa)
#
#
# Indices 1 2 3 4 5 6 
#
# 1 135.0856 27.4515 43.0408 0.0000 0.0000 0.0000
# 2 27.4515 84.7443 25.9050 0.0000 0.0000 0.0000
# 3 43.0408 25.9050 113.5223 0.0000 0.0000 0.0000
# 4 0.0000 0.0000 0.0000 12.4614 0.0000 0.0000
# 5 0.0000 0.0000 0.0000 0.0000 36.0853 0.0000
# 6 0.0000 0.0000 0.0000 0.0000 0.0000 24.9252
#
#
#
# Elastic Compliance Matrix: (Units=1/GPa)
#
#
# Indices 1 2 3 4 5 6 
#
# 1 0.008709 -0.001948 -0.002857 0.000000 0.000000 0.000000
# 2 -0.001948 0.013121 -0.002256 0.000000 0.000000 0.000000
# 3 -0.002857 -0.002256 0.010407 0.000000 0.000000 0.000000
# 4 0.000000 0.000000 0.000000 0.080248 0.000000 0.000000
# 5 0.000000 0.000000 0.000000 0.000000 0.027712 0.000000
# 6 0.000000 0.000000 0.000000 0.000000 0.000000 0.040120
#
#
# Mechanical properties :
#
#
# Convention : Reuss Voigt Hill
#
# Bulk Modulus (GPa) = 55.20267 58.46077 56.83172
# Shear Modulus (GPa) = 24.94062 30.49137 27.71600
#
# Velocity S-wave (km/s) = 3.44697 3.81130 3.63371
# Velocity P-wave (km/s) = 6.49158 6.87157 6.68428
#
# Compressibility (1/GPa) = 0.01811507
#
# Stress axis : x y z
#
# Youngs Moduli (GPa) = 114.82446 76.21594 96.08978
#
# Poissons Ratio (x) = 0.14844 0.27457
# Poissons Ratio (y) = 0.22364 0.21674
# Poissons Ratio (z) = 0.32811 0.17191
#
# Static dielectric constant tensor:
#      x y z
#    x 2.099980 0.000000 0.000000 
#    y 0.000000 1.846720 0.000000 
#    z 0.000000 0.000000 2.060620 
# 
# From -- ./inp_files/13408.got.cif
#   From: 2010.05.17/outbox.cif.g08.bks.cpg/sg54_7_cif.got.tgz:13408.got - 2010.06.03 13:09:01.
