data_PCOD9423398
_publ_section_title
;
Structure prediction by ZEFSAII (Michael W. Deem and Ramdas Pophale) SiO2 
 PCOD9423398
Probable space group: P C C A
;
_chemical_formula_sum "Si O2"
_cell_formula_units_Z 48
_cell_length_a 8.122690
_cell_length_b 18.636215
_cell_length_c 14.687168
_cell_angle_alpha 90.000000
_cell_angle_beta 90.000000
_cell_angle_gamma 90.000000
_cell_volume 2223.287640
_symmetry_space_group_name_H-M "P C C A"
_symmetry_group_IT_number 54
_symmetry_cell_setting 'orthorhombic'
loop_
_space_group_symop_operation_xyz
x,y,z
1/2-x,-y,z
1/2+x,-y,1/2-z
-x,y,1/2-z
-x,-y,-z
1/2+x,y,-z
1/2-x,y,1/2+z
x,-y,1/2+z
loop_
_atom_site_type_symbol
_atom_site_label
_atom_site_fract_x
_atom_site_fract_y
_atom_site_fract_z
Si Si1 0.860557 0.807570 0.917766
Si Si2 0.315153 0.646980 0.126751
Si Si3 0.750243 0.192990 0.621549
Si Si4 0.195272 0.081632 0.229651
Si Si5 0.668764 0.350968 0.192071
Si Si6 0.998194 0.582505 0.473358
O O1 0.785283 0.731994 0.884398
O O2 0.781842 0.873022 0.862448
O O3 0.053718 0.804140 0.894529
O O4 0.835823 0.816032 0.024640
O O5 0.306691 0.628269 0.233356
O O6 0.170258 0.604440 0.075611
O O7 0.472638 0.628057 0.065480
O O8 0.781213 0.127520 0.690380
O O9 0.802686 0.269225 0.662275
O O10 0.000000 0.082021 0.250000
O O11 0.250000 0.000000 0.224042
O O12 0.500000 0.354623 0.250000
O O13 0.637396 0.397822 0.102036
O O14 0.000000 0.500000 0.500000
#
# Coordination Sequence:
#
# PCOD9423398 Si02
#       6
#     8   8   8   8   8   8
#     4  11  23  40  70 100 132 175 235 277 336 409
#     4  11  22  43  69  95 132 175 228 280 337 409
#     4  11  23  41  68 100 133 178 228 282 336 406
#     4  10  24  44  64  99 141 178 223 281 342 401
#     4  10  23  40  69  99 128 177 237 273 341 412
#     4  11  24  44  66  95 137 172 220 286 347 406
#
# _framework density 21.589649000000001
#
# number of rings (size 3 to 8) (size 9 to 14) (size 15 to 20)
#    0.000    1.333    3.333    1.500    2.333    2.667 
#    0.000   13.333    0.000    0.000    0.000    0.000 
#    0.000    0.000    0.000    0.000    0.000    0.000 
#
# Total GULP energy -268561.505184 kJ/mol
# GULP energy per Si atom -5595.031358 kJ/mol
# Density = 2.154051 g / cm^3
# Si number density = 21.589649 Si / 1000 Ang^3
#
#
#
# Elastic Constant Matrix: (Units=GPa)
#
#
# Indices 1 2 3 4 5 6 
#
# 1 39.1165 18.0479 15.4935 0.0000 0.0000 0.0000
# 2 18.0479 172.6317 68.4692 0.0000 0.0000 0.0000
# 3 15.4935 68.4692 160.0719 0.0000 0.0000 0.0000
# 4 0.0000 0.0000 0.0000 37.1571 0.0000 0.0000
# 5 0.0000 0.0000 0.0000 0.0000 29.3523 0.0000
# 6 0.0000 0.0000 0.0000 0.0000 0.0000 33.8348
#
#
#
# Elastic Compliance Matrix: (Units=1/GPa)
#
#
# Indices 1 2 3 4 5 6 
#
# 1 0.027243 -0.002171 -0.001708 0.000000 0.000000 0.000000
# 2 -0.002171 0.007149 -0.002848 0.000000 0.000000 0.000000
# 3 -0.001708 -0.002848 0.007631 0.000000 0.000000 0.000000
# 4 0.000000 0.000000 0.000000 0.026913 0.000000 0.000000
# 5 0.000000 0.000000 0.000000 0.000000 0.034069 0.000000
# 6 0.000000 0.000000 0.000000 0.000000 0.000000 0.029555
#
#
# Mechanical properties :
#
#
# Convention : Reuss Voigt Hill
#
# Bulk Modulus (GPa) = 35.00304 63.98237 49.49270
# Shear Modulus (GPa) = 32.14685 38.05615 35.10150
#
# Velocity S-wave (km/s) = 3.86293 4.20301 4.03656
# Velocity P-wave (km/s) = 6.01202 7.29752 6.68574
#
# Compressibility (1/GPa) = 0.02856895
#
# Stress axis : x y z
#
# Youngs Moduli (GPa) = 36.70699 139.87733 131.04945
#
# Poissons Ratio (x) = 0.30360 0.22389
# Poissons Ratio (y) = 0.07967 0.37321
# Poissons Ratio (z) = 0.06271 0.39835
#
# Static dielectric constant tensor:
#      x y z
#    x 1.862330 0.000000 0.000000 
#    y 0.000000 1.721420 0.000000 
#    z 0.000000 0.000000 1.785650 
# 
# From -- ./inp_files/11696.got.cif
#   From: 2010.05.17/outbox.cif.g08.bks.cpg/sg54_6_cif.got.tgz:11696.got - 2010.06.03 13:09:01.
