data_PCOD9423627
_publ_section_title
;
Structure prediction by ZEFSAII (Michael W. Deem and Ramdas Pophale) SiO2 
 PCOD9423627
Probable space group: P C C A
;
_chemical_formula_sum "Si O2"
_cell_formula_units_Z 40
_cell_length_a 9.123810
_cell_length_b 17.896274
_cell_length_c 11.704747
_cell_angle_alpha 90.000000
_cell_angle_beta 90.000000
_cell_angle_gamma 90.000000
_cell_volume 1911.176884
_symmetry_space_group_name_H-M "P C C A"
_symmetry_group_IT_number 54
_symmetry_cell_setting 'orthorhombic'
loop_
_space_group_symop_operation_xyz
x,y,z
1/2-x,-y,z
1/2+x,-y,1/2-z
-x,y,1/2-z
-x,-y,-z
1/2+x,y,-z
1/2-x,y,1/2+z
x,-y,1/2+z
loop_
_atom_site_type_symbol
_atom_site_label
_atom_site_fract_x
_atom_site_fract_y
_atom_site_fract_z
Si Si1 0.250000 0.500000 0.004262
Si Si2 0.842875 0.251624 0.571661
Si Si3 0.120538 0.057819 0.538246
Si Si4 0.455910 0.805757 0.382792
Si Si5 0.000000 0.148235 0.750000
Si Si6 0.999413 0.406849 0.885270
O O1 0.339084 0.436077 0.074533
O O2 0.122223 0.464230 0.929062
O O3 0.668043 0.257096 0.588960
O O4 0.893267 0.201088 0.678083
O O5 0.936895 0.327286 0.574450
O O6 0.897337 0.210315 0.456368
O O7 0.120526 0.120697 0.438480
O O8 0.083659 0.099038 0.656373
O O9 0.250000 0.000000 0.554097
O O10 0.000000 0.000000 0.500000
O O11 0.500000 0.811322 0.250000
O O12 0.000000 0.404870 0.750000
#
# Coordination Sequence:
#
# PCOD9423627 Si02
#       6
#     4   8   8   8   4   8
#     4  10  24  40  66 106 136 176 234 272 334 420
#     4  11  24  44  69 100 134 185 227 286 349 415
#     4  11  25  44  66  97 130 179 229 289 359 413
#     4  11  27  45  68 100 138 177 240 292 351 427
#     4  10  24  40  70  94 136 172 232 284 338 422
#     4  11  22  43  69  98 141 180 223 280 341 400
#
# _framework density 20.929513
#
# number of rings (size 3 to 8) (size 9 to 14) (size 15 to 20)
#    0.000    1.200    1.000    4.200    9.800    2.400 
#    0.000    5.000    0.000    0.000    0.000    0.000 
#    0.000    0.000    0.000    0.000    0.000    0.000 
#
# Total GULP energy -223259.583178 kJ/mol
# GULP energy per Si atom -5581.489579 kJ/mol
# Density = 2.088188 g / cm^3
# Si number density = 20.929513 Si / 1000 Ang^3
#
#
#
# Elastic Constant Matrix: (Units=GPa)
#
#
# Indices 1 2 3 4 5 6 
#
# 1 105.5535 17.7769 20.0615 0.0000 0.0000 0.0000
# 2 17.7769 91.4862 25.0203 0.0000 0.0000 0.0000
# 3 20.0615 25.0203 118.8022 0.0000 0.0000 0.0000
# 4 0.0000 0.0000 0.0000 28.0697 0.0000 0.0000
# 5 0.0000 0.0000 0.0000 0.0000 25.0247 0.0000
# 6 0.0000 0.0000 0.0000 0.0000 0.0000 62.2902
#
#
#
# Elastic Compliance Matrix: (Units=1/GPa)
#
#
# Indices 1 2 3 4 5 6 
#
# 1 0.009996 -0.001571 -0.001357 0.000000 0.000000 0.000000
# 2 -0.001571 0.011846 -0.002229 0.000000 0.000000 0.000000
# 3 -0.001357 -0.002229 0.009116 0.000000 0.000000 0.000000
# 4 0.000000 0.000000 0.000000 0.035626 0.000000 0.000000
# 5 0.000000 0.000000 0.000000 0.000000 0.039960 0.000000
# 6 0.000000 0.000000 0.000000 0.000000 0.000000 0.016054
#
#
# Mechanical properties :
#
#
# Convention : Reuss Voigt Hill
#
# Bulk Modulus (GPa) = 48.44376 49.06215 48.75295
# Shear Modulus (GPa) = 35.76678 39.94249 37.85463
#
# Velocity S-wave (km/s) = 4.13839 4.37330 4.25746
# Velocity P-wave (km/s) = 6.78464 6.99953 6.89293
#
# Compressibility (1/GPa) = 0.02064249
#
# Stress axis : x y z
#
# Youngs Moduli (GPa) = 100.03572 84.41927 109.69672
#
# Poissons Ratio (x) = 0.13265 0.14887
# Poissons Ratio (y) = 0.15718 0.24456
# Poissons Ratio (z) = 0.13576 0.18821
#
# Static dielectric constant tensor:
#      x y z
#    x 1.762190 0.000000 0.000000 
#    y 0.000000 1.727740 0.000000 
#    z 0.000000 0.000000 1.705890 
# 
# From -- ./inp_files/6899.got.cif
#   From: 2010.05.17/outbox.cif.g08.bks.cpg/sg54_4_cif.got.tgz:6899.got - 2010.06.03 13:09:01.
