data_PCOD9423075
_publ_section_title
;
Structure prediction by ZEFSAII (Michael W. Deem and Ramdas Pophale) SiO2 
 PCOD9423075
Probable space group: P C C A
;
_chemical_formula_sum "Si O2"
_cell_formula_units_Z 28
_cell_length_a 14.865355
_cell_length_b 5.311712
_cell_length_c 12.732237
_cell_angle_alpha 90.000000
_cell_angle_beta 90.000000
_cell_angle_gamma 90.000000
_cell_volume 1005.343603
_symmetry_space_group_name_H-M "P C C A"
_symmetry_group_IT_number 54
_symmetry_cell_setting 'orthorhombic'
loop_
_space_group_symop_operation_xyz
x,y,z
1/2-x,-y,z
1/2+x,-y,1/2-z
-x,y,1/2-z
-x,-y,-z
1/2+x,y,-z
1/2-x,y,1/2+z
x,-y,1/2+z
loop_
_atom_site_type_symbol
_atom_site_label
_atom_site_fract_x
_atom_site_fract_y
_atom_site_fract_z
Si Si1 0.492893 0.721551 0.133543
Si Si2 0.750000 0.000000 0.945217
Si Si3 0.157866 0.330251 0.711108
Si Si4 0.123095 0.324870 0.937944
O O1 0.500000 0.850152 0.250000
O O2 0.423088 0.497232 0.166618
O O3 0.588361 0.602471 0.095469
O O4 0.448345 0.786758 0.020428
O O5 0.825366 0.106041 0.868597
O O6 0.715640 0.239059 0.009376
O O7 0.250000 0.500000 0.719800
O O8 0.132879 0.212567 0.822502
#
# Coordination Sequence:
#
# PCOD9423075 Si02
#       4
#     8   4   8   8
#     4   9  20  43  68  94 127 183 228 267 342 420
#     4  12  24  40  64 108 130 172 228 290 334 408
#     4  11  23  40  65  95 134 173 224 284 338 410
#     4  10  22  41  67  96 133 179 226 277 347 406
#
# _framework density 27.851175000000001
#
# number of rings (size 3 to 8) (size 9 to 14) (size 15 to 20)
#    0.000    1.714    2.857    0.857    4.000    1.143 
#    0.000    4.286    0.000    0.000    0.000    0.000 
#    0.000    0.000    0.000    0.000    0.000    0.000 
#
# Total GULP energy -156263.268063 kJ/mol
# GULP energy per Si atom -5580.831002 kJ/mol
# Density = 2.778778 g / cm^3
# Si number density = 27.851175 Si / 1000 Ang^3
#
#
#
# Elastic Constant Matrix: (Units=GPa)
#
#
# Indices 1 2 3 4 5 6 
#
# 1 103.7319 31.5100 59.6728 0.0000 0.0000 0.0000
# 2 31.5100 72.0464 55.3844 0.0000 0.0000 0.0000
# 3 59.6728 55.3844 234.1701 0.0000 0.0000 0.0000
# 4 0.0000 0.0000 0.0000 -20.0020 0.0000 0.0000
# 5 0.0000 0.0000 0.0000 0.0000 52.6330 0.0000
# 6 0.0000 0.0000 0.0000 0.0000 0.0000 38.9859
#
#
#
# Elastic Compliance Matrix: (Units=1/GPa)
#
#
# Indices 1 2 3 4 5 6 
#
# 1 0.011992 -0.003539 -0.002219 0.000000 0.000000 0.000000
# 2 -0.003539 0.018009 -0.003357 0.000000 0.000000 0.000000
# 3 -0.002219 -0.003357 0.005630 0.000000 0.000000 0.000000
# 4 0.000000 0.000000 0.000000 -0.049995 0.000000 0.000000
# 5 0.000000 0.000000 0.000000 0.000000 0.018999 0.000000
# 6 0.000000 0.000000 0.000000 0.000000 0.000000 0.025650
#
#
# Mechanical properties :
#
#
# Convention : Reuss Voigt Hill
#
# Bulk Modulus (GPa) = 57.47198 78.12034 67.79616
# Shear Modulus (GPa) = 92.05488 31.88214 61.96851
#
# Velocity S-wave (km/s) = 5.75536 3.38706 4.72209
# Velocity P-wave (km/s) = 8.05269 6.58835 7.35704
#
# Compressibility (1/GPa) = 0.01739978
#
# Stress axis : x y z
#
# Youngs Moduli (GPa) = 83.39159 55.52859 177.62333
#
# Poissons Ratio (x) = 0.19651 0.39411
# Poissons Ratio (y) = 0.29512 0.59637
# Poissons Ratio (z) = 0.18503 0.18644
#
# Static dielectric constant tensor:
#      x y z
#    x 2.282350 0.000000 0.000000 
#    y 0.000000 2.119720 0.000000 
#    z 0.000000 0.000000 2.144500 
# 
# From -- ./inp_files/13638.got.cif
#   From: 2010.05.17/outbox.cif.g08.bks.cpg/sg54_7_cif.got.tgz:13638.got - 2010.06.03 13:09:01.
