data_PCOD9423655
_publ_section_title
;
Structure prediction by ZEFSAII (Michael W. Deem and Ramdas Pophale) SiO2 
 PCOD9423655
Probable space group: P C C A
;
_chemical_formula_sum "Si O2"
_cell_formula_units_Z 28
_cell_length_a 22.276131
_cell_length_b 7.005924
_cell_length_c 8.227865
_cell_angle_alpha 90.000000
_cell_angle_beta 90.000000
_cell_angle_gamma 90.000000
_cell_volume 1284.080770
_symmetry_space_group_name_H-M "P C C A"
_symmetry_group_IT_number 54
_symmetry_cell_setting 'orthorhombic'
loop_
_space_group_symop_operation_xyz
x,y,z
1/2-x,-y,z
1/2+x,-y,1/2-z
-x,y,1/2-z
-x,-y,-z
1/2+x,y,-z
1/2-x,y,1/2+z
x,-y,1/2+z
loop_
_atom_site_type_symbol
_atom_site_label
_atom_site_fract_x
_atom_site_fract_y
_atom_site_fract_z
Si Si1 0.062520 0.592993 0.345299
Si Si2 0.564441 0.202092 0.800807
Si Si3 0.750000 0.000000 0.031533
Si Si4 0.340658 0.140580 0.212379
O O1 0.060831 0.690877 0.523442
O O2 0.073531 0.365713 0.335870
O O3 0.115389 0.686111 0.241208
O O4 0.000000 0.623780 0.250000
O O5 0.500000 0.112902 0.750000
O O6 0.616379 0.045547 0.803003
O O7 0.797249 0.881819 0.134586
O O8 0.707361 0.859432 0.930856
#
# Coordination Sequence:
#
# PCOD9423655 Si02
#       4
#     8   8   4   8
#     4  11  24  40  66  97 126 160 205 260 317 376
#     4  11  24  40  66  97 126 160 205 260 317 376
#     4  10  24  42  64  90 124 168 216 252 294 378
#     4  11  23  44  66  88 127 167 208 258 310 359
#
# _framework density 21.805481
#
# number of rings (size 3 to 8) (size 9 to 14) (size 15 to 20)
#    0.000    1.143    2.857    4.286    8.000    2.286 
#    0.000    8.571    0.000    0.000    0.000    0.000 
#    0.000    0.000    0.000    0.000    0.000    0.000 
#
# Total GULP energy -156492.828183 kJ/mol
# GULP energy per Si atom -5589.029578 kJ/mol
# Density = 2.175585 g / cm^3
# Si number density = 21.805481 Si / 1000 Ang^3
#
#
#
# Elastic Constant Matrix: (Units=GPa)
#
#
# Indices 1 2 3 4 5 6 
#
# 1 152.6622 43.0689 33.4849 0.0000 0.0000 0.0000
# 2 43.0689 57.8913 -0.8668 0.0000 0.0000 0.0000
# 3 33.4849 -0.8668 74.2239 0.0000 0.0000 0.0000
# 4 0.0000 0.0000 0.0000 4.3311 0.0000 0.0000
# 5 0.0000 0.0000 0.0000 0.0000 27.1370 0.0000
# 6 0.0000 0.0000 0.0000 0.0000 0.0000 59.1647
#
#
#
# Elastic Compliance Matrix: (Units=1/GPa)
#
#
# Indices 1 2 3 4 5 6 
#
# 1 0.009531 -0.007156 -0.004383 0.000000 0.000000 0.000000
# 2 -0.007156 0.022650 0.003493 0.000000 0.000000 0.000000
# 3 -0.004383 0.003493 0.015491 0.000000 0.000000 0.000000
# 4 0.000000 0.000000 0.000000 0.230889 0.000000 0.000000
# 5 0.000000 0.000000 0.000000 0.000000 0.036850 0.000000
# 6 0.000000 0.000000 0.000000 0.000000 0.000000 0.016902
#
#
# Mechanical properties :
#
#
# Convention : Reuss Voigt Hill
#
# Bulk Modulus (GPa) = 31.66695 48.46127 40.06411
# Shear Modulus (GPa) = 13.93024 32.06592 22.99808
#
# Velocity S-wave (km/s) = 2.53027 3.83893 3.25113
# Velocity P-wave (km/s) = 4.80524 6.47475 5.70144
#
# Compressibility (1/GPa) = 0.03157866
#
# Stress axis : x y z
#
# Youngs Moduli (GPa) = 104.92439 44.15036 64.55394
#
# Poissons Ratio (x) = 0.31594 0.28295
# Poissons Ratio (y) = 0.75085 -0.22548
# Poissons Ratio (z) = 0.45990 -0.15421
#
# Static dielectric constant tensor:
#      x y z
#    x 1.718820 0.000000 0.000000 
#    y 0.000000 1.885790 0.000000 
#    z 0.000000 0.000000 1.906760 
# 
# From -- ./inp_files/3204.got.cif
#   From: 2010.05.17/outbox.cif.g08.bks.cpg/sg54_2_cif.got.tgz:3204.got - 2010.06.03 13:09:01.
