data_PCOD9423181
_publ_section_title
;
Structure prediction by ZEFSAII (Michael W. Deem and Ramdas Pophale) SiO2 
 PCOD9423181
Probable space group: P C C A
;
_chemical_formula_sum "Si O2"
_cell_formula_units_Z 32
_cell_length_a 12.370648
_cell_length_b 14.820690
_cell_length_c 8.203468
_cell_angle_alpha 90.000000
_cell_angle_beta 90.000000
_cell_angle_gamma 90.000000
_cell_volume 1504.036449
_symmetry_space_group_name_H-M "P C C A"
_symmetry_group_IT_number 54
_symmetry_cell_setting 'orthorhombic'
loop_
_space_group_symop_operation_xyz
x,y,z
1/2-x,-y,z
1/2+x,-y,1/2-z
-x,y,1/2-z
-x,-y,-z
1/2+x,y,-z
1/2-x,y,1/2+z
x,-y,1/2+z
loop_
_atom_site_type_symbol
_atom_site_label
_atom_site_fract_x
_atom_site_fract_y
_atom_site_fract_z
Si Si1 0.750000 0.500000 0.309121
Si Si2 0.841656 0.883465 0.711508
Si Si3 0.911315 0.575406 0.546460
Si Si4 0.500000 0.270394 0.750000
Si Si5 0.888380 0.918722 0.331996
O O1 0.816240 0.573796 0.412902
O O2 0.656672 0.545635 0.204162
O O3 0.899821 0.795684 0.780222
O O4 0.874878 0.895884 0.522382
O O5 0.713356 0.879250 0.733634
O O6 0.878751 0.972782 0.809276
O O7 0.970760 0.666730 0.596179
O O8 0.000000 0.500000 0.500000
O O9 0.000000 0.889486 0.250000
#
# Coordination Sequence:
#
# PCOD9423181 Si02
#       5
#     4   8   8   4   8
#     4  10  22  42  78  96 130 194 236 268 388 440
#     4  11  25  42  73 105 141 194 247 305 358 452
#     4  11  22  46  72 101 140 188 226 304 364 431
#     4  12  26  42  72 106 148 178 264 298 352 444
#     4  11  23  45  73  97 150 198 236 295 393 422
#
# _framework density 21.276078999999999
#
# number of rings (size 3 to 8) (size 9 to 14) (size 15 to 20)
#    0.000    1.000    3.750    3.750    3.500    2.000 
#    0.000    2.500    0.000    0.000    0.000    0.000 
#    0.000    0.000    0.000    0.000    0.000    0.000 
#
# Total GULP energy -178871.118848 kJ/mol
# GULP energy per Si atom -5589.722464 kJ/mol
# Density = 2.122765 g / cm^3
# Si number density = 21.276079 Si / 1000 Ang^3
#
#
#
# Elastic Constant Matrix: (Units=GPa)
#
#
# Indices 1 2 3 4 5 6 
#
# 1 191.4905 80.8075 58.3332 0.0000 0.0000 0.0000
# 2 80.8075 120.1531 43.3940 0.0000 0.0000 0.0000
# 3 58.3332 43.3940 116.4316 0.0000 0.0000 0.0000
# 4 0.0000 0.0000 0.0000 30.0347 0.0000 0.0000
# 5 0.0000 0.0000 0.0000 0.0000 49.8799 0.0000
# 6 0.0000 0.0000 0.0000 0.0000 0.0000 40.9655
#
#
#
# Elastic Compliance Matrix: (Units=1/GPa)
#
#
# Indices 1 2 3 4 5 6 
#
# 1 0.007769 -0.004413 -0.002248 0.000000 0.000000 0.000000
# 2 -0.004413 0.012124 -0.002308 0.000000 0.000000 0.000000
# 3 -0.002248 -0.002308 0.010575 0.000000 0.000000 0.000000
# 4 0.000000 0.000000 0.000000 0.033295 0.000000 0.000000
# 5 0.000000 0.000000 0.000000 0.000000 0.020048 0.000000
# 6 0.000000 0.000000 0.000000 0.000000 0.000000 0.024411
#
#
# Mechanical properties :
#
#
# Convention : Reuss Voigt Hill
#
# Bulk Modulus (GPa) = 79.80040 88.12716 83.96378
# Shear Modulus (GPa) = 38.36228 40.54540 39.45384
#
# Velocity S-wave (km/s) = 4.25086 4.37015 4.31092
# Velocity P-wave (km/s) = 7.85377 8.18382 8.02049
#
# Compressibility (1/GPa) = 0.01253127
#
# Stress axis : x y z
#
# Youngs Moduli (GPa) = 128.71176 82.47907 94.56416
#
# Poissons Ratio (x) = 0.36401 0.21254
# Poissons Ratio (y) = 0.56806 0.21821
# Poissons Ratio (z) = 0.28929 0.19033
#
# Static dielectric constant tensor:
#      x y z
#    x 1.738320 0.000000 0.000000 
#    y 0.000000 1.755700 0.000000 
#    z 0.000000 0.000000 1.810610 
# 
# From -- ./inp_files/2815.got.cif
#   From: 2010.05.17/outbox.cif.g08.bks.cpg/sg54_2_cif.got.tgz:2815.got - 2010.06.03 13:09:01.
