data_PCOD9423879
_publ_section_title
;
Structure prediction by ZEFSAII (Michael W. Deem and Ramdas Pophale) SiO2 
 PCOD9423879
Probable space group: P C C A
;
_chemical_formula_sum "Si O2"
_cell_formula_units_Z 48
_cell_length_a 7.289553
_cell_length_b 17.937703
_cell_length_c 15.913604
_cell_angle_alpha 90.000000
_cell_angle_beta 90.000000
_cell_angle_gamma 90.000000
_cell_volume 2080.828433
_symmetry_space_group_name_H-M "P C C A"
_symmetry_group_IT_number 54
_symmetry_cell_setting 'orthorhombic'
loop_
_space_group_symop_operation_xyz
x,y,z
1/2-x,-y,z
1/2+x,-y,1/2-z
-x,y,1/2-z
-x,-y,-z
1/2+x,y,-z
1/2-x,y,1/2+z
x,-y,1/2+z
loop_
_atom_site_type_symbol
_atom_site_label
_atom_site_fract_x
_atom_site_fract_y
_atom_site_fract_z
Si Si1 0.774244 0.230882 0.397841
Si Si2 0.912429 0.297864 0.566786
Si Si3 0.833729 0.931738 0.865369
Si Si4 0.721824 0.321962 0.237631
Si Si5 0.500000 0.546612 0.250000
Si Si6 0.500000 0.028995 0.250000
Si Si7 0.946703 0.464313 0.912299
O O1 0.846677 0.283282 0.472777
O O2 0.554382 0.232625 0.410566
O O3 0.852365 0.148246 0.404495
O O4 0.799912 0.263311 0.304628
O O5 0.757058 0.301734 0.639113
O O6 0.018362 0.376754 0.576368
O O7 0.674795 0.926676 0.789215
O O8 0.750000 0.000000 0.919681
O O9 0.984040 0.968727 0.673671
O O10 0.500000 0.326588 0.250000
O O11 0.828097 0.397319 0.259814
O O12 0.544196 0.495947 0.169867
O O13 0.750000 0.500000 0.898891
O O14 0.000000 0.500000 0.000000
#
# Coordination Sequence:
#
# PCOD9423879 Si02
#       7
#     8   8   8   8   4   4   8
#     4  11  24  45  69  95 148 181 228 291 361 429
#     4  11  26  44  64 102 136 181 238 290 360 434
#     4   8  17  37  67 102 134 177 222 278 339 421
#     4  10  25  46  69  99 137 183 239 298 367 431
#     4  12  28  45  73 100 132 182 254 302 372 439
#     4   6  16  33  65  98 134 156 234 260 336 399
#     4  12  28  46  71  95 137 187 237 313 372 429
#
# _framework density 23.067734999999999
#
# number of rings (size 3 to 8) (size 9 to 14) (size 15 to 20)
#    1.000    0.667    0.000    4.000   16.333    0.667 
#    0.000    0.833    0.000    1.000    0.000    0.000 
#    0.000    0.000    0.000    0.000    0.000    0.000 
#
# Total GULP energy -267328.905843 kJ/mol
# GULP energy per Si atom -5569.352205 kJ/mol
# Density = 2.301523 g / cm^3
# Si number density = 23.067735 Si / 1000 Ang^3
#
#
#
# Elastic Constant Matrix: (Units=GPa)
#
#
# Indices 1 2 3 4 5 6 
#
# 1 60.1434 9.8319 20.1999 0.0000 0.0000 0.0000
# 2 9.8319 131.5649 60.9748 0.0000 0.0000 0.0000
# 3 20.1999 60.9748 121.2655 0.0000 0.0000 0.0000
# 4 0.0000 0.0000 0.0000 -4.9470 0.0000 0.0000
# 5 0.0000 0.0000 0.0000 0.0000 16.7380 0.0000
# 6 0.0000 0.0000 0.0000 0.0000 0.0000 28.8602
#
#
#
# Elastic Compliance Matrix: (Units=1/GPa)
#
#
# Indices 1 2 3 4 5 6 
#
# 1 0.017613 0.000057 -0.002962 0.000000 0.000000 0.000000
# 2 0.000057 0.009910 -0.004993 0.000000 0.000000 0.000000
# 3 -0.002962 -0.004993 0.011250 0.000000 0.000000 0.000000
# 4 0.000000 0.000000 0.000000 -0.202142 0.000000 0.000000
# 5 0.000000 0.000000 0.000000 0.000000 0.059744 0.000000
# 6 0.000000 0.000000 0.000000 0.000000 0.000000 0.034650
#
#
# Mechanical properties :
#
#
# Convention : Reuss Voigt Hill
#
# Bulk Modulus (GPa) = 43.52223 54.99854 49.26039
# Shear Modulus (GPa) = -109.84316 22.92806 -43.45755
#
# Velocity S-wave (km/s) = -6.90804 3.15611 -4.34511
# Velocity P-wave (km/s) = 6.68730 6.09716 1.94224
#
# Compressibility (1/GPa) = 0.02297676
#
# Stress axis : x y z
#
# Youngs Moduli (GPa) = 56.77752 100.90366 88.88717
#
# Poissons Ratio (x) = -0.00572 0.26332
# Poissons Ratio (y) = -0.00322 0.44378
# Poissons Ratio (z) = 0.16820 0.50377
#
# Static dielectric constant tensor:
#      x y z
#    x 10.454550 0.000000 0.000000 
#    y 0.000000 1.913330 0.000000 
#    z 0.000000 0.000000 1.856170 
# 
# From -- ./inp_files/11746.got.cif
#   From: 2010.05.17/outbox.cif.g08.bks.cpg/sg54_6_cif.got.tgz:11746.got - 2010.06.03 13:09:01.
