data_PCOD9423943
_publ_section_title
;
Structure prediction by ZEFSAII (Michael W. Deem and Ramdas Pophale) SiO2 
 PCOD9423943
Probable space group: P C C A
;
_chemical_formula_sum "Si O2"
_cell_formula_units_Z 20
_cell_length_a 7.340484
_cell_length_b 10.399530
_cell_length_c 9.339599
_cell_angle_alpha 90.000000
_cell_angle_beta 90.000000
_cell_angle_gamma 90.000000
_cell_volume 712.962419
_symmetry_space_group_name_H-M "P C C A"
_symmetry_group_IT_number 54
_symmetry_cell_setting 'orthorhombic'
loop_
_space_group_symop_operation_xyz
x,y,z
1/2-x,-y,z
1/2+x,-y,1/2-z
-x,y,1/2-z
-x,-y,-z
1/2+x,y,-z
1/2-x,y,1/2+z
x,-y,1/2+z
loop_
_atom_site_type_symbol
_atom_site_label
_atom_site_fract_x
_atom_site_fract_y
_atom_site_fract_z
Si Si1 0.000000 0.475554 0.750000
Si Si2 0.835185 0.306885 0.378532
Si Si3 0.817583 0.865092 0.157075
O O1 0.000153 0.588412 0.627013
O O2 0.161833 0.386450 0.689321
O O3 0.824935 0.186963 0.272205
O O4 0.833964 0.241574 0.532937
O O5 0.000000 0.882886 0.250000
O O6 0.750000 0.000000 0.094094
#
# Coordination Sequence:
#
# PCOD9423943 Si02
#       3
#     4   8   8
#     4  10  26  52  84 126 168 210 282 358 420 526
#     4  11  27  51  87 119 172 222 278 356 437 498
#     4  12  30  54  80 125 173 228 291 348 419 511
#
# _framework density 28.051971000000002
#
# number of rings (size 3 to 8) (size 9 to 14) (size 15 to 20)
#    0.000    0.800    2.000    1.200    8.400   12.800 
#    0.000    0.000    0.000    0.000    0.000    0.000 
#    0.000    0.000    0.000    0.000    0.000    0.000 
#
# Total GULP energy -111578.580425 kJ/mol
# GULP energy per Si atom -5578.929021 kJ/mol
# Density = 2.798812 g / cm^3
# Si number density = 28.051971 Si / 1000 Ang^3
#
#
#
# Elastic Constant Matrix: (Units=GPa)
#
#
# Indices 1 2 3 4 5 6 
#
# 1 175.3263 74.1982 52.6615 0.0000 0.0000 0.0000
# 2 74.1982 169.8224 87.0815 0.0000 0.0000 0.0000
# 3 52.6615 87.0815 216.5506 0.0000 0.0000 0.0000
# 4 0.0000 0.0000 0.0000 63.9677 0.0000 0.0000
# 5 0.0000 0.0000 0.0000 0.0000 26.2093 0.0000
# 6 0.0000 0.0000 0.0000 0.0000 0.0000 45.5868
#
#
#
# Elastic Compliance Matrix: (Units=1/GPa)
#
#
# Indices 1 2 3 4 5 6 
#
# 1 0.007059 -0.002776 -0.000600 0.000000 0.000000 0.000000
# 2 -0.002776 0.008510 -0.002747 0.000000 0.000000 0.000000
# 3 -0.000600 -0.002747 0.005868 0.000000 0.000000 0.000000
# 4 0.000000 0.000000 0.000000 0.015633 0.000000 0.000000
# 5 0.000000 0.000000 0.000000 0.000000 0.038154 0.000000
# 6 0.000000 0.000000 0.000000 0.000000 0.000000 0.021936
#
#
# Mechanical properties :
#
#
# Convention : Reuss Voigt Hill
#
# Bulk Modulus (GPa) = 108.80911 109.95354 109.38132
# Shear Modulus (GPa) = 44.45567 50.33664 47.39616
#
# Velocity S-wave (km/s) = 3.98522 4.24064 4.11491
# Velocity P-wave (km/s) = 7.74910 7.95354 7.85199
#
# Compressibility (1/GPa) = 0.00919041
#
# Stress axis : x y z
#
# Youngs Moduli (GPa) = 141.66542 117.50628 170.40246
#
# Poissons Ratio (x) = 0.32625 0.10226
# Poissons Ratio (y) = 0.39332 0.46810
# Poissons Ratio (z) = 0.08502 0.32279
#
# Static dielectric constant tensor:
#      x y z
#    x 2.545000 0.000000 0.000000 
#    y 0.000000 2.224450 0.000000 
#    z 0.000000 0.000000 2.251000 
# 
# From -- ./inp_files/2393.got.cif
#   From: 2010.05.17/outbox.cif.g08.bks.cpg/sg54_2_cif.got.tgz:2393.got - 2010.06.03 13:09:01.
