data_PCOD9423569
_publ_section_title
;
Structure prediction by ZEFSAII (Michael W. Deem and Ramdas Pophale) SiO2 
 PCOD9423569
Probable space group: P C C A
;
_chemical_formula_sum "Si O2"
_cell_formula_units_Z 40
_cell_length_a 10.272441
_cell_length_b 8.668637
_cell_length_c 19.192635
_cell_angle_alpha 90.000000
_cell_angle_beta 90.000000
_cell_angle_gamma 90.000000
_cell_volume 1709.066954
_symmetry_space_group_name_H-M "P C C A"
_symmetry_group_IT_number 54
_symmetry_cell_setting 'orthorhombic'
loop_
_space_group_symop_operation_xyz
x,y,z
1/2-x,-y,z
1/2+x,-y,1/2-z
-x,y,1/2-z
-x,-y,-z
1/2+x,y,-z
1/2-x,y,1/2+z
x,-y,1/2+z
loop_
_atom_site_type_symbol
_atom_site_label
_atom_site_fract_x
_atom_site_fract_y
_atom_site_fract_z
Si Si1 0.872412 0.386723 0.090991
Si Si2 0.022904 0.309532 0.863194
Si Si3 0.768188 0.816712 0.864228
Si Si4 0.457862 0.178624 0.505984
Si Si5 0.260613 0.184722 0.788819
O O1 0.750000 0.500000 0.077382
O O2 0.974286 0.508986 0.122411
O O3 0.843206 0.261733 0.150248
O O4 0.923573 0.293423 0.024911
O O5 0.116649 0.259616 0.799826
O O6 0.875846 0.253158 0.864397
O O7 0.090058 0.225688 0.929990
O O8 0.856890 0.788642 0.931587
O O9 0.819656 0.777075 0.786965
O O10 0.750000 0.000000 0.864295
O O11 0.500000 0.000000 0.500000
O O12 0.250000 0.000000 0.796009
#
# Coordination Sequence:
#
# PCOD9423569 Si02
#       5
#     8   8   8   8   8
#     4  10  25  47  72 107 150 194 245 311 384 441
#     4  11  24  46  72 104 152 187 244 313 377 442
#     4  11  25  44  72 112 143 195 253 305 372 449
#     4  12  25  45  76 109 144 196 254 307 370 450
#     4  10  23  46  74 100 147 198 248 301 370 457
#
# _framework density 23.404581
#
# number of rings (size 3 to 8) (size 9 to 14) (size 15 to 20)
#    0.000    1.200    2.000    2.400    5.600    2.400 
#   18.000    0.000    0.000    0.000    0.000    0.000 
#    0.000    0.000    0.000    0.000    0.000    0.000 
#
# Total GULP energy -223642.981927 kJ/mol
# GULP energy per Si atom -5591.074548 kJ/mol
# Density = 2.335131 g / cm^3
# Si number density = 23.404581 Si / 1000 Ang^3
#
#
#
# Elastic Constant Matrix: (Units=GPa)
#
#
# Indices 1 2 3 4 5 6 
#
# 1 65.8645 27.7920 24.7300 0.0000 0.0000 0.0000
# 2 27.7920 132.0132 12.2442 0.0000 0.0000 0.0000
# 3 24.7300 12.2442 120.4671 0.0000 0.0000 0.0000
# 4 0.0000 0.0000 0.0000 53.2108 0.0000 0.0000
# 5 0.0000 0.0000 0.0000 0.0000 47.8560 0.0000
# 6 0.0000 0.0000 0.0000 0.0000 0.0000 36.8540
#
#
#
# Elastic Compliance Matrix: (Units=1/GPa)
#
#
# Indices 1 2 3 4 5 6 
#
# 1 0.017889 -0.003458 -0.003321 0.000000 0.000000 0.000000
# 2 -0.003458 0.008316 -0.000135 0.000000 0.000000 0.000000
# 3 -0.003321 -0.000135 0.008996 0.000000 0.000000 0.000000
# 4 0.000000 0.000000 0.000000 0.018793 0.000000 0.000000
# 5 0.000000 0.000000 0.000000 0.000000 0.020896 0.000000
# 6 0.000000 0.000000 0.000000 0.000000 0.000000 0.027134
#
#
# Mechanical properties :
#
#
# Convention : Reuss Voigt Hill
#
# Bulk Modulus (GPa) = 46.78913 49.76413 48.27663
# Shear Modulus (GPa) = 40.65821 44.48939 42.57380
#
# Velocity S-wave (km/s) = 4.17248 4.36464 4.26964
# Velocity P-wave (km/s) = 6.57630 6.83439 6.70658
#
# Compressibility (1/GPa) = 0.02137248
#
# Stress axis : x y z
#
# Youngs Moduli (GPa) = 55.90129 120.25675 111.15458
#
# Poissons Ratio (x) = 0.41585 0.36912
# Poissons Ratio (y) = 0.19331 0.01504
# Poissons Ratio (z) = 0.18564 0.01627
#
# Static dielectric constant tensor:
#      x y z
#    x 1.996080 0.000000 0.000000 
#    y 0.000000 1.892410 0.000000 
#    z 0.000000 0.000000 1.891770 
# 
# From -- ./inp_files/17076.got.cif
#   From: 2010.05.17/outbox.cif.g08.bks.cpg/sg54_9_cif.got.tgz:17076.got - 2010.06.03 13:09:01.
