data_PCOD9423771
_publ_section_title
;
Structure prediction by ZEFSAII (Michael W. Deem and Ramdas Pophale) SiO2 
 PCOD9423771
Probable space group: P C C A
;
_chemical_formula_sum "Si O2"
_cell_formula_units_Z 40
_cell_length_a 20.133686
_cell_length_b 6.164798
_cell_length_c 14.338544
_cell_angle_alpha 90.000000
_cell_angle_beta 90.000000
_cell_angle_gamma 90.000000
_cell_volume 1779.701618
_symmetry_space_group_name_H-M "P C C A"
_symmetry_group_IT_number 54
_symmetry_cell_setting 'orthorhombic'
loop_
_space_group_symop_operation_xyz
x,y,z
1/2-x,-y,z
1/2+x,-y,1/2-z
-x,y,1/2-z
-x,-y,-z
1/2+x,y,-z
1/2-x,y,1/2+z
x,-y,1/2+z
loop_
_atom_site_type_symbol
_atom_site_label
_atom_site_fract_x
_atom_site_fract_y
_atom_site_fract_z
Si Si1 0.750000 0.000000 0.384816
Si Si2 0.088186 0.479465 0.341550
Si Si3 0.683317 0.386628 0.813738
Si Si4 0.845748 0.347070 0.981445
Si Si5 0.983697 0.164299 0.915202
Si Si6 0.500000 0.122072 0.750000
O O1 0.800203 0.133515 0.317680
O O2 0.703927 0.157067 0.448312
O O3 0.123584 0.497784 0.241511
O O4 0.146744 0.405155 0.410822
O O5 0.044916 0.678069 0.383315
O O6 0.040405 0.277077 0.319312
O O7 0.750000 0.500000 0.779191
O O8 0.674470 0.444932 0.922067
O O9 0.921161 0.296478 0.951653
O O10 0.962504 0.032624 0.822528
O O11 0.000000 0.000000 0.000000
#
# Coordination Sequence:
#
# PCOD9423771 Si02
#       6
#     4   8   8   8   8   4
#     4  10  24  46  72 102 140 200 240 306 380 436
#     4  12  26  42  70 104 140 190 243 298 373 440
#     4  10  24  45  67  97 142 184 237 307 353 441
#     4  11  24  44  70 101 143 183 242 301 364 443
#     4  12  26  45  69 107 146 190 241 303 372 448
#     4  12  24  42  70 100 138 190 228 298 358 436
#
# _framework density 22.475676
#
# number of rings (size 3 to 8) (size 9 to 14) (size 15 to 20)
#    0.000    0.800    2.000    4.800    5.600    4.800 
#    0.000    0.000    0.000    0.000    0.000    0.000 
#    0.000    0.000    0.000    0.000    0.000    0.000 
#
# Total GULP energy -223175.166666 kJ/mol
# GULP energy per Si atom -5579.379167 kJ/mol
# Density = 2.242452 g / cm^3
# Si number density = 22.475676 Si / 1000 Ang^3
#
#
#
# Elastic Constant Matrix: (Units=GPa)
#
#
# Indices 1 2 3 4 5 6 
#
# 1 81.2311 28.4458 7.4716 0.0000 0.0000 0.0000
# 2 28.4458 92.9690 30.7913 0.0000 0.0000 0.0000
# 3 7.4716 30.7913 104.4334 0.0000 0.0000 0.0000
# 4 0.0000 0.0000 0.0000 37.2881 0.0000 0.0000
# 5 0.0000 0.0000 0.0000 0.0000 37.2870 0.0000
# 6 0.0000 0.0000 0.0000 0.0000 0.0000 31.8490
#
#
#
# Elastic Compliance Matrix: (Units=1/GPa)
#
#
# Indices 1 2 3 4 5 6 
#
# 1 0.013796 -0.004316 0.000285 0.000000 0.000000 0.000000
# 2 -0.004316 0.013270 -0.003604 0.000000 0.000000 0.000000
# 3 0.000285 -0.003604 0.010618 0.000000 0.000000 0.000000
# 4 0.000000 0.000000 0.000000 0.026818 0.000000 0.000000
# 5 0.000000 0.000000 0.000000 0.000000 0.026819 0.000000
# 6 0.000000 0.000000 0.000000 0.000000 0.000000 0.031398
#
#
# Mechanical properties :
#
#
# Convention : Reuss Voigt Hill
#
# Bulk Modulus (GPa) = 44.61213 45.78343 45.19778
# Shear Modulus (GPa) = 34.37402 35.41315 34.89358
#
# Velocity S-wave (km/s) = 3.91498 3.97372 3.94446
# Velocity P-wave (km/s) = 6.35045 6.43959 6.39518
#
# Compressibility (1/GPa) = 0.02241543
#
# Stress axis : x y z
#
# Youngs Moduli (GPa) = 72.48716 75.35615 94.18291
#
# Poissons Ratio (x) = 0.32520 -0.02688
# Poissons Ratio (y) = 0.31282 0.33942
# Poissons Ratio (z) = -0.02069 0.27158
#
# Static dielectric constant tensor:
#      x y z
#    x 1.967720 0.000000 0.000000 
#    y 0.000000 1.852030 0.000000 
#    z 0.000000 0.000000 1.854270 
# 
# From -- ./inp_files/14856.got.cif
#   From: 2010.05.17/outbox.cif.g08.bks.cpg/sg54_8_cif.got.tgz:14856.got - 2010.06.03 13:09:01.
