data_PCOD9423568
_publ_section_title
;
Structure prediction by ZEFSAII (Michael W. Deem and Ramdas Pophale) SiO2 
 PCOD9423568
Probable space group: P C C A
;
_chemical_formula_sum "Si O2"
_cell_formula_units_Z 40
_cell_length_a 16.514504
_cell_length_b 5.068317
_cell_length_c 19.238887
_cell_angle_alpha 90.000000
_cell_angle_beta 90.000000
_cell_angle_gamma 90.000000
_cell_volume 1610.309105
_symmetry_space_group_name_H-M "P C C A"
_symmetry_group_IT_number 54
_symmetry_cell_setting 'orthorhombic'
loop_
_space_group_symop_operation_xyz
x,y,z
1/2-x,-y,z
1/2+x,-y,1/2-z
-x,y,1/2-z
-x,-y,-z
1/2+x,y,-z
1/2-x,y,1/2+z
x,-y,1/2+z
loop_
_atom_site_type_symbol
_atom_site_label
_atom_site_fract_x
_atom_site_fract_y
_atom_site_fract_z
Si Si1 0.623188 0.150179 0.255107
Si Si2 0.750000 0.000000 0.352732
Si Si3 0.250000 0.500000 0.550610
Si Si4 0.750000 0.500000 0.672968
Si Si5 0.004157 0.196290 0.860135
Si Si6 0.624800 0.397938 0.562965
Si Si7 0.500000 0.000000 0.500000
O O1 0.673347 0.949452 0.302049
O O2 0.689979 0.329866 0.218887
O O3 0.565732 0.051175 0.192802
O O4 0.564575 0.304100 0.308811
O O5 0.735842 0.250327 0.400885
O O6 0.326879 0.459979 0.499485
O O7 0.691664 0.335564 0.621253
O O8 0.056441 0.407482 0.904764
O O9 0.965490 0.019742 0.919555
O O10 0.579734 0.151431 0.530834
#
# Coordination Sequence:
#
# PCOD9423568 Si02
#       7
#     8   4   4   4   8   8   4
#     4  10  23  46  72 106 146 199 257 315 389 466
#     4  12  26  46  78 112 158 198 266 316 392 470
#     4  11  27  48  76 114 154 208 258 330 390 470
#     4   9  21  48  76 106 148 208 256 326 394 478
#     4  10  24  46  70 107 149 197 256 320 392 462
#     4  10  24  46  74 110 152 204 261 327 395 470
#     4  12  24  40  72 106 146 198 254 318 390 464
#
# _framework density 24.839950000000002
#
# number of rings (size 3 to 8) (size 9 to 14) (size 15 to 20)
#    0.000    1.600    0.000    2.400    8.400    0.000 
#    7.200    2.000    0.000    0.000    0.000    0.000 
#    0.000    0.000    0.000    0.000    0.000    0.000 
#
# Total GULP energy -222767.028228 kJ/mol
# GULP energy per Si atom -5569.175706 kJ/mol
# Density = 2.478341 g / cm^3
# Si number density = 24.839950 Si / 1000 Ang^3
#
#
#
# Elastic Constant Matrix: (Units=GPa)
#
#
# Indices 1 2 3 4 5 6 
#
# 1 103.1258 7.6583 41.5049 0.0000 0.0000 0.0000
# 2 7.6583 30.1977 8.9724 0.0000 0.0000 0.0000
# 3 41.5049 8.9724 159.5582 0.0000 0.0000 0.0000
# 4 0.0000 0.0000 0.0000 16.6849 0.0000 0.0000
# 5 0.0000 0.0000 0.0000 0.0000 67.5893 0.0000
# 6 0.0000 0.0000 0.0000 0.0000 0.0000 50.9849
#
#
#
# Elastic Compliance Matrix: (Units=1/GPa)
#
#
# Indices 1 2 3 4 5 6 
#
# 1 0.010944 -0.001962 -0.002736 0.000000 0.000000 0.000000
# 2 -0.001962 0.034030 -0.001403 0.000000 0.000000 0.000000
# 3 -0.002736 -0.001403 0.007058 0.000000 0.000000 0.000000
# 4 0.000000 0.000000 0.000000 0.059935 0.000000 0.000000
# 5 0.000000 0.000000 0.000000 0.000000 0.014795 0.000000
# 6 0.000000 0.000000 0.000000 0.000000 0.000000 0.019614
#
#
# Mechanical properties :
#
#
# Convention : Reuss Voigt Hill
#
# Bulk Modulus (GPa) = 25.10812 45.46145 35.28478
# Shear Modulus (GPa) = 29.09431 42.70155 35.89793
#
# Velocity S-wave (km/s) = 3.42610 4.15066 3.80566
# Velocity P-wave (km/s) = 5.07748 6.42745 5.79193
#
# Compressibility (1/GPa) = 0.03982775
#
# Stress axis : x y z
#
# Youngs Moduli (GPa) = 91.37466 29.38612 141.68279
#
# Poissons Ratio (x) = 0.05767 0.38771
# Poissons Ratio (y) = 0.17931 0.19880
# Poissons Ratio (z) = 0.25004 0.04123
#
# Static dielectric constant tensor:
#      x y z
#    x 1.056450 0.000000 0.000000 
#    y 0.000000 1.959540 0.000000 
#    z 0.000000 0.000000 2.000600 
# 
# From -- ./inp_files/18441.got.cif
#   From: 2010.05.17/outbox.cif.g08.bks.cpg/sg54_10_cif.got.tgz:18441.got - 2010.06.03 13:09:01.
