data_PCOD9423889
_publ_section_title
;
Structure prediction by ZEFSAII (Michael W. Deem and Ramdas Pophale) SiO2 
 PCOD9423889
Probable space group: P C C A
;
_chemical_formula_sum "Si O2"
_cell_formula_units_Z 60
_cell_length_a 14.323230
_cell_length_b 9.025381
_cell_length_c 18.317661
_cell_angle_alpha 90.000000
_cell_angle_beta 90.000000
_cell_angle_gamma 90.000000
_cell_volume 2367.971808
_symmetry_space_group_name_H-M "P C C A"
_symmetry_group_IT_number 54
_symmetry_cell_setting 'orthorhombic'
loop_
_space_group_symop_operation_xyz
x,y,z
1/2-x,-y,z
1/2+x,-y,1/2-z
-x,y,1/2-z
-x,-y,-z
1/2+x,y,-z
1/2-x,y,1/2+z
x,-y,1/2+z
loop_
_atom_site_type_symbol
_atom_site_label
_atom_site_fract_x
_atom_site_fract_y
_atom_site_fract_z
Si Si1 0.554653 0.247580 0.112819
Si Si2 0.394762 0.711474 0.502828
Si Si3 0.000000 0.043863 0.750000
Si Si4 0.287247 0.698107 0.645830
Si Si5 0.371969 0.559898 0.192952
Si Si6 0.666274 0.920038 0.334329
Si Si7 0.410799 0.556207 0.351020
Si Si8 0.641015 0.032285 0.000367
O O1 0.609944 0.382907 0.145212
O O2 0.615904 0.155307 0.057000
O O3 0.519791 0.140280 0.177245
O O4 0.478814 0.323624 0.057963
O O5 0.308140 0.701967 0.559275
O O6 0.384863 0.623112 0.429032
O O7 0.411419 0.881206 0.481331
O O8 0.909000 0.945945 0.770854
O O9 0.250000 0.500000 0.656367
O O10 0.372685 0.626400 0.690039
O O11 0.285598 0.888599 0.667745
O O12 0.325967 0.722833 0.161445
O O13 0.359034 0.604562 0.277946
O O14 0.478939 0.583702 0.164319
O O15 0.624128 0.935864 0.415458
O O16 0.750000 0.000000 0.006136
#
# Coordination Sequence:
#
# PCOD9423889 Si02
#       8
#     8   8   4   8   8   8   8   8
#     4  12  26  44  74 105 147 187 246 304 374 451
#     4  12  24  46  77 106 143 197 250 301 376 453
#     4  12  26  44  76 110 146 208 242 310 394 454
#     4  11  23  45  72 100 149 191 239 305 380 440
#     4  10  25  47  72 105 148 191 242 318 375 439
#     4  11  24  45  75 106 144 195 254 301 379 457
#     4  11  26  46  76 108 142 193 257 305 372 462
#     4  11  25  48  69 104 147 190 240 314 366 438
#
# _framework density 25.338139999999999
#
# number of rings (size 3 to 8) (size 9 to 14) (size 15 to 20)
#    0.000    0.800    5.333    1.600    3.733    3.733 
#    4.800    0.000    0.000    0.000    0.000    0.000 
#    0.000    0.000    0.000    0.000    0.000    0.000 
#
# Total GULP energy -334680.772124 kJ/mol
# GULP energy per Si atom -5578.012869 kJ/mol
# Density = 2.528047 g / cm^3
# Si number density = 25.338140 Si / 1000 Ang^3
#
#
#
# Elastic Constant Matrix: (Units=GPa)
#
#
# Indices 1 2 3 4 5 6 
#
# 1 76.5427 49.0678 63.6545 0.0000 0.0000 0.0000
# 2 49.0678 132.5633 61.0934 0.0000 0.0000 0.0000
# 3 63.6545 61.0934 177.4327 0.0000 0.0000 0.0000
# 4 0.0000 0.0000 0.0000 52.9558 0.0000 0.0000
# 5 0.0000 0.0000 0.0000 0.0000 25.0979 0.0000
# 6 0.0000 0.0000 0.0000 0.0000 0.0000 44.9890
#
#
#
# Elastic Compliance Matrix: (Units=1/GPa)
#
#
# Indices 1 2 3 4 5 6 
#
# 1 0.021233 -0.005169 -0.005838 0.000000 0.000000 0.000000
# 2 -0.005169 0.010225 -0.001666 0.000000 0.000000 0.000000
# 3 -0.005838 -0.001666 0.008304 0.000000 0.000000 0.000000
# 4 0.000000 0.000000 0.000000 0.018884 0.000000 0.000000
# 5 0.000000 0.000000 0.000000 0.000000 0.039844 0.000000
# 6 0.000000 0.000000 0.000000 0.000000 0.000000 0.022228
#
#
# Mechanical properties :
#
#
# Convention : Reuss Voigt Hill
#
# Bulk Modulus (GPa) = 69.36731 81.57448 75.47089
# Shear Modulus (GPa) = 33.14169 38.79007 35.96588
#
# Velocity S-wave (km/s) = 3.62052 3.91691 3.77163
# Velocity P-wave (km/s) = 6.70176 7.26089 6.98692
#
# Compressibility (1/GPa) = 0.01441601
#
# Stress axis : x y z
#
# Youngs Moduli (GPa) = 47.09698 97.80234 120.42551
#
# Poissons Ratio (x) = 0.50553 0.70299
# Poissons Ratio (y) = 0.24344 0.20065
# Poissons Ratio (z) = 0.27493 0.16296
#
# Static dielectric constant tensor:
#      x y z
#    x 1.176580 0.000000 0.000000 
#    y 0.000000 2.947720 0.000000 
#    z 0.000000 0.000000 1.914000 
# 
# From -- ./inp_files/18692.got.cif
#   From: 2010.05.17/outbox.cif.g08.bks.cpg/sg54_10_cif.got.tgz:18692.got - 2010.06.03 13:09:01.
