data_PCOD9423189
_publ_section_title
;
Structure prediction by ZEFSAII (Michael W. Deem and Ramdas Pophale) SiO2 
 PCOD9423189
Probable space group: P C C A
;
_chemical_formula_sum "Si O2"
_cell_formula_units_Z 36
_cell_length_a 14.173700
_cell_length_b 8.975306
_cell_length_c 12.225698
_cell_angle_alpha 90.000000
_cell_angle_beta 90.000000
_cell_angle_gamma 90.000000
_cell_volume 1555.271322
_symmetry_space_group_name_H-M "P C C A"
_symmetry_group_IT_number 54
_symmetry_cell_setting 'orthorhombic'
loop_
_space_group_symop_operation_xyz
x,y,z
1/2-x,-y,z
1/2+x,-y,1/2-z
-x,y,1/2-z
-x,-y,-z
1/2+x,y,-z
1/2-x,y,1/2+z
x,-y,1/2+z
loop_
_atom_site_type_symbol
_atom_site_label
_atom_site_fract_x
_atom_site_fract_y
_atom_site_fract_z
Si Si1 0.144757 0.545205 0.707643
Si Si2 0.250000 0.000000 0.295852
Si Si3 0.943305 0.657008 0.000984
Si Si4 0.072357 0.810566 0.847423
Si Si5 0.898095 0.233293 0.736839
O O1 0.250000 0.500000 0.733251
O O2 0.132415 0.636254 0.596407
O O3 0.105071 0.647138 0.804367
O O4 0.095786 0.385146 0.694391
O O5 0.163994 0.085076 0.356603
O O6 0.309625 0.129199 0.234753
O O7 0.015359 0.784054 0.958401
O O8 0.893327 0.708362 0.111755
O O9 0.000000 0.500000 0.000000
O O10 0.000000 0.854483 0.750000
O O11 0.000000 0.159488 0.750000
#
# Coordination Sequence:
#
# PCOD9423189 Si02
#       5
#     8   4   8   8   8
#     4  11  21  40  72 101 126 174 234 284 334 390
#     4  12  26  42  68  98 144 184 218 270 338 436
#     4  11  22  40  71  99 130 169 229 295 328 384
#     4  10  22  43  65  98 135 176 224 276 338 399
#     4  12  24  45  70 100 138 181 225 279 346 399
#
# _framework density 23.147085000000001
#
# number of rings (size 3 to 8) (size 9 to 14) (size 15 to 20)
#    0.000    0.889    6.667    1.333    0.000    3.556 
#    0.000    5.556    0.000    0.000    0.000    0.000 
#    0.000    0.000    0.000    0.000    0.000    0.000 
#
# Total GULP energy -200976.299976 kJ/mol
# GULP energy per Si atom -5582.674999 kJ/mol
# Density = 2.309440 g / cm^3
# Si number density = 23.147085 Si / 1000 Ang^3
#
#
#
# Elastic Constant Matrix: (Units=GPa)
#
#
# Indices 1 2 3 4 5 6 
#
# 1 121.5591 41.7851 6.9312 0.0000 0.0000 0.0000
# 2 41.7851 120.3565 5.1310 0.0000 0.0000 0.0000
# 3 6.9312 5.1310 79.0528 0.0000 0.0000 0.0000
# 4 0.0000 0.0000 0.0000 -12.3283 0.0000 0.0000
# 5 0.0000 0.0000 0.0000 0.0000 15.6073 0.0000
# 6 0.0000 0.0000 0.0000 0.0000 0.0000 56.5692
#
#
#
# Elastic Compliance Matrix: (Units=1/GPa)
#
#
# Indices 1 2 3 4 5 6 
#
# 1 0.009371 -0.003227 -0.000612 0.000000 0.000000 0.000000
# 2 -0.003227 0.009443 -0.000330 0.000000 0.000000 0.000000
# 3 -0.000612 -0.000330 0.012725 0.000000 0.000000 0.000000
# 4 0.000000 0.000000 0.000000 -0.081114 0.000000 0.000000
# 5 0.000000 0.000000 0.000000 0.000000 0.064073 0.000000
# 6 0.000000 0.000000 0.000000 0.000000 0.000000 0.017677
#
#
# Mechanical properties :
#
#
# Convention : Reuss Voigt Hill
#
# Bulk Modulus (GPa) = 43.10332 47.62923 45.36627
# Shear Modulus (GPa) = 103.63416 29.77770 66.70593
#
# Velocity S-wave (km/s) = 6.69845 3.59061 5.37409
# Velocity P-wave (km/s) = 8.85932 6.14910 7.62558
#
# Compressibility (1/GPa) = 0.02320007
#
# Stress axis : x y z
#
# Youngs Moduli (GPa) = 106.71586 105.89715 78.58630
#
# Poissons Ratio (x) = 0.34175 0.04811
# Poissons Ratio (y) = 0.34439 0.02593
# Poissons Ratio (z) = 0.06533 0.03494
#
# Static dielectric constant tensor:
#      x y z
#    x 2.015570 0.000000 0.000000 
#    y 0.000000 1.970750 0.000000 
#    z 0.000000 0.000000 1.821040 
# 
# From -- ./inp_files/13055.got.cif
#   From: 2010.05.17/outbox.cif.g08.bks.cpg/sg54_7_cif.got.tgz:13055.got - 2010.06.03 13:09:01.
