data_PCOD9423652
_publ_section_title
;
Structure prediction by ZEFSAII (Michael W. Deem and Ramdas Pophale) SiO2 
 PCOD9423652
Probable space group: P C C A
;
_chemical_formula_sum "Si O2"
_cell_formula_units_Z 52
_cell_length_a 21.864940
_cell_length_b 8.222171
_cell_length_c 11.818879
_cell_angle_alpha 90.000000
_cell_angle_beta 90.000000
_cell_angle_gamma 90.000000
_cell_volume 2124.765867
_symmetry_space_group_name_H-M "P C C A"
_symmetry_group_IT_number 54
_symmetry_cell_setting 'orthorhombic'
loop_
_space_group_symop_operation_xyz
x,y,z
1/2-x,-y,z
1/2+x,-y,1/2-z
-x,y,1/2-z
-x,-y,-z
1/2+x,y,-z
1/2-x,y,1/2+z
x,-y,1/2+z
loop_
_atom_site_type_symbol
_atom_site_label
_atom_site_fract_x
_atom_site_fract_y
_atom_site_fract_z
Si Si1 0.053305 0.318985 0.065876
Si Si2 0.329543 0.773951 0.211115
Si Si3 0.250000 0.000000 0.088392
Si Si4 0.250000 0.500000 0.129947
Si Si5 0.653331 0.879406 0.051590
Si Si6 0.384086 0.638669 0.613345
Si Si7 0.000000 0.093951 0.250000
Si Si8 0.593530 0.173358 0.162372
O O1 0.116838 0.266551 0.126366
O O2 0.061327 0.513111 0.083634
O O3 0.006803 0.214055 0.142124
O O4 0.055487 0.264131 0.935937
O O5 0.303717 0.945327 0.170102
O O6 0.272533 0.654053 0.200346
O O7 0.351682 0.771695 0.337733
O O8 0.220357 0.871177 0.004003
O O9 0.182856 0.558144 0.080607
O O10 0.608959 0.802834 0.959252
O O11 0.642119 0.064265 0.091585
O O12 0.384412 0.695996 0.744419
O O13 0.054985 0.968181 0.274702
#
# Coordination Sequence:
#
# PCOD9423652 Si02
#       8
#     8   8   4   4   8   8   4   8
#     4  11  26  47  73 104 145 186 241 312 374 438
#     4  11  23  41  64 101 140 188 238 291 359 439
#     4  12  22  40  66 106 140 192 240 292 366 436
#     4  10  24  42  62 100 156 184 238 282 368 436
#     4  12  24  42  71 102 151 189 244 299 356 444
#     4  11  27  47  72 112 150 196 248 301 377 455
#     4  12  26  52  78 108 140 192 258 312 386 436
#     4  12  26  49  76 108 143 194 251 312 368 442
#
# _framework density 24.473285000000001
#
# number of rings (size 3 to 8) (size 9 to 14) (size 15 to 20)
#    0.000    0.615    4.615    2.769    6.462    1.231 
#    0.000    2.308    0.000    0.000    0.000    0.000 
#    0.000    0.000    0.000    0.000    0.000    0.000 
#
# Total GULP energy -290167.503379 kJ/mol
# GULP energy per Si atom -5580.144296 kJ/mol
# Density = 2.441758 g / cm^3
# Si number density = 24.473285 Si / 1000 Ang^3
#
#
#
# Elastic Constant Matrix: (Units=GPa)
#
#
# Indices 1 2 3 4 5 6 
#
# 1 70.4475 13.1477 7.8727 0.0000 0.0000 0.0000
# 2 13.1477 84.9424 21.0981 0.0000 0.0000 0.0000
# 3 7.8727 21.0981 116.3829 0.0000 0.0000 0.0000
# 4 0.0000 0.0000 0.0000 18.5781 0.0000 0.0000
# 5 0.0000 0.0000 0.0000 0.0000 26.0225 0.0000
# 6 0.0000 0.0000 0.0000 0.0000 0.0000 46.6893
#
#
#
# Elastic Compliance Matrix: (Units=1/GPa)
#
#
# Indices 1 2 3 4 5 6 
#
# 1 0.014658 -0.002118 -0.000608 0.000000 0.000000 0.000000
# 2 -0.002118 0.012634 -0.002147 0.000000 0.000000 0.000000
# 3 -0.000608 -0.002147 0.009023 0.000000 0.000000 0.000000
# 4 0.000000 0.000000 0.000000 0.053827 0.000000 0.000000
# 5 0.000000 0.000000 0.000000 0.000000 0.038428 0.000000
# 6 0.000000 0.000000 0.000000 0.000000 0.000000 0.021418
#
#
# Mechanical properties :
#
#
# Convention : Reuss Voigt Hill
#
# Bulk Modulus (GPa) = 37.63715 39.55665 38.59690
# Shear Modulus (GPa) = 29.65785 33.56827 31.61306
#
# Velocity S-wave (km/s) = 3.48493 3.70757 3.59797
# Velocity P-wave (km/s) = 5.62186 5.87591 5.75029
#
# Compressibility (1/GPa) = 0.02656949
#
# Stress axis : x y z
#
# Youngs Moduli (GPa) = 68.22146 79.15290 110.83225
#
# Poissons Ratio (x) = 0.16764 0.06734
# Poissons Ratio (y) = 0.14449 0.23796
# Poissons Ratio (z) = 0.04145 0.16994
#
# Static dielectric constant tensor:
#      x y z
#    x 2.020870 0.000000 0.000000 
#    y 0.000000 2.116310 0.000000 
#    z 0.000000 0.000000 1.929360 
# 
# From -- ./inp_files/10328.got.cif
#   From: 2010.05.17/outbox.cif.g08.bks.cpg/sg54_6_cif.got.tgz:10328.got - 2010.06.03 13:09:01.
