data_PCOD9423010
_publ_section_title
;
Structure prediction by ZEFSAII (Michael W. Deem and Ramdas Pophale) SiO2 
 PCOD9423010
Probable space group: P C C A
;
_chemical_formula_sum "Si O2"
_cell_formula_units_Z 40
_cell_length_a 18.840444
_cell_length_b 11.920172
_cell_length_c 9.067652
_cell_angle_alpha 90.000000
_cell_angle_beta 90.000000
_cell_angle_gamma 90.000000
_cell_volume 2036.425374
_symmetry_space_group_name_H-M "P C C A"
_symmetry_group_IT_number 54
_symmetry_cell_setting 'orthorhombic'
loop_
_space_group_symop_operation_xyz
x,y,z
1/2-x,-y,z
1/2+x,-y,1/2-z
-x,y,1/2-z
-x,-y,-z
1/2+x,y,-z
1/2-x,y,1/2+z
x,-y,1/2+z
loop_
_atom_site_type_symbol
_atom_site_label
_atom_site_fract_x
_atom_site_fract_y
_atom_site_fract_z
Si Si1 0.000000 0.030202 0.750000
Si Si2 0.920844 0.483662 0.061799
Si Si3 0.500000 0.674105 0.250000
Si Si4 0.826807 0.299135 0.591203
Si Si5 0.063966 0.854543 0.538550
Si Si6 0.208396 0.390096 0.621853
O O1 0.968203 0.102106 0.615909
O O2 0.943288 0.950418 0.835955
O O3 0.933892 0.403591 0.202811
O O4 0.886564 0.603056 0.097979
O O5 0.865951 0.426332 0.949920
O O6 0.000000 0.500000 0.000000
O O7 0.519870 0.752748 0.387544
O O8 0.859898 0.194459 0.506139
O O9 0.803251 0.292252 0.759903
O O10 0.760501 0.347308 0.503617
O O11 0.250000 0.500000 0.687621
#
# Coordination Sequence:
#
# PCOD9423010 Si02
#       6
#     4   8   4   8   8   8
#     4   9  22  45  64  98 116 149 216 295 320 362
#     4  11  21  35  58  94 137 163 206 250 287 379
#     4  11  22  35  60 102 126 161 206 257 308 380
#     4  11  23  38  60  88 126 174 203 240 314 371
#     4  10  22  40  68  90 122 159 209 269 333 365
#     4  10  23  38  55  86 135 176 202 240 289 377
#
# _framework density 19.64226
#
# number of rings (size 3 to 8) (size 9 to 14) (size 15 to 20)
#    0.000    1.600    2.000    3.000    8.400    0.800 
#    0.000    0.000    0.000    3.600    0.000    0.000 
#    0.000    0.000    0.000    0.000    0.000    0.000 
#
# Total GULP energy -223170.794635 kJ/mol
# GULP energy per Si atom -5579.269866 kJ/mol
# Density = 1.959755 g / cm^3
# Si number density = 19.642260 Si / 1000 Ang^3
#
#
#
# Elastic Constant Matrix: (Units=GPa)
#
#
# Indices 1 2 3 4 5 6 
#
# 1 112.6892 31.8423 44.2287 0.0000 0.0000 0.0000
# 2 31.8423 60.2462 47.1452 0.0000 0.0000 0.0000
# 3 44.2287 47.1452 128.4420 0.0000 0.0000 0.0000
# 4 0.0000 0.0000 0.0000 35.2710 0.0000 0.0000
# 5 0.0000 0.0000 0.0000 0.0000 20.5937 0.0000
# 6 0.0000 0.0000 0.0000 0.0000 0.0000 15.1567
#
#
#
# Elastic Compliance Matrix: (Units=1/GPa)
#
#
# Indices 1 2 3 4 5 6 
#
# 1 0.010895 -0.003960 -0.002298 0.000000 0.000000 0.000000
# 2 -0.003960 0.024727 -0.007713 0.000000 0.000000 0.000000
# 3 -0.002298 -0.007713 0.011408 0.000000 0.000000 0.000000
# 4 0.000000 0.000000 0.000000 0.028352 0.000000 0.000000
# 5 0.000000 0.000000 0.000000 0.000000 0.048558 0.000000
# 6 0.000000 0.000000 0.000000 0.000000 0.000000 0.065978
#
#
# Mechanical properties :
#
#
# Convention : Reuss Voigt Hill
#
# Bulk Modulus (GPa) = 52.38757 60.86775 56.62766
# Shear Modulus (GPa) = 22.29936 26.08170 24.19053
#
# Velocity S-wave (km/s) = 3.37304 3.64790 3.51316
# Velocity P-wave (km/s) = 6.47291 6.98558 6.73413
#
# Compressibility (1/GPa) = 0.01908850
#
# Stress axis : x y z
#
# Youngs Moduli (GPa) = 91.78608 40.44171 87.65880
#
# Poissons Ratio (x) = 0.16015 0.20145
# Poissons Ratio (y) = 0.36347 0.67607
# Poissons Ratio (z) = 0.21093 0.31191
#
# Static dielectric constant tensor:
#      x y z
#    x 1.675530 0.000000 0.000000 
#    y 0.000000 1.720640 0.000000 
#    z 0.000000 0.000000 1.753510 
# 
# From -- ./inp_files/3997.got.cif
#   From: 2010.05.17/outbox.cif.g08.bks.cpg/sg54_2_cif.got.tgz:3997.got - 2010.06.03 13:09:01.
