data_PCOD9423128
_publ_section_title
;
Structure prediction by ZEFSAII (Michael W. Deem and Ramdas Pophale) SiO2 
 PCOD9423128
Probable space group: P C C A
;
_chemical_formula_sum "Si O2"
_cell_formula_units_Z 40
_cell_length_a 12.634156
_cell_length_b 9.470958
_cell_length_c 13.448693
_cell_angle_alpha 90.000000
_cell_angle_beta 90.000000
_cell_angle_gamma 90.000000
_cell_volume 1609.237801
_symmetry_space_group_name_H-M "P C C A"
_symmetry_group_IT_number 54
_symmetry_cell_setting 'orthorhombic'
loop_
_space_group_symop_operation_xyz
x,y,z
1/2-x,-y,z
1/2+x,-y,1/2-z
-x,y,1/2-z
-x,-y,-z
1/2+x,y,-z
1/2-x,y,1/2+z
x,-y,1/2+z
loop_
_atom_site_type_symbol
_atom_site_label
_atom_site_fract_x
_atom_site_fract_y
_atom_site_fract_z
Si Si1 0.373482 0.258513 0.933436
Si Si2 0.980584 0.495356 0.859703
Si Si3 0.782753 0.680273 0.904416
Si Si4 0.945153 0.202927 0.549929
Si Si5 0.708680 0.145751 0.223147
O O1 0.446139 0.367416 0.874011
O O2 0.299824 0.180801 0.856287
O O3 0.297500 0.346283 0.005723
O O4 0.444486 0.153437 0.001189
O O5 0.862179 0.557119 0.870207
O O6 0.000000 0.439634 0.750000
O O7 0.023193 0.368983 0.929114
O O8 0.716829 0.741190 0.811547
O O9 0.860055 0.794004 0.960441
O O10 0.896334 0.145506 0.653083
O O11 0.750000 0.000000 0.268454
#
# Coordination Sequence:
#
# PCOD9423128 Si02
#       5
#     8   8   8   8   8
#     4  10  22  44  67 100 135 176 223 282 351 406
#     4  11  22  43  71 100 138 173 218 281 353 420
#     4  10  22  42  66  95 138 177 218 278 348 406
#     4  10  25  42  67 104 132 173 228 282 342 418
#     4  11  25  45  67  98 135 185 239 280 336 410
#
# _framework density 24.856489
#
# number of rings (size 3 to 8) (size 9 to 14) (size 15 to 20)
#    0.000    1.600    2.000    2.400    2.800   11.200 
#    0.000    6.000    0.000    0.000    0.000    0.000 
#    0.000    0.000    0.000    0.000    0.000    0.000 
#
# Total GULP energy -223504.408488 kJ/mol
# GULP energy per Si atom -5587.610212 kJ/mol
# Density = 2.479991 g / cm^3
# Si number density = 24.856489 Si / 1000 Ang^3
#
#
#
# Elastic Constant Matrix: (Units=GPa)
#
#
# Indices 1 2 3 4 5 6 
#
# 1 84.4429 -9.8378 20.5397 0.0000 0.0000 0.0000
# 2 -9.8378 50.6203 3.9284 0.0000 0.0000 0.0000
# 3 20.5397 3.9284 109.9904 0.0000 0.0000 0.0000
# 4 0.0000 0.0000 0.0000 23.0781 0.0000 0.0000
# 5 0.0000 0.0000 0.0000 0.0000 40.2171 0.0000
# 6 0.0000 0.0000 0.0000 0.0000 0.0000 23.3404
#
#
#
# Elastic Compliance Matrix: (Units=1/GPa)
#
#
# Indices 1 2 3 4 5 6 
#
# 1 0.012756 0.002671 -0.002478 0.000000 0.000000 0.000000
# 2 0.002671 0.020369 -0.001226 0.000000 0.000000 0.000000
# 3 -0.002478 -0.001226 0.009598 0.000000 0.000000 0.000000
# 4 0.000000 0.000000 0.000000 0.043331 0.000000 0.000000
# 5 0.000000 0.000000 0.000000 0.000000 0.024865 0.000000
# 6 0.000000 0.000000 0.000000 0.000000 0.000000 0.042844
#
#
# Mechanical properties :
#
#
# Convention : Reuss Voigt Hill
#
# Bulk Modulus (GPa) = 24.59504 30.47935 27.53720
# Shear Modulus (GPa) = 29.51912 32.68867 31.10390
#
# Velocity S-wave (km/s) = 3.44987 3.63036 3.54126
# Velocity P-wave (km/s) = 5.07790 5.46456 5.27478
#
# Compressibility (1/GPa) = 0.04065860
#
# Stress axis : x y z
#
# Youngs Moduli (GPa) = 78.39343 49.09354 104.18666
#
# Poissons Ratio (x) = -0.13115 0.25812
# Poissons Ratio (y) = -0.20942 0.12777
# Poissons Ratio (z) = 0.19422 0.06021
#
# Static dielectric constant tensor:
#      x y z
#    x 2.047480 0.000000 0.000000 
#    y 0.000000 2.029310 0.000000 
#    z 0.000000 0.000000 1.948850 
# 
# From -- ./inp_files/12440.got.cif
#   From: 2010.05.17/outbox.cif.g08.bks.cpg/sg54_7_cif.got.tgz:12440.got - 2010.06.03 13:09:01.
