data_PCOD9423687
_publ_section_title
;
Structure prediction by ZEFSAII (Michael W. Deem and Ramdas Pophale) SiO2 
 PCOD9423687
Probable space group: P C C A
;
_chemical_formula_sum "Si O2"
_cell_formula_units_Z 60
_cell_length_a 24.181342
_cell_length_b 7.172500
_cell_length_c 15.614981
_cell_angle_alpha 90.000000
_cell_angle_beta 90.000000
_cell_angle_gamma 90.000000
_cell_volume 2708.272852
_symmetry_space_group_name_H-M "P C C A"
_symmetry_group_IT_number 54
_symmetry_cell_setting 'orthorhombic'
loop_
_space_group_symop_operation_xyz
x,y,z
1/2-x,-y,z
1/2+x,-y,1/2-z
-x,y,1/2-z
-x,-y,-z
1/2+x,y,-z
1/2-x,y,1/2+z
x,-y,1/2+z
loop_
_atom_site_type_symbol
_atom_site_label
_atom_site_fract_x
_atom_site_fract_y
_atom_site_fract_z
Si Si1 0.843709 0.677415 0.935760
Si Si2 0.750000 0.500000 0.058653
Si Si3 0.101191 0.211994 0.896029
Si Si4 0.724450 0.187237 0.172836
Si Si5 0.463074 0.871542 0.436276
Si Si6 0.492379 0.494304 0.349444
Si Si7 0.098163 0.703725 0.085840
Si Si8 0.194277 0.027715 0.645546
O O1 0.873038 0.493960 0.903348
O O2 0.827948 0.815614 0.858901
O O3 0.793986 0.595798 0.994996
O O4 0.884183 0.781743 0.002848
O O5 0.763424 0.340462 0.128744
O O6 0.160788 0.217657 0.852051
O O7 0.065209 0.391985 0.871645
O O8 0.067132 0.023240 0.875828
O O9 0.719199 0.145761 0.274318
O O10 0.750000 0.000000 0.135526
O O11 0.495681 0.695802 0.396082
O O12 0.415139 0.768471 0.489968
O O13 0.500000 0.000000 0.500000
O O14 0.500000 0.530111 0.250000
O O15 0.538071 0.339450 0.375141
O O16 0.140931 0.854086 0.120429
O O17 0.250000 0.000000 0.587661
#
# Coordination Sequence:
#
# PCOD9423687 Si02
#       8
#     8   4   8   8   8   8   8   8
#     4  11  23  40  69 100 131 180 238 290 350 431
#     4  10  24  42  70 102 138 184 240 294 368 432
#     4  11  23  43  68  98 140 178 235 289 357 428
#     4  10  25  43  68 100 143 187 234 299 371 429
#     4  12  24  44  71 100 139 186 236 294 352 425
#     4  12  27  44  68 105 142 186 238 295 367 430
#     4  12  24  42  72  98 139 181 234 292 354 425
#     4  11  25  44  66 102 139 181 238 294 359 425
#
# _framework density 22.154340000000001
#
# number of rings (size 3 to 8) (size 9 to 14) (size 15 to 20)
#    0.000    0.800    4.000    2.800    1.867    5.867 
#    0.000    0.000    0.000    0.000    0.000    0.000 
#    0.000    0.000    0.000    0.000    0.000    0.000 
#
# Total GULP energy -334105.203375 kJ/mol
# GULP energy per Si atom -5568.420056 kJ/mol
# Density = 2.210392 g / cm^3
# Si number density = 22.154340 Si / 1000 Ang^3
#
#
#
# Elastic Constant Matrix: (Units=GPa)
#
#
# Indices 1 2 3 4 5 6 
#
# 1 93.6391 39.7563 13.5373 0.0000 0.0000 0.0000
# 2 39.7563 129.5418 10.2466 0.0000 0.0000 0.0000
# 3 13.5373 10.2466 51.2799 0.0000 0.0000 0.0000
# 4 0.0000 0.0000 0.0000 16.1068 0.0000 0.0000
# 5 0.0000 0.0000 0.0000 0.0000 32.4886 0.0000
# 6 0.0000 0.0000 0.0000 0.0000 0.0000 44.8997
#
#
#
# Elastic Compliance Matrix: (Units=1/GPa)
#
#
# Indices 1 2 3 4 5 6 
#
# 1 0.012611 -0.003665 -0.002597 0.000000 0.000000 0.000000
# 2 -0.003665 0.008909 -0.000813 0.000000 0.000000 0.000000
# 3 -0.002597 -0.000813 0.020349 0.000000 0.000000 0.000000
# 4 0.000000 0.000000 0.000000 0.062086 0.000000 0.000000
# 5 0.000000 0.000000 0.000000 0.000000 0.030780 0.000000
# 6 0.000000 0.000000 0.000000 0.000000 0.000000 0.022272
#
#
# Mechanical properties :
#
#
# Convention : Reuss Voigt Hill
#
# Bulk Modulus (GPa) = 36.07567 44.61568 40.34568
# Shear Modulus (GPa) = 27.71715 32.76039 30.23877
#
# Velocity S-wave (km/s) = 3.54092 3.84960 3.69848
# Velocity P-wave (km/s) = 5.74775 6.31993 6.04062
#
# Compressibility (1/GPa) = 0.02771952
#
# Stress axis : x y z
#
# Youngs Moduli (GPa) = 79.29783 112.25212 49.14321
#
# Poissons Ratio (x) = 0.41138 0.12761
# Poissons Ratio (y) = 0.29061 0.03993
# Poissons Ratio (z) = 0.20592 0.09122
#
# Static dielectric constant tensor:
#      x y z
#    x 1.967370 0.000000 0.000000 
#    y 0.000000 1.842000 0.000000 
#    z 0.000000 0.000000 1.879680 
# 
# From -- ./inp_files/19247.got.cif
#   From: 2010.05.17/outbox.cif.g08.bks.cpg/sg54_10_cif.got.tgz:19247.got - 2010.06.03 13:09:01.
