data_PCOD9423235
_publ_section_title
;
Structure prediction by ZEFSAII (Michael W. Deem and Ramdas Pophale) SiO2 
 PCOD9423235
Probable space group: P C C A
;
_chemical_formula_sum "Si O2"
_cell_formula_units_Z 32
_cell_length_a 12.713590
_cell_length_b 9.397615
_cell_length_c 12.280462
_cell_angle_alpha 90.000000
_cell_angle_beta 90.000000
_cell_angle_gamma 90.000000
_cell_volume 1467.237966
_symmetry_space_group_name_H-M "P C C A"
_symmetry_group_IT_number 54
_symmetry_cell_setting 'orthorhombic'
loop_
_space_group_symop_operation_xyz
x,y,z
1/2-x,-y,z
1/2+x,-y,1/2-z
-x,y,1/2-z
-x,-y,-z
1/2+x,y,-z
1/2-x,y,1/2+z
x,-y,1/2+z
loop_
_atom_site_type_symbol
_atom_site_label
_atom_site_fract_x
_atom_site_fract_y
_atom_site_fract_z
Si Si1 0.000000 0.538552 0.250000
Si Si2 0.404734 0.785619 0.608041
Si Si3 0.668140 0.616839 0.095052
Si Si4 0.779154 0.145598 0.239860
Si Si5 0.000000 0.982886 0.750000
O O1 0.934248 0.643133 0.327179
O O2 0.921135 0.452227 0.171575
O O3 0.387371 0.727699 0.487214
O O4 0.294430 0.844568 0.654895
O O5 0.488477 0.907034 0.646884
O O6 0.750000 0.500000 0.045914
O O7 0.740126 0.714989 0.171249
O O8 0.901068 0.120325 0.260342
O O9 0.750000 0.000000 0.178206
#
# Coordination Sequence:
#
# PCOD9423235 Si02
#       5
#     4   8   8   8   4
#     4  11  23  46  64 102 140 176 226 294 346 418
#     4  10  23  43  68 101 139 181 233 288 350 418
#     4  12  25  41  72 103 137 187 230 289 355 423
#     4  10  22  44  66  96 139 179 227 291 340 414
#     4   9  21  44  72  98 136 182 234 290 342 410
#
# _framework density 21.809685000000002
#
# number of rings (size 3 to 8) (size 9 to 14) (size 15 to 20)
#    0.000    1.500    2.500    1.500    3.500    4.000 
#    4.500    0.000    0.000    0.000    0.000    0.000 
#    0.000    0.000    0.000    0.000    0.000    0.000 
#
# Total GULP energy -178321.774133 kJ/mol
# GULP energy per Si atom -5572.555442 kJ/mol
# Density = 2.176005 g / cm^3
# Si number density = 21.809685 Si / 1000 Ang^3
#
#
#
# Elastic Constant Matrix: (Units=GPa)
#
#
# Indices 1 2 3 4 5 6 
#
# 1 78.9935 14.6470 1.9806 0.0000 0.0000 0.0000
# 2 14.6470 85.6010 7.7621 0.0000 0.0000 0.0000
# 3 1.9806 7.7621 49.5384 0.0000 0.0000 0.0000
# 4 0.0000 0.0000 0.0000 16.6044 0.0000 0.0000
# 5 0.0000 0.0000 0.0000 0.0000 20.6028 0.0000
# 6 0.0000 0.0000 0.0000 0.0000 0.0000 35.8356
#
#
#
# Elastic Compliance Matrix: (Units=1/GPa)
#
#
# Indices 1 2 3 4 5 6 
#
# 1 0.013076 -0.002221 -0.000175 0.000000 0.000000 0.000000
# 2 -0.002221 0.012228 -0.001827 0.000000 0.000000 0.000000
# 3 -0.000175 -0.001827 0.020480 0.000000 0.000000 0.000000
# 4 0.000000 0.000000 0.000000 0.060225 0.000000 0.000000
# 5 0.000000 0.000000 0.000000 0.000000 0.048537 0.000000
# 6 0.000000 0.000000 0.000000 0.000000 0.000000 0.027905
#
#
# Mechanical properties :
#
#
# Convention : Reuss Voigt Hill
#
# Bulk Modulus (GPa) = 26.78348 29.21247 27.99797
# Shear Modulus (GPa) = 24.58904 27.25811 25.92357
#
# Velocity S-wave (km/s) = 3.36138 3.53911 3.45139
# Velocity P-wave (km/s) = 5.23186 5.48851 5.36172
#
# Compressibility (1/GPa) = 0.03733645
#
# Stress axis : x y z
#
# Youngs Moduli (GPa) = 76.47851 81.78017 48.82899
#
# Poissons Ratio (x) = 0.18167 0.00853
# Poissons Ratio (y) = 0.16990 0.08922
# Poissons Ratio (z) = 0.01336 0.14942
#
# Static dielectric constant tensor:
#      x y z
#    x 1.947230 0.000000 0.000000 
#    y 0.000000 1.813930 0.000000 
#    z 0.000000 0.000000 1.846550 
# 
# From -- ./inp_files/7321.got.cif
#   From: 2010.05.17/outbox.cif.g08.bks.cpg/sg54_4_cif.got.tgz:7321.got - 2010.06.03 13:09:01.
