data_PCOD9423986
_publ_section_title
;
Structure prediction by ZEFSAII (Michael W. Deem and Ramdas Pophale) SiO2 
 PCOD9423986
Probable space group: P C C A
;
_chemical_formula_sum "Si O2"
_cell_formula_units_Z 60
_cell_length_a 14.525677
_cell_length_b 20.862426
_cell_length_c 8.610461
_cell_angle_alpha 90.000000
_cell_angle_beta 90.000000
_cell_angle_gamma 90.000000
_cell_volume 2609.321519
_symmetry_space_group_name_H-M "P C C A"
_symmetry_group_IT_number 54
_symmetry_cell_setting 'orthorhombic'
loop_
_space_group_symop_operation_xyz
x,y,z
1/2-x,-y,z
1/2+x,-y,1/2-z
-x,y,1/2-z
-x,-y,-z
1/2+x,y,-z
1/2-x,y,1/2+z
x,-y,1/2+z
loop_
_atom_site_type_symbol
_atom_site_label
_atom_site_fract_x
_atom_site_fract_y
_atom_site_fract_z
Si Si1 0.064370 0.532556 0.873097
Si Si2 0.250000 0.000000 0.345632
Si Si3 0.055163 0.722146 0.512507
Si Si4 0.641098 0.259928 0.656055
Si Si5 0.293488 0.903167 0.575321
Si Si6 0.816774 0.824011 0.156152
Si Si7 0.792949 0.624708 0.460180
Si Si8 0.625629 0.603429 0.638391
O O1 0.104750 0.467541 0.799833
O O2 0.000000 0.568166 0.750000
O O3 0.137951 0.577553 0.950384
O O4 0.000000 0.500000 0.000000
O O5 0.321328 0.959321 0.452992
O O6 0.218824 0.945787 0.228046
O O7 0.113369 0.715148 0.672659
O O8 0.111678 0.771274 0.404806
O O9 0.049263 0.653617 0.422050
O O10 0.955982 0.747857 0.566676
O O11 0.711267 0.201276 0.677095
O O12 0.697873 0.308827 0.549727
O O13 0.203226 0.873089 0.489564
O O14 0.345563 0.846315 0.668469
O O15 0.692650 0.595918 0.490947
O O16 0.820262 0.633490 0.282975
#
# Coordination Sequence:
#
# PCOD9423986 Si02
#       8
#     8   4   8   8   8   8   8   8
#     4  12  27  46  67  92 122 159 218 276 333 404
#     4   8  16  34  56 106 126 176 220 270 312 382
#     4  11  25  42  65  93 136 172 224 272 339 398
#     4  11  25  42  64  95 132 178 216 278 336 399
#     4   9  18  32  64  92 140 165 226 268 317 376
#     4  11  20  39  60  99 128 181 214 273 319 395
#     4  12  27  44  68  91 126 166 217 273 338 401
#     4  12  27  45  66  94 122 169 214 275 335 404
#
# _framework density 22.994482000000001
#
# number of rings (size 3 to 8) (size 9 to 14) (size 15 to 20)
#    0.000    1.067    4.000    2.000    7.467    1.067 
#    0.000    0.000    0.000    0.000    0.000   65.333 
#    0.000    0.000    0.000    0.000    0.000    0.000 
#
# Total GULP energy -334443.856259 kJ/mol
# GULP energy per Si atom -5574.064271 kJ/mol
# Density = 2.294215 g / cm^3
# Si number density = 22.994482 Si / 1000 Ang^3
#
#
#
# Elastic Constant Matrix: (Units=GPa)
#
#
# Indices 1 2 3 4 5 6 
#
# 1 66.4612 12.3188 12.8609 0.0000 0.0000 0.0000
# 2 12.3188 63.8259 21.3620 0.0000 0.0000 0.0000
# 3 12.8609 21.3620 101.5404 0.0000 0.0000 0.0000
# 4 0.0000 0.0000 0.0000 46.8770 0.0000 0.0000
# 5 0.0000 0.0000 0.0000 0.0000 32.5786 0.0000
# 6 0.0000 0.0000 0.0000 0.0000 0.0000 2.6665
#
#
#
# Elastic Compliance Matrix: (Units=1/GPa)
#
#
# Indices 1 2 3 4 5 6 
#
# 1 0.015804 -0.002561 -0.001463 0.000000 0.000000 0.000000
# 2 -0.002561 0.017269 -0.003309 0.000000 0.000000 0.000000
# 3 -0.001463 -0.003309 0.010730 0.000000 0.000000 0.000000
# 4 0.000000 0.000000 0.000000 0.021332 0.000000 0.000000
# 5 0.000000 0.000000 0.000000 0.000000 0.030695 0.000000
# 6 0.000000 0.000000 0.000000 0.000000 0.000000 0.375017
#
#
# Mechanical properties :
#
#
# Convention : Reuss Voigt Hill
#
# Bulk Modulus (GPa) = 34.31919 36.10122 35.21021
# Shear Modulus (GPa) = 10.09643 28.77682 19.43662
#
# Velocity S-wave (km/s) = 2.09770 3.54144 2.91051
# Velocity P-wave (km/s) = 4.56339 5.69706 5.16144
#
# Compressibility (1/GPa) = 0.02913821
#
# Stress axis : x y z
#
# Youngs Moduli (GPa) = 63.27474 57.90635 93.19921
#
# Poissons Ratio (x) = 0.14828 0.13635
# Poissons Ratio (y) = 0.16202 0.30838
# Poissons Ratio (z) = 0.09257 0.19160
#
# Static dielectric constant tensor:
#      x y z
#    x 2.295720 0.000000 0.000000 
#    y 0.000000 2.370100 0.000000 
#    z 0.000000 0.000000 1.919980 
# 
# From -- ./inp_files/3731.got.cif
#   From: 2010.05.17/outbox.cif.g08.bks.cpg/sg54_2_cif.got.tgz:3731.got - 2010.06.03 13:09:01.
