data_PCOD9423756
_publ_section_title
;
Structure prediction by ZEFSAII (Michael W. Deem and Ramdas Pophale) SiO2 
 PCOD9423756
Probable space group: P C C A
;
_chemical_formula_sum "Si O2"
_cell_formula_units_Z 36
_cell_length_a 8.218273
_cell_length_b 9.318552
_cell_length_c 20.331252
_cell_angle_alpha 90.000000
_cell_angle_beta 90.000000
_cell_angle_gamma 90.000000
_cell_volume 1557.016161
_symmetry_space_group_name_H-M "P C C A"
_symmetry_group_IT_number 54
_symmetry_cell_setting 'orthorhombic'
loop_
_space_group_symop_operation_xyz
x,y,z
1/2-x,-y,z
1/2+x,-y,1/2-z
-x,y,1/2-z
-x,-y,-z
1/2+x,y,-z
1/2-x,y,1/2+z
x,-y,1/2+z
loop_
_atom_site_type_symbol
_atom_site_label
_atom_site_fract_x
_atom_site_fract_y
_atom_site_fract_z
Si Si1 0.108214 0.108908 0.303855
Si Si2 0.185537 0.347061 0.728667
Si Si3 0.563021 0.335602 0.416411
Si Si4 0.250000 0.500000 0.969939
Si Si5 0.560350 0.985715 0.572620
O O1 0.188865 0.239591 0.264629
O O2 0.014453 0.109150 0.373504
O O3 0.000000 0.032526 0.250000
O O4 0.250000 0.000000 0.318567
O O5 0.250000 0.500000 0.751753
O O6 0.171173 0.354213 0.649327
O O7 0.000000 0.320134 0.750000
O O8 0.671403 0.379439 0.480627
O O9 0.398059 0.432373 0.426828
O O10 0.499531 0.172673 0.407846
O O11 0.750000 0.000000 0.561735
O O12 0.500000 0.000000 0.500000
#
# Coordination Sequence:
#
# PCOD9423756 Si02
#       5
#     8   8   8   4   8
#     4  11  24  46  72 103 141 196 245 314 389 461
#     4  12  26  46  69 104 141 195 256 321 389 463
#     4  11  23  46  71 105 150 197 257 317 392 472
#     4  10  24  44  74 108 150 202 248 324 392 478
#     4  11  24  43  69 105 141 194 245 312 381 460
#
# _framework density 23.121146
#
# number of rings (size 3 to 8) (size 9 to 14) (size 15 to 20)
#    0.000    0.889    1.111    6.667    1.556    4.444 
#   12.000    0.000    0.000    0.000    0.000    0.000 
#    0.000    0.000    0.000    0.000    0.000    0.000 
#
# Total GULP energy -200621.020406 kJ/mol
# GULP energy per Si atom -5572.806122 kJ/mol
# Density = 2.306852 g / cm^3
# Si number density = 23.121146 Si / 1000 Ang^3
#
#
#
# Elastic Constant Matrix: (Units=GPa)
#
#
# Indices 1 2 3 4 5 6 
#
# 1 74.2832 28.3172 46.5744 0.0000 0.0000 0.0000
# 2 28.3172 108.5979 49.1448 0.0000 0.0000 0.0000
# 3 46.5744 49.1448 188.8948 0.0000 0.0000 0.0000
# 4 0.0000 0.0000 0.0000 -8.1411 0.0000 0.0000
# 5 0.0000 0.0000 0.0000 0.0000 81.2868 0.0000
# 6 0.0000 0.0000 0.0000 0.0000 0.0000 43.6880
#
#
#
# Elastic Compliance Matrix: (Units=1/GPa)
#
#
# Indices 1 2 3 4 5 6 
#
# 1 0.016650 -0.002815 -0.003373 0.000000 0.000000 0.000000
# 2 -0.002815 0.010913 -0.002145 0.000000 0.000000 0.000000
# 3 -0.003373 -0.002145 0.006684 0.000000 0.000000 0.000000
# 4 0.000000 0.000000 0.000000 -0.122834 0.000000 0.000000
# 5 0.000000 0.000000 0.000000 0.000000 0.012302 0.000000
# 6 0.000000 0.000000 0.000000 0.000000 0.000000 0.022890
#
#
# Mechanical properties :
#
#
# Convention : Reuss Voigt Hill
#
# Bulk Modulus (GPa) = 56.88161 68.87207 62.87684
# Shear Modulus (GPa) = -161.97541 39.88271 -61.04635
#
# Velocity S-wave (km/s) = -8.37897 4.15775 -5.14394
# Velocity P-wave (km/s) = 8.30389 7.27333 2.83313
#
# Compressibility (1/GPa) = 0.01758037
#
# Stress axis : x y z
#
# Youngs Moduli (GPa) = 60.06059 91.63292 149.61845
#
# Poissons Ratio (x) = 0.25796 0.50463
# Poissons Ratio (y) = 0.16908 0.32095
# Poissons Ratio (z) = 0.20257 0.19657
#
# Static dielectric constant tensor:
#      x y z
#    x 1.897520 0.000000 0.000000 
#    y 0.000000 1.884110 0.000000 
#    z 0.000000 0.000000 1.886230 
# 
# From -- ./inp_files/20124.got.cif
#   From: 2010.05.17/outbox.cif.g08.bks.cpg/sg54_11_cif.got.tgz:20124.got - 2010.06.03 13:09:01.
