data_PCOD9423020
_publ_section_title
;
Structure prediction by ZEFSAII (Michael W. Deem and Ramdas Pophale) SiO2 
 PCOD9423020
Probable space group: P C C A
;
_chemical_formula_sum "Si O2"
_cell_formula_units_Z 40
_cell_length_a 14.668599
_cell_length_b 7.648874
_cell_length_c 16.472886
_cell_angle_alpha 90.000000
_cell_angle_beta 90.000000
_cell_angle_gamma 90.000000
_cell_volume 1848.229237
_symmetry_space_group_name_H-M "P C C A"
_symmetry_group_IT_number 54
_symmetry_cell_setting 'orthorhombic'
loop_
_space_group_symop_operation_xyz
x,y,z
1/2-x,-y,z
1/2+x,-y,1/2-z
-x,y,1/2-z
-x,-y,-z
1/2+x,y,-z
1/2-x,y,1/2+z
x,-y,1/2+z
loop_
_atom_site_type_symbol
_atom_site_label
_atom_site_fract_x
_atom_site_fract_y
_atom_site_fract_z
Si Si1 0.250000 0.000000 0.222814
Si Si2 0.059741 0.526819 0.079901
Si Si3 0.176360 0.754313 0.505343
Si Si4 0.000000 0.440985 0.750000
Si Si5 0.134042 0.904305 0.074503
Si Si6 0.308901 0.326362 0.316103
O O1 0.165349 0.980201 0.161378
O O2 0.248724 0.831306 0.278744
O O3 0.018950 0.460955 0.165094
O O4 0.071396 0.736121 0.086419
O O5 0.147943 0.410294 0.060085
O O6 0.000000 0.500000 0.000000
O O7 0.276498 0.819373 0.531362
O O8 0.174809 0.703052 0.411504
O O9 0.111168 0.922273 0.523005
O O10 0.906074 0.340397 0.729249
O O11 0.250000 0.500000 0.304164
#
# Coordination Sequence:
#
# PCOD9423020 Si02
#       6
#     4   8   8   4   8   8
#     4  10  22  40  68  98 138 184 234 298 352 426
#     4  12  24  45  66 100 146 186 226 301 360 426
#     4  10  23  43  71 100 132 186 237 291 360 430
#     4  12  28  44  68 112 142 184 250 294 358 440
#     4  10  23  42  71 101 129 186 240 284 363 430
#     4  12  25  46  71 102 143 187 240 299 358 433
#
# _framework density 21.642334999999999
#
# number of rings (size 3 to 8) (size 9 to 14) (size 15 to 20)
#    0.000    1.200    4.000    3.000    5.600    0.800 
#    0.000    2.000    0.000    0.000    0.000    0.000 
#    0.000    0.000    0.000    0.000    0.000    0.000 
#
# Total GULP energy -223294.098972 kJ/mol
# GULP energy per Si atom -5582.352474 kJ/mol
# Density = 2.159308 g / cm^3
# Si number density = 21.642335 Si / 1000 Ang^3
#
#
#
# Elastic Constant Matrix: (Units=GPa)
#
#
# Indices 1 2 3 4 5 6 
#
# 1 58.2093 38.2113 37.4283 0.0000 0.0000 0.0000
# 2 38.2113 160.7277 50.9113 0.0000 0.0000 0.0000
# 3 37.4283 50.9113 166.0198 0.0000 0.0000 0.0000
# 4 0.0000 0.0000 0.0000 35.5371 0.0000 0.0000
# 5 0.0000 0.0000 0.0000 0.0000 7.3012 0.0000
# 6 0.0000 0.0000 0.0000 0.0000 0.0000 29.5223
#
#
#
# Elastic Compliance Matrix: (Units=1/GPa)
#
#
# Indices 1 2 3 4 5 6 
#
# 1 0.022298 -0.004108 -0.003767 0.000000 0.000000 0.000000
# 2 -0.004108 0.007648 -0.001419 0.000000 0.000000 0.000000
# 3 -0.003767 -0.001419 0.007308 0.000000 0.000000 0.000000
# 4 0.000000 0.000000 0.000000 0.028140 0.000000 0.000000
# 5 0.000000 0.000000 0.000000 0.000000 0.136963 0.000000
# 6 0.000000 0.000000 0.000000 0.000000 0.000000 0.033873
#
#
# Mechanical properties :
#
#
# Convention : Reuss Voigt Hill
#
# Bulk Modulus (GPa) = 53.57525 70.89542 62.23534
# Shear Modulus (GPa) = 19.15413 31.69918 25.42666
#
# Velocity S-wave (km/s) = 2.97817 3.83127 3.43134
# Velocity P-wave (km/s) = 6.05265 7.23881 6.67214
#
# Compressibility (1/GPa) = 0.01866533
#
# Stress axis : x y z
#
# Youngs Moduli (GPa) = 44.84631 130.75596 136.83810
#
# Poissons Ratio (x) = 0.53713 0.51552
# Poissons Ratio (y) = 0.18422 0.19420
# Poissons Ratio (z) = 0.16895 0.18556
#
# Static dielectric constant tensor:
#      x y z
#    x 1.868170 0.000000 0.000000 
#    y 0.000000 1.788020 0.000000 
#    z 0.000000 0.000000 1.787090 
# 
# From -- ./inp_files/13280.got.cif
#   From: 2010.05.17/outbox.cif.g08.bks.cpg/sg54_7_cif.got.tgz:13280.got - 2010.06.03 13:09:01.
