data_PCOD9423206
_publ_section_title
;
Structure prediction by ZEFSAII (Michael W. Deem and Ramdas Pophale) SiO2 
 PCOD9423206
Probable space group: P C C A
;
_chemical_formula_sum "Si O2"
_cell_formula_units_Z 28
_cell_length_a 13.393053
_cell_length_b 7.572396
_cell_length_c 10.075391
_cell_angle_alpha 90.000000
_cell_angle_beta 90.000000
_cell_angle_gamma 90.000000
_cell_volume 1021.820976
_symmetry_space_group_name_H-M "P C C A"
_symmetry_group_IT_number 54
_symmetry_cell_setting 'orthorhombic'
loop_
_space_group_symop_operation_xyz
x,y,z
1/2-x,-y,z
1/2+x,-y,1/2-z
-x,y,1/2-z
-x,-y,-z
1/2+x,y,-z
1/2-x,y,1/2+z
x,-y,1/2+z
loop_
_atom_site_type_symbol
_atom_site_label
_atom_site_fract_x
_atom_site_fract_y
_atom_site_fract_z
Si Si1 0.388285 0.549650 0.751574
Si Si2 0.440424 0.831261 0.370489
Si Si3 0.750000 0.000000 0.492910
Si Si4 0.141070 0.681652 0.520880
O O1 0.500000 0.624123 0.750000
O O2 0.399593 0.351285 0.809751
O O3 0.357060 0.502197 0.602011
O O4 0.331703 0.654046 0.866540
O O5 0.500000 0.925240 0.250000
O O6 0.349281 0.941007 0.428256
O O7 0.529161 0.763127 0.467127
O O8 0.785378 0.173614 0.416150
#
# Coordination Sequence:
#
# PCOD9423206 Si02
#       4
#     8   8   4   8
#     4   9  19  42  70  97 135 185 236 296 351 416
#     4   9  21  42  66 100 142 186 240 300 361 429
#     4  12  24  40  70 108 146 192 236 302 376 438
#     4  10  22  43  70 102 139 183 241 297 356 426
#
# _framework density 27.402058
#
# number of rings (size 3 to 8) (size 9 to 14) (size 15 to 20)
#    0.000    2.857    0.000    4.286    0.000    6.857 
#    0.000   31.429    0.000    1.714    0.000    0.000 
#    0.000    0.000    0.000    0.000    0.000    0.000 
#
# Total GULP energy -156529.401566 kJ/mol
# GULP energy per Si atom -5590.335770 kJ/mol
# Density = 2.733969 g / cm^3
# Si number density = 27.402058 Si / 1000 Ang^3
#
#
#
# Elastic Constant Matrix: (Units=GPa)
#
#
# Indices 1 2 3 4 5 6 
#
# 1 162.5428 25.4488 37.3701 0.0000 0.0000 0.0000
# 2 25.4488 78.8376 24.4194 0.0000 0.0000 0.0000
# 3 37.3701 24.4194 135.8886 0.0000 0.0000 0.0000
# 4 0.0000 0.0000 0.0000 27.1877 0.0000 0.0000
# 5 0.0000 0.0000 0.0000 0.0000 13.7053 0.0000
# 6 0.0000 0.0000 0.0000 0.0000 0.0000 49.5769
#
#
#
# Elastic Compliance Matrix: (Units=1/GPa)
#
#
# Indices 1 2 3 4 5 6 
#
# 1 0.006777 -0.001705 -0.001557 0.000000 0.000000 0.000000
# 2 -0.001705 0.013861 -0.002022 0.000000 0.000000 0.000000
# 3 -0.001557 -0.002022 0.008151 0.000000 0.000000 0.000000
# 4 0.000000 0.000000 0.000000 0.036781 0.000000 0.000000
# 5 0.000000 0.000000 0.000000 0.000000 0.072965 0.000000
# 6 0.000000 0.000000 0.000000 0.000000 0.000000 0.020171
#
#
# Mechanical properties :
#
#
# Convention : Reuss Voigt Hill
#
# Bulk Modulus (GPa) = 54.88531 61.30506 58.09519
# Shear Modulus (GPa) = 28.51474 37.42935 32.97205
#
# Velocity S-wave (km/s) = 3.22934 3.69986 3.47258
# Velocity P-wave (km/s) = 5.82906 6.37754 6.10946
#
# Compressibility (1/GPa) = 0.01821981
#
# Stress axis : x y z
#
# Youngs Moduli (GPa) = 147.55201 72.14459 122.69063
#
# Poissons Ratio (x) = 0.12303 0.19107
# Poissons Ratio (y) = 0.25163 0.24807
# Poissons Ratio (z) = 0.22979 0.14587
#
# Static dielectric constant tensor:
#      x y z
#    x 1.964230 0.000000 0.000000 
#    y 0.000000 2.076240 0.000000 
#    z 0.000000 0.000000 2.245650 
# 
# From -- ./inp_files/7847.got.cif
#   From: 2010.05.17/outbox.cif.g08.bks.cpg/sg54_4_cif.got.tgz:7847.got - 2010.06.03 13:09:01.
