data_PCOD9423480
_publ_section_title
;
Structure prediction by ZEFSAII (Michael W. Deem and Ramdas Pophale) SiO2 
 PCOD9423480
Probable space group: P C C A
;
_chemical_formula_sum "Si O2"
_cell_formula_units_Z 32
_cell_length_a 15.584946
_cell_length_b 5.676607
_cell_length_c 14.647888
_cell_angle_alpha 90.000000
_cell_angle_beta 90.000000
_cell_angle_gamma 90.000000
_cell_volume 1295.892991
_symmetry_space_group_name_H-M "P C C A"
_symmetry_group_IT_number 54
_symmetry_cell_setting 'orthorhombic'
loop_
_space_group_symop_operation_xyz
x,y,z
1/2-x,-y,z
1/2+x,-y,1/2-z
-x,y,1/2-z
-x,-y,-z
1/2+x,y,-z
1/2-x,y,1/2+z
x,-y,1/2+z
loop_
_atom_site_type_symbol
_atom_site_label
_atom_site_fract_x
_atom_site_fract_y
_atom_site_fract_z
Si Si1 0.848927 0.438938 0.757861
Si Si2 0.832547 0.847557 0.077829
Si Si3 0.533631 0.141880 0.661931
Si Si4 0.084343 0.453723 0.059718
O O1 0.750000 0.500000 0.779840
O O2 0.835653 0.239518 0.682156
O O3 0.906720 0.641572 0.703895
O O4 0.890164 0.378070 0.856559
O O5 0.750000 0.000000 0.057097
O O6 0.914283 0.018132 0.081815
O O7 0.843729 0.628570 0.010547
O O8 0.500000 0.998936 0.750000
O O9 0.446005 0.229545 0.617503
O O10 0.000000 0.500000 0.000000
#
# Coordination Sequence:
#
# PCOD9423480 Si02
#       4
#     8   8   8   8
#     4  11  24  46  68 101 145 184 229 299 371 421
#     4  12  25  45  74 103 140 189 242 298 359 440
#     4  10  23  43  67 102 137 182 238 290 354 424
#     4  11  25  44  72 104 142 190 237 298 364 431
#
# _framework density 24.693397000000001
#
# number of rings (size 3 to 8) (size 9 to 14) (size 15 to 20)
#    0.000    1.000    5.000    0.750    3.500    3.000 
#    9.000    0.000    0.000    0.000    0.000    0.000 
#    0.000    0.000    0.000    0.000    0.000    0.000 
#
# Total GULP energy -178426.663763 kJ/mol
# GULP energy per Si atom -5575.833243 kJ/mol
# Density = 2.463719 g / cm^3
# Si number density = 24.693397 Si / 1000 Ang^3
#
#
#
# Elastic Constant Matrix: (Units=GPa)
#
#
# Indices 1 2 3 4 5 6 
#
# 1 82.8131 4.1543 26.4576 0.0000 0.0000 0.0000
# 2 4.1543 26.1807 15.6989 0.0000 0.0000 0.0000
# 3 26.4576 15.6989 145.9278 0.0000 0.0000 0.0000
# 4 0.0000 0.0000 0.0000 38.0144 0.0000 0.0000
# 5 0.0000 0.0000 0.0000 0.0000 26.7479 0.0000
# 6 0.0000 0.0000 0.0000 0.0000 0.0000 39.3623
#
#
#
# Elastic Compliance Matrix: (Units=1/GPa)
#
#
# Indices 1 2 3 4 5 6 
#
# 1 0.012829 -0.000685 -0.002252 0.000000 0.000000 0.000000
# 2 -0.000685 0.040867 -0.004272 0.000000 0.000000 0.000000
# 3 -0.002252 -0.004272 0.007721 0.000000 0.000000 0.000000
# 4 0.000000 0.000000 0.000000 0.026306 0.000000 0.000000
# 5 0.000000 0.000000 0.000000 0.000000 0.037386 0.000000
# 6 0.000000 0.000000 0.000000 0.000000 0.000000 0.025405
#
#
# Mechanical properties :
#
#
# Convention : Reuss Voigt Hill
#
# Bulk Modulus (GPa) = 21.27788 38.61592 29.94690
# Shear Modulus (GPa) = 27.68570 34.73230 31.20900
#
# Velocity S-wave (km/s) = 3.35203 3.75446 3.55894
# Velocity P-wave (km/s) = 4.85974 5.87084 5.38905
#
# Compressibility (1/GPa) = 0.04699716
#
# Stress axis : x y z
#
# Youngs Moduli (GPa) = 77.94634 24.46991 129.52249
#
# Poissons Ratio (x) = 0.01677 0.29173
# Poissons Ratio (y) = 0.05341 0.55335
# Poissons Ratio (z) = 0.17556 0.10454
#
# Static dielectric constant tensor:
#      x y z
#    x 2.020120 0.000000 0.000000 
#    y 0.000000 0.349960 0.000000 
#    z 0.000000 0.000000 2.039440 
# 
# From -- ./inp_files/13693.got.cif
#   From: 2010.05.17/outbox.cif.g08.bks.cpg/sg54_7_cif.got.tgz:13693.got - 2010.06.03 13:09:01.
