data_PCOD9423532
_publ_section_title
;
Structure prediction by ZEFSAII (Michael W. Deem and Ramdas Pophale) SiO2 
 PCOD9423532
Probable space group: P C C A
;
_chemical_formula_sum "Si O2"
_cell_formula_units_Z 24
_cell_length_a 4.911187
_cell_length_b 13.839340
_cell_length_c 14.193844
_cell_angle_alpha 90.000000
_cell_angle_beta 90.000000
_cell_angle_gamma 90.000000
_cell_volume 964.721323
_symmetry_space_group_name_H-M "P C C A"
_symmetry_group_IT_number 54
_symmetry_cell_setting 'orthorhombic'
loop_
_space_group_symop_operation_xyz
x,y,z
1/2-x,-y,z
1/2+x,-y,1/2-z
-x,y,1/2-z
-x,-y,-z
1/2+x,y,-z
1/2-x,y,1/2+z
x,-y,1/2+z
loop_
_atom_site_type_symbol
_atom_site_label
_atom_site_fract_x
_atom_site_fract_y
_atom_site_fract_z
Si Si1 0.198552 0.894700 0.936739
Si Si2 0.406084 0.576919 0.083585
Si Si3 0.079457 0.302486 0.857892
O O1 0.301758 0.803019 0.879866
O O2 0.750000 0.000000 0.107803
O O3 0.886173 0.891296 0.968871
O O4 0.250000 0.500000 0.149736
O O5 0.181762 0.664615 0.077881
O O6 0.824445 0.376265 0.123137
O O7 0.500000 0.500000 0.000000
O O8 0.000000 0.305816 0.750000
#
# Coordination Sequence:
#
# PCOD9423532 Si02
#       3
#     8   8   8
#     4  10  23  44  75 110 143 189 243 291 352 446
#     4  12  27  45  72 105 140 202 251 295 361 443
#     4  12  27  47  75 111 149 188 241 313 377 434
#
# _framework density 24.877649000000002
#
# number of rings (size 3 to 8) (size 9 to 14) (size 15 to 20)
#    0.000    0.667    0.000    7.000   14.000    2.667 
#    0.000   10.000    0.000    0.000    0.000    0.000 
#    0.000    0.000    0.000    0.000    0.000    0.000 
#
# Total GULP energy -134033.326617 kJ/mol
# GULP energy per Si atom -5584.721942 kJ/mol
# Density = 2.482103 g / cm^3
# Si number density = 24.877649 Si / 1000 Ang^3
#
#
#
# Elastic Constant Matrix: (Units=GPa)
#
#
# Indices 1 2 3 4 5 6 
#
# 1 189.8734 70.6365 25.2340 0.0000 0.0000 0.0000
# 2 70.6365 239.6408 76.6151 0.0000 0.0000 0.0000
# 3 25.2340 76.6151 98.8826 0.0000 0.0000 0.0000
# 4 0.0000 0.0000 0.0000 19.4884 0.0000 0.0000
# 5 0.0000 0.0000 0.0000 0.0000 27.1611 0.0000
# 6 0.0000 0.0000 0.0000 0.0000 0.0000 51.4454
#
#
#
# Elastic Compliance Matrix: (Units=1/GPa)
#
#
# Indices 1 2 3 4 5 6 
#
# 1 0.005919 -0.001677 -0.000211 0.000000 0.000000 0.000000
# 2 -0.001677 0.006022 -0.004238 0.000000 0.000000 0.000000
# 3 -0.000211 -0.004238 0.013451 0.000000 0.000000 0.000000
# 4 0.000000 0.000000 0.000000 0.051313 0.000000 0.000000
# 5 0.000000 0.000000 0.000000 0.000000 0.036817 0.000000
# 6 0.000000 0.000000 0.000000 0.000000 0.000000 0.019438
#
#
# Mechanical properties :
#
#
# Convention : Reuss Voigt Hill
#
# Bulk Modulus (GPa) = 76.10871 97.04088 86.57480
# Shear Modulus (GPa) = 33.42439 43.34639 38.38539
#
# Velocity S-wave (km/s) = 3.66942 4.17871 3.93232
# Velocity P-wave (km/s) = 6.97227 7.89773 7.44938
#
# Compressibility (1/GPa) = 0.01313910
#
# Stress axis : x y z
#
# Youngs Moduli (GPa) = 168.95819 166.05189 74.34654
#
# Poissons Ratio (x) = 0.27849 0.01568
# Poissons Ratio (y) = 0.28337 0.31509
# Poissons Ratio (z) = 0.03564 0.70374
#
# Static dielectric constant tensor:
#      x y z
#    x 2.440900 0.000000 0.000000 
#    y 0.000000 2.045940 0.000000 
#    z 0.000000 0.000000 2.129860 
# 
# From -- ./inp_files/10682.got.cif
#   From: 2010.05.17/outbox.cif.g08.bks.cpg/sg54_6_cif.got.tgz:10682.got - 2010.06.03 13:09:01.
