data_PCOD9423429
_publ_section_title
;
Structure prediction by ZEFSAII (Michael W. Deem and Ramdas Pophale) SiO2 
 PCOD9423429
Probable space group: P C C A
;
_chemical_formula_sum "Si O2"
_cell_formula_units_Z 60
_cell_length_a 8.256798
_cell_length_b 10.863768
_cell_length_c 25.771035
_cell_angle_alpha 90.000000
_cell_angle_beta 90.000000
_cell_angle_gamma 90.000000
_cell_volume 2311.660239
_symmetry_space_group_name_H-M "P C C A"
_symmetry_group_IT_number 54
_symmetry_cell_setting 'orthorhombic'
loop_
_space_group_symop_operation_xyz
x,y,z
1/2-x,-y,z
1/2+x,-y,1/2-z
-x,y,1/2-z
-x,-y,-z
1/2+x,y,-z
1/2-x,y,1/2+z
x,-y,1/2+z
loop_
_atom_site_type_symbol
_atom_site_label
_atom_site_fract_x
_atom_site_fract_y
_atom_site_fract_z
Si Si1 0.909711 0.541624 0.108097
Si Si2 0.670569 0.365946 0.898071
Si Si3 0.500000 0.702879 0.250000
Si Si4 0.910569 0.916863 0.170398
Si Si5 0.533373 0.199391 0.544042
Si Si6 0.589241 0.216670 0.060777
Si Si7 0.152792 0.339446 0.781739
Si Si8 0.598436 0.861985 0.346190
O O1 0.750000 0.500000 0.078284
O O2 0.990408 0.649606 0.073541
O O3 0.855467 0.607398 0.160630
O O4 0.002079 0.419081 0.125621
O O5 0.750000 0.500000 0.900924
O O6 0.598759 0.310797 0.951249
O O7 0.728009 0.247477 0.864034
O O8 0.674222 0.637473 0.244876
O O9 0.509431 0.789208 0.300555
O O10 0.917441 0.859417 0.113250
O O11 0.879734 0.806144 0.210128
O O12 0.750000 0.000000 0.174150
O O13 0.076304 0.997764 0.174625
O O14 0.498747 0.149787 0.486871
O O15 0.720692 0.231085 0.548575
O O16 0.488962 0.128170 0.597171
O O17 0.000000 0.388207 0.750000
#
# Coordination Sequence:
#
# PCOD9423429 Si02
#       8
#     8   8   4   8   8   8   8   8
#     4  11  22  47  67  95 140 185 236 283 358 443
#     4  10  23  43  68 100 141 175 230 302 349 421
#     4  12  22  46  74  98 146 184 238 300 360 426
#     4  11  20  46  73  95 139 186 231 286 356 451
#     4  10  23  42  62 102 133 176 231 289 355 425
#     4  11  23  40  70  97 134 184 227 285 361 425
#     4  11  27  43  73 108 134 189 246 297 368 435
#     4  10  23  44  71 100 137 186 233 288 367 425
#
# _framework density 25.955371
#
# number of rings (size 3 to 8) (size 9 to 14) (size 15 to 20)
#    0.800    0.533    4.000    1.600    4.667    1.600 
#    7.200    0.000    0.000    0.000    0.000    0.000 
#    0.000    0.000    0.000    0.000    0.000    0.000 
#
# Total GULP energy -334272.271173 kJ/mol
# GULP energy per Si atom -5571.204520 kJ/mol
# Density = 2.589630 g / cm^3
# Si number density = 25.955371 Si / 1000 Ang^3
#
#
#
# Elastic Constant Matrix: (Units=GPa)
#
#
# Indices 1 2 3 4 5 6 
#
# 1 57.4093 8.0340 37.0854 0.0000 0.0000 0.0000
# 2 8.0340 110.6142 14.0664 0.0000 0.0000 0.0000
# 3 37.0854 14.0664 73.5348 0.0000 0.0000 0.0000
# 4 0.0000 0.0000 0.0000 10.4985 0.0000 0.0000
# 5 0.0000 0.0000 0.0000 0.0000 24.5692 0.0000
# 6 0.0000 0.0000 0.0000 0.0000 0.0000 22.9822
#
#
#
# Elastic Compliance Matrix: (Units=1/GPa)
#
#
# Indices 1 2 3 4 5 6 
#
# 1 0.025841 -0.000225 -0.012989 0.000000 0.000000 0.000000
# 2 -0.000225 0.009268 -0.001659 0.000000 0.000000 0.000000
# 3 -0.012989 -0.001659 0.020467 0.000000 0.000000 0.000000
# 4 0.000000 0.000000 0.000000 0.095252 0.000000 0.000000
# 5 0.000000 0.000000 0.000000 0.000000 0.040701 0.000000
# 6 0.000000 0.000000 0.000000 0.000000 0.000000 0.043512
#
#
# Mechanical properties :
#
#
# Convention : Reuss Voigt Hill
#
# Bulk Modulus (GPa) = 38.71643 39.99221 39.35432
# Shear Modulus (GPa) = 18.28833 23.76814 21.02824
#
# Velocity S-wave (km/s) = 2.65732 3.02939 2.84943
# Velocity P-wave (km/s) = 4.93600 5.26097 5.10107
#
# Compressibility (1/GPa) = 0.02582883
#
# Stress axis : x y z
#
# Youngs Moduli (GPa) = 38.69801 107.90065 48.85859
#
# Poissons Ratio (x) = 0.02428 0.63464
# Poissons Ratio (y) = 0.00871 0.08107
# Poissons Ratio (z) = 0.50266 0.17904
#
# Static dielectric constant tensor:
#      x y z
#    x 2.344970 0.000000 0.000000 
#    y 0.000000 2.120880 0.000000 
#    z 0.000000 0.000000 1.969560 
# 
# From -- ./inp_files/25948.got.cif
#   From: 2010.05.17/outbox.cif.g08.bks.cpg/sg54_13_cif.got.tgz:25948.got - 2010.06.03 13:09:01.
