data_PCOD9423621
_publ_section_title
;
Structure prediction by ZEFSAII (Michael W. Deem and Ramdas Pophale) SiO2 
 PCOD9423621
Probable space group: P C C A
;
_chemical_formula_sum "Si O2"
_cell_formula_units_Z 40
_cell_length_a 14.236970
_cell_length_b 9.073345
_cell_length_c 14.116169
_cell_angle_alpha 90.000000
_cell_angle_beta 90.000000
_cell_angle_gamma 90.000000
_cell_volume 1823.483524
_symmetry_space_group_name_H-M "P C C A"
_symmetry_group_IT_number 54
_symmetry_cell_setting 'orthorhombic'
loop_
_space_group_symop_operation_xyz
x,y,z
1/2-x,-y,z
1/2+x,-y,1/2-z
-x,y,1/2-z
-x,-y,-z
1/2+x,y,-z
1/2-x,y,1/2+z
x,-y,1/2+z
loop_
_atom_site_type_symbol
_atom_site_label
_atom_site_fract_x
_atom_site_fract_y
_atom_site_fract_z
Si Si1 0.850601 0.069435 0.719825
Si Si2 0.505014 0.469693 0.888754
Si Si3 0.855438 0.957980 0.445834
Si Si4 0.151767 0.415884 0.759629
Si Si5 0.976713 0.144533 0.091046
O O1 0.862510 0.058028 0.833291
O O2 0.844348 0.245176 0.708923
O O3 0.750000 0.000000 0.695037
O O4 0.929078 0.973964 0.663335
O O5 0.405878 0.510410 0.843623
O O6 0.586343 0.559404 0.833509
O O7 0.512883 0.296130 0.865871
O O8 0.500000 0.500000 0.000000
O O9 0.895962 0.829182 0.511737
O O10 0.750000 0.000000 0.469971
O O11 0.931158 0.086007 0.463898
O O12 0.250000 0.500000 0.745431
#
# Coordination Sequence:
#
# PCOD9423621 Si02
#       5
#     8   8   8   8   8
#     4  11  24  43  73  98 137 180 234 286 345 419
#     4  11  27  47  71 102 149 184 233 288 367 419
#     4  10  24  39  69 100 136 173 243 276 343 398
#     4  11  27  46  70 105 141 186 237 294 362 426
#     4  11  24  43  70 100 137 184 231 288 339 422
#
# _framework density 21.936036000000001
#
# number of rings (size 3 to 8) (size 9 to 14) (size 15 to 20)
#    0.000    1.200    0.000    3.600   22.400    0.800 
#    0.000    0.000    0.000    0.000    0.000    0.000 
#    0.000    0.000    0.000    0.000    0.000    0.000 
#
# Total GULP energy -223220.006517 kJ/mol
# GULP energy per Si atom -5580.500163 kJ/mol
# Density = 2.188611 g / cm^3
# Si number density = 21.936036 Si / 1000 Ang^3
#
#
#
# Elastic Constant Matrix: (Units=GPa)
#
#
# Indices 1 2 3 4 5 6 
#
# 1 136.0927 25.1334 12.8621 0.0000 0.0000 0.0000
# 2 25.1334 130.0043 0.5055 0.0000 0.0000 0.0000
# 3 12.8621 0.5055 124.9596 0.0000 0.0000 0.0000
# 4 0.0000 0.0000 0.0000 16.6198 0.0000 0.0000
# 5 0.0000 0.0000 0.0000 0.0000 37.1686 0.0000
# 6 0.0000 0.0000 0.0000 0.0000 0.0000 28.3788
#
#
#
# Elastic Compliance Matrix: (Units=1/GPa)
#
#
# Indices 1 2 3 4 5 6 
#
# 1 0.007696 -0.001485 -0.000786 0.000000 0.000000 0.000000
# 2 -0.001485 0.007979 0.000121 0.000000 0.000000 0.000000
# 3 -0.000786 0.000121 0.008083 0.000000 0.000000 0.000000
# 4 0.000000 0.000000 0.000000 0.060169 0.000000 0.000000
# 5 0.000000 0.000000 0.000000 0.000000 0.026904 0.000000
# 6 0.000000 0.000000 0.000000 0.000000 0.000000 0.035238
#
#
# Mechanical properties :
#
#
# Convention : Reuss Voigt Hill
#
# Bulk Modulus (GPa) = 51.39509 52.00653 51.70081
# Shear Modulus (GPa) = 31.87635 39.93714 35.90674
#
# Velocity S-wave (km/s) = 3.81616 4.27150 4.05023
# Velocity P-wave (km/s) = 6.54964 6.93450 6.74482
#
# Compressibility (1/GPa) = 0.01945711
#
# Stress axis : x y z
#
# Youngs Moduli (GPa) = 129.92978 125.33442 123.71606
#
# Poissons Ratio (x) = 0.18611 0.09726
# Poissons Ratio (y) = 0.19293 -0.01492
# Poissons Ratio (z) = 0.10215 -0.01511
#
# Static dielectric constant tensor:
#      x y z
#    x 1.801240 0.000000 0.000000 
#    y 0.000000 1.973870 0.000000 
#    z 0.000000 0.000000 1.861940 
# 
# From -- ./inp_files/13244.got.cif
#   From: 2010.05.17/outbox.cif.g08.bks.cpg/sg54_7_cif.got.tgz:13244.got - 2010.06.03 13:09:01.
