data_PCOD9423186
_publ_section_title
;
Structure prediction by ZEFSAII (Michael W. Deem and Ramdas Pophale) SiO2 
 PCOD9423186
Probable space group: P C C A
;
_chemical_formula_sum "Si O2"
_cell_formula_units_Z 28
_cell_length_a 20.201272
_cell_length_b 5.290649
_cell_length_c 13.433040
_cell_angle_alpha 90.000000
_cell_angle_beta 90.000000
_cell_angle_gamma 90.000000
_cell_volume 1435.694293
_symmetry_space_group_name_H-M "P C C A"
_symmetry_group_IT_number 54
_symmetry_cell_setting 'orthorhombic'
loop_
_space_group_symop_operation_xyz
x,y,z
1/2-x,-y,z
1/2+x,-y,1/2-z
-x,y,1/2-z
-x,-y,-z
1/2+x,y,-z
1/2-x,y,1/2+z
x,-y,1/2+z
loop_
_atom_site_type_symbol
_atom_site_label
_atom_site_fract_x
_atom_site_fract_y
_atom_site_fract_z
Si Si1 0.060658 0.371786 0.058288
Si Si2 0.889467 0.072884 0.611981
Si Si3 0.325530 0.434602 0.942497
Si Si4 0.000000 0.849031 0.750000
O O1 0.126923 0.534168 0.039094
O O2 0.038672 0.318116 0.169204
O O3 0.077386 0.115862 0.996958
O O4 0.000000 0.500000 0.000000
O O5 0.853829 0.341366 0.628323
O O6 0.839451 0.838629 0.603659
O O7 0.946499 0.012114 0.689900
O O8 0.250000 0.500000 0.963991
#
# Coordination Sequence:
#
# PCOD9423186 Si02
#       4
#     8   8   8   4
#     4  10  23  40  66  95 130 166 218 270 326 380
#     4  10  23  39  65  94 128 168 214 269 324 381
#     4  10  22  43  65  87 133 175 211 265 331 384
#     4  12  20  40  66 104 124 168 218 278 322 384
#
# _framework density 19.502758
#
# number of rings (size 3 to 8) (size 9 to 14) (size 15 to 20)
#    1.714    0.000    2.857    1.714    0.000    4.571 
#    0.000    1.429    6.286    0.000    0.000    0.000 
#    0.000    0.000    0.000    0.000    0.000    0.000 
#
# Total GULP energy -155992.441868 kJ/mol
# GULP energy per Si atom -5571.158638 kJ/mol
# Density = 1.945837 g / cm^3
# Si number density = 19.502758 Si / 1000 Ang^3
#
#
#
# Elastic Constant Matrix: (Units=GPa)
#
#
# Indices 1 2 3 4 5 6 
#
# 1 116.7952 17.8573 13.3074 0.0000 0.0000 0.0000
# 2 17.8573 105.7417 8.9832 0.0000 0.0000 0.0000
# 3 13.3074 8.9832 72.6224 0.0000 0.0000 0.0000
# 4 0.0000 0.0000 0.0000 1.0643 0.0000 0.0000
# 5 0.0000 0.0000 0.0000 0.0000 15.2857 0.0000
# 6 0.0000 0.0000 0.0000 0.0000 0.0000 127.3430
#
#
#
# Elastic Compliance Matrix: (Units=1/GPa)
#
#
# Indices 1 2 3 4 5 6 
#
# 1 0.008941 -0.001385 -0.001467 0.000000 0.000000 0.000000
# 2 -0.001385 0.009772 -0.000955 0.000000 0.000000 0.000000
# 3 -0.001467 -0.000955 0.014157 0.000000 0.000000 0.000000
# 4 0.000000 0.000000 0.000000 0.939578 0.000000 0.000000
# 5 0.000000 0.000000 0.000000 0.000000 0.065421 0.000000
# 6 0.000000 0.000000 0.000000 0.000000 0.000000 0.007853
#
#
# Mechanical properties :
#
#
# Convention : Reuss Voigt Hill
#
# Bulk Modulus (GPa) = 39.59554 41.71724 40.65639
# Shear Modulus (GPa) = 4.70919 45.73936 25.22427
#
# Velocity S-wave (km/s) = 1.55559 4.84806 3.60025
# Velocity P-wave (km/s) = 4.85521 7.26465 6.17852
#
# Compressibility (1/GPa) = 0.02525537
#
# Stress axis : x y z
#
# Youngs Moduli (GPa) = 111.84500 102.33242 70.63746
#
# Poissons Ratio (x) = 0.14176 0.10362
# Poissons Ratio (y) = 0.15494 0.06745
# Poissons Ratio (z) = 0.16407 0.09772
#
# Static dielectric constant tensor:
#      x y z
#    x 1.616330 0.000000 0.000000 
#    y 0.000000 1.725200 0.000000 
#    z 0.000000 0.000000 1.666310 
# 
# From -- ./inp_files/9141.got.cif
#   From: 2010.05.17/outbox.cif.g08.bks.cpg/sg54_5_cif.got.tgz:9141.got - 2010.06.03 13:09:01.
