data_PCOD9423223
_publ_section_title
;
Structure prediction by ZEFSAII (Michael W. Deem and Ramdas Pophale) SiO2 
 PCOD9423223
Probable space group: P C C A
;
_chemical_formula_sum "Si O2"
_cell_formula_units_Z 36
_cell_length_a 25.057983
_cell_length_b 5.462916
_cell_length_c 12.944635
_cell_angle_alpha 90.000000
_cell_angle_beta 90.000000
_cell_angle_gamma 90.000000
_cell_volume 1771.986636
_symmetry_space_group_name_H-M "P C C A"
_symmetry_group_IT_number 54
_symmetry_cell_setting 'orthorhombic'
loop_
_space_group_symop_operation_xyz
x,y,z
1/2-x,-y,z
1/2+x,-y,1/2-z
-x,y,1/2-z
-x,-y,-z
1/2+x,y,-z
1/2-x,y,1/2+z
x,-y,1/2+z
loop_
_atom_site_type_symbol
_atom_site_label
_atom_site_fract_x
_atom_site_fract_y
_atom_site_fract_z
Si Si1 0.642001 0.550263 0.690485
Si Si2 0.901612 0.170172 0.863703
Si Si3 0.548216 0.371922 0.560926
Si Si4 0.189007 0.042016 0.254558
Si Si5 0.000000 0.929531 0.750000
O O1 0.617747 0.581117 0.806828
O O2 0.593620 0.542192 0.610167
O O3 0.673863 0.803570 0.676581
O O4 0.675940 0.300449 0.691401
O O5 0.852172 0.990267 0.841100
O O6 0.952017 0.084872 0.796898
O O7 0.920920 0.201786 0.979293
O O8 0.500000 0.500000 0.500000
O O9 0.523422 0.228975 0.656903
O O10 0.250000 0.000000 0.224031
#
# Coordination Sequence:
#
# PCOD9423223 Si02
#       5
#     8   8   8   8   4
#     4  10  22  44  65 100 136 174 232 279 342 408
#     4  10  24  39  69  93 138 176 225 280 344 408
#     4  12  23  38  68 103 141 183 225 282 348 424
#     4  10  22  45  72  91 134 180 229 288 344 397
#     4  12  22  44  62 102 144 180 228 276 356 412
#
# _framework density 20.316179000000002
#
# number of rings (size 3 to 8) (size 9 to 14) (size 15 to 20)
#    1.333    0.000    2.222    4.000    0.000    1.778 
#    0.000    1.111    4.889    0.000    0.000    0.000 
#    0.000    0.000    0.000    0.000    0.000    0.000 
#
# Total GULP energy -200730.334336 kJ/mol
# GULP energy per Si atom -5575.842620 kJ/mol
# Density = 2.026994 g / cm^3
# Si number density = 20.316179 Si / 1000 Ang^3
#
#
#
# Elastic Constant Matrix: (Units=GPa)
#
#
# Indices 1 2 3 4 5 6 
#
# 1 106.1846 26.6965 11.4103 0.0000 0.0000 0.0000
# 2 26.6965 109.6282 20.7514 0.0000 0.0000 0.0000
# 3 11.4103 20.7514 75.6859 0.0000 0.0000 0.0000
# 4 0.0000 0.0000 0.0000 56.7607 0.0000 0.0000
# 5 0.0000 0.0000 0.0000 0.0000 17.4574 0.0000
# 6 0.0000 0.0000 0.0000 0.0000 0.0000 28.6646
#
#
#
# Elastic Compliance Matrix: (Units=1/GPa)
#
#
# Indices 1 2 3 4 5 6 
#
# 1 0.010089 -0.002288 -0.000894 0.000000 0.000000 0.000000
# 2 -0.002288 0.010140 -0.002435 0.000000 0.000000 0.000000
# 3 -0.000894 -0.002435 0.014015 0.000000 0.000000 0.000000
# 4 0.000000 0.000000 0.000000 0.017618 0.000000 0.000000
# 5 0.000000 0.000000 0.000000 0.000000 0.057282 0.000000
# 6 0.000000 0.000000 0.000000 0.000000 0.000000 0.034886
#
#
# Mechanical properties :
#
#
# Convention : Reuss Voigt Hill
#
# Bulk Modulus (GPa) = 43.45889 45.46835 44.46362
# Shear Modulus (GPa) = 30.68745 36.08590 33.38667
#
# Velocity S-wave (km/s) = 3.89072 4.21909 4.05823
# Velocity P-wave (km/s) = 6.45146 6.79435 6.62513
#
# Compressibility (1/GPa) = 0.02301025
#
# Stress axis : x y z
#
# Youngs Moduli (GPa) = 99.12039 98.62145 71.35250
#
# Poissons Ratio (x) = 0.22561 0.06377
# Poissons Ratio (y) = 0.22675 0.17376
# Poissons Ratio (z) = 0.08859 0.24017
#
# Static dielectric constant tensor:
#      x y z
#    x 1.705960 0.000000 0.000000 
#    y 0.000000 1.771580 0.000000 
#    z 0.000000 0.000000 1.792680 
# 
# From -- ./inp_files/9771.got.cif
#   From: 2010.05.17/outbox.cif.g08.bks.cpg/sg54_5_cif.got.tgz:9771.got - 2010.06.03 13:09:01.
