data_PCOD9423015
_publ_section_title
;
Structure prediction by ZEFSAII (Michael W. Deem and Ramdas Pophale) SiO2 
 PCOD9423015
Probable space group: P C C A
;
_chemical_formula_sum "Si O2"
_cell_formula_units_Z 60
_cell_length_a 17.727712
_cell_length_b 16.804365
_cell_length_c 7.925597
_cell_angle_alpha 90.000000
_cell_angle_beta 90.000000
_cell_angle_gamma 90.000000
_cell_volume 2361.058672
_symmetry_space_group_name_H-M "P C C A"
_symmetry_group_IT_number 54
_symmetry_cell_setting 'orthorhombic'
loop_
_space_group_symop_operation_xyz
x,y,z
1/2-x,-y,z
1/2+x,-y,1/2-z
-x,y,1/2-z
-x,-y,-z
1/2+x,y,-z
1/2-x,y,1/2+z
x,-y,1/2+z
loop_
_atom_site_type_symbol
_atom_site_label
_atom_site_fract_x
_atom_site_fract_y
_atom_site_fract_z
Si Si1 0.618717 0.697357 0.372455
Si Si2 0.414683 0.403547 0.179945
Si Si3 0.816297 0.936739 0.579063
Si Si4 0.536681 0.909831 0.914193
Si Si5 0.762671 0.178705 0.316931
Si Si6 0.163638 0.468439 0.002238
Si Si7 0.000000 0.813416 0.750000
Si Si8 0.388312 0.238791 0.270459
O O1 0.699148 0.739394 0.362315
O O2 0.635813 0.603485 0.373712
O O3 0.568462 0.748818 0.244296
O O4 0.583445 0.722557 0.554883
O O5 0.500000 0.411369 0.250000
O O6 0.353016 0.431702 0.318980
O O7 0.394703 0.312324 0.143782
O O8 0.395621 0.460169 0.025663
O O9 0.894795 0.961700 0.494924
O O10 0.781636 0.872230 0.453161
O O11 0.823907 0.884202 0.746720
O O12 0.750000 0.000000 0.608873
O O13 0.500000 0.953381 0.750000
O O14 0.570465 0.834895 0.811808
O O15 0.498155 0.868988 0.080082
O O16 0.694718 0.205510 0.195585
O O17 0.250000 0.500000 0.018793
#
# Coordination Sequence:
#
# PCOD9423015 Si02
#       8
#     8   8   8   8   8   8   4   8
#     4  11  23  40  68 100 142 189 251 299 368 444
#     4  11  24  42  65  96 138 189 239 299 369 438
#     4  11  24  42  72 108 143 189 237 298 369 439
#     4  11  23  43  74 109 151 196 236 312 369 440
#     4  11  21  42  68 103 137 185 241 300 355 440
#     4  11  25  43  64  97 143 187 242 305 369 439
#     4  12  24  40  72 112 146 190 252 300 374 452
#     4  10  22  40  68  96 144 187 242 301 370 423
#
# _framework density 25.412330000000001
#
# number of rings (size 3 to 8) (size 9 to 14) (size 15 to 20)
#    0.000    1.067    4.000    2.400    2.800    2.133 
#    0.000    0.000    1.467    4.800    1.733    0.000 
#    0.000    0.000    0.000    0.000    0.000    0.000 
#
# Total GULP energy -334690.827643 kJ/mol
# GULP energy per Si atom -5578.180461 kJ/mol
# Density = 2.535449 g / cm^3
# Si number density = 25.412330 Si / 1000 Ang^3
#
#
#
# Elastic Constant Matrix: (Units=GPa)
#
#
# Indices 1 2 3 4 5 6 
#
# 1 102.9021 34.4483 30.0970 0.0000 0.0000 0.0000
# 2 34.4483 100.7387 -3.7153 0.0000 0.0000 0.0000
# 3 30.0970 -3.7153 66.3695 0.0000 0.0000 0.0000
# 4 0.0000 0.0000 0.0000 29.2547 0.0000 0.0000
# 5 0.0000 0.0000 0.0000 0.0000 5.4108 0.0000
# 6 0.0000 0.0000 0.0000 0.0000 0.0000 44.9967
#
#
#
# Elastic Compliance Matrix: (Units=1/GPa)
#
#
# Indices 1 2 3 4 5 6 
#
# 1 0.013112 -0.004713 -0.006210 0.000000 0.000000 0.000000
# 2 -0.004713 0.011641 0.002789 0.000000 0.000000 0.000000
# 3 -0.006210 0.002789 0.018039 0.000000 0.000000 0.000000
# 4 0.000000 0.000000 0.000000 0.034183 0.000000 0.000000
# 5 0.000000 0.000000 0.000000 0.000000 0.184814 0.000000
# 6 0.000000 0.000000 0.000000 0.000000 0.000000 0.022224
#
#
# Mechanical properties :
#
#
# Convention : Reuss Voigt Hill
#
# Bulk Modulus (GPa) = 37.70057 43.51892 40.60975
# Shear Modulus (GPa) = 16.17488 29.87781 23.02634
#
# Velocity S-wave (km/s) = 2.52563 3.43260 3.01343
# Velocity P-wave (km/s) = 4.83454 5.73346 5.30308
#
# Compressibility (1/GPa) = 0.02652480
#
# Stress axis : x y z
#
# Youngs Moduli (GPa) = 76.26674 85.90283 55.43468
#
# Poissons Ratio (x) = 0.40484 0.34424
# Poissons Ratio (y) = 0.35942 -0.15459
# Poissons Ratio (z) = 0.47360 -0.23956
#
# Static dielectric constant tensor:
#      x y z
#    x 2.157910 0.000000 0.000000 
#    y 0.000000 1.992340 0.000000 
#    z 0.000000 0.000000 2.142810 
# 
# From -- ./inp_files/4344.got.cif
#   From: 2010.05.17/outbox.cif.g08.bks.cpg/sg54_3_cif.got.tgz:4344.got - 2010.06.03 13:09:01.
