data_PCOD9423826
_publ_section_title
;
Structure prediction by ZEFSAII (Michael W. Deem and Ramdas Pophale) SiO2 
 PCOD9423826
Probable space group: P C C A
;
_chemical_formula_sum "Si O2"
_cell_formula_units_Z 32
_cell_length_a 11.247085
_cell_length_b 4.861325
_cell_length_c 23.005104
_cell_angle_alpha 90.000000
_cell_angle_beta 90.000000
_cell_angle_gamma 90.000000
_cell_volume 1257.820981
_symmetry_space_group_name_H-M "P C C A"
_symmetry_group_IT_number 54
_symmetry_cell_setting 'orthorhombic'
loop_
_space_group_symop_operation_xyz
x,y,z
1/2-x,-y,z
1/2+x,-y,1/2-z
-x,y,1/2-z
-x,-y,-z
1/2+x,y,-z
1/2-x,y,1/2+z
x,-y,1/2+z
loop_
_atom_site_type_symbol
_atom_site_label
_atom_site_fract_x
_atom_site_fract_y
_atom_site_fract_z
Si Si1 0.360524 0.813041 0.749899
Si Si2 0.082190 0.933051 0.371220
Si Si3 0.929709 0.444190 0.349552
Si Si4 0.750000 0.000000 0.523056
Si Si5 0.750000 0.500000 0.442602
O O1 0.500000 0.923792 0.750000
O O2 0.377762 0.530885 0.713522
O O3 0.250000 0.000000 0.727226
O O4 0.341475 0.794910 0.819018
O O5 0.145967 0.919148 0.432365
O O6 0.039834 0.237086 0.353030
O O7 0.966845 0.743406 0.372680
O O8 0.837458 0.347717 0.397553
O O9 0.791976 0.742467 0.485003
#
# Coordination Sequence:
#
# PCOD9423826 Si02
#       5
#     8   8   8   4   4
#     4  10  24  47  76 114 150 200 246 316 388 465
#     4  11  25  50  72 111 148 199 248 322 383 459
#     4  11  27  46  73 109 152 195 248 320 389 453
#     4  12  26  48  78 106 146 202 262 312 376 456
#     4  12  28  46  74 110 144 206 256 318 372 460
#
# _framework density 25.440821
#
# number of rings (size 3 to 8) (size 9 to 14) (size 15 to 20)
#    0.000    1.000    1.250    3.000    8.750   15.000 
#    0.000    0.000    0.000    0.000    0.000    0.000 
#    0.000    0.000    0.000    0.000    0.000    0.000 
#
# Total GULP energy -178589.674860 kJ/mol
# GULP energy per Si atom -5580.927339 kJ/mol
# Density = 2.538292 g / cm^3
# Si number density = 25.440821 Si / 1000 Ang^3
#
#
#
# Elastic Constant Matrix: (Units=GPa)
#
#
# Indices 1 2 3 4 5 6 
#
# 1 86.0135 21.9121 18.4218 0.0000 0.0000 0.0000
# 2 21.9121 110.7638 36.1487 0.0000 0.0000 0.0000
# 3 18.4218 36.1487 173.3290 0.0000 0.0000 0.0000
# 4 0.0000 0.0000 0.0000 260.1748 0.0000 0.0000
# 5 0.0000 0.0000 0.0000 0.0000 39.7345 0.0000
# 6 0.0000 0.0000 0.0000 0.0000 0.0000 42.4197
#
#
#
# Elastic Compliance Matrix: (Units=1/GPa)
#
#
# Indices 1 2 3 4 5 6 
#
# 1 0.012362 -0.002164 -0.000863 0.000000 0.000000 0.000000
# 2 -0.002164 0.010066 -0.001869 0.000000 0.000000 0.000000
# 3 -0.000863 -0.001869 0.006251 0.000000 0.000000 0.000000
# 4 0.000000 0.000000 0.000000 0.003844 0.000000 0.000000
# 5 0.000000 0.000000 0.000000 0.000000 0.025167 0.000000
# 6 0.000000 0.000000 0.000000 0.000000 0.000000 0.023574
#
#
# Mechanical properties :
#
#
# Convention : Reuss Voigt Hill
#
# Bulk Modulus (GPa) = 52.94524 58.11904 55.53214
# Shear Modulus (GPa) = 51.36007 88.04070 69.70039
#
# Velocity S-wave (km/s) = 4.49799 5.88908 5.23990
# Velocity P-wave (km/s) = 6.91608 8.31481 7.64749
#
# Compressibility (1/GPa) = 0.01888744
#
# Stress axis : x y z
#
# Youngs Moduli (GPa) = 80.89228 99.34013 159.97637
#
# Poissons Ratio (x) = 0.21498 0.13799
# Poissons Ratio (y) = 0.17506 0.29906
# Poissons Ratio (z) = 0.06977 0.18571
#
# Static dielectric constant tensor:
#      x y z
#    x 2.160890 0.000000 0.000000 
#    y 0.000000 2.342770 0.000000 
#    z 0.000000 0.000000 2.021720 
# 
# From -- ./inp_files/20854.got.cif
#   From: 2010.05.17/outbox.cif.g08.bks.cpg/sg54_11_cif.got.tgz:20854.got - 2010.06.03 13:09:01.
