data_PCOD9423905
_publ_section_title
;
Structure prediction by ZEFSAII (Michael W. Deem and Ramdas Pophale) SiO2 
 PCOD9423905
Probable space group: P C C A
;
_chemical_formula_sum "Si O2"
_cell_formula_units_Z 40
_cell_length_a 23.660807
_cell_length_b 6.537656
_cell_length_c 13.199119
_cell_angle_alpha 90.000000
_cell_angle_beta 90.000000
_cell_angle_gamma 90.000000
_cell_volume 2041.721784
_symmetry_space_group_name_H-M "P C C A"
_symmetry_group_IT_number 54
_symmetry_cell_setting 'orthorhombic'
loop_
_space_group_symop_operation_xyz
x,y,z
1/2-x,-y,z
1/2+x,-y,1/2-z
-x,y,1/2-z
-x,-y,-z
1/2+x,y,-z
1/2-x,y,1/2+z
x,-y,1/2+z
loop_
_atom_site_type_symbol
_atom_site_label
_atom_site_fract_x
_atom_site_fract_y
_atom_site_fract_z
Si Si1 0.548444 0.446000 0.418184
Si Si2 0.301771 0.160412 0.325863
Si Si3 0.154288 0.294568 0.045086
Si Si4 0.750000 0.500000 0.816781
Si Si5 0.000000 0.251778 0.250000
Si Si6 0.406566 0.966894 0.687891
O O1 0.500000 0.500000 0.500000
O O2 0.608003 0.524859 0.462972
O O3 0.527080 0.594776 0.330045
O O4 0.561030 0.222049 0.368697
O O5 0.321561 0.225113 0.437505
O O6 0.280919 0.347555 0.258466
O O7 0.355491 0.088487 0.261633
O O8 0.250000 0.000000 0.332185
O O9 0.205461 0.377474 0.114050
O O10 0.121084 0.110417 0.101100
O O11 0.051442 0.093245 0.261213
#
# Coordination Sequence:
#
# PCOD9423905 Si02
#       6
#     8   8   8   4   4   8
#     4  11  26  45  72 102 142 183 237 294 356 427
#     4  12  27  44  74 100 140 191 234 296 361 419
#     4  11  27  43  71 105 140 186 238 296 356 426
#     4  12  24  50  64 108 140 184 240 298 350 434
#     4  10  26  44  68 102 136 186 228 290 350 424
#     4  11  25  47  71 102 144 181 241 294 354 435
#
# _framework density 19.591307
#
# number of rings (size 3 to 8) (size 9 to 14) (size 15 to 20)
#    0.000    0.800    4.000    1.200   11.200    3.200 
#    0.000    0.000    0.000    0.000    0.000    0.000 
#    0.000    0.000    0.000    0.000    0.000    0.000 
#
# Total GULP energy -222983.048864 kJ/mol
# GULP energy per Si atom -5574.576222 kJ/mol
# Density = 1.954672 g / cm^3
# Si number density = 19.591307 Si / 1000 Ang^3
#
#
#
# Elastic Constant Matrix: (Units=GPa)
#
#
# Indices 1 2 3 4 5 6 
#
# 1 113.4922 48.6151 33.7029 0.0000 0.0000 0.0000
# 2 48.6151 105.3590 31.4056 0.0000 0.0000 0.0000
# 3 33.7029 31.4056 79.7590 0.0000 0.0000 0.0000
# 4 0.0000 0.0000 0.0000 18.7145 0.0000 0.0000
# 5 0.0000 0.0000 0.0000 0.0000 63.5905 0.0000
# 6 0.0000 0.0000 0.0000 0.0000 0.0000 32.4745
#
#
#
# Elastic Compliance Matrix: (Units=1/GPa)
#
#
# Indices 1 2 3 4 5 6 
#
# 1 0.011653 -0.004429 -0.003180 0.000000 0.000000 0.000000
# 2 -0.004429 0.012437 -0.003026 0.000000 0.000000 0.000000
# 3 -0.003180 -0.003026 0.015073 0.000000 0.000000 0.000000
# 4 0.000000 0.000000 0.000000 0.053434 0.000000 0.000000
# 5 0.000000 0.000000 0.000000 0.000000 0.015726 0.000000
# 6 0.000000 0.000000 0.000000 0.000000 0.000000 0.030793
#
#
# Mechanical properties :
#
#
# Convention : Reuss Voigt Hill
#
# Bulk Modulus (GPa) = 55.88685 58.45080 57.16882
# Shear Modulus (GPa) = 30.05724 35.28170 32.66947
#
# Velocity S-wave (km/s) = 3.92115 4.24829 4.08799
# Velocity P-wave (km/s) = 7.00634 7.34600 7.17818
#
# Compressibility (1/GPa) = 0.01789330
#
# Stress axis : x y z
#
# Youngs Moduli (GPa) = 85.81718 80.40630 66.34438
#
# Poissons Ratio (x) = 0.35611 0.21098
# Poissons Ratio (y) = 0.38008 0.20073
# Poissons Ratio (z) = 0.27290 0.24328
#
# Static dielectric constant tensor:
#      x y z
#    x 1.590830 0.000000 0.000000 
#    y 0.000000 1.515950 0.000000 
#    z 0.000000 0.000000 1.669570 
# 
# From -- ./inp_files/10187.got.cif
#   From: 2010.05.17/outbox.cif.g08.bks.cpg/sg54_6_cif.got.tgz:10187.got - 2010.06.03 13:09:01.
