data_PCOD9423740
_publ_section_title
;
Structure prediction by ZEFSAII (Michael W. Deem and Ramdas Pophale) SiO2 
 PCOD9423740
Probable space group: P C C A
;
_chemical_formula_sum "Si O2"
_cell_formula_units_Z 48
_cell_length_a 8.078608
_cell_length_b 7.737322
_cell_length_c 32.077369
_cell_angle_alpha 90.000000
_cell_angle_beta 90.000000
_cell_angle_gamma 90.000000
_cell_volume 2005.053413
_symmetry_space_group_name_H-M "P C C A"
_symmetry_group_IT_number 54
_symmetry_cell_setting 'orthorhombic'
loop_
_space_group_symop_operation_xyz
x,y,z
1/2-x,-y,z
1/2+x,-y,1/2-z
-x,y,1/2-z
-x,-y,-z
1/2+x,y,-z
1/2-x,y,1/2+z
x,-y,1/2+z
loop_
_atom_site_type_symbol
_atom_site_label
_atom_site_fract_x
_atom_site_fract_y
_atom_site_fract_z
Si Si1 0.583671 0.617026 0.391672
Si Si2 0.750000 0.000000 0.187107
Si Si3 0.376109 0.839744 0.951102
Si Si4 0.944209 0.677905 0.521076
Si Si5 0.731354 0.203089 0.816937
Si Si6 0.000000 0.172065 0.250000
Si Si7 0.436257 0.713075 0.861650
O O1 0.750000 0.500000 0.395382
O O2 0.545969 0.696715 0.436271
O O3 0.618495 0.759468 0.357061
O O4 0.439259 0.488243 0.375401
O O5 0.599302 0.944516 0.216931
O O6 0.796169 0.830396 0.159998
O O7 0.244091 0.692439 0.964309
O O8 0.459009 0.806493 0.906463
O O9 0.250000 0.000000 0.948677
O O10 0.514236 0.822623 0.986626
O O11 0.000000 0.500000 0.500000
O O12 0.636782 0.275709 0.776569
O O13 0.909125 0.276038 0.829781
O O14 0.750000 0.000000 0.809989
#
# Coordination Sequence:
#
# PCOD9423740 Si02
#       7
#     8   4   8   8   8   4   8
#     4  10  24  44  70 103 145 194 243 304 373 434
#     4  12  22  44  74 104 148 188 242 308 366 464
#     4  12  27  44  67 106 144 194 253 311 361 435
#     4  12  25  45  69  99 145 199 247 300 362 437
#     4  11  24  45  74 103 139 190 242 304 369 453
#     4  12  24  46  74 112 134 192 240 298 382 446
#     4  11  24  44  69 108 149 187 245 303 377 446
#
# _framework density 23.939512000000001
#
# number of rings (size 3 to 8) (size 9 to 14) (size 15 to 20)
#    0.000    0.667    5.000    2.000    7.000    0.667 
#    0.000    5.833    0.000    0.000    0.000    0.000 
#    0.000    0.000    0.000    0.000    0.000    0.000 
#
# Total GULP energy -268231.593389 kJ/mol
# GULP energy per Si atom -5588.158196 kJ/mol
# Density = 2.388502 g / cm^3
# Si number density = 23.939512 Si / 1000 Ang^3
#
#
#
# Elastic Constant Matrix: (Units=GPa)
#
#
# Indices 1 2 3 4 5 6 
#
# 1 100.4518 4.3986 42.1843 0.0000 0.0000 0.0000
# 2 4.3986 50.1417 15.8032 0.0000 0.0000 0.0000
# 3 42.1843 15.8032 156.6979 0.0000 0.0000 0.0000
# 4 0.0000 0.0000 0.0000 18.1482 0.0000 0.0000
# 5 0.0000 0.0000 0.0000 0.0000 33.9535 0.0000
# 6 0.0000 0.0000 0.0000 0.0000 0.0000 35.8143
#
#
#
# Elastic Compliance Matrix: (Units=1/GPa)
#
#
# Indices 1 2 3 4 5 6 
#
# 1 0.011224 -0.000033 -0.003018 0.000000 0.000000 0.000000
# 2 -0.000033 0.020598 -0.002068 0.000000 0.000000 0.000000
# 3 -0.003018 -0.002068 0.007403 0.000000 0.000000 0.000000
# 4 0.000000 0.000000 0.000000 0.055102 0.000000 0.000000
# 5 0.000000 0.000000 0.000000 0.000000 0.029452 0.000000
# 6 0.000000 0.000000 0.000000 0.000000 0.000000 0.027922
#
#
# Mechanical properties :
#
#
# Convention : Reuss Voigt Hill
#
# Bulk Modulus (GPa) = 34.50038 48.00707 41.25372
# Shear Modulus (GPa) = 29.13714 33.91025 31.52369
#
# Velocity S-wave (km/s) = 3.49250 3.76772 3.63272
# Velocity P-wave (km/s) = 5.54132 6.24697 5.90469
#
# Compressibility (1/GPa) = 0.02898519
#
# Stress axis : x y z
#
# Youngs Moduli (GPa) = 89.09507 48.54773 135.08342
#
# Poissons Ratio (x) = 0.00162 0.40771
# Poissons Ratio (y) = 0.00297 0.27940
# Poissons Ratio (z) = 0.26891 0.10042
#
# Static dielectric constant tensor:
#      x y z
#    x 2.018230 0.000000 0.000000 
#    y 0.000000 1.958610 0.000000 
#    z 0.000000 0.000000 1.888610 
# 
# From -- ./inp_files/27796.got.cif
#   From: 2010.05.17/outbox.cif.g08.bks.cpg/sg54_14_cif.got.tgz:27796.got - 2010.06.03 13:09:01.
