data_PCOD9423752
_publ_section_title
;
Structure prediction by ZEFSAII (Michael W. Deem and Ramdas Pophale) SiO2 
 PCOD9423752
Probable space group: P C C A
;
_chemical_formula_sum "Si O2"
_cell_formula_units_Z 48
_cell_length_a 18.094696
_cell_length_b 9.333982
_cell_length_c 9.717268
_cell_angle_alpha 90.000000
_cell_angle_beta 90.000000
_cell_angle_gamma 90.000000
_cell_volume 1641.203486
_symmetry_space_group_name_H-M "P C C A"
_symmetry_group_IT_number 54
_symmetry_cell_setting 'orthorhombic'
loop_
_space_group_symop_operation_xyz
x,y,z
1/2-x,-y,z
1/2+x,-y,1/2-z
-x,y,1/2-z
-x,-y,-z
1/2+x,y,-z
1/2-x,y,1/2+z
x,-y,1/2+z
loop_
_atom_site_type_symbol
_atom_site_label
_atom_site_fract_x
_atom_site_fract_y
_atom_site_fract_z
Si Si1 0.250000 0.500000 0.857586
Si Si2 0.618024 0.285727 0.202954
Si Si3 0.000000 0.496960 0.750000
Si Si4 0.392304 0.327586 0.893363
Si Si5 0.500000 0.972830 0.750000
Si Si6 0.250000 0.000000 0.772962
Si Si7 0.835897 0.082399 0.971273
Si Si8 0.910623 0.202856 0.409249
O O1 0.317410 0.413118 0.929580
O O2 0.301321 0.629456 0.791395
O O3 0.567688 0.396316 0.287824
O O4 0.571498 0.128672 0.221364
O O5 0.649815 0.084448 0.954813
O O6 0.594161 0.302650 0.041384
O O7 0.970241 0.593538 0.625358
O O8 0.295682 0.091278 0.882253
O O9 0.397199 0.198820 0.001544
O O10 0.386894 0.278038 0.731931
O O11 0.474754 0.087361 0.632883
O O12 0.205684 0.106639 0.672441
#
# Coordination Sequence:
#
# PCOD9423752 Si02
#       8
#     4   8   4   8   4   4   8   8
#     4  10  26  48  74 110 152 218 280 332 412 480
#     4  10  24  47  76 106 160 209 282 338 408 508
#     4   9  23  50  72 104 151 223 274 330 410 485
#     4  11  24  46  76 110 156 205 274 339 409 507
#     4  11  25  48  74 122 159 213 270 352 436 495
#     4  10  24  44  72 114 166 200 252 324 446 494
#     4  11  24  44  77 118 155 209 262 343 428 500
#     4  12  25  43  78 115 161 209 272 344 430 492
#
# _framework density 29.246829999999999
#
# number of rings (size 3 to 8) (size 9 to 14) (size 15 to 20)
#    0.000    1.333    1.667    2.000    4.667    2.667 
#    0.000   10.000    0.000    0.000    0.000    0.000 
#    0.000    0.000    0.000    0.000    0.000    0.000 
#
# Total GULP energy -267379.050250 kJ/mol
# GULP energy per Si atom -5570.396880 kJ/mol
# Density = 2.918026 g / cm^3
# Si number density = 29.246830 Si / 1000 Ang^3
#
#
#
# Elastic Constant Matrix: (Units=GPa)
#
#
# Indices 1 2 3 4 5 6 
#
# 1 175.0353 35.2119 41.8836 0.0000 0.0000 0.0000
# 2 35.2119 125.3565 42.5931 0.0000 0.0000 0.0000
# 3 41.8836 42.5931 163.2281 0.0000 0.0000 0.0000
# 4 0.0000 0.0000 0.0000 38.4898 0.0000 0.0000
# 5 0.0000 0.0000 0.0000 0.0000 45.2847 0.0000
# 6 0.0000 0.0000 0.0000 0.0000 0.0000 57.9809
#
#
#
# Elastic Compliance Matrix: (Units=1/GPa)
#
#
# Indices 1 2 3 4 5 6 
#
# 1 0.006284 -0.001336 -0.001264 0.000000 0.000000 0.000000
# 2 -0.001336 0.009037 -0.002015 0.000000 0.000000 0.000000
# 3 -0.001264 -0.002015 0.006977 0.000000 0.000000 0.000000
# 4 0.000000 0.000000 0.000000 0.025981 0.000000 0.000000
# 5 0.000000 0.000000 0.000000 0.000000 0.022082 0.000000
# 6 0.000000 0.000000 0.000000 0.000000 0.000000 0.017247
#
#
# Mechanical properties :
#
#
# Convention : Reuss Voigt Hill
#
# Bulk Modulus (GPa) = 76.52373 78.11079 77.31726
# Shear Modulus (GPa) = 49.40957 51.27983 50.34470
#
# Velocity S-wave (km/s) = 4.11469 4.19184 4.15344
# Velocity P-wave (km/s) = 6.98540 7.08478 7.03527
#
# Compressibility (1/GPa) = 0.01306784
#
# Stress axis : x y z
#
# Youngs Moduli (GPa) = 159.12673 110.65309 143.33543
#
# Poissons Ratio (x) = 0.14781 0.18117
# Poissons Ratio (y) = 0.21255 0.28889
# Poissons Ratio (z) = 0.20113 0.22302
#
# Static dielectric constant tensor:
#      x y z
#    x 2.769310 0.000000 0.000000 
#    y 0.000000 2.472400 0.000000 
#    z 0.000000 0.000000 2.331540 
# 
# From -- ./inp_files/9987.got.cif
#   From: 2010.05.17/outbox.cif.g08.bks.cpg/sg54_5_cif.got.tgz:9987.got - 2010.06.03 13:09:01.
