data_PCOD9423057
_publ_section_title
;
Structure prediction by ZEFSAII (Michael W. Deem and Ramdas Pophale) SiO2 
 PCOD9423057
Probable space group: P C C A
;
_chemical_formula_sum "Si O2"
_cell_formula_units_Z 48
_cell_length_a 19.936821
_cell_length_b 9.526615
_cell_length_c 11.428048
_cell_angle_alpha 90.000000
_cell_angle_beta 90.000000
_cell_angle_gamma 90.000000
_cell_volume 2170.533933
_symmetry_space_group_name_H-M "P C C A"
_symmetry_group_IT_number 54
_symmetry_cell_setting 'orthorhombic'
loop_
_space_group_symop_operation_xyz
x,y,z
1/2-x,-y,z
1/2+x,-y,1/2-z
-x,y,1/2-z
-x,-y,-z
1/2+x,y,-z
1/2-x,y,1/2+z
x,-y,1/2+z
loop_
_atom_site_type_symbol
_atom_site_label
_atom_site_fract_x
_atom_site_fract_y
_atom_site_fract_z
Si Si1 0.385606 0.540931 0.441746
Si Si2 0.648464 0.733271 0.656894
Si Si3 0.250000 0.500000 0.578910
Si Si4 0.295089 0.299556 0.777235
Si Si5 0.000000 0.970917 0.250000
Si Si6 0.631446 0.054834 0.628201
Si Si7 0.917805 0.774907 0.408697
O O1 0.397116 0.379523 0.410478
O O2 0.316258 0.548158 0.513433
O O3 0.361279 0.619534 0.323771
O O4 0.435556 0.633763 0.519376
O O5 0.725011 0.679070 0.653184
O O6 0.624528 0.740463 0.791862
O O7 0.646309 0.891144 0.610362
O O8 0.276449 0.368303 0.654946
O O9 0.313711 0.137203 0.794705
O O10 0.977027 0.870250 0.356636
O O11 0.937738 0.058641 0.201908
O O12 0.622375 0.133160 0.504604
#
# Coordination Sequence:
#
# PCOD9423057 Si02
#       7
#     8   8   4   8   4   8   8
#     4  11  20  35  61  91 128 171 200 252 330 389
#     4  11  20  38  59  96 137 157 210 263 325 412
#     4  12  18  34  62  88 136 166 194 250 314 394
#     4  11  20  36  56  95 129 164 205 249 321 410
#     4  10  22  46  64  88 128 172 234 288 314 372
#     4  10  24  39  64  89 125 174 221 272 328 377
#     4  10  22  41  65  89 122 175 217 272 328 379
#
# _framework density 22.114376
#
# number of rings (size 3 to 8) (size 9 to 14) (size 15 to 20)
#    0.000    1.333    5.000    1.000    0.000    2.667 
#    0.000    6.667    0.000   24.000    0.000    0.000 
#    0.000    0.000    0.000    0.000    0.000    0.000 
#
# Total GULP energy -267781.623696 kJ/mol
# GULP energy per Si atom -5578.783827 kJ/mol
# Density = 2.206404 g / cm^3
# Si number density = 22.114376 Si / 1000 Ang^3
#
#
#
# Elastic Constant Matrix: (Units=GPa)
#
#
# Indices 1 2 3 4 5 6 
#
# 1 48.1778 -2.7977 8.3981 0.0000 0.0000 0.0000
# 2 -2.7977 136.7911 41.0818 0.0000 0.0000 0.0000
# 3 8.3981 41.0818 79.2546 0.0000 0.0000 0.0000
# 4 0.0000 0.0000 0.0000 44.1129 0.0000 0.0000
# 5 0.0000 0.0000 0.0000 0.0000 24.1119 0.0000
# 6 0.0000 0.0000 0.0000 0.0000 0.0000 26.3650
#
#
#
# Elastic Compliance Matrix: (Units=1/GPa)
#
#
# Indices 1 2 3 4 5 6 
#
# 1 0.021347 0.001322 -0.002947 0.000000 0.000000 0.000000
# 2 0.001322 0.008740 -0.004670 0.000000 0.000000 0.000000
# 3 -0.002947 -0.004670 0.015351 0.000000 0.000000 0.000000
# 4 0.000000 0.000000 0.000000 0.022669 0.000000 0.000000
# 5 0.000000 0.000000 0.000000 0.000000 0.041473 0.000000
# 6 0.000000 0.000000 0.000000 0.000000 0.000000 0.037929
#
#
# Mechanical properties :
#
#
# Convention : Reuss Voigt Hill
#
# Bulk Modulus (GPa) = 30.44508 39.73198 35.08853
# Shear Modulus (GPa) = 29.23124 33.42071 31.32597
#
# Velocity S-wave (km/s) = 3.63963 3.89172 3.76778
# Velocity P-wave (km/s) = 5.60888 6.18058 5.90166
#
# Compressibility (1/GPa) = 0.03284603
#
# Stress axis : x y z
#
# Youngs Moduli (GPa) = 46.84514 114.41500 65.14317
#
# Poissons Ratio (x) = -0.15122 0.19198
# Poissons Ratio (y) = -0.06191 0.30425
# Poissons Ratio (z) = 0.13806 0.53438
#
# Static dielectric constant tensor:
#      x y z
#    x 1.811590 0.000000 0.000000 
#    y 0.000000 1.882040 0.000000 
#    z 0.000000 0.000000 1.848500 
# 
# From -- ./inp_files/10268.got.cif
#   From: 2010.05.17/outbox.cif.g08.bks.cpg/sg54_6_cif.got.tgz:10268.got - 2010.06.03 13:09:01.
