data_PCOD9423649
_publ_section_title
;
Structure prediction by ZEFSAII (Michael W. Deem and Ramdas Pophale) SiO2 
 PCOD9423649
Probable space group: P C C A
;
_chemical_formula_sum "Si O2"
_cell_formula_units_Z 40
_cell_length_a 14.109299
_cell_length_b 10.954298
_cell_length_c 11.005483
_cell_angle_alpha 90.000000
_cell_angle_beta 90.000000
_cell_angle_gamma 90.000000
_cell_volume 1700.979563
_symmetry_space_group_name_H-M "P C C A"
_symmetry_group_IT_number 54
_symmetry_cell_setting 'orthorhombic'
loop_
_space_group_symop_operation_xyz
x,y,z
1/2-x,-y,z
1/2+x,-y,1/2-z
-x,y,1/2-z
-x,-y,-z
1/2+x,y,-z
1/2-x,y,1/2+z
x,-y,1/2+z
loop_
_atom_site_type_symbol
_atom_site_label
_atom_site_fract_x
_atom_site_fract_y
_atom_site_fract_z
Si Si1 0.360396 0.644064 0.131447
Si Si2 0.250000 0.000000 0.958963
Si Si3 0.926788 0.139564 0.499212
Si Si4 0.500000 0.809308 0.750000
Si Si5 0.384053 0.793203 0.373376
Si Si6 0.863333 0.368454 0.892798
O O1 0.391362 0.727185 0.244684
O O2 0.247342 0.635484 0.138590
O O3 0.398489 0.506823 0.124395
O O4 0.391018 0.720923 0.013894
O O5 0.162115 0.055040 0.035325
O O6 0.296687 0.111749 0.884187
O O7 0.954348 0.117916 0.638852
O O8 0.978671 0.863002 0.581350
O O9 0.579454 0.724117 0.809419
O O10 0.371408 0.684366 0.471309
#
# Coordination Sequence:
#
# PCOD9423649 Si02
#       6
#     8   4   8   4   8   8
#     4  11  24  43  72 106 146 189 242 302 368 445
#     4  12  24  50  74  94 152 192 244 312 346 440
#     4  11  25  46  72 106 140 190 245 302 367 432
#     4  10  24  44  68 106 144 184 238 296 376 436
#     4  11  25  45  69 110 140 193 245 301 371 429
#     4  10  24  41  71 104 145 191 236 300 368 440
#
# _framework density 23.515861000000001
#
# number of rings (size 3 to 8) (size 9 to 14) (size 15 to 20)
#    0.000    1.200    2.000    2.400    5.600    4.000 
#   10.800    0.000    0.000    0.000    0.000    0.000 
#    0.000    0.000    0.000    0.000    0.000    0.000 
#
# Total GULP energy -223823.904110 kJ/mol
# GULP energy per Si atom -5595.597603 kJ/mol
# Density = 2.346234 g / cm^3
# Si number density = 23.515861 Si / 1000 Ang^3
#
#
#
# Elastic Constant Matrix: (Units=GPa)
#
#
# Indices 1 2 3 4 5 6 
#
# 1 119.4131 35.6271 19.0378 0.0000 0.0000 0.0000
# 2 35.6271 129.4737 28.6990 0.0000 0.0000 0.0000
# 3 19.0378 28.6990 103.6758 0.0000 0.0000 0.0000
# 4 0.0000 0.0000 0.0000 16.1455 0.0000 0.0000
# 5 0.0000 0.0000 0.0000 0.0000 19.3763 0.0000
# 6 0.0000 0.0000 0.0000 0.0000 0.0000 31.1607
#
#
#
# Elastic Compliance Matrix: (Units=1/GPa)
#
#
# Indices 1 2 3 4 5 6 
#
# 1 0.009231 -0.002306 -0.001057 0.000000 0.000000 0.000000
# 2 -0.002306 0.008804 -0.002014 0.000000 0.000000 0.000000
# 3 -0.001057 -0.002014 0.010397 0.000000 0.000000 0.000000
# 4 0.000000 0.000000 0.000000 0.061937 0.000000 0.000000
# 5 0.000000 0.000000 0.000000 0.000000 0.051609 0.000000
# 6 0.000000 0.000000 0.000000 0.000000 0.000000 0.032092
#
#
# Mechanical properties :
#
#
# Convention : Reuss Voigt Hill
#
# Bulk Modulus (GPa) = 56.56282 57.69895 57.13089
# Shear Modulus (GPa) = 26.21705 31.28310 28.75007
#
# Velocity S-wave (km/s) = 3.34258 3.65128 3.50034
# Velocity P-wave (km/s) = 6.24519 6.50886 6.37839
#
# Compressibility (1/GPa) = 0.01767946
#
# Stress axis : x y z
#
# Youngs Moduli (GPa) = 108.33423 113.57925 96.18210
#
# Poissons Ratio (x) = 0.26189 0.10164
# Poissons Ratio (y) = 0.24979 0.19369
# Poissons Ratio (z) = 0.11448 0.22872
#
# Static dielectric constant tensor:
#      x y z
#    x 1.903150 0.000000 0.000000 
#    y 0.000000 1.887590 0.000000 
#    z 0.000000 0.000000 1.880080 
# 
# From -- ./inp_files/8803.got.cif
#   From: 2010.05.17/outbox.cif.g08.bks.cpg/sg54_5_cif.got.tgz:8803.got - 2010.06.03 13:09:01.
