data_PCOD9423749
_publ_section_title
;
Structure prediction by ZEFSAII (Michael W. Deem and Ramdas Pophale) SiO2 
 PCOD9423749
Probable space group: P C C A
;
_chemical_formula_sum "Si O2"
_cell_formula_units_Z 40
_cell_length_a 11.181934
_cell_length_b 16.877104
_cell_length_c 9.046696
_cell_angle_alpha 90.000000
_cell_angle_beta 90.000000
_cell_angle_gamma 90.000000
_cell_volume 1707.280374
_symmetry_space_group_name_H-M "P C C A"
_symmetry_group_IT_number 54
_symmetry_cell_setting 'orthorhombic'
loop_
_space_group_symop_operation_xyz
x,y,z
1/2-x,-y,z
1/2+x,-y,1/2-z
-x,y,1/2-z
-x,-y,-z
1/2+x,y,-z
1/2-x,y,1/2+z
x,-y,1/2+z
loop_
_atom_site_type_symbol
_atom_site_label
_atom_site_fract_x
_atom_site_fract_y
_atom_site_fract_z
Si Si1 0.333550 0.611460 0.554612
Si Si2 0.500000 0.172647 0.750000
Si Si3 0.750000 0.500000 0.195715
Si Si4 0.627375 0.842500 0.705072
Si Si5 0.202878 0.088023 0.100470
Si Si6 0.581197 0.296941 0.003124
O O1 0.327689 0.554966 0.411169
O O2 0.326752 0.556885 0.699321
O O3 0.203616 0.658701 0.550262
O O4 0.461460 0.654695 0.543660
O O5 0.607737 0.110842 0.772817
O O6 0.529967 0.232455 0.884555
O O7 0.500000 0.873217 0.750000
O O8 0.667203 0.895977 0.567210
O O9 0.697697 0.847963 0.857035
O O10 0.622743 0.753931 0.644356
O O11 0.250000 0.000000 0.119025
#
# Coordination Sequence:
#
# PCOD9423749 Si02
#       6
#     8   4   4   8   8   8
#     4  11  25  44  70 102 143 197 237 315 366 452
#     4  10  24  44  72 108 142 190 252 310 358 452
#     4  10  26  44  68 104 144 186 256 292 376 456
#     4  11  28  45  74 108 145 191 254 307 367 463
#     4  11  26  48  74 106 153 196 245 311 386 446
#     4  11  25  44  75 104 151 192 255 307 383 432
#
# _framework density 23.429075999999998
#
# number of rings (size 3 to 8) (size 9 to 14) (size 15 to 20)
#    0.000    1.200    0.000    3.000   15.400    5.600 
#    0.000    0.000    0.000    0.000    0.000    0.000 
#    0.000    0.000    0.000    0.000    0.000    0.000 
#
# Total GULP energy -223302.025492 kJ/mol
# GULP energy per Si atom -5582.550637 kJ/mol
# Density = 2.337575 g / cm^3
# Si number density = 23.429076 Si / 1000 Ang^3
#
#
#
# Elastic Constant Matrix: (Units=GPa)
#
#
# Indices 1 2 3 4 5 6 
#
# 1 130.8380 59.3753 35.3698 0.0000 0.0000 0.0000
# 2 59.3753 143.3603 50.5855 0.0000 0.0000 0.0000
# 3 35.3698 50.5855 100.6815 0.0000 0.0000 0.0000
# 4 0.0000 0.0000 0.0000 16.3961 0.0000 0.0000
# 5 0.0000 0.0000 0.0000 0.0000 -89.7153 0.0000
# 6 0.0000 0.0000 0.0000 0.0000 0.0000 38.0735
#
#
#
# Elastic Compliance Matrix: (Units=1/GPa)
#
#
# Indices 1 2 3 4 5 6 
#
# 1 0.009640 -0.003400 -0.001678 0.000000 0.000000 0.000000
# 2 -0.003400 0.009678 -0.003668 0.000000 0.000000 0.000000
# 3 -0.001678 -0.003668 0.012365 0.000000 0.000000 0.000000
# 4 0.000000 0.000000 0.000000 0.060990 0.000000 0.000000
# 5 0.000000 0.000000 0.000000 0.000000 -0.011146 0.000000
# 6 0.000000 0.000000 0.000000 0.000000 0.000000 0.026265
#
#
# Mechanical properties :
#
#
# Convention : Reuss Voigt Hill
#
# Bulk Modulus (GPa) = 70.47344 73.94899 72.21121
# Shear Modulus (GPa) = 38.45743 8.25414 23.35578
#
# Velocity S-wave (km/s) = 4.05586 1.87901 3.16075
# Velocity P-wave (km/s) = 7.21652 6.02818 6.64895
#
# Compressibility (1/GPa) = 0.01418974
#
# Stress axis : x y z
#
# Youngs Moduli (GPa) = 103.73665 103.32680 80.87527
#
# Poissons Ratio (x) = 0.35135 0.13571
# Poissons Ratio (y) = 0.35275 0.29665
# Poissons Ratio (z) = 0.17407 0.37900
#
# Static dielectric constant tensor:
#      x y z
#    x 1.835600 0.000000 0.000000 
#    y 0.000000 1.928590 0.000000 
#    z 0.000000 0.000000 1.858710 
# 
# From -- ./inp_files/2971.got.cif
#   From: 2010.05.17/outbox.cif.g08.bks.cpg/sg54_2_cif.got.tgz:2971.got - 2010.06.03 13:09:01.
