data_PCOD9423697
_publ_section_title
;
Structure prediction by ZEFSAII (Michael W. Deem and Ramdas Pophale) SiO2 
 PCOD9423697
Probable space group: P C C A
;
_chemical_formula_sum "Si O2"
_cell_formula_units_Z 56
_cell_length_a 10.297081
_cell_length_b 18.002331
_cell_length_c 14.505646
_cell_angle_alpha 90.000000
_cell_angle_beta 90.000000
_cell_angle_gamma 90.000000
_cell_volume 2688.932784
_symmetry_space_group_name_H-M "P C C A"
_symmetry_group_IT_number 54
_symmetry_cell_setting 'orthorhombic'
loop_
_space_group_symop_operation_xyz
x,y,z
1/2-x,-y,z
1/2+x,-y,1/2-z
-x,y,1/2-z
-x,-y,-z
1/2+x,y,-z
1/2-x,y,1/2+z
x,-y,1/2+z
loop_
_atom_site_type_symbol
_atom_site_label
_atom_site_fract_x
_atom_site_fract_y
_atom_site_fract_z
Si Si1 0.150179 0.226721 0.279191
Si Si2 0.175641 0.214407 0.941435
Si Si3 0.130139 0.049410 0.001929
Si Si4 0.014539 0.661184 0.357842
Si Si5 0.775671 0.679792 0.889137
Si Si6 0.875106 0.551777 0.002520
Si Si7 0.649620 0.063048 0.780280
O O1 0.189742 0.230616 0.386213
O O2 0.214217 0.288878 0.214365
O O3 0.193705 0.143562 0.253852
O O4 0.000000 0.230386 0.250000
O O5 0.135336 0.128858 0.952040
O O6 0.069473 0.257388 0.880369
O O7 0.186218 0.253920 0.040812
O O8 0.250000 0.000000 0.967714
O O9 0.152141 0.065882 0.109504
O O10 0.000000 0.000000 0.000000
O O11 0.110809 0.604085 0.407868
O O12 0.000000 0.647317 0.250000
O O13 0.872920 0.655850 0.403798
O O14 0.863101 0.609291 0.916878
O O15 0.750000 0.500000 0.005492
O O16 0.000000 0.500000 0.000000
O O17 0.500000 0.049289 0.750000
O O18 0.750000 0.000000 0.749745
#
# Coordination Sequence:
#
# PCOD9423697 Si02
#       7
#     8   8   8   8   8   8   8
#     4  11  25  42  68  99 135 185 237 289 358 414
#     4  11  26  42  72  97 137 186 233 296 353 418
#     4  11  27  43  64  98 135 184 239 292 365 415
#     4  11  24  45  71 106 138 177 233 280 346 417
#     4  11  24  45  71 101 143 173 235 285 337 424
#     4  11  24  47  75 104 142 186 218 276 348 412
#     4  10  24  43  63  94 135 177 236 293 358 421
#
# _framework density 20.826105999999999
#
# number of rings (size 3 to 8) (size 9 to 14) (size 15 to 20)
#    0.000    1.143    4.286    0.000   12.000    0.000 
#    2.571    0.000    0.000    0.000    0.000    0.000 
#    0.000    0.000    0.000    0.000    0.000    0.000 
#
# Total GULP energy -312879.429188 kJ/mol
# GULP energy per Si atom -5587.132664 kJ/mol
# Density = 2.077871 g / cm^3
# Si number density = 20.826106 Si / 1000 Ang^3
#
#
#
# Elastic Constant Matrix: (Units=GPa)
#
#
# Indices 1 2 3 4 5 6 
#
# 1 93.5815 59.3318 2.1100 0.0000 0.0000 0.0000
# 2 59.3318 155.8872 34.7675 0.0000 0.0000 0.0000
# 3 2.1100 34.7675 75.5574 0.0000 0.0000 0.0000
# 4 0.0000 0.0000 0.0000 10.1859 0.0000 0.0000
# 5 0.0000 0.0000 0.0000 0.0000 29.9391 0.0000
# 6 0.0000 0.0000 0.0000 0.0000 0.0000 32.3338
#
#
#
# Elastic Compliance Matrix: (Units=1/GPa)
#
#
# Indices 1 2 3 4 5 6 
#
# 1 0.014456 -0.006031 0.002371 0.000000 0.000000 0.000000
# 2 -0.006031 0.009665 -0.004279 0.000000 0.000000 0.000000
# 3 0.002371 -0.004279 0.015138 0.000000 0.000000 0.000000
# 4 0.000000 0.000000 0.000000 0.098175 0.000000 0.000000
# 5 0.000000 0.000000 0.000000 0.000000 0.033401 0.000000
# 6 0.000000 0.000000 0.000000 0.000000 0.000000 0.030927
#
#
# Mechanical properties :
#
#
# Convention : Reuss Voigt Hill
#
# Bulk Modulus (GPa) = 42.76833 57.49384 50.13109
# Shear Modulus (GPa) = 22.17963 29.74622 25.96293
#
# Velocity S-wave (km/s) = 3.26696 3.78340 3.53463
# Velocity P-wave (km/s) = 5.90010 6.83755 6.38605
#
# Compressibility (1/GPa) = 0.02338179
#
# Stress axis : x y z
#
# Youngs Moduli (GPa) = 69.17478 103.47007 66.06066
#
# Poissons Ratio (x) = 0.62403 -0.15666
# Poissons Ratio (y) = 0.41719 0.28266
# Poissons Ratio (z) = -0.16405 0.44272
#
# Static dielectric constant tensor:
#      x y z
#    x 1.787510 0.000000 0.000000 
#    y 0.000000 1.730030 0.000000 
#    z 0.000000 0.000000 1.755250 
# 
# From -- ./inp_files/12744.got.cif
#   From: 2010.05.17/outbox.cif.g08.bks.cpg/sg54_7_cif.got.tgz:12744.got - 2010.06.03 13:09:01.
