data_PCOD9423820
_publ_section_title
;
Structure prediction by ZEFSAII (Michael W. Deem and Ramdas Pophale) SiO2 
 PCOD9423820
Probable space group: P C C A
;
_chemical_formula_sum "Si O2"
_cell_formula_units_Z 56
_cell_length_a 14.409689
_cell_length_b 5.483194
_cell_length_c 29.814055
_cell_angle_alpha 90.000000
_cell_angle_beta 90.000000
_cell_angle_gamma 90.000000
_cell_volume 2355.641885
_symmetry_space_group_name_H-M "P C C A"
_symmetry_group_IT_number 54
_symmetry_cell_setting 'orthorhombic'
loop_
_space_group_symop_operation_xyz
x,y,z
1/2-x,-y,z
1/2+x,-y,1/2-z
-x,y,1/2-z
-x,-y,-z
1/2+x,y,-z
1/2-x,y,1/2+z
x,-y,1/2+z
loop_
_atom_site_type_symbol
_atom_site_label
_atom_site_fract_x
_atom_site_fract_y
_atom_site_fract_z
Si Si1 0.935393 0.099159 0.040186
Si Si2 0.347233 0.883226 0.169766
Si Si3 0.004280 0.848650 0.122214
Si Si4 0.154652 0.755655 0.772309
Si Si5 0.639493 0.541864 0.412458
Si Si6 0.648160 0.614682 0.513393
Si Si7 0.134221 0.739437 0.308127
O O1 0.974259 0.070876 0.090399
O O2 0.859736 0.875327 0.037976
O O3 0.910312 0.380557 0.030861
O O4 0.000000 0.000000 0.000000
O O5 0.330850 0.782386 0.219346
O O6 0.374844 0.680984 0.134017
O O7 0.250000 0.000000 0.154730
O O8 0.428294 0.080399 0.163486
O O9 0.911437 0.730150 0.142799
O O10 0.070618 0.686605 0.090688
O O11 0.253896 0.746076 0.798934
O O12 0.103356 0.505757 0.783309
O O13 0.104699 0.000160 0.788192
O O14 0.750000 0.500000 0.412277
O O15 0.624704 0.661425 0.460935
O O16 0.750000 0.500000 0.515639
#
# Coordination Sequence:
#
# PCOD9423820 Si02
#       7
#     8   8   8   8   8   8   8
#     4  12  25  48  75 108 152 194 243 317 375 445
#     4  12  25  45  72 105 146 196 246 307 375 444
#     4  12  28  44  72 112 144 193 252 307 371 448
#     4  10  24  50  72  97 146 194 239 303 371 430
#     4  11  25  42  71 107 146 190 246 308 368 442
#     4  11  26  49  75 105 146 199 249 300 381 457
#     4  10  24  47  72 101 139 189 245 296 366 434
#
# _framework density 23.772715000000002
#
# number of rings (size 3 to 8) (size 9 to 14) (size 15 to 20)
#    0.000    0.857    4.286    1.714    8.000    0.571 
#    7.714    0.000    0.000    0.000    0.000    0.000 
#    0.000    0.000    0.000    0.000    0.000    0.000 
#
# Total GULP energy -312553.758768 kJ/mol
# GULP energy per Si atom -5581.317121 kJ/mol
# Density = 2.371861 g / cm^3
# Si number density = 23.772715 Si / 1000 Ang^3
#
#
#
# Elastic Constant Matrix: (Units=GPa)
#
#
# Indices 1 2 3 4 5 6 
#
# 1 90.4057 6.8193 47.5867 0.0000 0.0000 0.0000
# 2 6.8193 121.9780 17.1803 0.0000 0.0000 0.0000
# 3 47.5867 17.1803 84.4973 0.0000 0.0000 0.0000
# 4 0.0000 0.0000 0.0000 21.1042 0.0000 0.0000
# 5 0.0000 0.0000 0.0000 0.0000 -47.8944 0.0000
# 6 0.0000 0.0000 0.0000 0.0000 0.0000 22.1145
#
#
#
# Elastic Compliance Matrix: (Units=1/GPa)
#
#
# Indices 1 2 3 4 5 6 
#
# 1 0.015739 0.000379 -0.008941 0.000000 0.000000 0.000000
# 2 0.000379 0.008449 -0.001932 0.000000 0.000000 0.000000
# 3 -0.008941 -0.001932 0.017263 0.000000 0.000000 0.000000
# 4 0.000000 0.000000 0.000000 0.047384 0.000000 0.000000
# 5 0.000000 0.000000 0.000000 0.000000 -0.020879 0.000000
# 6 0.000000 0.000000 0.000000 0.000000 0.000000 0.045219
#
#
# Mechanical properties :
#
#
# Convention : Reuss Voigt Hill
#
# Bulk Modulus (GPa) = 48.86502 48.89486 48.87994
# Shear Modulus (GPa) = 35.46552 14.08450 24.77501
#
# Velocity S-wave (km/s) = 3.86665 2.43670 3.23176
# Velocity P-wave (km/s) = 6.36666 5.34125 5.87636
#
# Compressibility (1/GPa) = 0.02046454
#
# Stress axis : x y z
#
# Youngs Moduli (GPa) = 63.53722 118.35660 57.92840
#
# Poissons Ratio (x) = -0.04490 0.51793
# Poissons Ratio (y) = -0.02411 0.11189
# Poissons Ratio (z) = 0.56808 0.22861
#
# Static dielectric constant tensor:
#      x y z
#    x 2.005660 0.000000 0.000000 
#    y 0.000000 2.021650 0.000000 
#    z 0.000000 0.000000 1.849580 
# 
# From -- ./inp_files/28246.got.cif
#   From: 2010.05.17/outbox.cif.g08.bks.cpg/sg54_15_cif.got.tgz:28246.got - 2010.06.03 13:09:01.
