data_PCOD9423936
_publ_section_title
;
Structure prediction by ZEFSAII (Michael W. Deem and Ramdas Pophale) SiO2 
 PCOD9423936
Probable space group: P C C A
;
_chemical_formula_sum "Si O2"
_cell_formula_units_Z 20
_cell_length_a 4.858988
_cell_length_b 8.553509
_cell_length_c 18.050970
_cell_angle_alpha 90.000000
_cell_angle_beta 90.000000
_cell_angle_gamma 90.000000
_cell_volume 750.223541
_symmetry_space_group_name_H-M "P C C A"
_symmetry_group_IT_number 54
_symmetry_cell_setting 'orthorhombic'
loop_
_space_group_symop_operation_xyz
x,y,z
1/2-x,-y,z
1/2+x,-y,1/2-z
-x,y,1/2-z
-x,-y,-z
1/2+x,y,-z
1/2-x,y,1/2+z
x,-y,1/2+z
loop_
_atom_site_type_symbol
_atom_site_label
_atom_site_fract_x
_atom_site_fract_y
_atom_site_fract_z
Si Si1 0.623302 0.339660 0.831997
Si Si2 0.762697 0.812313 0.048246
Si Si3 0.500000 0.891774 0.750000
O O1 0.750000 0.500000 0.860507
O O2 0.500000 0.373014 0.750000
O O3 0.385651 0.275280 0.884721
O O4 0.857375 0.211654 0.813211
O O5 0.750000 0.000000 0.058354
O O6 0.570572 0.773850 0.976691
O O7 0.250000 0.000000 0.776863
#
# Coordination Sequence:
#
# PCOD9423936 Si02
#       3
#     8   8   4
#     4  12  28  49  79 120 166 206 265 338 408 476
#     4  10  26  50  78 115 160 212 272 330 395 480
#     4  12  28  46  74 114 154 206 262 324 396 472
#
# _framework density 26.658719999999999
#
# number of rings (size 3 to 8) (size 9 to 14) (size 15 to 20)
#    0.000    0.800    4.000    0.000   11.200    3.200 
#    0.000    0.000    0.000    0.000    0.000    0.000 
#    0.000    3.200    0.000    0.000    0.000    0.000 
#
# Total GULP energy -112338.023210 kJ/mol
# GULP energy per Si atom -5616.901160 kJ/mol
# Density = 2.659804 g / cm^3
# Si number density = 26.658720 Si / 1000 Ang^3
#
#
#
# Elastic Constant Matrix: (Units=GPa)
#
#
# Indices 1 2 3 4 5 6 
#
# 1 158.6697 56.0864 20.4555 0.0000 0.0000 0.0000
# 2 56.0864 154.9060 43.8405 0.0000 0.0000 0.0000
# 3 20.4555 43.8405 144.6124 0.0000 0.0000 0.0000
# 4 0.0000 0.0000 0.0000 10.7866 0.0000 0.0000
# 5 0.0000 0.0000 0.0000 0.0000 40.1867 0.0000
# 6 0.0000 0.0000 0.0000 0.0000 0.0000 57.8706
#
#
#
# Elastic Compliance Matrix: (Units=1/GPa)
#
#
# Indices 1 2 3 4 5 6 
#
# 1 0.007236 -0.002549 -0.000251 0.000000 0.000000 0.000000
# 2 -0.002549 0.007959 -0.002052 0.000000 0.000000 0.000000
# 3 -0.000251 -0.002052 0.007573 0.000000 0.000000 0.000000
# 4 0.000000 0.000000 0.000000 0.092708 0.000000 0.000000
# 5 0.000000 0.000000 0.000000 0.000000 0.024884 0.000000
# 6 0.000000 0.000000 0.000000 0.000000 0.000000 0.017280
#
#
# Mechanical properties :
#
#
# Convention : Reuss Voigt Hill
#
# Bulk Modulus (GPa) = 76.54840 77.66142 77.10491
# Shear Modulus (GPa) = 29.12091 44.28917 36.70504
#
# Velocity S-wave (km/s) = 3.30867 4.08037 3.71462
# Velocity P-wave (km/s) = 6.58581 7.16898 6.88357
#
# Compressibility (1/GPa) = 0.01306363
#
# Stress axis : x y z
#
# Youngs Moduli (GPa) = 138.20389 125.64040 132.05322
#
# Poissons Ratio (x) = 0.32024 0.03312
# Poissons Ratio (y) = 0.35226 0.27102
# Poissons Ratio (z) = 0.03466 0.25786
#
# Static dielectric constant tensor:
#      x y z
#    x 2.128900 0.000000 0.000000 
#    y 0.000000 2.015510 0.000000 
#    z 0.000000 0.000000 2.188630 
# 
# From -- ./inp_files/15510.got.cif
#   From: 2010.05.17/outbox.cif.g08.bks.cpg/sg54_8_cif.got.tgz:15510.got - 2010.06.03 13:09:01.
