data_PCOD9423677
_publ_section_title
;
Structure prediction by ZEFSAII (Michael W. Deem and Ramdas Pophale) SiO2 
 PCOD9423677
Probable space group: P C C A
;
_chemical_formula_sum "Si O2"
_cell_formula_units_Z 36
_cell_length_a 8.987879
_cell_length_b 8.411478
_cell_length_c 18.630665
_cell_angle_alpha 90.000000
_cell_angle_beta 90.000000
_cell_angle_gamma 90.000000
_cell_volume 1408.503360
_symmetry_space_group_name_H-M "P C C A"
_symmetry_group_IT_number 54
_symmetry_cell_setting 'orthorhombic'
loop_
_space_group_symop_operation_xyz
x,y,z
1/2-x,-y,z
1/2+x,-y,1/2-z
-x,y,1/2-z
-x,-y,-z
1/2+x,y,-z
1/2-x,y,1/2+z
x,-y,1/2+z
loop_
_atom_site_type_symbol
_atom_site_label
_atom_site_fract_x
_atom_site_fract_y
_atom_site_fract_z
Si Si1 0.841637 0.844568 0.475758
Si Si2 0.250000 0.500000 0.081757
Si Si3 0.654450 0.193121 0.104692
Si Si4 0.500000 0.790902 0.250000
Si Si5 0.541298 0.506300 0.673304
Si Si6 0.750000 0.000000 0.737205
O O1 0.777826 0.668724 0.456766
O O2 0.805508 0.843851 0.561031
O O3 0.010098 0.848130 0.445551
O O4 0.750000 0.000000 0.448721
O O5 0.391251 0.524191 0.131275
O O6 0.634758 0.377980 0.124202
O O7 0.653211 0.102346 0.180406
O O8 0.412187 0.669269 0.301714
O O9 0.632558 0.896626 0.281197
O O10 0.500000 0.586393 0.750000
#
# Coordination Sequence:
#
# PCOD9423677 Si02
#       6
#     8   4   8   4   8   4
#     4  11  25  46  72 106 152 195 247 308 368 446
#     4  10  24  42  68 104 142 200 252 298 376 444
#     4  11  26  47  75 108 152 191 255 300 378 443
#     4  10  28  44  74 104 150 190 248 306 386 438
#     4   9  24  46  70 103 140 197 242 311 363 444
#     4  12  28  46  72 114 144 200 242 316 368 460
#
# _framework density 25.559045999999999
#
# number of rings (size 3 to 8) (size 9 to 14) (size 15 to 20)
#    0.667    0.889    1.111    0.667    7.778    8.000 
#    0.000    0.000    0.000    0.000    0.000    0.000 
#    0.000    0.000    0.000    0.000    0.000    0.000 
#
# Total GULP energy -200986.357040 kJ/mol
# GULP energy per Si atom -5582.954362 kJ/mol
# Density = 2.550087 g / cm^3
# Si number density = 25.559046 Si / 1000 Ang^3
#
#
#
# Elastic Constant Matrix: (Units=GPa)
#
#
# Indices 1 2 3 4 5 6 
#
# 1 114.5797 55.3005 16.5207 0.0000 0.0000 0.0000
# 2 55.3005 150.5940 26.4889 0.0000 0.0000 0.0000
# 3 16.5207 26.4889 65.6298 0.0000 0.0000 0.0000
# 4 0.0000 0.0000 0.0000 13.6614 0.0000 0.0000
# 5 0.0000 0.0000 0.0000 0.0000 36.6451 0.0000
# 6 0.0000 0.0000 0.0000 0.0000 0.0000 -21.5681
#
#
#
# Elastic Compliance Matrix: (Units=1/GPa)
#
#
# Indices 1 2 3 4 5 6 
#
# 1 0.010693 -0.003717 -0.001192 0.000000 0.000000 0.000000
# 2 -0.003717 0.008440 -0.002471 0.000000 0.000000 0.000000
# 3 -0.001192 -0.002471 0.016534 0.000000 0.000000 0.000000
# 4 0.000000 0.000000 0.000000 0.073199 0.000000 0.000000
# 5 0.000000 0.000000 0.000000 0.000000 0.027289 0.000000
# 6 0.000000 0.000000 0.000000 0.000000 0.000000 -0.046365
#
#
# Mechanical properties :
#
#
# Convention : Reuss Voigt Hill
#
# Bulk Modulus (GPa) = 47.82720 58.60265 53.21493
# Shear Modulus (GPa) = 44.83547 21.24725 33.04136
#
# Velocity S-wave (km/s) = 4.19285 2.88636 3.59938
# Velocity P-wave (km/s) = 6.49562 5.83834 6.17573
#
# Compressibility (1/GPa) = 0.02090860
#
# Stress axis : x y z
#
# Youngs Moduli (GPa) = 93.51554 118.48365 60.48093
#
# Poissons Ratio (x) = 0.44043 0.07206
# Poissons Ratio (y) = 0.34762 0.14943
# Poissons Ratio (z) = 0.11142 0.29274
#
# Static dielectric constant tensor:
#      x y z
#    x 2.034810 0.000000 0.000000 
#    y 0.000000 2.155480 0.000000 
#    z 0.000000 0.000000 2.054970 
# 
# From -- ./inp_files/20188.got.cif
#   From: 2010.05.17/outbox.cif.g08.bks.cpg/sg54_11_cif.got.tgz:20188.got - 2010.06.03 13:09:01.
