data_PCOD9423358
_publ_section_title
;
Structure prediction by ZEFSAII (Michael W. Deem and Ramdas Pophale) SiO2 
 PCOD9423358
Probable space group: P C C A
;
_chemical_formula_sum "Si O2"
_cell_formula_units_Z 52
_cell_length_a 9.022297
_cell_length_b 24.799020
_cell_length_c 11.579260
_cell_angle_alpha 90.000000
_cell_angle_beta 90.000000
_cell_angle_gamma 90.000000
_cell_volume 2590.791382
_symmetry_space_group_name_H-M "P C C A"
_symmetry_group_IT_number 54
_symmetry_cell_setting 'orthorhombic'
loop_
_space_group_symop_operation_xyz
x,y,z
1/2-x,-y,z
1/2+x,-y,1/2-z
-x,y,1/2-z
-x,-y,-z
1/2+x,y,-z
1/2-x,y,1/2+z
x,-y,1/2+z
loop_
_atom_site_type_symbol
_atom_site_label
_atom_site_fract_x
_atom_site_fract_y
_atom_site_fract_z
Si Si1 0.323610 0.601358 0.560668
Si Si2 0.750000 0.500000 0.088133
Si Si3 0.534084 0.656448 0.376417
Si Si4 0.000000 0.239274 0.250000
Si Si5 0.753191 0.937102 0.149531
Si Si6 0.000000 0.464763 0.750000
Si Si7 0.201311 0.848074 0.660917
Si Si8 0.970750 0.885197 0.471389
O O1 0.245341 0.552897 0.490617
O O2 0.439932 0.628872 0.475531
O O3 0.204644 0.645304 0.598584
O O4 0.400371 0.573200 0.669359
O O5 0.605472 0.499752 0.168304
O O6 0.500000 0.631800 0.250000
O O7 0.496251 0.719356 0.357532
O O8 0.855963 0.201720 0.262874
O O9 0.704837 0.900767 0.257841
O O10 0.916887 0.918404 0.109445
O O11 0.750000 0.000000 0.176342
O O12 0.640014 0.923275 0.044914
O O13 0.362327 0.846445 0.601641
O O14 0.076956 0.854982 0.562077
#
# Coordination Sequence:
#
# PCOD9423358 Si02
#       8
#     8   4   8   4   8   4   8   8
#     4  12  24  47  68 106 139 187 231 290 353 425
#     4  12  26  42  70 104 148 190 230 286 356 426
#     4  10  26  45  72  96 140 176 241 294 350 408
#     4  10  24  47  72  92 132 177 232 300 346 414
#     4  11  22  39  64  97 140 178 224 283 353 421
#     4  12  26  39  72 104 146 187 238 278 356 428
#     4  11  22  44  64  96 130 173 229 281 348 420
#     4  10  23  38  65  93 133 173 224 279 338 431
#
# _framework density 20.071086999999999
#
# number of rings (size 3 to 8) (size 9 to 14) (size 15 to 20)
#    0.462    0.615    3.077    2.769    3.231    6.154 
#    0.000    0.000    6.769    0.000    0.000    0.000 
#    0.000    0.000    0.000    0.000    0.000    0.000 
#
# Total GULP energy -290569.889298 kJ/mol
# GULP energy per Si atom -5587.882486 kJ/mol
# Density = 2.002540 g / cm^3
# Si number density = 20.071087 Si / 1000 Ang^3
#
#
#
# Elastic Constant Matrix: (Units=GPa)
#
#
# Indices 1 2 3 4 5 6 
#
# 1 120.9308 35.4980 42.1118 0.0000 0.0000 0.0000
# 2 35.4980 99.0392 28.1530 0.0000 0.0000 0.0000
# 3 42.1118 28.1530 85.1722 0.0000 0.0000 0.0000
# 4 0.0000 0.0000 0.0000 16.2210 0.0000 0.0000
# 5 0.0000 0.0000 0.0000 0.0000 45.2221 0.0000
# 6 0.0000 0.0000 0.0000 0.0000 0.0000 -43.5937
#
#
#
# Elastic Compliance Matrix: (Units=1/GPa)
#
#
# Indices 1 2 3 4 5 6 
#
# 1 0.010535 -0.002533 -0.004372 0.000000 0.000000 0.000000
# 2 -0.002533 0.011753 -0.002632 0.000000 0.000000 0.000000
# 3 -0.004372 -0.002632 0.014772 0.000000 0.000000 0.000000
# 4 0.000000 0.000000 0.000000 0.061648 0.000000 0.000000
# 5 0.000000 0.000000 0.000000 0.000000 0.022113 0.000000
# 6 0.000000 0.000000 0.000000 0.000000 0.000000 -0.022939
#
#
# Mechanical properties :
#
#
# Convention : Reuss Voigt Hill
#
# Bulk Modulus (GPa) = 55.59776 57.40755 56.50265
# Shear Modulus (GPa) = 40.66588 16.86186 28.76387
#
# Velocity S-wave (km/s) = 4.50610 2.90160 3.78974
# Velocity P-wave (km/s) = 7.40498 6.31585 6.88200
#
# Compressibility (1/GPa) = 0.01798634
#
# Stress axis : x y z
#
# Youngs Moduli (GPa) = 94.92047 85.08234 67.69364
#
# Poissons Ratio (x) = 0.21555 0.29592
# Poissons Ratio (y) = 0.24047 0.17820
# Poissons Ratio (z) = 0.41495 0.22397
#
# Static dielectric constant tensor:
#      x y z
#    x 1.651170 0.000000 0.000000 
#    y 0.000000 1.676880 0.000000 
#    z 0.000000 0.000000 1.727270 
# 
# From -- ./inp_files/6997.got.cif
#   From: 2010.05.17/outbox.cif.g08.bks.cpg/sg54_4_cif.got.tgz:6997.got - 2010.06.03 13:09:01.
