data_PCOD9423306
_publ_section_title
;
Structure prediction by ZEFSAII (Michael W. Deem and Ramdas Pophale) SiO2 
 PCOD9423306
Probable space group: P C C A
;
_chemical_formula_sum "Si O2"
_cell_formula_units_Z 48
_cell_length_a 12.757820
_cell_length_b 9.861793
_cell_length_c 13.809881
_cell_angle_alpha 90.000000
_cell_angle_beta 90.000000
_cell_angle_gamma 90.000000
_cell_volume 1737.489901
_symmetry_space_group_name_H-M "P C C A"
_symmetry_group_IT_number 54
_symmetry_cell_setting 'orthorhombic'
loop_
_space_group_symop_operation_xyz
x,y,z
1/2-x,-y,z
1/2+x,-y,1/2-z
-x,y,1/2-z
-x,-y,-z
1/2+x,y,-z
1/2-x,y,1/2+z
x,-y,1/2+z
loop_
_atom_site_type_symbol
_atom_site_label
_atom_site_fract_x
_atom_site_fract_y
_atom_site_fract_z
Si Si1 0.131979 0.519901 0.669525
Si Si2 0.500000 0.760687 0.250000
Si Si3 0.373408 0.765512 0.439788
Si Si4 0.092759 0.460909 0.885980
Si Si5 0.545616 0.068800 0.404495
Si Si6 0.250000 0.000000 0.199078
Si Si7 0.169067 0.178191 0.863816
O O1 0.250000 0.500000 0.633157
O O2 0.122062 0.440053 0.771451
O O3 0.094174 0.667573 0.706168
O O4 0.032120 0.480461 0.604957
O O5 0.641459 0.987371 0.358861
O O6 0.358840 0.604738 0.418051
O O7 0.409650 0.792789 0.548264
O O8 0.268125 0.853244 0.431563
O O9 0.448490 0.814722 0.350007
O O10 0.134263 0.317565 0.919804
O O11 0.442146 0.107474 0.346371
O O12 0.500000 0.000000 0.500000
O O13 0.273781 0.134995 0.262996
#
# Coordination Sequence:
#
# PCOD9423306 Si02
#       7
#     8   4   8   8   8   4   8
#     4   8  14  29  54  98 152 187 243 312 388 479
#     4   8  18  34  64 106 142 204 246 310 404 498
#     4  10  22  45  76 113 159 205 255 341 415 490
#     4   9  20  37  68 111 156 198 256 327 413 497
#     4  12  28  50  74 107 155 207 275 341 408 485
#     4  12  30  50  74 112 146 218 282 338 396 478
#     4  12  25  47  81 109 155 208 278 336 406 510
#
# _framework density 27.626059000000001
#
# number of rings (size 3 to 8) (size 9 to 14) (size 15 to 20)
#    0.000    2.333    0.000    5.000    7.000    0.667 
#    0.000    1.667    0.000    2.000    0.000    0.000 
#    0.000    0.000    0.000    0.000    0.000    0.000 
#
# Total GULP energy -267541.563046 kJ/mol
# GULP energy per Si atom -5573.782563 kJ/mol
# Density = 2.756318 g / cm^3
# Si number density = 27.626059 Si / 1000 Ang^3
#
#
#
# Elastic Constant Matrix: (Units=GPa)
#
#
# Indices 1 2 3 4 5 6 
#
# 1 283.4580 63.6080 58.6133 0.0000 0.0000 0.0000
# 2 63.6080 130.0666 13.2162 0.0000 0.0000 0.0000
# 3 58.6133 13.2162 77.8063 0.0000 0.0000 0.0000
# 4 0.0000 0.0000 0.0000 23.8986 0.0000 0.0000
# 5 0.0000 0.0000 0.0000 0.0000 46.3636 0.0000
# 6 0.0000 0.0000 0.0000 0.0000 0.0000 29.5850
#
#
#
# Elastic Compliance Matrix: (Units=1/GPa)
#
#
# Indices 1 2 3 4 5 6 
#
# 1 0.004613 -0.001936 -0.003146 0.000000 0.000000 0.000000
# 2 -0.001936 0.008636 -0.000008 0.000000 0.000000 0.000000
# 3 -0.003146 -0.000008 0.015224 0.000000 0.000000 0.000000
# 4 0.000000 0.000000 0.000000 0.041843 0.000000 0.000000
# 5 0.000000 0.000000 0.000000 0.000000 0.021569 0.000000
# 6 0.000000 0.000000 0.000000 0.000000 0.000000 0.033801
#
#
# Mechanical properties :
#
#
# Convention : Reuss Voigt Hill
#
# Bulk Modulus (GPa) = 54.67002 84.68952 69.67977
# Shear Modulus (GPa) = 35.22010 43.69568 39.45789
#
# Velocity S-wave (km/s) = 3.57443 3.98135 3.78337
# Velocity P-wave (km/s) = 6.07187 7.20119 6.66051
#
# Compressibility (1/GPa) = 0.01829156
#
# Stress axis : x y z
#
# Youngs Moduli (GPa) = 216.78344 115.79291 65.68621
#
# Poissons Ratio (x) = 0.22420 0.20666
# Poissons Ratio (y) = 0.41974 0.00055
# Poissons Ratio (z) = 0.68203 0.00097
#
# Static dielectric constant tensor:
#      x y z
#    x 2.151560 0.000000 0.000000 
#    y 0.000000 2.577100 0.000000 
#    z 0.000000 0.000000 2.277900 
# 
# From -- ./inp_files/24132.got.cif
#   From: 2010.05.17/outbox.cif.g08.bks.cpg/sg54_13_cif.got.tgz:24132.got - 2010.06.03 13:09:01.
