data_PCOD9423442
_publ_section_title
;
Structure prediction by ZEFSAII (Michael W. Deem and Ramdas Pophale) SiO2 
 PCOD9423442
Probable space group: P C C A
;
_chemical_formula_sum "Si O2"
_cell_formula_units_Z 60
_cell_length_a 7.864216
_cell_length_b 19.891602
_cell_length_c 16.996140
_cell_angle_alpha 90.000000
_cell_angle_beta 90.000000
_cell_angle_gamma 90.000000
_cell_volume 2658.737703
_symmetry_space_group_name_H-M "P C C A"
_symmetry_group_IT_number 54
_symmetry_cell_setting 'orthorhombic'
loop_
_space_group_symop_operation_xyz
x,y,z
1/2-x,-y,z
1/2+x,-y,1/2-z
-x,y,1/2-z
-x,-y,-z
1/2+x,y,-z
1/2-x,y,1/2+z
x,-y,1/2+z
loop_
_atom_site_type_symbol
_atom_site_label
_atom_site_fract_x
_atom_site_fract_y
_atom_site_fract_z
Si Si1 0.001988 0.514697 0.658792
Si Si2 0.006626 0.282778 0.842096
Si Si3 0.130287 0.169470 0.563930
Si Si4 0.807976 0.633271 0.911557
Si Si5 0.825903 0.925250 0.302001
Si Si6 0.498935 0.232531 0.591320
Si Si7 0.000000 0.165417 0.250000
Si Si8 0.305396 0.599378 0.908308
O O1 0.968401 0.449917 0.604425
O O2 0.841479 0.561880 0.638300
O O3 0.000000 0.494666 0.750000
O O4 0.151720 0.566419 0.638254
O O5 0.006643 0.213538 0.888458
O O6 0.840860 0.324402 0.870789
O O7 0.000000 0.271970 0.750000
O O8 0.159284 0.329531 0.868952
O O9 0.130970 0.097858 0.607844
O O10 0.312537 0.200348 0.582977
O O11 0.101755 0.190303 0.473800
O O12 0.964115 0.687737 0.920011
O O13 0.771213 0.609516 0.000097
O O14 0.667839 0.878732 0.271425
O O15 0.000000 0.919714 0.250000
O O16 0.750000 0.000000 0.299888
O O17 0.554594 0.213253 0.678306
#
# Coordination Sequence:
#
# PCOD9423442 Si02
#       8
#     8   8   8   8   8   8   4   8
#     4  11  25  41  61  92 123 168 223 275 340 416
#     4  11  22  40  64  95 131 170 223 284 342 408
#     4  10  23  42  65 105 136 183 231 282 349 420
#     4  11  23  41  64  96 127 178 222 278 352 415
#     4  11  23  45  74 106 146 195 240 290 353 428
#     4  10  23  42  68 101 144 180 231 293 348 416
#     4  10  24  46  70 106 146 188 242 296 352 418
#     4  11  23  42  63  88 126 171 216 282 338 409
#
# _framework density 22.567101000000001
#
# number of rings (size 3 to 8) (size 9 to 14) (size 15 to 20)
#    0.000    1.333    2.000    2.800    4.667    2.667 
#    2.400    3.333    0.000    0.000    0.000    0.000 
#    0.000    0.000    0.000    0.000    0.000    0.000 
#
# Total GULP energy -335372.712812 kJ/mol
# GULP energy per Si atom -5589.545214 kJ/mol
# Density = 2.251574 g / cm^3
# Si number density = 22.567101 Si / 1000 Ang^3
#
#
#
# Elastic Constant Matrix: (Units=GPa)
#
#
# Indices 1 2 3 4 5 6 
#
# 1 77.7483 26.8699 12.4617 0.0000 0.0000 0.0000
# 2 26.8699 80.7060 35.3328 0.0000 0.0000 0.0000
# 3 12.4617 35.3328 169.2391 0.0000 0.0000 0.0000
# 4 0.0000 0.0000 0.0000 23.5060 0.0000 0.0000
# 5 0.0000 0.0000 0.0000 0.0000 39.5279 0.0000
# 6 0.0000 0.0000 0.0000 0.0000 0.0000 14.7323
#
#
#
# Elastic Compliance Matrix: (Units=1/GPa)
#
#
# Indices 1 2 3 4 5 6 
#
# 1 0.014535 -0.004810 -0.000066 0.000000 0.000000 0.000000
# 2 -0.004810 0.015229 -0.002825 0.000000 0.000000 0.000000
# 3 -0.000066 -0.002825 0.006503 0.000000 0.000000 0.000000
# 4 0.000000 0.000000 0.000000 0.042542 0.000000 0.000000
# 5 0.000000 0.000000 0.000000 0.000000 0.025299 0.000000
# 6 0.000000 0.000000 0.000000 0.000000 0.000000 0.067878
#
#
# Mechanical properties :
#
#
# Convention : Reuss Voigt Hill
#
# Bulk Modulus (GPa) = 47.92836 53.00245 50.46541
# Shear Modulus (GPa) = 25.72749 32.42185 29.07467
#
# Velocity S-wave (km/s) = 3.38012 3.79448 3.59327
# Velocity P-wave (km/s) = 6.04300 6.53720 6.29495
#
# Compressibility (1/GPa) = 0.02086447
#
# Stress axis : x y z
#
# Youngs Moduli (GPa) = 68.79921 65.66390 153.76346
#
# Poissons Ratio (x) = 0.31587 0.01015
# Poissons Ratio (y) = 0.33095 0.43442
# Poissons Ratio (z) = 0.00454 0.18552
#
# Static dielectric constant tensor:
#      x y z
#    x 2.018570 0.000000 0.000000 
#    y 0.000000 1.867300 0.000000 
#    z 0.000000 0.000000 1.908660 
# 
# From -- ./inp_files/16807.got.cif
#   From: 2010.05.17/outbox.cif.g08.bks.cpg/sg54_9_cif.got.tgz:16807.got - 2010.06.03 13:09:01.
