data_PCOD9423252
_publ_section_title
;
Structure prediction by ZEFSAII (Michael W. Deem and Ramdas Pophale) SiO2 
 PCOD9423252
Probable space group: P C C A
;
_chemical_formula_sum "Si O2"
_cell_formula_units_Z 40
_cell_length_a 8.969285
_cell_length_b 8.337265
_cell_length_c 24.613871
_cell_angle_alpha 90.000000
_cell_angle_beta 90.000000
_cell_angle_gamma 90.000000
_cell_volume 1840.608189
_symmetry_space_group_name_H-M "P C C A"
_symmetry_group_IT_number 54
_symmetry_cell_setting 'orthorhombic'
loop_
_space_group_symop_operation_xyz
x,y,z
1/2-x,-y,z
1/2+x,-y,1/2-z
-x,y,1/2-z
-x,-y,-z
1/2+x,y,-z
1/2-x,y,1/2+z
x,-y,1/2+z
loop_
_atom_site_type_symbol
_atom_site_label
_atom_site_fract_x
_atom_site_fract_y
_atom_site_fract_z
Si Si1 0.824018 0.326172 0.943875
Si Si2 0.921640 0.804118 0.328104
Si Si3 0.474341 0.173732 0.526160
Si Si4 0.100767 0.891786 0.857810
Si Si5 0.773364 0.687211 0.224791
O O1 0.750000 0.500000 0.943760
O O2 0.870142 0.274163 0.883856
O O3 0.698798 0.203865 0.964818
O O4 0.961092 0.304304 0.984631
O O5 0.800199 0.780724 0.281055
O O6 0.071901 0.714892 0.307732
O O7 0.971759 0.986690 0.338602
O O8 0.554404 0.182363 0.584674
O O9 0.500000 0.000000 0.500000
O O10 0.143438 0.763286 0.811927
O O11 0.250000 0.000000 0.865506
O O12 0.750000 0.500000 0.235077
#
# Coordination Sequence:
#
# PCOD9423252 Si02
#       5
#     8   8   8   8   8
#     4  12  27  45  72 104 143 186 238 299 360 426
#     4  10  23  47  66 103 141 185 239 291 361 433
#     4  12  25  46  71 103 141 186 239 294 355 423
#     4  10  22  44  70 100 137 187 235 292 354 430
#     4  10  23  45  71 100 143 184 238 301 356 420
#
# _framework density 21.731946000000001
#
# number of rings (size 3 to 8) (size 9 to 14) (size 15 to 20)
#    0.000    1.200    2.000    3.000    5.600    0.800 
#   21.600    0.000    0.000    0.000    0.000    0.000 
#    0.000    0.000    0.000    0.000    0.000    0.000 
#
# Total GULP energy -224001.133265 kJ/mol
# GULP energy per Si atom -5600.028332 kJ/mol
# Density = 2.168248 g / cm^3
# Si number density = 21.731946 Si / 1000 Ang^3
#
#
#
# Elastic Constant Matrix: (Units=GPa)
#
#
# Indices 1 2 3 4 5 6 
#
# 1 37.9140 18.1430 47.8935 0.0000 0.0000 0.0000
# 2 18.1430 72.2684 38.2868 0.0000 0.0000 0.0000
# 3 47.8935 38.2868 175.0897 0.0000 0.0000 0.0000
# 4 0.0000 0.0000 0.0000 -0.0500 0.0000 0.0000
# 5 0.0000 0.0000 0.0000 0.0000 41.1919 0.0000
# 6 0.0000 0.0000 0.0000 0.0000 0.0000 28.9208
#
#
#
# Elastic Compliance Matrix: (Units=1/GPa)
#
#
# Indices 1 2 3 4 5 6 
#
# 1 0.041854 -0.005024 -0.010350 0.000000 0.000000 0.000000
# 2 -0.005024 0.016253 -0.002180 0.000000 0.000000 0.000000
# 3 -0.010350 -0.002180 0.009019 0.000000 0.000000 0.000000
# 4 0.000000 0.000000 0.000000-19.983418 0.000000 0.000000
# 5 0.000000 0.000000 0.000000 0.000000 0.024277 0.000000
# 6 0.000000 0.000000 0.000000 0.000000 0.000000 0.034577
#
#
# Mechanical properties :
#
#
# Convention : Reuss Voigt Hill
#
# Bulk Modulus (GPa) = 31.23189 54.87986 43.05588
# Shear Modulus (GPa) = -0.25238 26.07578 12.91170
#
# Velocity S-wave (km/s) = -0.34115 3.46769 2.44013
# Velocity P-wave (km/s) = 3.77458 6.42970 5.27203
#
# Compressibility (1/GPa) = 0.03201856
#
# Stress axis : x y z
#
# Youngs Moduli (GPa) = 23.89261 61.52527 110.87556
#
# Poissons Ratio (x) = 0.30912 1.14756
# Poissons Ratio (y) = 0.12004 0.24169
# Poissons Ratio (z) = 0.24729 0.13412
#
# Static dielectric constant tensor:
#      x y z
#    x 1.812550 0.000000 0.000000 
#    y 0.000000 1.760260 0.000000 
#    z 0.000000 0.000000 1.759530 
# 
# From -- ./inp_files/23235.got.cif
#   From: 2010.05.17/outbox.cif.g08.bks.cpg/sg54_12_cif.got.tgz:23235.got - 2010.06.03 13:09:01.
