data_PCOD9423564
_publ_section_title
;
Structure prediction by ZEFSAII (Michael W. Deem and Ramdas Pophale) SiO2 
 PCOD9423564
Probable space group: P C C A
;
_chemical_formula_sum "Si O2"
_cell_formula_units_Z 32
_cell_length_a 11.676714
_cell_length_b 10.051185
_cell_length_c 13.050397
_cell_angle_alpha 90.000000
_cell_angle_beta 90.000000
_cell_angle_gamma 90.000000
_cell_volume 1531.657398
_symmetry_space_group_name_H-M "P C C A"
_symmetry_group_IT_number 54
_symmetry_cell_setting 'orthorhombic'
loop_
_space_group_symop_operation_xyz
x,y,z
1/2-x,-y,z
1/2+x,-y,1/2-z
-x,y,1/2-z
-x,-y,-z
1/2+x,y,-z
1/2-x,y,1/2+z
x,-y,1/2+z
loop_
_atom_site_type_symbol
_atom_site_label
_atom_site_fract_x
_atom_site_fract_y
_atom_site_fract_z
Si Si1 0.671157 0.721361 0.714803
Si Si2 0.428013 0.196948 0.845493
Si Si3 0.000000 0.062755 0.750000
Si Si4 0.566553 0.361919 0.000256
Si Si5 0.250000 0.500000 0.637322
O O1 0.797211 0.766888 0.677711
O O2 0.606507 0.841337 0.771938
O O3 0.602695 0.684300 0.612290
O O4 0.676256 0.593400 0.787762
O O5 0.500000 0.257549 0.750000
O O6 0.482868 0.256966 0.946568
O O7 0.455833 0.039930 0.836613
O O8 0.678317 0.397738 0.932584
O O9 0.500000 0.500000 0.000000
#
# Coordination Sequence:
#
# PCOD9423564 Si02
#       5
#     8   8   4   8   4
#     4  12  24  43  71 102 135 187 236 288 360 426
#     4  10  23  46  66  96 141 183 224 297 352 414
#     4  10  24  44  72  94 138 186 236 284 364 420
#     4  12  25  40  68 104 138 185 237 285 357 428
#     4  12  22  42  66  96 146 176 226 300 354 414
#
# _framework density 20.892401
#
# number of rings (size 3 to 8) (size 9 to 14) (size 15 to 20)
#    0.750    0.000    2.500    6.000    0.000    1.000 
#    0.000    2.500    0.000    0.000    0.000    0.000 
#    0.000    0.000    0.000    0.000    0.000    0.000 
#
# Total GULP energy -178764.381081 kJ/mol
# GULP energy per Si atom -5586.386909 kJ/mol
# Density = 2.084485 g / cm^3
# Si number density = 20.892401 Si / 1000 Ang^3
#
#
#
# Elastic Constant Matrix: (Units=GPa)
#
#
# Indices 1 2 3 4 5 6 
#
# 1 97.8303 14.7360 12.1239 0.0000 0.0000 0.0000
# 2 14.7360 111.4394 13.3093 0.0000 0.0000 0.0000
# 3 12.1239 13.3093 63.3882 0.0000 0.0000 0.0000
# 4 0.0000 0.0000 0.0000 23.5638 0.0000 0.0000
# 5 0.0000 0.0000 0.0000 0.0000 46.2681 0.0000
# 6 0.0000 0.0000 0.0000 0.0000 0.0000 49.9474
#
#
#
# Elastic Compliance Matrix: (Units=1/GPa)
#
#
# Indices 1 2 3 4 5 6 
#
# 1 0.010622 -0.001192 -0.001781 0.000000 0.000000 0.000000
# 2 -0.001192 0.009338 -0.001733 0.000000 0.000000 0.000000
# 3 -0.001781 -0.001733 0.016480 0.000000 0.000000 0.000000
# 4 0.000000 0.000000 0.000000 0.042438 0.000000 0.000000
# 5 0.000000 0.000000 0.000000 0.000000 0.021613 0.000000
# 6 0.000000 0.000000 0.000000 0.000000 0.000000 0.020021
#
#
# Mechanical properties :
#
#
# Convention : Reuss Voigt Hill
#
# Bulk Modulus (GPa) = 36.99789 39.22183 38.10986
# Shear Modulus (GPa) = 35.98833 39.45512 37.72172
#
# Velocity S-wave (km/s) = 4.15487 4.35039 4.25376
# Velocity P-wave (km/s) = 6.38471 6.63691 6.51203
#
# Compressibility (1/GPa) = 0.02702857
#
# Stress axis : x y z
#
# Youngs Moduli (GPa) = 94.14362 107.08899 60.67844
#
# Poissons Ratio (x) = 0.12763 0.10809
# Poissons Ratio (y) = 0.11220 0.10514
# Poissons Ratio (z) = 0.16771 0.18555
#
# Static dielectric constant tensor:
#      x y z
#    x 1.819560 0.000000 0.000000 
#    y 0.000000 1.782060 0.000000 
#    z 0.000000 0.000000 1.839470 
# 
# From -- ./inp_files/12257.got.cif
#   From: 2010.05.17/outbox.cif.g08.bks.cpg/sg54_7_cif.got.tgz:12257.got - 2010.06.03 13:09:01.
