data_PCOD9423494
_publ_section_title
;
Structure prediction by ZEFSAII (Michael W. Deem and Ramdas Pophale) SiO2 
 PCOD9423494
Probable space group: P C C A
;
_chemical_formula_sum "Si O2"
_cell_formula_units_Z 40
_cell_length_a 9.477974
_cell_length_b 8.058048
_cell_length_c 24.185985
_cell_angle_alpha 90.000000
_cell_angle_beta 90.000000
_cell_angle_gamma 90.000000
_cell_volume 1847.179679
_symmetry_space_group_name_H-M "P C C A"
_symmetry_group_IT_number 54
_symmetry_cell_setting 'orthorhombic'
loop_
_space_group_symop_operation_xyz
x,y,z
1/2-x,-y,z
1/2+x,-y,1/2-z
-x,y,1/2-z
-x,-y,-z
1/2+x,y,-z
1/2-x,y,1/2+z
x,-y,1/2+z
loop_
_atom_site_type_symbol
_atom_site_label
_atom_site_fract_x
_atom_site_fract_y
_atom_site_fract_z
Si Si1 0.660404 0.831278 0.683641
Si Si2 0.345007 0.359161 0.593477
Si Si3 0.823042 0.824900 0.312491
Si Si4 0.118254 0.415317 0.909529
Si Si5 0.625321 0.122567 0.008285
O O1 0.490305 0.850201 0.677229
O O2 0.691452 0.785926 0.747347
O O3 0.686436 0.676975 0.643492
O O4 0.750000 0.000000 0.671392
O O5 0.250000 0.500000 0.566373
O O6 0.259732 0.302958 0.648350
O O7 0.495767 0.450800 0.602641
O O8 0.347527 0.208465 0.550735
O O9 0.750000 0.000000 0.322337
O O10 0.250000 0.500000 0.938935
O O11 0.075581 0.264586 0.949298
O O12 0.750000 0.000000 0.028103
O O13 0.500000 0.000000 0.000000
#
# Coordination Sequence:
#
# PCOD9423494 Si02
#       5
#     8   8   8   8   8
#     4  10  23  45  69 100 139 183 237 288 343 415
#     4  12  24  44  71 103 141 181 228 290 353 418
#     4  10  23  43  72 102 134 185 241 285 339 419
#     4  12  26  44  65 102 146 181 224 294 358 408
#     4  12  26  45  72 102 135 184 240 286 342 426
#
# _framework density 21.654633
#
# number of rings (size 3 to 8) (size 9 to 14) (size 15 to 20)
#    0.000    0.800    2.000    4.800    5.600    0.800 
#    0.000    0.000    0.000    0.000    0.000    0.000 
#    0.000    0.000    0.000    0.000    0.000    0.000 
#
# Total GULP energy -223337.083096 kJ/mol
# GULP energy per Si atom -5583.427077 kJ/mol
# Density = 2.160535 g / cm^3
# Si number density = 21.654633 Si / 1000 Ang^3
#
#
#
# Elastic Constant Matrix: (Units=GPa)
#
#
# Indices 1 2 3 4 5 6 
#
# 1 114.4417 44.2070 38.6518 0.0000 0.0000 0.0000
# 2 44.2070 107.9927 61.2589 0.0000 0.0000 0.0000
# 3 38.6518 61.2589 117.1022 0.0000 0.0000 0.0000
# 4 0.0000 0.0000 0.0000 9.0359 0.0000 0.0000
# 5 0.0000 0.0000 0.0000 0.0000 0.6862 0.0000
# 6 0.0000 0.0000 0.0000 0.0000 0.0000 63.0803
#
#
#
# Elastic Compliance Matrix: (Units=1/GPa)
#
#
# Indices 1 2 3 4 5 6 
#
# 1 0.010626 -0.003356 -0.001752 0.000000 0.000000 0.000000
# 2 -0.003356 0.014227 -0.006335 0.000000 0.000000 0.000000
# 3 -0.001752 -0.006335 0.012432 0.000000 0.000000 0.000000
# 4 0.000000 0.000000 0.000000 0.110670 0.000000 0.000000
# 5 0.000000 0.000000 0.000000 0.000000 1.457210 0.000000
# 6 0.000000 0.000000 0.000000 0.000000 0.000000 0.015853
#
#
# Mechanical properties :
#
#
# Convention : Reuss Voigt Hill
#
# Bulk Modulus (GPa) = 69.44633 69.75246 69.59939
# Shear Modulus (GPa) = 3.03269 27.58842 15.31055
#
# Velocity S-wave (km/s) = 1.18470 3.57321 2.66189
# Velocity P-wave (km/s) = 5.83189 7.02176 6.45430
#
# Compressibility (1/GPa) = 0.01439961
#
# Stress axis : x y z
#
# Youngs Moduli (GPa) = 94.10774 70.28810 80.44024
#
# Poissons Ratio (x) = 0.23590 0.14090
# Poissons Ratio (y) = 0.31584 0.50957
# Poissons Ratio (z) = 0.16484 0.44526
#
# Static dielectric constant tensor:
#      x y z
#    x 1.864890 0.000000 0.000000 
#    y 0.000000 1.821140 0.000000 
#    z 0.000000 0.000000 1.818000 
# 
# From -- ./inp_files/23248.got.cif
#   From: 2010.05.17/outbox.cif.g08.bks.cpg/sg54_12_cif.got.tgz:23248.got - 2010.06.03 13:09:01.
