data_PCOD9423598
_publ_section_title
;
Structure prediction by ZEFSAII (Michael W. Deem and Ramdas Pophale) SiO2 
 PCOD9423598
Probable space group: P C C A
;
_chemical_formula_sum "Si O2"
_cell_formula_units_Z 48
_cell_length_a 16.184927
_cell_length_b 14.435407
_cell_length_c 8.236361
_cell_angle_alpha 90.000000
_cell_angle_beta 90.000000
_cell_angle_gamma 90.000000
_cell_volume 1924.310509
_symmetry_space_group_name_H-M "P C C A"
_symmetry_group_IT_number 54
_symmetry_cell_setting 'orthorhombic'
loop_
_space_group_symop_operation_xyz
x,y,z
1/2-x,-y,z
1/2+x,-y,1/2-z
-x,y,1/2-z
-x,-y,-z
1/2+x,y,-z
1/2-x,y,1/2+z
x,-y,1/2+z
loop_
_atom_site_type_symbol
_atom_site_label
_atom_site_fract_x
_atom_site_fract_y
_atom_site_fract_z
Si Si1 0.272445 0.316286 0.527493
Si Si2 0.500000 0.595646 0.250000
Si Si3 0.250000 0.000000 0.715200
Si Si4 0.998753 0.894011 0.057249
Si Si5 0.326035 0.131678 0.973295
Si Si6 0.553951 0.297364 0.079737
Si Si7 0.177045 0.570169 0.815002
O O1 0.232196 0.216599 0.514346
O O2 0.350884 0.331524 0.407187
O O3 0.310460 0.339590 0.701383
O O4 0.199853 0.389561 0.490009
O O5 0.514633 0.652108 0.420308
O O6 0.583852 0.538764 0.215195
O O7 0.204764 0.921150 0.815933
O O8 0.316881 0.947817 0.608638
O O9 0.000000 0.901758 0.250000
O O10 0.932260 0.812294 0.032638
O O11 0.078514 0.844694 0.977533
O O12 0.000000 0.000000 0.000000
O O13 0.500000 0.303678 0.250000
O O14 0.250000 0.500000 0.777841
#
# Coordination Sequence:
#
# PCOD9423598 Si02
#       7
#     8   4   4   8   8   8   8
#     4  11  25  44  74 102 145 191 237 304 368 442
#     4  10  24  50  78 106 148 198 232 304 378 450
#     4  10  24  36  64  90 132 174 244 296 342 418
#     4  11  25  39  62  92 139 185 242 309 361 423
#     4  11  23  41  63  95 133 187 240 292 359 429
#     4  10  25  44  70 107 144 195 251 296 370 445
#     4  11  25  48  75 112 143 182 242 301 375 452
#
# _framework density 24.943999000000002
#
# number of rings (size 3 to 8) (size 9 to 14) (size 15 to 20)
#    0.000    1.333    0.000    3.500   17.500    1.333 
#    1.500    2.500    0.000    0.000    0.000    0.000 
#    0.000    0.000    0.000    0.000    0.000    0.000 
#
# Total GULP energy -268088.222860 kJ/mol
# GULP energy per Si atom -5585.171310 kJ/mol
# Density = 2.488722 g / cm^3
# Si number density = 24.943999 Si / 1000 Ang^3
#
#
#
# Elastic Constant Matrix: (Units=GPa)
#
#
# Indices 1 2 3 4 5 6 
#
# 1 146.1482 31.5969 6.7422 0.0000 0.0000 0.0000
# 2 31.5969 85.9401 14.3988 0.0000 0.0000 0.0000
# 3 6.7422 14.3988 70.2501 0.0000 0.0000 0.0000
# 4 0.0000 0.0000 0.0000 4.4427 0.0000 0.0000
# 5 0.0000 0.0000 0.0000 0.0000 82.9517 0.0000
# 6 0.0000 0.0000 0.0000 0.0000 0.0000 12.3987
#
#
#
# Elastic Compliance Matrix: (Units=1/GPa)
#
#
# Indices 1 2 3 4 5 6 
#
# 1 0.007435 -0.002707 -0.000159 0.000000 0.000000 0.000000
# 2 -0.002707 0.013035 -0.002412 0.000000 0.000000 0.000000
# 3 -0.000159 -0.002412 0.014744 0.000000 0.000000 0.000000
# 4 0.000000 0.000000 0.000000 0.225088 0.000000 0.000000
# 5 0.000000 0.000000 0.000000 0.000000 0.012055 0.000000
# 6 0.000000 0.000000 0.000000 0.000000 0.000000 0.080653
#
#
# Mechanical properties :
#
#
# Convention : Reuss Voigt Hill
#
# Bulk Modulus (GPa) = 40.55247 45.31270 42.93259
# Shear Modulus (GPa) = 13.44857 36.59864 25.02361
#
# Velocity S-wave (km/s) = 2.32448 3.83460 3.17076
# Velocity P-wave (km/s) = 4.84737 6.14905 5.53659
#
# Compressibility (1/GPa) = 0.02465941
#
# Stress axis : x y z
#
# Youngs Moduli (GPa) = 134.50023 76.71430 67.82208
#
# Poissons Ratio (x) = 0.20766 0.01077
# Poissons Ratio (y) = 0.36409 0.16359
# Poissons Ratio (z) = 0.02135 0.18503
#
# Static dielectric constant tensor:
#      x y z
#    x 2.208100 0.000000 0.000000 
#    y 0.000000 1.948140 0.000000 
#    z 0.000000 0.000000 1.999130 
# 
# From -- ./inp_files/4255.got.cif
#   From: 2010.05.17/outbox.cif.g08.bks.cpg/sg54_3_cif.got.tgz:4255.got - 2010.06.03 13:09:01.
