data_PCOD9423052
_publ_section_title
;
Structure prediction by ZEFSAII (Michael W. Deem and Ramdas Pophale) SiO2 
 PCOD9423052
Probable space group: P C C A
;
_chemical_formula_sum "Si O2"
_cell_formula_units_Z 64
_cell_length_a 9.484594
_cell_length_b 17.342182
_cell_length_c 19.663365
_cell_angle_alpha 90.000000
_cell_angle_beta 90.000000
_cell_angle_gamma 90.000000
_cell_volume 3234.300185
_symmetry_space_group_name_H-M "P C C A"
_symmetry_group_IT_number 54
_symmetry_cell_setting 'orthorhombic'
loop_
_space_group_symop_operation_xyz
x,y,z
1/2-x,-y,z
1/2+x,-y,1/2-z
-x,y,1/2-z
-x,-y,-z
1/2+x,y,-z
1/2-x,y,1/2+z
x,-y,1/2+z
loop_
_atom_site_type_symbol
_atom_site_label
_atom_site_fract_x
_atom_site_fract_y
_atom_site_fract_z
Si Si1 0.053555 0.874308 0.982620
Si Si2 0.835672 0.578215 0.761874
Si Si3 0.683239 0.294948 0.648239
Si Si4 0.161490 0.800407 0.242475
Si Si5 0.189190 0.236767 0.978408
Si Si6 0.894434 0.035463 0.703289
Si Si7 0.903105 0.997951 0.407114
Si Si8 0.656065 0.713475 0.367466
O O1 0.188684 0.825376 0.963148
O O2 0.111201 0.946489 0.025596
O O3 0.953981 0.813222 0.021947
O O4 0.961427 0.916881 0.924516
O O5 0.750000 0.500000 0.766496
O O6 0.796881 0.630789 0.696584
O O7 0.815784 0.632241 0.828703
O O8 0.000000 0.560945 0.750000
O O9 0.748222 0.226897 0.693294
O O10 0.775756 0.298805 0.579773
O O11 0.515448 0.279502 0.637582
O O12 0.143732 0.891325 0.251135
O O13 0.248930 0.773250 0.176619
O O14 0.000000 0.768864 0.250000
O O15 0.195754 0.274194 0.053691
O O16 0.000000 0.984724 0.750000
O O17 0.983629 0.048683 0.636213
O O18 0.750000 0.000000 0.681506
O O19 0.750000 0.000000 0.373745
#
# Coordination Sequence:
#
# PCOD9423052 Si02
#       8
#     8   8   8   8   8   8   8   8
#     4  11  25  38  62  85 116 164 205 266 317 384
#     4   9  20  43  68  95 128 168 207 242 303 373
#     4  10  22  41  64  95 129 166 203 255 309 375
#     4  10  23  39  60  87 118 158 213 266 312 376
#     4  12  23  40  64  97 127 162 213 264 323 369
#     4  11  26  39  55  79 111 153 204 266 316 375
#     4  11  24  42  57  80 115 159 216 260 328 380
#     4  10  23  41  65  93 130 166 202 257 315 376
#
# _framework density 19.787897000000001
#
# number of rings (size 3 to 8) (size 9 to 14) (size 15 to 20)
#    0.000    1.500    2.500    2.250    8.750    4.000 
#    0.000    0.625    0.000    3.000    0.000    0.000 
#    0.000    0.000    0.000    0.000    0.000    0.000 
#
# Total GULP energy -356892.821980 kJ/mol
# GULP energy per Si atom -5576.450343 kJ/mol
# Density = 1.974286 g / cm^3
# Si number density = 19.787897 Si / 1000 Ang^3
#
#
#
# Elastic Constant Matrix: (Units=GPa)
#
#
# Indices 1 2 3 4 5 6 
#
# 1 80.5905 34.6989 26.5560 0.0000 0.0000 0.0000
# 2 34.6989 74.2712 31.2225 0.0000 0.0000 0.0000
# 3 26.5560 31.2225 117.8546 0.0000 0.0000 0.0000
# 4 0.0000 0.0000 0.0000 -4.8923 0.0000 0.0000
# 5 0.0000 0.0000 0.0000 0.0000 25.6307 0.0000
# 6 0.0000 0.0000 0.0000 0.0000 0.0000 34.0085
#
#
#
# Elastic Compliance Matrix: (Units=1/GPa)
#
#
# Indices 1 2 3 4 5 6 
#
# 1 0.015870 -0.006652 -0.001814 0.000000 0.000000 0.000000
# 2 -0.006652 0.017940 -0.003254 0.000000 0.000000 0.000000
# 3 -0.001814 -0.003254 0.009756 0.000000 0.000000 0.000000
# 4 0.000000 0.000000 0.000000 -0.204402 0.000000 0.000000
# 5 0.000000 0.000000 0.000000 0.000000 0.039016 0.000000
# 6 0.000000 0.000000 0.000000 0.000000 0.000000 0.029404
#
#
# Mechanical properties :
#
#
# Convention : Reuss Voigt Hill
#
# Bulk Modulus (GPa) = 49.68533 50.85236 50.26884
# Shear Modulus (GPa) = -80.29708 22.96531 -28.66589
#
# Velocity S-wave (km/s) = -6.37707 3.41041 -3.81025
# Velocity P-wave (km/s) = 5.39066 6.42358 2.47014
#
# Compressibility (1/GPa) = 0.02012667
#
# Stress axis : x y z
#
# Youngs Moduli (GPa) = 63.01160 55.74214 102.50390
#
# Poissons Ratio (x) = 0.37079 0.18591
# Poissons Ratio (y) = 0.41915 0.33353
# Poissons Ratio (z) = 0.11429 0.18137
#
# Static dielectric constant tensor:
#      x y z
#    x 1.771690 0.000000 0.000000 
#    y 0.000000 1.699360 0.000000 
#    z 0.000000 0.000000 1.787470 
# 
# From -- ./inp_files/20661.got.cif
#   From: 2010.05.17/outbox.cif.g08.bks.cpg/sg54_11_cif.got.tgz:20661.got - 2010.06.03 13:09:01.
