data_PCOD9423385
_publ_section_title
;
Structure prediction by ZEFSAII (Michael W. Deem and Ramdas Pophale) SiO2 
 PCOD9423385
Probable space group: P C C A
;
_chemical_formula_sum "Si O2"
_cell_formula_units_Z 40
_cell_length_a 8.791306
_cell_length_b 18.272142
_cell_length_c 11.105234
_cell_angle_alpha 90.000000
_cell_angle_beta 90.000000
_cell_angle_gamma 90.000000
_cell_volume 1783.900276
_symmetry_space_group_name_H-M "P C C A"
_symmetry_group_IT_number 54
_symmetry_cell_setting 'orthorhombic'
loop_
_space_group_symop_operation_xyz
x,y,z
1/2-x,-y,z
1/2+x,-y,1/2-z
-x,y,1/2-z
-x,-y,-z
1/2+x,y,-z
1/2-x,y,1/2+z
x,-y,1/2+z
loop_
_atom_site_type_symbol
_atom_site_label
_atom_site_fract_x
_atom_site_fract_y
_atom_site_fract_z
Si Si1 0.000000 0.399299 0.250000
Si Si2 0.577824 0.631718 0.526206
Si Si3 0.168404 0.270110 0.548778
Si Si4 0.571418 0.977698 0.126975
Si Si5 0.250000 0.500000 0.859892
Si Si6 0.549145 0.189263 0.874212
O O1 0.961283 0.364865 0.382328
O O2 0.853983 0.448325 0.220323
O O3 0.431365 0.661786 0.599948
O O4 0.717039 0.688275 0.541579
O O5 0.639142 0.552369 0.562156
O O6 0.273681 0.210574 0.615690
O O7 0.039935 0.223634 0.484298
O O8 0.500000 0.011037 0.250000
O O9 0.517348 0.892836 0.130802
O O10 0.750000 0.000000 0.126499
O O11 0.500000 0.000000 0.000000
O O12 0.500000 0.225352 0.750000
#
# Coordination Sequence:
#
# PCOD9423385 Si02
#       6
#     4   8   8   8   4   8
#     4  12  26  42  66  90 128 168 220 284 360 410
#     4  11  24  44  63  93 129 168 224 284 345 418
#     4  10  23  40  65  90 128 172 221 274 334 413
#     4  11  23  42  73 108 149 193 245 300 364 426
#     4  12  26  44  64  94 126 168 224 290 346 422
#     4  10  23  45  66  96 137 179 223 280 337 408
#
# _framework density 22.422778000000001
#
# number of rings (size 3 to 8) (size 9 to 14) (size 15 to 20)
#    0.000    1.200    2.000    3.000    8.400    1.600 
#    0.000    3.000    0.000    0.000    0.000    0.000 
#    0.000    0.000    0.000    0.000    0.000    0.000 
#
# Total GULP energy -222700.340752 kJ/mol
# GULP energy per Si atom -5567.508519 kJ/mol
# Density = 2.237174 g / cm^3
# Si number density = 22.422778 Si / 1000 Ang^3
#
#
#
# Elastic Constant Matrix: (Units=GPa)
#
#
# Indices 1 2 3 4 5 6 
#
# 1 171.2564 47.9724 54.7160 0.0000 0.0000 0.0000
# 2 47.9724 93.6346 27.9667 0.0000 0.0000 0.0000
# 3 54.7160 27.9667 108.0547 0.0000 0.0000 0.0000
# 4 0.0000 0.0000 0.0000 10.1475 0.0000 0.0000
# 5 0.0000 0.0000 0.0000 0.0000 9.2227 0.0000
# 6 0.0000 0.0000 0.0000 0.0000 0.0000 45.9101
#
#
#
# Elastic Compliance Matrix: (Units=1/GPa)
#
#
# Indices 1 2 3 4 5 6 
#
# 1 0.007674 -0.003003 -0.003108 0.000000 0.000000 0.000000
# 2 -0.003003 0.012750 -0.001779 0.000000 0.000000 0.000000
# 3 -0.003108 -0.001779 0.011289 0.000000 0.000000 0.000000
# 4 0.000000 0.000000 0.000000 0.098547 0.000000 0.000000
# 5 0.000000 0.000000 0.000000 0.000000 0.108428 0.000000
# 6 0.000000 0.000000 0.000000 0.000000 0.000000 0.021782
#
#
# Mechanical properties :
#
#
# Convention : Reuss Voigt Hill
#
# Bulk Modulus (GPa) = 62.77056 70.47288 66.62172
# Shear Modulus (GPa) = 17.75819 29.20877 23.48348
#
# Velocity S-wave (km/s) = 2.81725 3.61312 3.23972
# Velocity P-wave (km/s) = 6.21590 6.99311 6.61593
#
# Compressibility (1/GPa) = 0.01593104
#
# Stress axis : x y z
#
# Youngs Moduli (GPa) = 130.31797 78.43261 88.58094
#
# Poissons Ratio (x) = 0.23553 0.27535
# Poissons Ratio (y) = 0.39135 0.15761
# Poissons Ratio (z) = 0.40508 0.13955
#
# Static dielectric constant tensor:
#      x y z
#    x 1.901680 0.000000 0.000000 
#    y 0.000000 -4.653450 0.000000 
#    z 0.000000 0.000000 1.926760 
# 
# From -- ./inp_files/6921.got.cif
#   From: 2010.05.17/outbox.cif.g08.bks.cpg/sg54_4_cif.got.tgz:6921.got - 2010.06.03 13:09:01.
