data_PCOD9423467
_publ_section_title
;
Structure prediction by ZEFSAII (Michael W. Deem and Ramdas Pophale) SiO2 
 PCOD9423467
Probable space group: P C C A
;
_chemical_formula_sum "Si O2"
_cell_formula_units_Z 64
_cell_length_a 16.474754
_cell_length_b 14.549725
_cell_length_c 11.982581
_cell_angle_alpha 90.000000
_cell_angle_beta 90.000000
_cell_angle_gamma 90.000000
_cell_volume 2872.262293
_symmetry_space_group_name_H-M "P C C A"
_symmetry_group_IT_number 54
_symmetry_cell_setting 'orthorhombic'
loop_
_space_group_symop_operation_xyz
x,y,z
1/2-x,-y,z
1/2+x,-y,1/2-z
-x,y,1/2-z
-x,-y,-z
1/2+x,y,-z
1/2-x,y,1/2+z
x,-y,1/2+z
loop_
_atom_site_type_symbol
_atom_site_label
_atom_site_fract_x
_atom_site_fract_y
_atom_site_fract_z
Si Si1 0.894656 0.601783 0.532174
Si Si2 0.187298 0.925876 0.648157
Si Si3 0.082239 0.198844 0.528730
Si Si4 0.431499 0.952050 0.336125
Si Si5 0.210338 0.593532 0.758787
Si Si6 0.912303 0.858019 0.061431
Si Si7 0.555293 0.538939 0.350759
Si Si8 0.808234 0.780653 0.257561
O O1 0.878504 0.709014 0.518294
O O2 0.825416 0.571030 0.618084
O O3 0.901831 0.540818 0.421612
O O4 0.985586 0.590571 0.580900
O O5 0.143782 0.970466 0.754547
O O6 0.126481 0.893017 0.553108
O O7 0.232651 0.839091 0.699128
O O8 0.250000 0.000000 0.599613
O O9 0.089596 0.116659 0.437895
O O10 0.123175 0.193777 0.650283
O O11 0.985966 0.211328 0.543736
O O12 0.500000 0.915546 0.250000
O O13 0.454052 0.051284 0.384743
O O14 0.250000 0.500000 0.716620
O O15 0.125976 0.607066 0.691080
O O16 0.274190 0.676658 0.751603
O O17 0.843967 0.815184 0.140350
O O18 0.500000 0.498601 0.250000
#
# Coordination Sequence:
#
# PCOD9423467 Si02
#       8
#     8   8   8   8   8   8   8   8
#     4  10  23  42  72 101 136 186 240 293 362 440
#     4  12  27  46  72 103 145 188 231 304 360 427
#     4  12  26  45  74 101 142 189 244 296 351 438
#     4  12  25  47  71 101 139 189 243 291 363 432
#     4  11  25  45  70 103 145 187 237 304 365 434
#     4  12  28  47  71 103 141 193 242 294 362 436
#     4   9  21  44  71 100 137 183 236 294 371 438
#     4  12  28  45  72 106 146 185 243 300 367 431
#
# _framework density 22.282087000000001
#
# number of rings (size 3 to 8) (size 9 to 14) (size 15 to 20)
#    0.000    0.750    2.500    3.750    7.000    7.000 
#    0.000    0.000    0.000    0.000    0.000    0.000 
#    0.000    0.000    0.000    0.000    0.000    0.000 
#
# Total GULP energy -357512.155480 kJ/mol
# GULP energy per Si atom -5586.127429 kJ/mol
# Density = 2.223137 g / cm^3
# Si number density = 22.282087 Si / 1000 Ang^3
#
#
#
# Elastic Constant Matrix: (Units=GPa)
#
#
# Indices 1 2 3 4 5 6 
#
# 1 56.8729 6.4857 42.3936 0.0000 0.0000 0.0000
# 2 6.4857 67.8433 18.0556 0.0000 0.0000 0.0000
# 3 42.3936 18.0556 102.5130 0.0000 0.0000 0.0000
# 4 0.0000 0.0000 0.0000 4.4595 0.0000 0.0000
# 5 0.0000 0.0000 0.0000 0.0000 26.1412 0.0000
# 6 0.0000 0.0000 0.0000 0.0000 0.0000 21.2725
#
#
#
# Elastic Compliance Matrix: (Units=1/GPa)
#
#
# Indices 1 2 3 4 5 6 
#
# 1 0.025428 0.000386 -0.010584 0.000000 0.000000 0.000000
# 2 0.000386 0.015471 -0.002884 0.000000 0.000000 0.000000
# 3 -0.010584 -0.002884 0.014640 0.000000 0.000000 0.000000
# 4 0.000000 0.000000 0.000000 0.224238 0.000000 0.000000
# 5 0.000000 0.000000 0.000000 0.000000 0.038254 0.000000
# 6 0.000000 0.000000 0.000000 0.000000 0.000000 0.047009
#
#
# Mechanical properties :
#
#
# Convention : Reuss Voigt Hill
#
# Bulk Modulus (GPa) = 34.04359 40.12210 37.08285
# Shear Modulus (GPa) = 12.46897 21.06092 16.76495
#
# Velocity S-wave (km/s) = 2.36814 3.07774 2.74596
# Velocity P-wave (km/s) = 4.77379 5.53855 5.17033
#
# Compressibility (1/GPa) = 0.02937410
#
# Stress axis : x y z
#
# Youngs Moduli (GPa) = 39.32643 64.63866 68.30750
#
# Poissons Ratio (x) = -0.02494 0.72294
# Poissons Ratio (y) = -0.01517 0.19703
# Poissons Ratio (z) = 0.41622 0.18644
#
# Static dielectric constant tensor:
#      x y z
#    x 1.881400 0.000000 0.000000 
#    y 0.000000 1.783510 0.000000 
#    z 0.000000 0.000000 1.879830 
# 
# From -- ./inp_files/9092.got.cif
#   From: 2010.05.17/outbox.cif.g08.bks.cpg/sg54_5_cif.got.tgz:9092.got - 2010.06.03 13:09:01.
