data_PCOD9423814
_publ_section_title
;
Structure prediction by ZEFSAII (Michael W. Deem and Ramdas Pophale) SiO2 
 PCOD9423814
Probable space group: P C C A
;
_chemical_formula_sum "Si O2"
_cell_formula_units_Z 40
_cell_length_a 16.807529
_cell_length_b 10.489604
_cell_length_c 9.149740
_cell_angle_alpha 90.000000
_cell_angle_beta 90.000000
_cell_angle_gamma 90.000000
_cell_volume 1613.138720
_symmetry_space_group_name_H-M "P C C A"
_symmetry_group_IT_number 54
_symmetry_cell_setting 'orthorhombic'
loop_
_space_group_symop_operation_xyz
x,y,z
1/2-x,-y,z
1/2+x,-y,1/2-z
-x,y,1/2-z
-x,-y,-z
1/2+x,y,-z
1/2-x,y,1/2+z
x,-y,1/2+z
loop_
_atom_site_type_symbol
_atom_site_label
_atom_site_fract_x
_atom_site_fract_y
_atom_site_fract_z
Si Si1 0.554143 0.586946 0.609078
Si Si2 0.639926 0.855790 0.592821
Si Si3 0.500000 0.809133 0.250000
Si Si4 0.000000 0.000000 0.000000
Si Si5 0.769473 0.227568 0.873848
Si Si6 0.848677 0.646783 0.649774
O O1 0.500000 0.608040 0.750000
O O2 0.500000 0.500000 0.500000
O O3 0.588687 0.724843 0.568625
O O4 0.630374 0.501135 0.645432
O O5 0.583494 0.977498 0.589573
O O6 0.675906 0.845209 0.757039
O O7 0.710781 0.855418 0.475398
O O8 0.530005 0.898054 0.379470
O O9 0.429824 0.719434 0.309096
O O10 0.715150 0.317271 0.771960
O O11 0.820993 0.306128 0.990822
#
# Coordination Sequence:
#
# PCOD9423814 Si02
#       6
#     8   8   4   4   8   8
#     4  12  24  40  73 114 159 198 255 311 375 457
#     4  11  25  47  73 111 153 203 256 320 382 460
#     4  12  26  48  74 106 148 200 256 318 376 460
#     4  12  28  48  74 106 146 204 264 316 370 462
#     4  10  24  46  76 110 159 197 257 315 402 448
#     4  11  23  47  73 111 157 196 252 316 382 464
#
# _framework density 24.796379999999999
#
# number of rings (size 3 to 8) (size 9 to 14) (size 15 to 20)
#    0.000    0.800    3.000    3.600    4.200    4.800 
#    0.000    6.000    0.000    0.000    0.000    0.000 
#    0.000    0.000    0.000    0.000    0.000    0.000 
#
# Total GULP energy -223345.136015 kJ/mol
# GULP energy per Si atom -5583.628400 kJ/mol
# Density = 2.473994 g / cm^3
# Si number density = 24.796380 Si / 1000 Ang^3
#
#
#
# Elastic Constant Matrix: (Units=GPa)
#
#
# Indices 1 2 3 4 5 6 
#
# 1 129.5471 21.9585 69.3726 0.0000 0.0000 0.0000
# 2 21.9585 28.0789 49.1157 0.0000 0.0000 0.0000
# 3 69.3726 49.1157 171.3339 0.0000 0.0000 0.0000
# 4 0.0000 0.0000 0.0000 21.4362 0.0000 0.0000
# 5 0.0000 0.0000 0.0000 0.0000 42.9552 0.0000
# 6 0.0000 0.0000 0.0000 0.0000 0.0000 36.2104
#
#
#
# Elastic Compliance Matrix: (Units=1/GPa)
#
#
# Indices 1 2 3 4 5 6 
#
# 1 0.009886 -0.001463 -0.003583 0.000000 0.000000 0.000000
# 2 -0.001463 0.071650 -0.019947 0.000000 0.000000 0.000000
# 3 -0.003583 -0.019947 0.013006 0.000000 0.000000 0.000000
# 4 0.000000 0.000000 0.000000 0.046650 0.000000 0.000000
# 5 0.000000 0.000000 0.000000 0.000000 0.023280 0.000000
# 6 0.000000 0.000000 0.000000 0.000000 0.000000 0.027616
#
#
# Mechanical properties :
#
#
# Convention : Reuss Voigt Hill
#
# Bulk Modulus (GPa) = 22.44458 67.76149 45.10304
# Shear Modulus (GPa) = 19.46079 32.68790 26.07435
#
# Velocity S-wave (km/s) = 2.80451 3.63471 3.24626
# Velocity P-wave (km/s) = 4.42247 6.70831 5.68153
#
# Compressibility (1/GPa) = 0.04455418
#
# Stress axis : x y z
#
# Youngs Moduli (GPa) = 101.15174 13.95678 76.88945
#
# Poissons Ratio (x) = 0.02042 0.27553
# Poissons Ratio (y) = 0.14799 1.53373
# Poissons Ratio (z) = 0.36247 0.27840
#
# Static dielectric constant tensor:
#      x y z
#    x 1.986810 0.000000 0.000000 
#    y 0.000000 1.986340 0.000000 
#    z 0.000000 0.000000 1.974040 
# 
# From -- ./inp_files/4025.got.cif
#   From: 2010.05.17/outbox.cif.g08.bks.cpg/sg54_3_cif.got.tgz:4025.got - 2010.06.03 13:09:01.
