data_PCOD9423170
_publ_section_title
;
Structure prediction by ZEFSAII (Michael W. Deem and Ramdas Pophale) SiO2 
 PCOD9423170
Probable space group: P C C A
;
_chemical_formula_sum "Si O2"
_cell_formula_units_Z 28
_cell_length_a 10.144687
_cell_length_b 7.583228
_cell_length_c 17.339514
_cell_angle_alpha 90.000000
_cell_angle_beta 90.000000
_cell_angle_gamma 90.000000
_cell_volume 1333.919700
_symmetry_space_group_name_H-M "P C C A"
_symmetry_group_IT_number 54
_symmetry_cell_setting 'orthorhombic'
loop_
_space_group_symop_operation_xyz
x,y,z
1/2-x,-y,z
1/2+x,-y,1/2-z
-x,y,1/2-z
-x,-y,-z
1/2+x,y,-z
1/2-x,y,1/2+z
x,-y,1/2+z
loop_
_atom_site_type_symbol
_atom_site_label
_atom_site_fract_x
_atom_site_fract_y
_atom_site_fract_z
Si Si1 0.999230 0.188284 0.666633
Si Si2 0.500000 0.849258 0.250000
Si Si3 0.787646 0.703595 0.862424
Si Si4 0.624115 0.125447 0.018316
O O1 0.152902 0.184571 0.644975
O O2 0.000000 0.284926 0.750000
O O3 0.914051 0.242278 0.593372
O O4 0.948341 0.991193 0.687054
O O5 0.385596 0.743701 0.208122
O O6 0.750000 0.500000 0.862179
O O7 0.851584 0.756400 0.943357
O O8 0.750000 0.000000 0.031365
O O9 0.500000 0.000000 0.000000
#
# Coordination Sequence:
#
# PCOD9423170 Si02
#       4
#     8   4   8   8
#     4  10  24  42  71  97 136 180 250 285 350 432
#     4  10  22  42  72  92 134 192 240 288 350 436
#     4  12  26  44  66 109 150 179 238 314 369 420
#     4  12  22  44  72 100 136 193 247 286 353 439
#
# _framework density 20.990769
#
# number of rings (size 3 to 8) (size 9 to 14) (size 15 to 20)
#    0.857    0.000    5.714    0.857    6.000    1.143 
#    0.000    1.429    0.000    0.000    0.000    0.000 
#    0.000    0.000    0.000    0.000    0.000    0.000 
#
# Total GULP energy -156209.077770 kJ/mol
# GULP energy per Si atom -5578.895635 kJ/mol
# Density = 2.094299 g / cm^3
# Si number density = 20.990769 Si / 1000 Ang^3
#
#
#
# Elastic Constant Matrix: (Units=GPa)
#
#
# Indices 1 2 3 4 5 6 
#
# 1 127.3796 32.6478 82.9689 0.0000 0.0000 0.0000
# 2 32.6478 74.1159 47.6341 0.0000 0.0000 0.0000
# 3 82.9689 47.6341 177.9312 0.0000 0.0000 0.0000
# 4 0.0000 0.0000 0.0000 14.5381 0.0000 0.0000
# 5 0.0000 0.0000 0.0000 0.0000 53.3556 0.0000
# 6 0.0000 0.0000 0.0000 0.0000 0.0000 23.6279
#
#
#
# Elastic Compliance Matrix: (Units=1/GPa)
#
#
# Indices 1 2 3 4 5 6 
#
# 1 0.011505 -0.001957 -0.004841 0.000000 0.000000 0.000000
# 2 -0.001957 0.016629 -0.003539 0.000000 0.000000 0.000000
# 3 -0.004841 -0.003539 0.008825 0.000000 0.000000 0.000000
# 4 0.000000 0.000000 0.000000 0.068785 0.000000 0.000000
# 5 0.000000 0.000000 0.000000 0.000000 0.018742 0.000000
# 6 0.000000 0.000000 0.000000 0.000000 0.000000 0.042323
#
#
# Mechanical properties :
#
#
# Convention : Reuss Voigt Hill
#
# Bulk Modulus (GPa) = 61.40574 78.43648 69.92111
# Shear Modulus (GPa) = 25.91857 32.71604 29.31731
#
# Velocity S-wave (km/s) = 3.51773 3.95218 3.74127
# Velocity P-wave (km/s) = 6.76878 7.63378 7.21426
#
# Compressibility (1/GPa) = 0.01628512
#
# Stress axis : x y z
#
# Youngs Moduli (GPa) = 86.91650 60.13579 113.31373
#
# Poissons Ratio (x) = 0.11767 0.54856
# Poissons Ratio (y) = 0.17007 0.40106
# Poissons Ratio (z) = 0.42077 0.21284
#
# Static dielectric constant tensor:
#      x y z
#    x 1.745710 0.000000 0.000000 
#    y 0.000000 1.779220 0.000000 
#    z 0.000000 0.000000 1.835030 
# 
# From -- ./inp_files/16160.got.cif
#   From: 2010.05.17/outbox.cif.g08.bks.cpg/sg54_9_cif.got.tgz:16160.got - 2010.06.03 13:09:01.
