data_PCOD9423093
_publ_section_title
;
Structure prediction by ZEFSAII (Michael W. Deem and Ramdas Pophale) SiO2 
 PCOD9423093
Probable space group: P C C A
;
_chemical_formula_sum "Si O2"
_cell_formula_units_Z 48
_cell_length_a 9.644796
_cell_length_b 14.972947
_cell_length_c 17.530614
_cell_angle_alpha 90.000000
_cell_angle_beta 90.000000
_cell_angle_gamma 90.000000
_cell_volume 2531.613837
_symmetry_space_group_name_H-M "P C C A"
_symmetry_group_IT_number 54
_symmetry_cell_setting 'orthorhombic'
loop_
_space_group_symop_operation_xyz
x,y,z
1/2-x,-y,z
1/2+x,-y,1/2-z
-x,y,1/2-z
-x,-y,-z
1/2+x,y,-z
1/2-x,y,1/2+z
x,-y,1/2+z
loop_
_atom_site_type_symbol
_atom_site_label
_atom_site_fract_x
_atom_site_fract_y
_atom_site_fract_z
Si Si1 0.886276 0.877357 0.357306
Si Si2 0.005831 0.316771 0.832836
Si Si3 0.510600 0.822903 0.021739
Si Si4 0.372910 0.555462 0.539593
Si Si5 0.067572 0.074169 0.171486
Si Si6 0.233415 0.294595 0.944189
O O1 0.728775 0.897167 0.332811
O O2 0.934339 0.780703 0.327822
O O3 0.920369 0.868664 0.447570
O O4 0.959805 0.967733 0.330230
O O5 0.161426 0.303229 0.862760
O O6 0.000000 0.359802 0.750000
O O7 0.936061 0.374957 0.899762
O O8 0.482578 0.890403 0.089777
O O9 0.624441 0.757590 0.055947
O O10 0.377789 0.763483 0.994540
O O11 0.250000 0.500000 0.579804
O O12 0.500000 0.500000 0.500000
O O13 0.279865 0.610862 0.478845
O O14 0.000000 0.109318 0.250000
#
# Coordination Sequence:
#
# PCOD9423093 Si02
#       6
#     8   8   8   8   8   8
#     4  10  22  42  61  87 129 171 216 257 314 380
#     4  11  24  42  65  94 128 165 205 265 328 373
#     4  11  20  41  65  90 125 170 218 252 303 384
#     4  12  22  42  71  92 122 160 207 259 316 390
#     4  11  23  38  59  96 129 165 217 269 310 359
#     4  11  21  41  69  92 124 168 211 252 317 384
#
# _framework density 18.960236999999999
#
# number of rings (size 3 to 8) (size 9 to 14) (size 15 to 20)
#    0.000    1.000    6.667    1.000    2.333    0.000 
#    6.000    0.000    0.000    0.000    0.000    0.000 
#    0.000    0.000    0.000    0.000    0.000    0.000 
#
# Total GULP energy -267364.741752 kJ/mol
# GULP energy per Si atom -5570.098787 kJ/mol
# Density = 1.891708 g / cm^3
# Si number density = 18.960237 Si / 1000 Ang^3
#
#
#
# Elastic Constant Matrix: (Units=GPa)
#
#
# Indices 1 2 3 4 5 6 
#
# 1 62.0497 28.7259 19.7586 0.0000 0.0000 0.0000
# 2 28.7259 82.9246 22.3019 0.0000 0.0000 0.0000
# 3 19.7586 22.3019 113.6959 0.0000 0.0000 0.0000
# 4 0.0000 0.0000 0.0000 12.2296 0.0000 0.0000
# 5 0.0000 0.0000 0.0000 0.0000 4.7751 0.0000
# 6 0.0000 0.0000 0.0000 0.0000 0.0000 30.0323
#
#
#
# Elastic Compliance Matrix: (Units=1/GPa)
#
#
# Indices 1 2 3 4 5 6 
#
# 1 0.019703 -0.006233 -0.002201 0.000000 0.000000 0.000000
# 2 -0.006233 0.014703 -0.001801 0.000000 0.000000 0.000000
# 3 -0.002201 -0.001801 0.009531 0.000000 0.000000 0.000000
# 4 0.000000 0.000000 0.000000 0.081769 0.000000 0.000000
# 5 0.000000 0.000000 0.000000 0.000000 0.209420 0.000000
# 6 0.000000 0.000000 0.000000 0.000000 0.000000 0.033297
#
#
# Mechanical properties :
#
#
# Convention : Reuss Voigt Hill
#
# Bulk Modulus (GPa) = 42.61484 44.47142 43.54313
# Shear Modulus (GPa) = 12.60350 21.93299 17.26824
#
# Velocity S-wave (km/s) = 2.58104 3.40485 3.02116
# Velocity P-wave (km/s) = 5.60420 6.24206 5.93171
#
# Compressibility (1/GPa) = 0.02346600
#
# Stress axis : x y z
#
# Youngs Moduli (GPa) = 50.75430 68.01480 104.91884
#
# Poissons Ratio (x) = 0.42395 0.23097
# Poissons Ratio (y) = 0.31636 0.18893
# Poissons Ratio (z) = 0.11173 0.12248
#
# Static dielectric constant tensor:
#      x y z
#    x -1.111670 0.000000 0.000000 
#    y 0.000000 1.760310 0.000000 
#    z 0.000000 0.000000 1.719930 
# 
# From -- ./inp_files/16642.got.cif
#   From: 2010.05.17/outbox.cif.g08.bks.cpg/sg54_9_cif.got.tgz:16642.got - 2010.06.03 13:09:01.
