data_PCOD9423816
_publ_section_title
;
Structure prediction by ZEFSAII (Michael W. Deem and Ramdas Pophale) SiO2 
 PCOD9423816
Probable space group: P C C A
;
_chemical_formula_sum "Si O2"
_cell_formula_units_Z 48
_cell_length_a 14.534348
_cell_length_b 17.362999
_cell_length_c 9.126238
_cell_angle_alpha 90.000000
_cell_angle_beta 90.000000
_cell_angle_gamma 90.000000
_cell_volume 2303.096233
_symmetry_space_group_name_H-M "P C C A"
_symmetry_group_IT_number 54
_symmetry_cell_setting 'orthorhombic'
loop_
_space_group_symop_operation_xyz
x,y,z
1/2-x,-y,z
1/2+x,-y,1/2-z
-x,y,1/2-z
-x,-y,-z
1/2+x,y,-z
1/2-x,y,1/2+z
x,-y,1/2+z
loop_
_atom_site_type_symbol
_atom_site_label
_atom_site_fract_x
_atom_site_fract_y
_atom_site_fract_z
Si Si1 0.457024 0.111373 0.985036
Si Si2 0.094429 0.379334 0.925355
Si Si3 0.613367 0.624420 0.897538
Si Si4 0.250000 0.500000 0.019448
Si Si5 0.500000 0.997804 0.750000
Si Si6 0.871081 0.775490 0.923284
Si Si7 0.316466 0.765180 0.416141
O O1 0.551078 0.160028 0.954089
O O2 0.379775 0.174343 0.999802
O O3 0.438209 0.055858 0.846123
O O4 0.458883 0.057617 0.126909
O O5 0.109211 0.340347 0.765359
O O6 0.173655 0.443608 0.943873
O O7 0.988862 0.407786 0.927768
O O8 0.095324 0.311597 0.044922
O O9 0.686491 0.556732 0.889511
O O10 0.650324 0.682591 0.021112
O O11 0.836386 0.775482 0.755766
O O12 0.786552 0.783054 0.034973
#
# Coordination Sequence:
#
# PCOD9423816 Si02
#       7
#     8   8   8   4   4   8   8
#     4  11  24  48  74 103 146 182 230 278 348 413
#     4  11  25  43  68 100 138 186 233 286 350 404
#     4  11  25  43  68 100 138 186 233 286 350 404
#     4  12  24  44  68 100 150 178 236 296 338 410
#     4  10  24  46  78 106 140 186 220 286 352 406
#     4  12  25  43  70 104 138 183 234 284 340 416
#     4  12  25  43  70 104 138 183 234 284 340 416
#
# _framework density 20.841508000000001
#
# number of rings (size 3 to 8) (size 9 to 14) (size 15 to 20)
#    0.000    0.667    5.000    2.000    4.667    1.333 
#    0.000    5.000    0.000    0.000    0.000    0.000 
#    0.000    0.000    0.000    0.000    0.000    0.000 
#
# Total GULP energy -267779.205736 kJ/mol
# GULP energy per Si atom -5578.733453 kJ/mol
# Density = 2.079407 g / cm^3
# Si number density = 20.841508 Si / 1000 Ang^3
#
#
#
# Elastic Constant Matrix: (Units=GPa)
#
#
# Indices 1 2 3 4 5 6 
#
# 1 117.5902 45.5064 -1.2609 0.0000 0.0000 0.0000
# 2 45.5064 102.1620 33.0691 0.0000 0.0000 0.0000
# 3 -1.2609 33.0691 61.3335 0.0000 0.0000 0.0000
# 4 0.0000 0.0000 0.0000 48.7781 0.0000 0.0000
# 5 0.0000 0.0000 0.0000 0.0000 10.6068 0.0000
# 6 0.0000 0.0000 0.0000 0.0000 0.0000 -0.7728
#
#
#
# Elastic Compliance Matrix: (Units=1/GPa)
#
#
# Indices 1 2 3 4 5 6 
#
# 1 0.010838 -0.005936 0.003423 0.000000 0.000000 0.000000
# 2 -0.005936 0.015109 -0.008268 0.000000 0.000000 0.000000
# 3 0.003423 -0.008268 0.020833 0.000000 0.000000 0.000000
# 4 0.000000 0.000000 0.000000 0.020501 0.000000 0.000000
# 5 0.000000 0.000000 0.000000 0.000000 0.094279 0.000000
# 6 0.000000 0.000000 0.000000 0.000000 0.000000 -1.294035
#
#
# Mechanical properties :
#
#
# Convention : Reuss Voigt Hill
#
# Bulk Modulus (GPa) = 39.65450 48.41276 44.03363
# Shear Modulus (GPa) = -4.53511 25.30717 10.38603
#
# Velocity S-wave (km/s) = -1.47673 3.48841 2.23476
# Velocity P-wave (km/s) = 4.02000 6.28529 5.27566
#
# Compressibility (1/GPa) = 0.02521782
#
# Stress axis : x y z
#
# Youngs Moduli (GPa) = 92.26941 66.18752 48.00180
#
# Poissons Ratio (x) = 0.39286 -0.16431
# Poissons Ratio (y) = 0.54767 0.39688
# Poissons Ratio (z) = -0.31584 0.54724
#
# Static dielectric constant tensor:
#      x y z
#    x 1.763100 0.000000 0.000000 
#    y 0.000000 1.745910 0.000000 
#    z 0.000000 0.000000 1.759150 
# 
# From -- ./inp_files/3595.got.cif
#   From: 2010.05.17/outbox.cif.g08.bks.cpg/sg54_2_cif.got.tgz:3595.got - 2010.06.03 13:09:01.
