data_PCOD9423096
_publ_section_title
;
Structure prediction by ZEFSAII (Michael W. Deem and Ramdas Pophale) SiO2 
 PCOD9423096
Probable space group: P C C A
;
_chemical_formula_sum "Si O2"
_cell_formula_units_Z 60
_cell_length_a 24.596406
_cell_length_b 9.429393
_cell_length_c 10.645915
_cell_angle_alpha 90.000000
_cell_angle_beta 90.000000
_cell_angle_gamma 90.000000
_cell_volume 2469.098321
_symmetry_space_group_name_H-M "P C C A"
_symmetry_group_IT_number 54
_symmetry_cell_setting 'orthorhombic'
loop_
_space_group_symop_operation_xyz
x,y,z
1/2-x,-y,z
1/2+x,-y,1/2-z
-x,y,1/2-z
-x,-y,-z
1/2+x,y,-z
1/2-x,y,1/2+z
x,-y,1/2+z
loop_
_atom_site_type_symbol
_atom_site_label
_atom_site_fract_x
_atom_site_fract_y
_atom_site_fract_z
Si Si1 0.832984 0.891318 0.584055
Si Si2 0.226342 0.350749 0.287818
Si Si3 0.175267 0.197078 0.830523
Si Si4 0.572557 0.831178 0.276785
Si Si5 0.500000 0.604047 0.250000
Si Si6 0.050646 0.420339 0.568179
Si Si7 0.859993 0.624058 0.937210
Si Si8 0.916256 0.873397 0.358120
O O1 0.796851 0.751179 0.602358
O O2 0.875284 0.872284 0.697984
O O3 0.868391 0.903064 0.458620
O O4 0.808055 0.044890 0.613089
O O5 0.250000 0.500000 0.331806
O O6 0.277901 0.257975 0.239875
O O7 0.181955 0.383164 0.179339
O O8 0.117256 0.182354 0.762194
O O9 0.168281 0.305552 0.944494
O O10 0.537101 0.727458 0.186517
O O11 0.592230 0.733360 0.392211
O O12 0.552118 0.981367 0.328860
O O13 0.544939 0.494804 0.296201
O O14 0.109084 0.478869 0.524242
O O15 0.047820 0.254350 0.588974
O O16 0.000000 0.500000 0.500000
#
# Coordination Sequence:
#
# PCOD9423096 Si02
#       8
#     8   8   8   8   4   8   8   8
#     4  10  22  43  64  96 137 175 231 285 344 411
#     4  11  25  42  68  99 131 184 229 284 351 421
#     4  11  24  42  69  97 137 185 226 289 344 419
#     4   9  20  43  66  91 132 183 224 288 340 405
#     4  10  22  42  62  94 134 178 224 280 350 406
#     4  11  25  42  69 100 140 185 225 295 357 425
#     4  10  23  45  65  97 143 175 232 288 350 416
#     4  11  23  41  69 103 133 182 238 286 352 424
#
# _framework density 24.300367000000001
#
# number of rings (size 3 to 8) (size 9 to 14) (size 15 to 20)
#    0.000    1.600    1.333    2.000    5.600    1.067 
#    2.400    2.000    0.000    0.000    0.000    0.000 
#    0.000    0.000    0.000    0.000    0.000    0.000 
#
# Total GULP energy -334594.231399 kJ/mol
# GULP energy per Si atom -5576.570523 kJ/mol
# Density = 2.424506 g / cm^3
# Si number density = 24.300367 Si / 1000 Ang^3
#
#
#
# Elastic Constant Matrix: (Units=GPa)
#
#
# Indices 1 2 3 4 5 6 
#
# 1 45.7690 24.3195 -5.8839 0.0000 0.0000 0.0000
# 2 24.3195 133.9938 11.9485 0.0000 0.0000 0.0000
# 3 -5.8839 11.9485 51.2598 0.0000 0.0000 0.0000
# 4 0.0000 0.0000 0.0000 5.2819 0.0000 0.0000
# 5 0.0000 0.0000 0.0000 0.0000 26.5405 0.0000
# 6 0.0000 0.0000 0.0000 0.0000 0.0000 44.9433
#
#
#
# Elastic Compliance Matrix: (Units=1/GPa)
#
#
# Indices 1 2 3 4 5 6 
#
# 1 0.024961 -0.004887 0.004004 0.000000 0.000000 0.000000
# 2 -0.004887 0.008578 -0.002561 0.000000 0.000000 0.000000
# 3 0.004004 -0.002561 0.020565 0.000000 0.000000 0.000000
# 4 0.000000 0.000000 0.000000 0.189327 0.000000 0.000000
# 5 0.000000 0.000000 0.000000 0.000000 0.037678 0.000000
# 6 0.000000 0.000000 0.000000 0.000000 0.000000 0.022250
#
#
# Mechanical properties :
#
#
# Convention : Reuss Voigt Hill
#
# Bulk Modulus (GPa) = 21.17894 32.42120 26.80007
# Shear Modulus (GPa) = 15.33811 28.72905 22.03358
#
# Velocity S-wave (km/s) = 2.51507 3.44211 3.01444
# Velocity P-wave (km/s) = 4.14349 5.40077 4.81336
#
# Compressibility (1/GPa) = 0.04721672
#
# Stress axis : x y z
#
# Youngs Moduli (GPa) = 40.06327 116.57177 48.62634
#
# Poissons Ratio (x) = 0.56973 -0.19472
# Poissons Ratio (y) = 0.19580 0.12451
# Poissons Ratio (z) = -0.16043 0.29849
#
# Static dielectric constant tensor:
#      x y z
#    x 2.144590 0.000000 0.000000 
#    y 0.000000 1.972830 0.000000 
#    z 0.000000 0.000000 2.427980 
# 
# From -- ./inp_files/10361.got.cif
#   From: 2010.05.17/outbox.cif.g08.bks.cpg/sg54_6_cif.got.tgz:10361.got - 2010.06.03 13:09:01.
