data_PCOD9423834
_publ_section_title
;
Structure prediction by ZEFSAII (Michael W. Deem and Ramdas Pophale) SiO2 
 PCOD9423834
Probable space group: P C C A
;
_chemical_formula_sum "Si O2"
_cell_formula_units_Z 32
_cell_length_a 10.591843
_cell_length_b 13.990803
_cell_length_c 8.939237
_cell_angle_alpha 90.000000
_cell_angle_beta 90.000000
_cell_angle_gamma 90.000000
_cell_volume 1324.691128
_symmetry_space_group_name_H-M "P C C A"
_symmetry_group_IT_number 54
_symmetry_cell_setting 'orthorhombic'
loop_
_space_group_symop_operation_xyz
x,y,z
1/2-x,-y,z
1/2+x,-y,1/2-z
-x,y,1/2-z
-x,-y,-z
1/2+x,y,-z
1/2-x,y,1/2+z
x,-y,1/2+z
loop_
_atom_site_type_symbol
_atom_site_label
_atom_site_fract_x
_atom_site_fract_y
_atom_site_fract_z
Si Si1 0.750000 0.500000 0.174877
Si Si2 0.000000 0.756289 0.750000
Si Si3 0.750000 0.000000 0.608176
Si Si4 0.335931 0.363331 0.566501
Si Si5 0.000000 0.914438 0.250000
Si Si6 0.656127 0.814014 0.000295
O O1 0.688143 0.576624 0.283599
O O2 0.840869 0.560906 0.067085
O O3 0.040250 0.694745 0.606329
O O4 0.885338 0.810870 0.675385
O O5 0.880563 0.021500 0.697693
O O6 0.744705 0.093445 0.503046
O O7 0.227672 0.284211 0.538530
O O8 0.047705 0.845391 0.115669
#
# Coordination Sequence:
#
# PCOD9423834 Si02
#       6
#     4   4   4   8   4   8
#     4  10  24  48  74 102 152 188 252 306 376 438
#     4  12  25  44  75 106 146 200 241 306 379 444
#     4  12  26  50  76 116 152 204 250 314 378 458
#     4  11  24  48  70 110 146 194 245 314 363 453
#     4  12  27  46  79 112 152 204 255 310 375 454
#     4  12  26  47  74 110 153 193 251 310 376 447
#
# _framework density 24.156575
#
# number of rings (size 3 to 8) (size 9 to 14) (size 15 to 20)
#    0.000    0.500    2.500    5.250    3.500    1.000 
#    0.000    0.000    0.000    0.000    0.000    0.000 
#    0.000    0.000    0.000    0.000    0.000    0.000 
#
# Total GULP energy -178791.678199 kJ/mol
# GULP energy per Si atom -5587.239944 kJ/mol
# Density = 2.410159 g / cm^3
# Si number density = 24.156575 Si / 1000 Ang^3
#
#
#
# Elastic Constant Matrix: (Units=GPa)
#
#
# Indices 1 2 3 4 5 6 
#
# 1 90.7255 34.8481 29.0301 0.0000 0.0000 0.0000
# 2 34.8481 155.2378 55.9718 0.0000 0.0000 0.0000
# 3 29.0301 55.9718 120.9264 0.0000 0.0000 0.0000
# 4 0.0000 0.0000 0.0000 22.4164 0.0000 0.0000
# 5 0.0000 0.0000 0.0000 0.0000 29.6449 0.0000
# 6 0.0000 0.0000 0.0000 0.0000 0.0000 7.9510
#
#
#
# Elastic Compliance Matrix: (Units=1/GPa)
#
#
# Indices 1 2 3 4 5 6 
#
# 1 0.012467 -0.002064 -0.002038 0.000000 0.000000 0.000000
# 2 -0.002064 0.008074 -0.003242 0.000000 0.000000 0.000000
# 3 -0.002038 -0.003242 0.010259 0.000000 0.000000 0.000000
# 4 0.000000 0.000000 0.000000 0.044610 0.000000 0.000000
# 5 0.000000 0.000000 0.000000 0.000000 0.033733 0.000000
# 6 0.000000 0.000000 0.000000 0.000000 0.000000 0.125771
#
#
# Mechanical properties :
#
#
# Convention : Reuss Voigt Hill
#
# Bulk Modulus (GPa) = 62.05902 67.39885 64.72894
# Shear Modulus (GPa) = 19.61009 28.47178 24.04094
#
# Velocity S-wave (km/s) = 2.85229 3.43685 3.15812
# Velocity P-wave (km/s) = 6.04925 6.61140 6.33657
#
# Compressibility (1/GPa) = 0.01611369
#
# Stress axis : x y z
#
# Youngs Moduli (GPa) = 80.21171 123.85723 97.47530
#
# Poissons Ratio (x) = 0.25564 0.19861
# Poissons Ratio (y) = 0.16555 0.31597
# Poissons Ratio (z) = 0.16344 0.40149
#
# Static dielectric constant tensor:
#      x y z
#    x 1.891040 0.000000 0.000000 
#    y 0.000000 1.968080 0.000000 
#    z 0.000000 0.000000 1.990230 
# 
# From -- ./inp_files/2839.got.cif
#   From: 2010.05.17/outbox.cif.g08.bks.cpg/sg54_2_cif.got.tgz:2839.got - 2010.06.03 13:09:01.
