data_PCOD9423229
_publ_section_title
;
Structure prediction by ZEFSAII (Michael W. Deem and Ramdas Pophale) SiO2 
 PCOD9423229
Probable space group: P C C A
;
_chemical_formula_sum "Si O2"
_cell_formula_units_Z 48
_cell_length_a 13.593874
_cell_length_b 6.796758
_cell_length_c 25.903831
_cell_angle_alpha 90.000000
_cell_angle_beta 90.000000
_cell_angle_gamma 90.000000
_cell_volume 2393.365604
_symmetry_space_group_name_H-M "P C C A"
_symmetry_group_IT_number 54
_symmetry_cell_setting 'orthorhombic'
loop_
_space_group_symop_operation_xyz
x,y,z
1/2-x,-y,z
1/2+x,-y,1/2-z
-x,y,1/2-z
-x,-y,-z
1/2+x,y,-z
1/2-x,y,1/2+z
x,-y,1/2+z
loop_
_atom_site_type_symbol
_atom_site_label
_atom_site_fract_x
_atom_site_fract_y
_atom_site_fract_z
Si Si1 0.991773 0.456652 0.422432
Si Si2 0.343906 0.647127 0.996368
Si Si3 0.250000 0.000000 0.932340
Si Si4 0.343455 0.378350 0.148370
Si Si5 0.384050 0.321987 0.742450
Si Si6 0.250000 0.000000 0.689726
Si Si7 0.667841 0.663214 0.139766
O O1 0.910792 0.326387 0.452295
O O2 0.928304 0.621027 0.393835
O O3 0.076811 0.536796 0.459786
O O4 0.054932 0.365861 0.376650
O O5 0.250000 0.500000 0.003290
O O6 0.309990 0.849720 0.969388
O O7 0.194017 0.857636 0.892402
O O8 0.250000 0.500000 0.127893
O O9 0.369423 0.496233 0.201862
O O10 0.310902 0.158891 0.158391
O O11 0.500000 0.292376 0.750000
O O12 0.334645 0.346135 0.798499
O O13 0.328550 0.131574 0.720370
O O14 0.750000 0.500000 0.123392
#
# Coordination Sequence:
#
# PCOD9423229 Si02
#       7
#     8   8   4   8   8   4   8
#     4  11  22  44  72  90 131 176 216 268 337 396
#     4  11  24  46  65  98 130 168 221 281 331 395
#     4  12  23  42  69  92 134 166 219 281 332 380
#     4  10  22  44  65  95 136 177 215 275 327 387
#     4  11  23  41  68  97 137 183 222 264 326 392
#     4  10  23  42  63 100 140 168 227 271 314 384
#     4  12  23  43  66  99 133 173 220 274 331 390
#
# _framework density 20.055439
#
# number of rings (size 3 to 8) (size 9 to 14) (size 15 to 20)
#    0.000    1.000    5.000    2.500    0.000    2.667 
#    3.000    4.167    0.000    0.000    0.000    0.000 
#    0.000    0.000    0.000    0.000    0.000    0.000 
#
# Total GULP energy -267466.817189 kJ/mol
# GULP energy per Si atom -5572.225358 kJ/mol
# Density = 2.000979 g / cm^3
# Si number density = 20.055439 Si / 1000 Ang^3
#
#
#
# Elastic Constant Matrix: (Units=GPa)
#
#
# Indices 1 2 3 4 5 6 
#
# 1 134.9655 40.5470 33.9562 0.0000 0.0000 0.0000
# 2 40.5470 80.2222 15.3237 0.0000 0.0000 0.0000
# 3 33.9562 15.3237 66.3334 0.0000 0.0000 0.0000
# 4 0.0000 0.0000 0.0000 -50.3769 0.0000 0.0000
# 5 0.0000 0.0000 0.0000 0.0000 35.4592 0.0000
# 6 0.0000 0.0000 0.0000 0.0000 0.0000 14.0658
#
#
#
# Elastic Compliance Matrix: (Units=1/GPa)
#
#
# Indices 1 2 3 4 5 6 
#
# 1 0.009649 -0.004115 -0.003989 0.000000 0.000000 0.000000
# 2 -0.004115 0.014796 -0.001311 0.000000 0.000000 0.000000
# 3 -0.003989 -0.001311 0.017420 0.000000 0.000000 0.000000
# 4 0.000000 0.000000 0.000000 -0.019850 0.000000 0.000000
# 5 0.000000 0.000000 0.000000 0.000000 0.028201 0.000000
# 6 0.000000 0.000000 0.000000 0.000000 0.000000 0.071094
#
#
# Mechanical properties :
#
#
# Convention : Reuss Voigt Hill
#
# Bulk Modulus (GPa) = 43.41322 51.24166 47.32744
# Shear Modulus (GPa) = 33.82507 12.60922 23.21715
#
# Velocity S-wave (km/s) = 4.11125 2.51015 3.40611
# Velocity P-wave (km/s) = 6.65057 5.83152 6.25447
#
# Compressibility (1/GPa) = 0.02303446
#
# Stress axis : x y z
#
# Youngs Moduli (GPa) = 103.63650 67.58680 57.40464
#
# Poissons Ratio (x) = 0.27812 0.22897
# Poissons Ratio (y) = 0.42647 0.07528
# Poissons Ratio (z) = 0.41338 0.08864
#
# Static dielectric constant tensor:
#      x y z
#    x 1.266960 0.000000 0.000000 
#    y 0.000000 1.747450 0.000000 
#    z 0.000000 0.000000 1.782820 
# 
# From -- ./inp_files/26494.got.cif
#   From: 2010.05.17/outbox.cif.g08.bks.cpg/sg54_14_cif.got.tgz:26494.got - 2010.06.03 13:09:01.
