data_PCOD9423966
_publ_section_title
;
Structure prediction by ZEFSAII (Michael W. Deem and Ramdas Pophale) SiO2 
 PCOD9423966
Probable space group: P C C A
;
_chemical_formula_sum "Si O2"
_cell_formula_units_Z 52
_cell_length_a 14.357355
_cell_length_b 7.703235
_cell_length_c 21.208448
_cell_angle_alpha 90.000000
_cell_angle_beta 90.000000
_cell_angle_gamma 90.000000
_cell_volume 2345.613619
_symmetry_space_group_name_H-M "P C C A"
_symmetry_group_IT_number 54
_symmetry_cell_setting 'orthorhombic'
loop_
_space_group_symop_operation_xyz
x,y,z
1/2-x,-y,z
1/2+x,-y,1/2-z
-x,y,1/2-z
-x,-y,-z
1/2+x,y,-z
1/2-x,y,1/2+z
x,-y,1/2+z
loop_
_atom_site_type_symbol
_atom_site_label
_atom_site_fract_x
_atom_site_fract_y
_atom_site_fract_z
Si Si1 0.750000 0.500000 0.123854
Si Si2 0.500917 0.177864 0.182948
Si Si3 0.794484 0.188107 0.710963
Si Si4 0.752520 0.789396 0.851273
Si Si5 0.098197 0.348860 0.565744
Si Si6 0.038210 0.216013 0.183654
Si Si7 0.560056 0.372422 0.569028
O O1 0.754643 0.334281 0.169891
O O2 0.847541 0.489057 0.084672
O O3 0.500000 0.278107 0.250000
O O4 0.609789 0.155958 0.175203
O O5 0.459289 0.259756 0.121479
O O6 0.454175 0.991126 0.192296
O O7 0.799758 0.244785 0.784460
O O8 0.750000 0.000000 0.714369
O O9 0.702069 0.683855 0.907327
O O10 0.858135 0.729793 0.836903
O O11 0.750000 0.000000 0.864097
O O12 0.086519 0.274124 0.495419
O O13 0.039575 0.528120 0.559468
O O14 0.000000 0.287710 0.250000
O O15 0.964416 0.256474 0.129331
#
# Coordination Sequence:
#
# PCOD9423966 Si02
#       7
#     4   8   8   8   8   8   8
#     4  12  24  44  66  98 136 184 234 306 356 432
#     4  11  19  41  70  95 136 179 220 289 365 417
#     4  11  22  39  69 103 136 177 232 293 362 431
#     4  11  21  42  69 102 141 181 233 292 364 436
#     4  11  24  44  66  92 136 191 228 292 351 434
#     4  11  23  42  71 105 139 175 232 302 350 433
#     4  11  27  44  64  97 140 183 243 288 359 431
#
# _framework density 22.169039000000001
#
# number of rings (size 3 to 8) (size 9 to 14) (size 15 to 20)
#    0.000    0.923    4.615    4.615    0.000    6.769 
#    0.000    0.769    0.000    0.000    0.000    0.000 
#    0.000    0.000    0.000    0.000    0.000    0.000 
#
# Total GULP energy -289892.065658 kJ/mol
# GULP energy per Si atom -5574.847416 kJ/mol
# Density = 2.211858 g / cm^3
# Si number density = 22.169039 Si / 1000 Ang^3
#
#
#
# Elastic Constant Matrix: (Units=GPa)
#
#
# Indices 1 2 3 4 5 6 
#
# 1 145.0506 17.9638 62.9726 0.0000 0.0000 0.0000
# 2 17.9638 33.1112 28.8747 0.0000 0.0000 0.0000
# 3 62.9726 28.8747 185.1249 0.0000 0.0000 0.0000
# 4 0.0000 0.0000 0.0000 30.3351 0.0000 0.0000
# 5 0.0000 0.0000 0.0000 0.0000 4.6313 0.0000
# 6 0.0000 0.0000 0.0000 0.0000 0.0000 20.3321
#
#
#
# Elastic Compliance Matrix: (Units=1/GPa)
#
#
# Indices 1 2 3 4 5 6 
#
# 1 0.008243 -0.002346 -0.002438 0.000000 0.000000 0.000000
# 2 -0.002346 0.035624 -0.004758 0.000000 0.000000 0.000000
# 3 -0.002438 -0.004758 0.006973 0.000000 0.000000 0.000000
# 4 0.000000 0.000000 0.000000 0.032965 0.000000 0.000000
# 5 0.000000 0.000000 0.000000 0.000000 0.215921 0.000000
# 6 0.000000 0.000000 0.000000 0.000000 0.000000 0.049183
#
#
# Mechanical properties :
#
#
# Convention : Reuss Voigt Hill
#
# Bulk Modulus (GPa) = 31.49097 64.76766 48.12931
# Shear Modulus (GPa) = 13.20726 27.95807 20.58267
#
# Velocity S-wave (km/s) = 2.44345 3.55509 3.05034
# Velocity P-wave (km/s) = 4.71130 6.79193 5.84494
#
# Compressibility (1/GPa) = 0.03175513
#
# Stress axis : x y z
#
# Youngs Moduli (GPa) = 121.31250 28.07130 143.40449
#
# Poissons Ratio (x) = 0.06586 0.34963
# Poissons Ratio (y) = 0.28460 0.68236
# Poissons Ratio (z) = 0.29577 0.13357
#
# Static dielectric constant tensor:
#      x y z
#    x 1.938220 0.000000 0.000000 
#    y 0.000000 1.854110 0.000000 
#    z 0.000000 0.000000 1.871490 
# 
# From -- ./inp_files/21562.got.cif
#   From: 2010.05.17/outbox.cif.g08.bks.cpg/sg54_11_cif.got.tgz:21562.got - 2010.06.03 13:09:01.
