data_PCOD9423449
_publ_section_title
;
Structure prediction by ZEFSAII (Michael W. Deem and Ramdas Pophale) SiO2 
 PCOD9423449
Probable space group: P C C A
;
_chemical_formula_sum "Si O2"
_cell_formula_units_Z 36
_cell_length_a 5.277210
_cell_length_b 20.850780
_cell_length_c 13.627148
_cell_angle_alpha 90.000000
_cell_angle_beta 90.000000
_cell_angle_gamma 90.000000
_cell_volume 1499.448850
_symmetry_space_group_name_H-M "P C C A"
_symmetry_group_IT_number 54
_symmetry_cell_setting 'orthorhombic'
loop_
_space_group_symop_operation_xyz
x,y,z
1/2-x,-y,z
1/2+x,-y,1/2-z
-x,y,1/2-z
-x,-y,-z
1/2+x,y,-z
1/2-x,y,1/2+z
x,-y,1/2+z
loop_
_atom_site_type_symbol
_atom_site_label
_atom_site_fract_x
_atom_site_fract_y
_atom_site_fract_z
Si Si1 0.708449 0.576730 0.551633
Si Si2 0.500000 0.637938 0.750000
Si Si3 0.425786 0.235119 0.538389
Si Si4 0.500000 0.956488 0.750000
Si Si5 0.000000 0.274879 0.250000
Si Si6 0.890761 0.091231 0.541428
O O1 0.750000 0.500000 0.549295
O O2 0.497580 0.598674 0.471098
O O3 0.581762 0.596362 0.655003
O O4 0.251433 0.682367 0.738300
O O5 0.652626 0.266903 0.477591
O O6 0.509219 0.233586 0.650871
O O7 0.872039 0.164688 0.505815
O O8 0.524416 0.914254 0.652734
O O9 0.250000 0.000000 0.742224
O O10 0.613103 0.062576 0.525753
#
# Coordination Sequence:
#
# PCOD9423449 Si02
#       6
#     8   4   8   4   4   8
#     4  10  23  43  67  95 130 175 222 266 322 396
#     4  12  26  41  67 100 138 173 217 280 342 388
#     4  10  23  42  66  92 127 172 222 269 320 394
#     4  12  26  42  66 100 134 166 214 278 338 392
#     4  12  26  41  63 100 132 171 219 276 336 388
#     4  10  23  42  67  94 127 171 215 265 325 398
#
# _framework density 24.00882
#
# number of rings (size 3 to 8) (size 9 to 14) (size 15 to 20)
#    0.000    1.333    0.000    4.000    0.000   18.667 
#    0.000    0.000    0.000    0.000    0.000    0.000 
#    0.000    0.000    0.000    0.000    0.000    0.000 
#
# Total GULP energy -201295.036715 kJ/mol
# GULP energy per Si atom -5591.528798 kJ/mol
# Density = 2.395418 g / cm^3
# Si number density = 24.008820 Si / 1000 Ang^3
#
#
#
# Elastic Constant Matrix: (Units=GPa)
#
#
# Indices 1 2 3 4 5 6 
#
# 1 197.3745 34.9522 19.2812 0.0000 0.0000 0.0000
# 2 34.9522 94.3960 16.6784 0.0000 0.0000 0.0000
# 3 19.2812 16.6784 120.0248 0.0000 0.0000 0.0000
# 4 0.0000 0.0000 0.0000 27.9333 0.0000 0.0000
# 5 0.0000 0.0000 0.0000 0.0000 43.1762 0.0000
# 6 0.0000 0.0000 0.0000 0.0000 0.0000 63.2161
#
#
#
# Elastic Compliance Matrix: (Units=1/GPa)
#
#
# Indices 1 2 3 4 5 6 
#
# 1 0.005466 -0.001916 -0.000612 0.000000 0.000000 0.000000
# 2 -0.001916 0.011532 -0.001295 0.000000 0.000000 0.000000
# 3 -0.000612 -0.001295 0.008610 0.000000 0.000000 0.000000
# 4 0.000000 0.000000 0.000000 0.035800 0.000000 0.000000
# 5 0.000000 0.000000 0.000000 0.000000 0.023161 0.000000
# 6 0.000000 0.000000 0.000000 0.000000 0.000000 0.015819
#
#
# Mechanical properties :
#
#
# Convention : Reuss Voigt Hill
#
# Bulk Modulus (GPa) = 55.67066 61.51322 58.59194
# Shear Modulus (GPa) = 43.85268 49.59069 46.72168
#
# Velocity S-wave (km/s) = 4.27842 4.54973 4.41616
# Velocity P-wave (km/s) = 6.90250 7.29909 7.10356
#
# Compressibility (1/GPa) = 0.01796278
#
# Stress axis : x y z
#
# Youngs Moduli (GPa) = 182.96564 86.71728 116.14673
#
# Poissons Ratio (x) = 0.16612 0.07106
# Poissons Ratio (y) = 0.35049 0.15037
# Poissons Ratio (z) = 0.11194 0.11227
#
# Static dielectric constant tensor:
#      x y z
#    x 2.015110 0.000000 0.000000 
#    y 0.000000 3.312950 0.000000 
#    z 0.000000 0.000000 1.883620 
# 
# From -- ./inp_files/6395.got.cif
#   From: 2010.05.17/outbox.cif.g08.bks.cpg/sg54_4_cif.got.tgz:6395.got - 2010.06.03 13:09:01.
