data_PCOD9423237
_publ_section_title
;
Structure prediction by ZEFSAII (Michael W. Deem and Ramdas Pophale) SiO2 
 PCOD9423237
Probable space group: P C C A
;
_chemical_formula_sum "Si O2"
_cell_formula_units_Z 48
_cell_length_a 24.211143
_cell_length_b 5.416692
_cell_length_c 15.229628
_cell_angle_alpha 90.000000
_cell_angle_beta 90.000000
_cell_angle_gamma 90.000000
_cell_volume 1997.278973
_symmetry_space_group_name_H-M "P C C A"
_symmetry_group_IT_number 54
_symmetry_cell_setting 'orthorhombic'
loop_
_space_group_symop_operation_xyz
x,y,z
1/2-x,-y,z
1/2+x,-y,1/2-z
-x,y,1/2-z
-x,-y,-z
1/2+x,y,-z
1/2-x,y,1/2+z
x,-y,1/2+z
loop_
_atom_site_type_symbol
_atom_site_label
_atom_site_fract_x
_atom_site_fract_y
_atom_site_fract_z
Si Si1 0.500000 0.035392 0.250000
Si Si2 0.932217 0.753172 0.529702
Si Si3 0.725763 0.250425 0.652302
Si Si4 0.621361 0.175707 0.757024
Si Si5 0.038682 0.743832 0.420809
Si Si6 0.854834 0.328600 0.863898
Si Si7 0.750000 0.500000 0.976697
O O1 0.443786 0.879937 0.252750
O O2 0.497662 0.204678 0.335727
O O3 0.927866 0.506573 0.586329
O O4 0.896882 0.718250 0.443474
O O5 0.997859 0.747625 0.504535
O O6 0.921840 0.022802 0.567097
O O7 0.750000 0.500000 0.695836
O O8 0.746914 0.282231 0.551448
O O9 0.750000 0.000000 0.689426
O O10 0.661167 0.224926 0.673153
O O11 0.644483 0.927622 0.807743
O O12 0.625967 0.431825 0.809849
O O13 0.799353 0.422106 0.912499
#
# Coordination Sequence:
#
# PCOD9423237 Si02
#       7
#     4   8   8   8   8   8   4
#     4  12  28  48  72 116 152 210 256 306 388 466
#     4  10  22  44  66  99 140 190 240 293 364 424
#     4  10  25  50  76 113 143 200 248 324 385 456
#     4  12  29  47  77 109 163 196 252 314 390 461
#     4  10  23  40  70  96 143 188 240 299 346 443
#     4  12  27  48  74 113 144 202 249 321 377 460
#     4  10  30  46  82 106 148 184 270 314 392 448
#
# _framework density 24.032696000000001
#
# number of rings (size 3 to 8) (size 9 to 14) (size 15 to 20)
#    0.500    0.667    1.667    2.000   12.833    4.000 
#    0.000    0.000    0.000    0.000    0.000    0.000 
#    0.000    0.000    0.000    0.000    0.000    0.000 
#
# Total GULP energy -267854.065561 kJ/mol
# GULP energy per Si atom -5580.293033 kJ/mol
# Density = 2.397800 g / cm^3
# Si number density = 24.032696 Si / 1000 Ang^3
#
#
#
# Elastic Constant Matrix: (Units=GPa)
#
#
# Indices 1 2 3 4 5 6 
#
# 1 131.9300 62.1225 17.6374 0.0000 0.0000 0.0000
# 2 62.1225 219.0005 44.8013 0.0000 0.0000 0.0000
# 3 17.6374 44.8013 39.3966 0.0000 0.0000 0.0000
# 4 0.0000 0.0000 0.0000 -53.6887 0.0000 0.0000
# 5 0.0000 0.0000 0.0000 0.0000 9.9495 0.0000
# 6 0.0000 0.0000 0.0000 0.0000 0.0000 31.5898
#
#
#
# Elastic Compliance Matrix: (Units=1/GPa)
#
#
# Indices 1 2 3 4 5 6 
#
# 1 0.008810 -0.002205 -0.001436 0.000000 0.000000 0.000000
# 2 -0.002205 0.006503 -0.006407 0.000000 0.000000 0.000000
# 3 -0.001436 -0.006407 0.033312 0.000000 0.000000 0.000000
# 4 0.000000 0.000000 0.000000 -0.018626 0.000000 0.000000
# 5 0.000000 0.000000 0.000000 0.000000 0.100508 0.000000
# 6 0.000000 0.000000 0.000000 0.000000 0.000000 0.031656
#
#
# Mechanical properties :
#
#
# Convention : Reuss Voigt Hill
#
# Bulk Modulus (GPa) = 35.05451 71.04996 53.05223
# Shear Modulus (GPa) = 26.07294 15.28785 20.68040
#
# Velocity S-wave (km/s) = 3.29735 2.52489 2.93663
# Velocity P-wave (km/s) = 5.39579 6.17480 5.79839
#
# Compressibility (1/GPa) = 0.02852700
#
# Stress axis : x y z
#
# Youngs Moduli (GPa) = 113.50450 153.78671 30.01901
#
# Poissons Ratio (x) = 0.33915 0.04312
# Poissons Ratio (y) = 0.25031 0.19234
# Poissons Ratio (z) = 0.16304 0.98536
#
# Static dielectric constant tensor:
#      x y z
#    x 2.119090 0.000000 0.000000 
#    y 0.000000 1.994020 0.000000 
#    z 0.000000 0.000000 2.032150 
# 
# From -- ./inp_files/15202.got.cif
#   From: 2010.05.17/outbox.cif.g08.bks.cpg/sg54_8_cif.got.tgz:15202.got - 2010.06.03 13:09:01.
