data_PCOD9423593
_publ_section_title
;
Structure prediction by ZEFSAII (Michael W. Deem and Ramdas Pophale) SiO2 
 PCOD9423593
Probable space group: P C C A
;
_chemical_formula_sum "Si O2"
_cell_formula_units_Z 32
_cell_length_a 8.392707
_cell_length_b 5.283228
_cell_length_c 29.183590
_cell_angle_alpha 90.000000
_cell_angle_beta 90.000000
_cell_angle_gamma 90.000000
_cell_volume 1294.017442
_symmetry_space_group_name_H-M "P C C A"
_symmetry_group_IT_number 54
_symmetry_cell_setting 'orthorhombic'
loop_
_space_group_symop_operation_xyz
x,y,z
1/2-x,-y,z
1/2+x,-y,1/2-z
-x,y,1/2-z
-x,-y,-z
1/2+x,y,-z
1/2-x,y,1/2+z
x,-y,1/2+z
loop_
_atom_site_type_symbol
_atom_site_label
_atom_site_fract_x
_atom_site_fract_y
_atom_site_fract_z
Si Si1 0.750000 0.000000 0.285954
Si Si2 0.000479 0.291362 0.660337
Si Si3 0.250000 0.500000 0.401274
Si Si4 0.500000 0.637167 0.250000
Si Si5 0.250000 0.500000 0.588157
Si Si6 0.503156 0.748513 0.468803
O O1 0.598911 0.059050 0.318605
O O2 0.834030 0.207505 0.254065
O O3 0.116319 0.395999 0.621311
O O4 0.837201 0.302442 0.632916
O O5 0.991761 0.471203 0.704380
O O6 0.360946 0.680691 0.433183
O O7 0.330412 0.280940 0.558111
O O8 0.500000 0.500000 0.500000
O O9 0.500000 0.000000 0.500000
#
# Coordination Sequence:
#
# PCOD9423593 Si02
#       6
#     4   8   4   4   4   8
#     4  12  26  44  78 112 154 234 266 334 410 472
#     4  11  25  50  71 116 163 210 274 336 396 486
#     4  10  27  49  80 118 162 206 272 347 411 504
#     4  12  26  46  76 112 174 214 278 328 408 490
#     4  10  23  49  74 112 160 200 262 345 403 492
#     4  11  26  51  79 115 157 207 267 338 426 504
#
# _framework density 24.729187
#
# number of rings (size 3 to 8) (size 9 to 14) (size 15 to 20)
#    0.000    1.000    2.500    1.500    7.000    8.000 
#    4.500    3.750    0.000    0.000    0.000    0.000 
#    0.000    0.000    0.000    0.000    0.000    0.000 
#
# Total GULP energy -178855.687659 kJ/mol
# GULP energy per Si atom -5589.240239 kJ/mol
# Density = 2.467290 g / cm^3
# Si number density = 24.729187 Si / 1000 Ang^3
#
#
#
# Elastic Constant Matrix: (Units=GPa)
#
#
# Indices 1 2 3 4 5 6 
#
# 1 121.4277 46.3140 83.2472 0.0000 0.0000 0.0000
# 2 46.3140 120.2867 76.4993 0.0000 0.0000 0.0000
# 3 83.2472 76.4993 178.0222 0.0000 0.0000 0.0000
# 4 0.0000 0.0000 0.0000 21.3702 0.0000 0.0000
# 5 0.0000 0.0000 0.0000 0.0000 55.4938 0.0000
# 6 0.0000 0.0000 0.0000 0.0000 0.0000 12.8264
#
#
#
# Elastic Compliance Matrix: (Units=1/GPa)
#
#
# Indices 1 2 3 4 5 6 
#
# 1 0.012311 -0.001485 -0.005119 0.000000 0.000000 0.000000
# 2 -0.001485 0.011619 -0.004299 0.000000 0.000000 0.000000
# 3 -0.005119 -0.004299 0.009858 0.000000 0.000000 0.000000
# 4 0.000000 0.000000 0.000000 0.046794 0.000000 0.000000
# 5 0.000000 0.000000 0.000000 0.000000 0.018020 0.000000
# 6 0.000000 0.000000 0.000000 0.000000 0.000000 0.077964
#
#
# Mechanical properties :
#
#
# Convention : Reuss Voigt Hill
#
# Bulk Modulus (GPa) = 83.44604 92.42861 87.93732
# Shear Modulus (GPa) = 24.70781 32.18315 28.44548
#
# Velocity S-wave (km/s) = 3.16434 3.61144 3.39526
# Velocity P-wave (km/s) = 6.86789 7.40591 7.14197
#
# Compressibility (1/GPa) = 0.01198379
#
# Stress axis : x y z
#
# Youngs Moduli (GPa) = 81.22826 86.06673 101.43835
#
# Poissons Ratio (x) = 0.12777 0.51926
# Poissons Ratio (y) = 0.12059 0.43604
# Poissons Ratio (z) = 0.41580 0.36997
#
# Static dielectric constant tensor:
#      x y z
#    x 2.232750 0.000000 0.000000 
#    y 0.000000 2.114710 0.000000 
#    z 0.000000 0.000000 2.020660 
# 
# From -- ./inp_files/27476.got.cif
#   From: 2010.05.17/outbox.cif.g08.bks.cpg/sg54_14_cif.got.tgz:27476.got - 2010.06.03 13:09:01.
