data_PCOD9424672
_publ_section_title
;
Structure prediction by ZEFSAII (Michael W. Deem and Ramdas Pophale) SiO2 
 PCOD9424672
Probable space group: P C C A
;
_chemical_formula_sum "Si O2"
_cell_formula_units_Z 48
_cell_length_a 9.000000
_cell_length_b 9.000000
_cell_length_c 30.000000
_cell_angle_alpha 90.000000
_cell_angle_beta 90.000000
_cell_angle_gamma 90.000000
_cell_volume 2430.000000
_symmetry_space_group_name_H-M "P C C A"
_symmetry_group_IT_number 54
_symmetry_cell_setting 'orthorhombic'
loop_
_space_group_symop_operation_xyz
x,y,z
1/2-x,-y,z
1/2+x,-y,1/2-z
-x,y,1/2-z
-x,-y,-z
1/2+x,y,-z
1/2-x,y,1/2+z
x,-y,1/2+z
loop_
_atom_site_type_symbol
_atom_site_label
_atom_site_fract_x
_atom_site_fract_y
_atom_site_fract_z
Si Si1 0.750000 0.000000 0.832529
Si Si2 0.384895 0.110144 0.522152
Si Si3 0.493133 0.805132 0.116858
Si Si4 0.996686 0.213590 0.699617
Si Si5 0.103633 0.596478 0.467560
Si Si6 0.750000 0.000000 0.158794
Si Si7 0.927518 0.470205 0.630795
O O1 0.640314 0.104151 0.860715
O O2 0.858013 0.111303 0.806503
O O3 0.459861 0.186477 0.564673
O O4 0.353899 0.244097 0.487919
O O5 0.250000 0.000000 0.534470
O O6 0.500000 0.000000 0.500000
O O7 0.644154 0.893047 0.129412
O O8 0.501897 0.634430 0.131975
O O9 0.986019 0.353951 0.666895
O O10 0.000000 0.267012 0.750000
O O11 0.857360 0.106009 0.687710
O O12 0.250000 0.500000 0.462676
O O13 0.040099 0.603563 0.417586
O O14 0.000000 0.500000 0.500000
O O15 0.750000 0.500000 0.636155
#
# Coordination Sequence:
#
# PCOD9424672 Si02
#       7
#     4   8   8   8   8   4   8
#     4  10  25  44  69 100 132 172 216 285 343 390
#     4  12  27  40  64  98 134 176 229 276 325 393
#     4  11  23  45  64 101 135 178 221 278 335 402
#     4  11  24  46  71 101 131 173 224 279 341 406
#     4  11  24  42  63  91 131 175 216 264 325 388
#     4  10  23  42  75  92 134 178 222 273 335 416
#     4  11  24  44  69  97 135 179 225 269 338 408
#
# _framework density 19.753086
#
# number of rings (size 3 to 8) (size 9 to 14) (size 15 to 20)
#    0.000    1.000    4.167    1.500    8.167    2.000 
#    3.000    0.833    0.000    0.000    0.000    0.000 
#    0.000    0.000    0.000    0.000    0.000    0.000 
#
# Total GULP energy -268213.417373 kJ/mol
# GULP energy per Si atom -5587.779529 kJ/mol
# Density = 1.970813 g / cm^3
# Si number density = 19.753086 Si / 1000 Ang^3
#
#
#
# Elastic Constant Matrix: (Units=GPa)
#
#
# Indices 1 2 3 4 5 6 
#
# 1 89.3875 36.9355 43.7589 0.0000 0.0000 0.0000
# 2 36.9355 171.5305 83.8110 0.0000 0.0000 0.0000
# 3 43.7589 83.8110 158.5845 0.0000 0.0000 0.0000
# 4 0.0000 0.0000 0.0000 30.9514 0.0000 0.0000
# 5 0.0000 0.0000 0.0000 0.0000 0.9105 0.0000
# 6 0.0000 0.0000 0.0000 0.0000 0.0000 29.2143
#
#
#
# Elastic Compliance Matrix: (Units=1/GPa)
#
#
# Indices 1 2 3 4 5 6 
#
# 1 0.013190 -0.001432 -0.002883 0.000000 0.000000 0.000000
# 2 -0.001432 0.008015 -0.003841 0.000000 0.000000 0.000000
# 3 -0.002883 -0.003841 0.009131 0.000000 0.000000 0.000000
# 4 0.000000 0.000000 0.000000 0.032309 0.000000 0.000000
# 5 0.000000 0.000000 0.000000 0.000000 1.098342 0.000000
# 6 0.000000 0.000000 0.000000 0.000000 0.000000 0.034230
#
#
# Mechanical properties :
#
#
# Convention : Reuss Voigt Hill
#
# Bulk Modulus (GPa) = 71.29946 83.16815 77.23380
# Shear Modulus (GPa) = 4.11116 29.21504 16.66310
#
# Velocity S-wave (km/s) = 1.44423 3.84996 2.90758
# Velocity P-wave (km/s) = 6.24138 7.87136 7.10327
#
# Compressibility (1/GPa) = 0.01402535
#
# Stress axis : x y z
#
# Youngs Moduli (GPa) = 75.81424 124.77041 109.51564
#
# Poissons Ratio (x) = 0.17861 0.31574
# Poissons Ratio (y) = 0.10853 0.42062
# Poissons Ratio (z) = 0.21858 0.47921
#
# Static dielectric constant tensor:
#      x y z
#    x 1.656220 0.000000 0.000000 
#    y 0.000000 1.545770 0.000000 
#    z 0.000000 0.000000 1.781730 
# 
# From -- ./inp_files/27817.got.cif
#   From: 2010.05.17/outbox.ucp.g08.bks.cvg/sg54_14_cif.got.tgz:27817.got - 2010.06.11 16:34:40.
