data_PCOD9424305
_publ_section_title
;
Structure prediction by ZEFSAII (Michael W. Deem and Ramdas Pophale) SiO2 
 PCOD9424305
Probable space group: P C C A
;
_chemical_formula_sum "Si O2"
_cell_formula_units_Z 48
_cell_length_a 13.120102
_cell_length_b 6.846869
_cell_length_c 26.622615
_cell_angle_alpha 90.000000
_cell_angle_beta 90.000000
_cell_angle_gamma 90.000000
_cell_volume 2391.552625
_symmetry_space_group_name_H-M "P C C A"
_symmetry_group_IT_number 54
_symmetry_cell_setting 'orthorhombic'
loop_
_space_group_symop_operation_xyz
x,y,z
1/2-x,-y,z
1/2+x,-y,1/2-z
-x,y,1/2-z
-x,-y,-z
1/2+x,y,-z
1/2-x,y,1/2+z
x,-y,1/2+z
loop_
_atom_site_type_symbol
_atom_site_label
_atom_site_fract_x
_atom_site_fract_y
_atom_site_fract_z
Si Si1 0.250000 0.000000 0.228976
Si Si2 0.001164 0.212908 0.568228
Si Si3 0.500000 0.409905 0.250000
Si Si4 0.865338 0.726267 0.705611
Si Si5 0.532258 0.943075 0.822133
Si Si6 0.860684 0.421337 0.092221
Si Si7 0.362065 0.915806 0.487191
O O1 0.267703 0.820617 0.267502
O O2 0.147526 0.992159 0.195616
O O3 0.948489 0.417565 0.582818
O O4 0.017202 0.087884 0.618770
O O5 0.105565 0.203424 0.536898
O O6 0.927667 0.104972 0.528499
O O7 0.406833 0.555857 0.258869
O O8 0.490504 0.265348 0.203273
O O9 0.851002 0.639206 0.650391
O O10 0.951176 0.896859 0.698049
O O11 0.750000 0.500000 0.076515
O O12 0.878136 0.231456 0.058868
O O13 0.250000 0.000000 0.491738
#
# Coordination Sequence:
#
# PCOD9424305 Si02
#       7
#     4   8   4   8   8   8   8
#     4  12  26  42  66  98 140 178 226 284 334 408
#     4  11  25  44  69  97 136 181 221 291 343 408
#     4  12  22  46  66  92 136 180 222 272 334 400
#     4  12  26  43  65 100 136 174 226 285 326 403
#     4  12  25  46  66  98 136 180 228 274 347 400
#     4  12  25  41  71 101 130 177 235 277 345 409
#     4  11  24  45  70  99 134 173 231 285 347 407
#
# _framework density 20.070644000000001
#
# number of rings (size 3 to 8) (size 9 to 14) (size 15 to 20)
#    0.000    0.333    8.333    0.500    7.000    0.000 
#    0.000    0.000    3.667    0.000    0.000    0.000 
#    0.000    0.000    0.000    0.000    0.000    0.000 
#
# Total GULP energy -268020.572375 kJ/mol
# GULP energy per Si atom -5583.761924 kJ/mol
# Density = 2.002496 g / cm^3
# Si number density = 20.070644 Si / 1000 Ang^3
#
#
#
# Elastic Constant Matrix: (Units=GPa)
#
#
# Indices 1 2 3 4 5 6 
#
# 1 80.7985 32.4731 23.7811 0.0000 0.0000 0.0000
# 2 32.4731 94.9457 14.4332 0.0000 0.0000 0.0000
# 3 23.7811 14.4332 85.0576 0.0000 0.0000 0.0000
# 4 0.0000 0.0000 0.0000 21.0038 0.0000 0.0000
# 5 0.0000 0.0000 0.0000 0.0000 21.3783 0.0000
# 6 0.0000 0.0000 0.0000 0.0000 0.0000 30.6814
#
#
#
# Elastic Compliance Matrix: (Units=1/GPa)
#
#
# Indices 1 2 3 4 5 6 
#
# 1 0.015289 -0.004701 -0.003477 0.000000 0.000000 0.000000
# 2 -0.004701 0.012256 -0.000766 0.000000 0.000000 0.000000
# 3 -0.003477 -0.000766 0.012859 0.000000 0.000000 0.000000
# 4 0.000000 0.000000 0.000000 0.047610 0.000000 0.000000
# 5 0.000000 0.000000 0.000000 0.000000 0.046776 0.000000
# 6 0.000000 0.000000 0.000000 0.000000 0.000000 0.032593
#
#
# Mechanical properties :
#
#
# Convention : Reuss Voigt Hill
#
# Bulk Modulus (GPa) = 44.40895 44.68628 44.54762
# Shear Modulus (GPa) = 25.93683 27.28701 26.61192
#
# Velocity S-wave (km/s) = 3.59873 3.69121 3.64526
# Velocity P-wave (km/s) = 6.28030 6.36235 6.32146
#
# Compressibility (1/GPa) = 0.02251798
#
# Stress axis : x y z
#
# Youngs Moduli (GPa) = 65.40649 81.59015 77.76797
#
# Poissons Ratio (x) = 0.38352 0.27040
# Poissons Ratio (y) = 0.30745 0.05953
# Poissons Ratio (z) = 0.22742 0.06246
#
# Static dielectric constant tensor:
#      x y z
#    x 1.760510 0.000000 0.000000 
#    y 0.000000 1.716700 0.000000 
#    z 0.000000 0.000000 1.719560 
# 
# From -- ./inp_files/26498.got.cif
#   From: 2010.05.17/outbox.cif.g08.bks.cpg/sg54_14_cif.got.tgz:26498.got - 2010.06.03 13:09:01.
