data_PCOD9424039
_publ_section_title
;
Structure prediction by ZEFSAII (Michael W. Deem and Ramdas Pophale) SiO2 
 PCOD9424039
Probable space group: P C C A
;
_chemical_formula_sum "Si O2"
_cell_formula_units_Z 48
_cell_length_a 8.728854
_cell_length_b 9.395427
_cell_length_c 28.770536
_cell_angle_alpha 90.000000
_cell_angle_beta 90.000000
_cell_angle_gamma 90.000000
_cell_volume 2359.509363
_symmetry_space_group_name_H-M "P C C A"
_symmetry_group_IT_number 54
_symmetry_cell_setting 'orthorhombic'
loop_
_space_group_symop_operation_xyz
x,y,z
1/2-x,-y,z
1/2+x,-y,1/2-z
-x,y,1/2-z
-x,-y,-z
1/2+x,y,-z
1/2-x,y,1/2+z
x,-y,1/2+z
loop_
_atom_site_type_symbol
_atom_site_label
_atom_site_fract_x
_atom_site_fract_y
_atom_site_fract_z
Si Si1 0.584085 0.573626 0.957353
Si Si2 0.434480 0.476849 0.144253
Si Si3 0.431525 0.019654 0.860330
Si Si4 0.577031 0.790671 0.799064
Si Si5 0.441303 0.252284 0.698567
Si Si6 0.584361 0.923269 0.956558
O O1 0.750000 0.500000 0.957778
O O2 0.508536 0.522068 0.908617
O O3 0.591734 0.748538 0.960061
O O4 0.500000 0.500000 0.000000
O O5 0.250000 0.500000 0.140902
O O6 0.475188 0.323170 0.163196
O O7 0.477216 0.585167 0.185047
O O8 0.514793 0.937679 0.818295
O O9 0.495758 0.964757 0.909215
O O10 0.250000 0.000000 0.858439
O O11 0.482492 0.177056 0.846242
O O12 0.500000 0.760446 0.750000
O O13 0.760369 0.780811 0.799213
O O14 0.500000 0.217216 0.750000
O O15 0.750000 0.000000 0.953522
O O16 0.500000 0.000000 0.000000
#
# Coordination Sequence:
#
# PCOD9424039 Si02
#       6
#     8   8   8   8   8   8
#     4  11  24  45  71 102 137 180 225 277 343 412
#     4   9  21  40  66  94 131 172 222 269 341 406
#     4  12  26  43  65  97 134 175 230 277 338 403
#     4  11  21  41  67  93 132 174 220 280 335 405
#     4  11  23  41  65  98 132 179 224 280 341 403
#     4  12  26  46  74 104 139 181 227 283 345 410
#
# _framework density 20.343212999999999
#
# number of rings (size 3 to 8) (size 9 to 14) (size 15 to 20)
#    0.000    1.000    1.667    5.000    7.000    0.000 
#    0.000    2.500    0.000    0.000    0.000    0.000 
#    0.000    0.000    0.000    0.000    0.000    0.000 
#
# Total GULP energy -267677.423343 kJ/mol
# GULP energy per Si atom -5576.612986 kJ/mol
# Density = 2.029691 g / cm^3
# Si number density = 20.343213 Si / 1000 Ang^3
#
#
#
# Elastic Constant Matrix: (Units=GPa)
#
#
# Indices 1 2 3 4 5 6 
#
# 1 84.2966 9.9763 36.9618 0.0000 0.0000 0.0000
# 2 9.9763 74.5530 19.4713 0.0000 0.0000 0.0000
# 3 36.9618 19.4713 158.1949 0.0000 0.0000 0.0000
# 4 0.0000 0.0000 0.0000 39.0131 0.0000 0.0000
# 5 0.0000 0.0000 0.0000 0.0000 -1.4022 0.0000
# 6 0.0000 0.0000 0.0000 0.0000 0.0000 16.5510
#
#
#
# Elastic Compliance Matrix: (Units=1/GPa)
#
#
# Indices 1 2 3 4 5 6 
#
# 1 0.013289 -0.000999 -0.002982 0.000000 0.000000 0.000000
# 2 -0.000999 0.013934 -0.001482 0.000000 0.000000 0.000000
# 3 -0.002982 -0.001482 0.007200 0.000000 0.000000 0.000000
# 4 0.000000 0.000000 0.000000 0.025632 0.000000 0.000000
# 5 0.000000 0.000000 0.000000 0.000000 -0.713140 0.000000
# 6 0.000000 0.000000 0.000000 0.000000 0.000000 0.060419
#
#
# Mechanical properties :
#
#
# Convention : Reuss Voigt Hill
#
# Bulk Modulus (GPa) = 42.55804 49.98482 46.27143
# Shear Modulus (GPa) = -8.71221 27.54138 9.41459
#
# Velocity S-wave (km/s) = -2.07169 3.68344 2.15358
# Velocity P-wave (km/s) = 3.90421 6.53563 5.38318
#
# Compressibility (1/GPa) = 0.02349732
#
# Stress axis : x y z
#
# Youngs Moduli (GPa) = 75.25245 71.76714 138.88182
#
# Poissons Ratio (x) = 0.07173 0.41412
# Poissons Ratio (y) = 0.07521 0.20576
# Poissons Ratio (z) = 0.22439 0.10633
#
# Static dielectric constant tensor:
#      x y z
#    x 1.654670 0.000000 0.000000 
#    y 0.000000 1.814950 0.000000 
#    z 0.000000 0.000000 1.726150 
# 
# From -- ./inp_files/27695.got.cif
#   From: 2010.05.17/outbox.cif.g08.bks.cpg/sg54_14_cif.got.tgz:27695.got - 2010.06.03 13:09:01.
