data_PCOD9424075
_publ_section_title
;
Structure prediction by ZEFSAII (Michael W. Deem and Ramdas Pophale) SiO2 
 PCOD9424075
Probable space group: P C C A
;
_chemical_formula_sum "Si O2"
_cell_formula_units_Z 64
_cell_length_a 14.969969
_cell_length_b 8.599296
_cell_length_c 25.487687
_cell_angle_alpha 90.000000
_cell_angle_beta 90.000000
_cell_angle_gamma 90.000000
_cell_volume 3281.060394
_symmetry_space_group_name_H-M "P C C A"
_symmetry_group_IT_number 54
_symmetry_cell_setting 'orthorhombic'
loop_
_space_group_symop_operation_xyz
x,y,z
1/2-x,-y,z
1/2+x,-y,1/2-z
-x,y,1/2-z
-x,-y,-z
1/2+x,y,-z
1/2-x,y,1/2+z
x,-y,1/2+z
loop_
_atom_site_type_symbol
_atom_site_label
_atom_site_fract_x
_atom_site_fract_y
_atom_site_fract_z
Si Si1 0.148512 0.936826 0.254104
Si Si2 0.850394 0.937322 0.361807
Si Si3 0.851488 0.563174 0.245896
Si Si4 0.649090 0.435274 0.636652
Si Si5 0.149606 0.437322 0.638193
Si Si6 0.850910 0.935274 0.636652
Si Si7 0.996440 0.062958 0.558740
Si Si8 0.503560 0.562958 0.558740
O O1 0.113358 0.980376 0.196402
O O2 0.147280 0.750000 0.258878
O O3 0.250000 0.000000 0.253007
O O4 0.109819 0.007587 0.307298
O O5 0.845620 0.750000 0.362567
O O6 0.917081 0.988293 0.407438
O O7 0.750000 0.000000 0.368111
O O8 0.750000 0.500000 0.246993
O O9 0.890181 0.492413 0.192702
O O10 0.886642 0.519624 0.303598
O O11 0.750000 0.500000 0.632581
O O12 0.651840 0.250000 0.635910
O O13 0.589198 0.500351 0.589894
O O14 0.250000 0.500000 0.631889
O O15 0.082919 0.488293 0.592562
O O16 0.750000 0.000000 0.632581
O O17 0.910802 0.000351 0.589894
O O18 0.994396 0.250000 0.558196
O O19 0.000000 0.000000 0.500000
O O20 0.500000 0.500000 0.500000
#
# Coordination Sequence:
#
# PCOD9424075 Si02
#       8
#     8   8   8   8   8   8   8   8
#     4   9  16  31  55  85 116 147 181 225 279 341
#     4   9  20  37  60  86 116 150 186 229 284 340
#     4   9  16  31  55  85 116 147 181 225 279 341
#     4  11  22  38  60  87 116 151 189 234 287 341
#     4   9  20  37  60  86 116 150 186 229 284 340
#     4  11  22  38  60  87 116 151 189 234 287 341
#     4  11  24  42  59  82 114 152 197 243 285 337
#     4  11  24  42  59  82 114 152 197 243 285 337
#
# _framework density 19.505890000000001
#
# number of rings (size 3 to 8) (size 9 to 14) (size 15 to 20)
#    0.000    2.000    0.000    5.250    0.000    5.000 
#    0.000    7.500    0.000    0.000    0.000    0.000 
#    0.000    0.000    0.000    0.000    0.000    0.000 
#
# Total GULP energy -357350.030192 kJ/mol
# GULP energy per Si atom -5583.594222 kJ/mol
# Density = 1.946149 g / cm^3
# Si number density = 19.505890 Si / 1000 Ang^3
#
#
#
# Elastic Constant Matrix: (Units=GPa)
#
#
# Indices 1 2 3 4 5 6 
#
# 1 110.2810 35.7988 89.7071 0.0000 0.0000 0.0000
# 2 35.7988 91.3394 66.9521 0.0000 0.0000 0.0000
# 3 89.7071 66.9521 228.4455 0.0000 0.0000 0.0000
# 4 0.0000 0.0000 0.0000 35.7575 0.0000 0.0000
# 5 0.0000 0.0000 0.0000 0.0000 37.5136 0.0000
# 6 0.0000 0.0000 0.0000 0.0000 0.0000 23.1472
#
#
#
# Elastic Compliance Matrix: (Units=1/GPa)
#
#
# Indices 1 2 3 4 5 6 
#
# 1 0.013551 -0.001797 -0.004795 0.000000 0.000000 0.000000
# 2 -0.001797 0.014182 -0.003451 0.000000 0.000000 0.000000
# 3 -0.004795 -0.003451 0.007272 0.000000 0.000000 0.000000
# 4 0.000000 0.000000 0.000000 0.027966 0.000000 0.000000
# 5 0.000000 0.000000 0.000000 0.000000 0.026657 0.000000
# 6 0.000000 0.000000 0.000000 0.000000 0.000000 0.043202
#
#
# Mechanical properties :
#
#
# Convention : Reuss Voigt Hill
#
# Bulk Modulus (GPa) = 67.02333 90.55355 78.78844
# Shear Modulus (GPa) = 31.66811 35.12419 33.39615
#
# Velocity S-wave (km/s) = 4.03366 4.24807 4.14225
# Velocity P-wave (km/s) = 7.49193 8.40154 7.95974
#
# Compressibility (1/GPa) = 0.01492018
#
# Stress axis : x y z
#
# Youngs Moduli (GPa) = 73.79393 70.51286 137.52026
#
# Poissons Ratio (x) = 0.12668 0.65939
# Poissons Ratio (y) = 0.13257 0.47457
# Poissons Ratio (z) = 0.35383 0.24333
#
# Static dielectric constant tensor:
#      x y z
#    x 1.675240 0.000000 0.000000 
#    y 0.000000 1.654370 0.000000 
#    z 0.000000 0.000000 1.695220 
# 
# From -- ./inp_files/24493.got.cif
#   From: 2010.05.17/outbox.cif.g08.bks.cpg/sg54_13_cif.got.tgz:24493.got - 2010.06.03 13:09:01.
