data_PCOD9424717
_publ_section_title
;
Structure prediction by ZEFSAII (Michael W. Deem and Ramdas Pophale) SiO2 
 PCOD9424717
Probable space group: P B A M
;
_chemical_formula_sum "Si O2"
_cell_formula_units_Z 48
_cell_length_a 13.543630
_cell_length_b 5.455639
_cell_length_c 27.612757
_cell_angle_alpha 90.000000
_cell_angle_beta 90.000000
_cell_angle_gamma 90.000000
_cell_volume 2040.283310
_symmetry_space_group_name_H-M "P B A M"
_symmetry_group_IT_number 55
_symmetry_cell_setting 'orthorhombic'
loop_
_space_group_symop_operation_xyz
x,y,z
-x,-y,z
1/2+x,1/2-y,-z
1/2-x,1/2+y,-z
-x,-y,-z
x,y,-z
1/2-x,1/2+y,z
1/2+x,1/2-y,z
loop_
_atom_site_type_symbol
_atom_site_label
_atom_site_fract_x
_atom_site_fract_y
_atom_site_fract_z
Si Si1 0.619983 0.263737 0.808072
Si Si2 0.357366 0.624491 0.303857
Si Si3 0.897065 0.265918 0.846702
Si Si4 0.815026 0.301063 0.553332
Si Si5 0.629803 0.874298 0.342115
Si Si6 0.686214 0.875221 0.055039
O O1 0.643827 0.319594 0.752762
O O2 0.648595 0.497744 0.840242
O O3 0.503417 0.248128 0.821204
O O4 0.655649 0.990789 0.819865
O O5 0.403800 0.358397 0.311413
O O6 0.247288 0.605331 0.327263
O O7 0.407383 0.855638 0.330014
O O8 0.894190 0.336981 0.903005
O O9 0.863381 0.304023 0.500000
O O10 0.747519 0.547669 0.555961
O O11 0.880115 0.313218 0.601357
O O12 0.760907 0.641313 0.060391
O O13 0.647518 0.862586 0.000000
#
# Coordination Sequence:
#
# PCOD9424717 Si02
#       6
#     8   8   8   8   8   8
#     4  10  21  37  55  75 111 147 184 223 260 309
#     4  10  18  30  45  66  98 142 177 219 263 307
#     4  10  21  40  57  80 110 143 179 224 261 316
#     4  10  16  25  41  61  92 142 178 217 279 327
#     4  10  17  30  43  68 105 136 181 226 269 318
#     4  10  21  40  63  88 114 140 171 217 272 325
#
# _framework density 23.526142
#
# number of rings (size 3 to 8) (size 9 to 14) (size 15 to 20)
#    0.000    2.000    3.333    2.000    0.000    0.000 
#   18.000    3.333    0.000    0.000    0.000    0.000 
#    0.000    0.000    0.000  102.000    0.000    0.000 
#
# Total GULP energy -267982.061329 kJ/mol
# GULP energy per Si atom -5582.959611 kJ/mol
# Density = 2.347260 g / cm^3
# Si number density = 23.526142 Si / 1000 Ang^3
#
#
#
# Elastic Constant Matrix: (Units=GPa)
#
#
# Indices 1 2 3 4 5 6 
#
# 1 72.8779 4.6197 -2.1799 0.0000 0.0000 0.0000
# 2 4.6197 202.7425 8.4694 0.0000 0.0000 0.0000
# 3 -2.1799 8.4694 166.9699 0.0000 0.0000 0.0000
# 4 0.0000 0.0000 0.0000 52.4773 0.0000 0.0000
# 5 0.0000 0.0000 0.0000 0.0000 26.3367 0.0000
# 6 0.0000 0.0000 0.0000 0.0000 0.0000 5.1936
#
#
#
# Elastic Compliance Matrix: (Units=1/GPa)
#
#
# Indices 1 2 3 4 5 6 
#
# 1 0.013748 -0.000321 0.000196 0.000000 0.000000 0.000000
# 2 -0.000321 0.004950 -0.000255 0.000000 0.000000 0.000000
# 3 0.000196 -0.000255 0.006005 0.000000 0.000000 0.000000
# 4 0.000000 0.000000 0.000000 0.019056 0.000000 0.000000
# 5 0.000000 0.000000 0.000000 0.000000 0.037970 0.000000
# 6 0.000000 0.000000 0.000000 0.000000 0.000000 0.192545
#
#
# Mechanical properties :
#
#
# Convention : Reuss Voigt Hill
#
# Bulk Modulus (GPa) = 41.76954 51.60095 46.68525
# Shear Modulus (GPa) = 17.66685 45.58027 31.62356
#
# Velocity S-wave (km/s) = 2.74331 4.40640 3.67029
# Velocity P-wave (km/s) = 5.27517 6.91878 6.15211
#
# Compressibility (1/GPa) = 0.02394089
#
# Stress axis : x y z
#
# Youngs Moduli (GPa) = 72.73887 202.00572 166.53875
#
# Poissons Ratio (x) = 0.06493 -0.03261
# Poissons Ratio (y) = 0.02338 0.04252
# Poissons Ratio (z) = -0.01424 0.05157
#
# Static dielectric constant tensor:
#      x y z
#    x 2.220370 0.000000 0.000000 
#    y 0.000000 1.950520 0.000000 
#    z 0.000000 0.000000 1.827500 
# 
# From -- ./inp_files/23643.got.cif
#   From: 2010.05.17/outbox.cif.g08.bks.cpg/sg55_12_cif.got.tgz:23643.got - 2010.06.03 13:27:54.
