data_PCOD9424130
_publ_section_title
;
Structure prediction by ZEFSAII (Michael W. Deem and Ramdas Pophale) SiO2 
 PCOD9424130
Probable space group: P C C A
;
_chemical_formula_sum "Si O2"
_cell_formula_units_Z 60
_cell_length_a 12.049317
_cell_length_b 12.160797
_cell_length_c 16.894162
_cell_angle_alpha 90.000000
_cell_angle_beta 90.000000
_cell_angle_gamma 90.000000
_cell_volume 2475.489699
_symmetry_space_group_name_H-M "P C C A"
_symmetry_group_IT_number 54
_symmetry_cell_setting 'orthorhombic'
loop_
_space_group_symop_operation_xyz
x,y,z
1/2-x,-y,z
1/2+x,-y,1/2-z
-x,y,1/2-z
-x,-y,-z
1/2+x,y,-z
1/2-x,y,1/2+z
x,-y,1/2+z
loop_
_atom_site_type_symbol
_atom_site_label
_atom_site_fract_x
_atom_site_fract_y
_atom_site_fract_z
Si Si1 0.077062 0.059966 0.063818
Si Si2 0.685957 0.226542 0.630968
Si Si3 0.750000 0.000000 0.556165
Si Si4 0.954315 0.311904 0.396017
Si Si5 0.616422 0.471296 0.219757
Si Si6 0.237283 0.709837 0.196854
Si Si7 0.948655 0.852392 0.338647
Si Si8 0.902882 0.324038 0.571018
O O1 0.052533 0.180128 0.093146
O O2 0.068093 0.978190 0.137447
O O3 0.182709 0.070087 0.007819
O O4 0.000000 0.000000 0.000000
O O5 0.581101 0.310945 0.632943
O O6 0.729889 0.234302 0.720370
O O7 0.775398 0.284945 0.574369
O O8 0.685734 0.095604 0.606632
O O9 0.846690 0.340808 0.343169
O O10 0.940570 0.358362 0.484026
O O11 0.750000 0.500000 0.212075
O O12 0.500000 0.526180 0.250000
O O13 0.638416 0.374939 0.284296
O O14 0.586663 0.420379 0.134810
O O15 0.173665 0.802045 0.148395
O O16 0.000000 0.843629 0.250000
O O17 0.028189 0.781486 0.396129
#
# Coordination Sequence:
#
# PCOD9424130 Si02
#       8
#     8   8   4   8   8   8   8   8
#     4  12  23  36  57  93 133 189 247 292 333 394
#     4  11  23  37  61  91 135 182 239 290 344 410
#     4  12  20  38  58  86 134 182 242 304 346 382
#     4  12  25  39  63  97 147 188 237 292 346 411
#     4  11  24  48  83 111 138 177 237 305 378 459
#     4  11  25  44  66  99 137 184 227 282 372 425
#     4  12  21  41  68  90 132 190 249 282 337 425
#     4  11  22  43  68  98 132 187 227 283 360 431
#
# _framework density 24.237629999999999
#
# number of rings (size 3 to 8) (size 9 to 14) (size 15 to 20)
#    0.000    0.533    8.000    1.200    1.867    4.267 
#    0.000    0.667    0.000    4.800    0.000    0.000 
#    0.000    0.000    0.000    0.000    0.000    0.000 
#
# Total GULP energy -334480.764614 kJ/mol
# GULP energy per Si atom -5574.679410 kJ/mol
# Density = 2.418246 g / cm^3
# Si number density = 24.237630 Si / 1000 Ang^3
#
#
#
# Elastic Constant Matrix: (Units=GPa)
#
#
# Indices 1 2 3 4 5 6 
#
# 1 142.5991 18.8758 51.9833 0.0000 0.0000 0.0000
# 2 18.8758 40.7670 5.7079 0.0000 0.0000 0.0000
# 3 51.9833 5.7079 60.8336 0.0000 0.0000 0.0000
# 4 0.0000 0.0000 0.0000 13.4396 0.0000 0.0000
# 5 0.0000 0.0000 0.0000 0.0000 18.4708 0.0000
# 6 0.0000 0.0000 0.0000 0.0000 0.0000 27.8544
#
#
#
# Elastic Compliance Matrix: (Units=1/GPa)
#
#
# Indices 1 2 3 4 5 6 
#
# 1 0.010717 -0.003729 -0.008808 0.000000 0.000000 0.000000
# 2 -0.003729 0.026154 0.000733 0.000000 0.000000 0.000000
# 3 -0.008808 0.000733 0.023896 0.000000 0.000000 0.000000
# 4 0.000000 0.000000 0.000000 0.074407 0.000000 0.000000
# 5 0.000000 0.000000 0.000000 0.000000 0.054140 0.000000
# 6 0.000000 0.000000 0.000000 0.000000 0.000000 0.035901
#
#
# Mechanical properties :
#
#
# Convention : Reuss Voigt Hill
#
# Bulk Modulus (GPa) = 26.91214 44.14820 35.53017
# Shear Modulus (GPa) = 19.14170 23.12846 21.13508
#
# Velocity S-wave (km/s) = 2.81330 3.09243 2.95616
# Velocity P-wave (km/s) = 4.65623 5.56822 5.13252
#
# Compressibility (1/GPa) = 0.03715795
#
# Stress axis : x y z
#
# Youngs Moduli (GPa) = 93.30780 38.23551 41.84753
#
# Poissons Ratio (x) = 0.14258 0.36860
# Poissons Ratio (y) = 0.34795 -0.03066
# Poissons Ratio (z) = 0.82187 -0.02801
#
# Static dielectric constant tensor:
#      x y z
#    x 1.787790 0.000000 0.000000 
#    y 0.000000 1.889850 0.000000 
#    z 0.000000 0.000000 1.916100 
# 
# From -- ./inp_files/17428.got.cif
#   From: 2010.05.17/outbox.cif.g08.bks.cpg/sg54_9_cif.got.tgz:17428.got - 2010.06.03 13:09:01.
