data_PCOD9424410
_publ_section_title
;
Structure prediction by ZEFSAII (Michael W. Deem and Ramdas Pophale) SiO2 
 PCOD9424410
Probable space group: P C C A
;
_chemical_formula_sum "Si O2"
_cell_formula_units_Z 32
_cell_length_a 7.877846
_cell_length_b 5.010097
_cell_length_c 35.100128
_cell_angle_alpha 90.000000
_cell_angle_beta 90.000000
_cell_angle_gamma 90.000000
_cell_volume 1385.358971
_symmetry_space_group_name_H-M "P C C A"
_symmetry_group_IT_number 54
_symmetry_cell_setting 'orthorhombic'
loop_
_space_group_symop_operation_xyz
x,y,z
1/2-x,-y,z
1/2+x,-y,1/2-z
-x,y,1/2-z
-x,-y,-z
1/2+x,y,-z
1/2-x,y,1/2+z
x,-y,1/2+z
loop_
_atom_site_type_symbol
_atom_site_label
_atom_site_fract_x
_atom_site_fract_y
_atom_site_fract_z
Si Si1 0.250000 0.000000 0.474934
Si Si2 0.435510 0.871942 0.207950
Si Si3 0.750000 0.500000 0.469676
Si Si4 0.062292 0.624750 0.334672
Si Si5 0.566118 0.645422 0.577427
O O1 0.225295 0.249599 0.502550
O O2 0.401744 0.085450 0.446673
O O3 0.500000 0.801631 0.250000
O O4 0.444374 0.608134 0.182260
O O5 0.250000 0.000000 0.210029
O O6 0.548543 0.106874 0.189662
O O7 0.583424 0.512839 0.443462
O O8 0.250000 0.500000 0.332758
O O9 0.022356 0.690530 0.378582
O O10 0.750000 0.500000 0.576596
#
# Coordination Sequence:
#
# PCOD9424410 Si02
#       5
#     4   8   4   8   8
#     4  12  26  48  70 106 140 192 242 304 364 424
#     4  12  26  46  75 107 144 185 235 287 354 429
#     4  12  28  44  74 102 144 186 248 302 360 430
#     4  11  26  46  72 104 146 187 236 294 355 425
#     4  11  28  46  73 104 145 189 243 297 364 425
#
# _framework density 23.098708999999999
#
# number of rings (size 3 to 8) (size 9 to 14) (size 15 to 20)
#    0.000    0.500    1.250    5.250   14.000    0.000 
#    0.000    0.000    0.000    0.000    0.000    0.000 
#    0.000    0.000    0.000    0.000    0.000    0.000 
#
# Total GULP energy -179321.347098 kJ/mol
# GULP energy per Si atom -5603.792097 kJ/mol
# Density = 2.304614 g / cm^3
# Si number density = 23.098709 Si / 1000 Ang^3
#
#
#
# Elastic Constant Matrix: (Units=GPa)
#
#
# Indices 1 2 3 4 5 6 
#
# 1 111.7035 25.6517 54.5235 0.0000 0.0000 0.0000
# 2 25.6517 110.9318 35.1905 0.0000 0.0000 0.0000
# 3 54.5235 35.1905 159.7228 0.0000 0.0000 0.0000
# 4 0.0000 0.0000 0.0000 949.3892 0.0000 0.0000
# 5 0.0000 0.0000 0.0000 0.0000 26.8146 0.0000
# 6 0.0000 0.0000 0.0000 0.0000 0.0000 26.1367
#
#
#
# Elastic Compliance Matrix: (Units=1/GPa)
#
#
# Indices 1 2 3 4 5 6 
#
# 1 0.010954 -0.001448 -0.003420 0.000000 0.000000 0.000000
# 2 -0.001448 0.009883 -0.001683 0.000000 0.000000 0.000000
# 3 -0.003420 -0.001683 0.007799 0.000000 0.000000 0.000000
# 4 0.000000 0.000000 0.000000 0.001053 0.000000 0.000000
# 5 0.000000 0.000000 0.000000 0.000000 0.037293 0.000000
# 6 0.000000 0.000000 0.000000 0.000000 0.000000 0.038260
#
#
# Mechanical properties :
#
#
# Convention : Reuss Voigt Hill
#
# Bulk Modulus (GPa) = 64.37606 68.12103 66.24855
# Shear Modulus (GPa) = 40.47767 218.26761 129.37264
#
# Velocity S-wave (km/s) = 4.19068 9.73132 7.49201
# Velocity P-wave (km/s) = 7.16563 12.48279 10.17758
#
# Compressibility (1/GPa) = 0.01553372
#
# Stress axis : x y z
#
# Youngs Moduli (GPa) = 91.28834 101.18027 128.21696
#
# Poissons Ratio (x) = 0.14651 0.43855
# Poissons Ratio (y) = 0.13219 0.21582
# Poissons Ratio (z) = 0.31224 0.17031
#
# Static dielectric constant tensor:
#      x y z
#    x 1.901280 0.000000 0.000000 
#    y 0.000000 1.849920 0.000000 
#    z 0.000000 0.000000 1.817320 
# 
# From -- ./inp_files/27425.got.cif
#   From: 2010.05.17/outbox.cif.g08.bks.cpg/sg54_14_cif.got.tgz:27425.got - 2010.06.03 13:09:01.
