data_PCOD9424647
_publ_section_title
;
Structure prediction by ZEFSAII (Michael W. Deem and Ramdas Pophale) SiO2 
 PCOD9424647
Probable space group: P C C A
;
_chemical_formula_sum "Si O2"
_cell_formula_units_Z 56
_cell_length_a 15.000000
_cell_length_b 15.000000
_cell_length_c 12.000000
_cell_angle_alpha 90.000000
_cell_angle_beta 90.000000
_cell_angle_gamma 90.000000
_cell_volume 2700.000000
_symmetry_space_group_name_H-M "P C C A"
_symmetry_group_IT_number 54
_symmetry_cell_setting 'orthorhombic'
loop_
_space_group_symop_operation_xyz
x,y,z
1/2-x,-y,z
1/2+x,-y,1/2-z
-x,y,1/2-z
-x,-y,-z
1/2+x,y,-z
1/2-x,y,1/2+z
x,-y,1/2+z
loop_
_atom_site_type_symbol
_atom_site_label
_atom_site_fract_x
_atom_site_fract_y
_atom_site_fract_z
Si Si1 0.104723 0.875537 0.788038
Si Si2 0.975118 0.550586 0.381213
Si Si3 0.750000 0.000000 0.819754
Si Si4 0.388677 0.711324 0.882809
Si Si5 0.633841 0.858875 0.945004
Si Si6 0.500000 0.846139 0.750000
Si Si7 0.786327 0.408872 0.784889
Si Si8 0.298386 0.256091 0.612768
O O1 0.170360 0.958339 0.755703
O O2 0.151753 0.798581 0.711321
O O3 0.000000 0.886564 0.750000
O O4 0.110672 0.859708 0.922609
O O5 0.870275 0.569437 0.364993
O O6 0.000000 0.517805 0.250000
O O7 0.000000 0.500000 0.500000
O O8 0.027943 0.644046 0.393729
O O9 0.795233 0.068367 0.904529
O O10 0.419929 0.789874 0.802998
O O11 0.315836 0.655066 0.815479
O O12 0.353645 0.749145 0.998837
O O13 0.548676 0.879945 0.864317
O O14 0.695247 0.772689 0.913326
O O15 0.750000 0.500000 0.736570
O O16 0.709291 0.358532 0.851593
#
# Coordination Sequence:
#
# PCOD9424647 Si02
#       8
#     8   8   4   8   8   4   8   8
#     4  11  25  47  69 107 143 176 233 287 343 417
#     4  10  21  39  61  86 125 172 230 293 345 418
#     4  10  26  46  72 110 140 178 220 282 348 414
#     4  11  21  41  63  90 130 174 233 278 335 421
#     4  11  24  44  72 100 140 180 224 281 339 418
#     4  12  22  44  70  96 126 190 222 260 350 408
#     4  11  22  39  59  94 132 179 234 290 354 405
#     4  11  23  41  69  97 134 181 231 293 348 404
#
# _framework density 20.740741
#
# number of rings (size 3 to 8) (size 9 to 14) (size 15 to 20)
#    0.000    1.143    3.571    3.000    3.000    3.429 
#    0.000   11.429    0.000    0.000    0.000    0.000 
#    0.000    0.000    0.000    0.000    0.000    0.000 
#
# Total GULP energy -312014.416441 kJ/mol
# GULP energy per Si atom -5571.686008 kJ/mol
# Density = 2.069353 g / cm^3
# Si number density = 20.740741 Si / 1000 Ang^3
#
#
#
# Elastic Constant Matrix: (Units=GPa)
#
#
# Indices 1 2 3 4 5 6 
#
# 1 98.0593 8.2767 40.1128 0.0000 0.0000 0.0000
# 2 8.2767 41.9279 23.9687 0.0000 0.0000 0.0000
# 3 40.1128 23.9687 179.3074 0.0000 0.0000 0.0000
# 4 0.0000 0.0000 0.0000 19.1355 0.0000 0.0000
# 5 0.0000 0.0000 0.0000 0.0000 37.8988 0.0000
# 6 0.0000 0.0000 0.0000 0.0000 0.0000 31.6196
#
#
#
# Elastic Compliance Matrix: (Units=1/GPa)
#
#
# Indices 1 2 3 4 5 6 
#
# 1 0.011253 -0.000847 -0.002404 0.000000 0.000000 0.000000
# 2 -0.000847 0.025888 -0.003271 0.000000 0.000000 0.000000
# 3 -0.002404 -0.003271 0.006552 0.000000 0.000000 0.000000
# 4 0.000000 0.000000 0.000000 0.052259 0.000000 0.000000
# 5 0.000000 0.000000 0.000000 0.000000 0.026386 0.000000
# 6 0.000000 0.000000 0.000000 0.000000 0.000000 0.031626
#
#
# Mechanical properties :
#
#
# Convention : Reuss Voigt Hill
#
# Bulk Modulus (GPa) = 32.62829 51.55677 42.09253
# Shear Modulus (GPa) = 28.21291 34.19320 31.20305
#
# Velocity S-wave (km/s) = 3.69218 4.06470 3.88291
# Velocity P-wave (km/s) = 5.82597 6.85133 6.35935
#
# Compressibility (1/GPa) = 0.03064826
#
# Stress axis : x y z
#
# Youngs Moduli (GPa) = 88.86627 38.62852 152.62288
#
# Poissons Ratio (x) = 0.03272 0.36693
# Poissons Ratio (y) = 0.07527 0.49923
# Poissons Ratio (z) = 0.21365 0.12635
#
# Static dielectric constant tensor:
#      x y z
#    x 1.781200 0.000000 0.000000 
#    y 0.000000 1.846110 0.000000 
#    z 0.000000 0.000000 1.733530 
# 
# From -- ./inp_files/8494.got.cif
#   From: 2010.05.17/outbox.ucp.g08.bks.cvg/sg54_5_cif.got.tgz:8494.got - 2010.06.11 16:34:40.
