data_PCOD9424924
_publ_section_title
;
Structure prediction by ZEFSAII (Michael W. Deem and Ramdas Pophale) SiO2 
 PCOD9424924
Probable space group: P B A M
;
_chemical_formula_sum "Si O2"
_cell_formula_units_Z 64
_cell_length_a 19.144037
_cell_length_b 21.906024
_cell_length_c 7.676231
_cell_angle_alpha 90.000000
_cell_angle_beta 90.000000
_cell_angle_gamma 90.000000
_cell_volume 3219.178952
_symmetry_space_group_name_H-M "P B A M"
_symmetry_group_IT_number 55
_symmetry_cell_setting 'orthorhombic'
loop_
_space_group_symop_operation_xyz
x,y,z
-x,-y,z
1/2+x,1/2-y,-z
1/2-x,1/2+y,-z
-x,-y,-z
x,y,-z
1/2-x,1/2+y,z
1/2+x,1/2-y,z
loop_
_atom_site_type_symbol
_atom_site_label
_atom_site_fract_x
_atom_site_fract_y
_atom_site_fract_z
Si Si1 0.731652 0.872114 0.789138
Si Si2 0.615885 0.331339 0.786380
Si Si3 0.213552 0.994443 0.707021
Si Si4 0.078781 0.521718 0.300459
Si Si5 0.562471 0.459714 0.796033
Si Si6 0.565663 0.199613 0.790960
Si Si7 0.915526 0.343517 0.196914
Si Si8 0.669581 0.090977 0.289936
O O1 0.803528 0.840275 0.733418
O O2 0.662105 0.837801 0.722327
O O3 0.740804 0.943887 0.741666
O O4 0.728460 0.870563 0.000000
O O5 0.574722 0.391555 0.724301
O O6 0.584796 0.267181 0.728250
O O7 0.615342 0.331854 0.000000
O O8 0.204832 0.990284 0.500000
O O9 0.254075 0.933248 0.767900
O O10 0.137233 0.006594 0.784288
O O11 0.102342 0.535087 0.500000
O O12 0.080448 0.583185 0.193145
O O13 0.121048 0.464753 0.228579
O O14 0.000000 0.500000 0.310735
O O15 0.500000 0.500000 0.718813
O O16 0.546000 0.450955 0.000000
O O17 0.489142 0.178421 0.722792
O O18 0.629434 0.152851 0.756854
O O19 0.559192 0.201261 0.000000
O O20 0.912399 0.318393 0.000000
O O21 0.670504 0.089987 0.500000
#
# Coordination Sequence:
#
# PCOD9424924 Si02
#       8
#     8   8   8   8   8   8   8   8
#     4   9  17  31  50  69  94 127 164 208 253 297
#     4   8  16  33  52  70  96 129 164 204 249 300
#     4  10  19  31  50  76 102 128 160 203 250 293
#     4  10  18  29  44  64  95 132 163 194 236 284
#     4   9  18  35  59  82 101 124 161 210 261 305
#     4  10  20  32  47  69 100 136 169 203 247 299
#     4  10  19  28  44  71  96 122 164 211 246 283
#     4  10  20  32  46  68 101 136 166 198 239 292
#
# _framework density 19.880845000000001
#
# number of rings (size 3 to 8) (size 9 to 14) (size 15 to 20)
#    0.000    2.500    2.500    1.125    0.000    2.000 
#    0.000    3.750    0.000    4.500    0.000    0.000 
#    0.000    0.000    0.000    0.000    0.000    0.000 
#
# Total GULP energy -356446.401632 kJ/mol
# GULP energy per Si atom -5569.475025 kJ/mol
# Density = 1.983560 g / cm^3
# Si number density = 19.880845 Si / 1000 Ang^3
#
#
#
# Elastic Constant Matrix: (Units=GPa)
#
#
# Indices 1 2 3 4 5 6 
#
# 1 124.4717 91.8906 -5.6207 0.0000 0.0000 0.0000
# 2 91.8906 133.4849 2.1566 0.0000 0.0000 0.0000
# 3 -5.6207 2.1566 35.2874 0.0000 0.0000 0.0000
# 4 0.0000 0.0000 0.0000 45.1095 0.0000 0.0000
# 5 0.0000 0.0000 0.0000 0.0000 10.6274 0.0000
# 6 0.0000 0.0000 0.0000 0.0000 0.0000 24.3011
#
#
#
# Elastic Compliance Matrix: (Units=1/GPa)
#
#
# Indices 1 2 3 4 5 6 
#
# 1 0.016727 -0.011570 0.003371 0.000000 0.000000 0.000000
# 2 -0.011570 0.015501 -0.002790 0.000000 0.000000 0.000000
# 3 0.003371 -0.002790 0.029046 0.000000 0.000000 0.000000
# 4 0.000000 0.000000 0.000000 0.022168 0.000000 0.000000
# 5 0.000000 0.000000 0.000000 0.000000 0.094097 0.000000
# 6 0.000000 0.000000 0.000000 0.000000 0.000000 0.041150
#
#
# Mechanical properties :
#
#
# Convention : Reuss Voigt Hill
#
# Bulk Modulus (GPa) = 25.44649 52.23299 38.83974
# Shear Modulus (GPa) = 19.70321 29.66210 24.68265
#
# Velocity S-wave (km/s) = 3.15153 3.86682 3.52736
# Velocity P-wave (km/s) = 5.10590 6.80195 6.01401
#
# Compressibility (1/GPa) = 0.03929816
#
# Stress axis : x y z
#
# Youngs Moduli (GPa) = 59.78238 64.51203 34.42778
#
# Poissons Ratio (x) = 0.74637 -0.11607
# Poissons Ratio (y) = 0.69165 0.09606
# Poissons Ratio (z) = -0.20155 0.18000
#
# Static dielectric constant tensor:
#      x y z
#    x 1.763510 0.000000 0.000000 
#    y 0.000000 1.679800 0.000000 
#    z 0.000000 0.000000 1.783430 
# 
# From -- ./inp_files/9124.got.cif
#   From: 2010.05.17/outbox.cif.g08.bks.cpg/sg55_5_cif.got.tgz:9124.got - 2010.06.03 13:27:54.
