data_PCOD9424126
_publ_section_title
;
Structure prediction by ZEFSAII (Michael W. Deem and Ramdas Pophale) SiO2 
 PCOD9424126
Probable space group: P C C A
;
_chemical_formula_sum "Si O2"
_cell_formula_units_Z 32
_cell_length_a 11.264234
_cell_length_b 8.431784
_cell_length_c 13.644814
_cell_angle_alpha 90.000000
_cell_angle_beta 90.000000
_cell_angle_gamma 90.000000
_cell_volume 1295.951523
_symmetry_space_group_name_H-M "P C C A"
_symmetry_group_IT_number 54
_symmetry_cell_setting 'orthorhombic'
loop_
_space_group_symop_operation_xyz
x,y,z
1/2-x,-y,z
1/2+x,-y,1/2-z
-x,y,1/2-z
-x,-y,-z
1/2+x,y,-z
1/2-x,y,1/2+z
x,-y,1/2+z
loop_
_atom_site_type_symbol
_atom_site_label
_atom_site_fract_x
_atom_site_fract_y
_atom_site_fract_z
Si Si1 0.592245 0.843246 0.018829
Si Si2 0.143728 0.707515 0.178687
Si Si3 0.821442 0.861618 0.128699
Si Si4 0.922206 0.349089 0.345337
O O1 0.718975 0.777319 0.064983
O O2 0.489308 0.735886 0.065397
O O3 0.605715 0.831112 0.903264
O O4 0.398354 0.975906 0.941706
O O5 0.118642 0.752042 0.291500
O O6 0.286796 0.700609 0.171383
O O7 0.088672 0.539086 0.147576
O O8 0.750000 0.000000 0.188278
O O9 0.000000 0.307776 0.250000
#
# Coordination Sequence:
#
# PCOD9424126 Si02
#       4
#     8   8   8   8
#     4   9  21  42  68 102 139 186 235 299 350 437
#     4  11  22  42  72 101 140 194 234 300 364 428
#     4   8  20  39  68  98 137 184 227 296 355 423
#     4  11  22  45  67 103 146 186 242 297 361 436
#
# _framework density 24.692281999999999
#
# number of rings (size 3 to 8) (size 9 to 14) (size 15 to 20)
#    1.500    0.500    2.500    0.750    3.500    0.000 
#   13.500   11.250    0.000    0.000    0.000    0.000 
#    0.000    0.000    0.000    0.000    0.000    0.000 
#
# Total GULP energy -178832.980894 kJ/mol
# GULP energy per Si atom -5588.530653 kJ/mol
# Density = 2.463608 g / cm^3
# Si number density = 24.692282 Si / 1000 Ang^3
#
#
#
# Elastic Constant Matrix: (Units=GPa)
#
#
# Indices 1 2 3 4 5 6 
#
# 1 133.2570 58.0135 51.9769 0.0000 0.0000 0.0000
# 2 58.0135 94.3990 42.6553 0.0000 0.0000 0.0000
# 3 51.9769 42.6553 124.3983 0.0000 0.0000 0.0000
# 4 0.0000 0.0000 0.0000 46.5701 0.0000 0.0000
# 5 0.0000 0.0000 0.0000 0.0000 42.0770 0.0000
# 6 0.0000 0.0000 0.0000 0.0000 0.0000 47.3500
#
#
#
# Elastic Compliance Matrix: (Units=1/GPa)
#
#
# Indices 1 2 3 4 5 6 
#
# 1 0.010954 -0.005519 -0.002685 0.000000 0.000000 0.000000
# 2 -0.005519 0.015316 -0.002946 0.000000 0.000000 0.000000
# 3 -0.002685 -0.002946 0.010170 0.000000 0.000000 0.000000
# 4 0.000000 0.000000 0.000000 0.021473 0.000000 0.000000
# 5 0.000000 0.000000 0.000000 0.000000 0.023766 0.000000
# 6 0.000000 0.000000 0.000000 0.000000 0.000000 0.021119
#
#
# Mechanical properties :
#
#
# Convention : Reuss Voigt Hill
#
# Bulk Modulus (GPa) = 70.71055 73.03842 71.87448
# Shear Modulus (GPa) = 38.51745 40.49333 39.50539
#
# Velocity S-wave (km/s) = 3.95384 4.05398 4.00422
# Velocity P-wave (km/s) = 7.03866 7.18030 7.10983
#
# Compressibility (1/GPa) = 0.01414216
#
# Stress axis : x y z
#
# Youngs Moduli (GPa) = 91.29078 65.29089 98.32389
#
# Poissons Ratio (x) = 0.36033 0.26395
# Poissons Ratio (y) = 0.50382 0.28965
# Poissons Ratio (z) = 0.24507 0.19234
#
# Static dielectric constant tensor:
#      x y z
#    x 2.156790 0.000000 0.000000 
#    y 0.000000 1.946020 0.000000 
#    z 0.000000 0.000000 1.922530 
# 
# From -- ./inp_files/7285.got.cif
#   From: 2010.05.17/outbox.cif.g08.bks.cpg/sg54_4_cif.got.tgz:7285.got - 2010.06.03 13:09:01.
