data_PCOD9424991
_publ_section_title
;
Structure prediction by ZEFSAII (Michael W. Deem and Ramdas Pophale) SiO2 
 PCOD9424991
Probable space group: P B A M
;
_chemical_formula_sum "Si O2"
_cell_formula_units_Z 52
_cell_length_a 25.190329
_cell_length_b 9.316257
_cell_length_c 12.911681
_cell_angle_alpha 90.000000
_cell_angle_beta 90.000000
_cell_angle_gamma 90.000000
_cell_volume 3030.107860
_symmetry_space_group_name_H-M "P B A M"
_symmetry_group_IT_number 55
_symmetry_cell_setting 'orthorhombic'
loop_
_space_group_symop_operation_xyz
x,y,z
-x,-y,z
1/2+x,1/2-y,-z
1/2-x,1/2+y,-z
-x,-y,-z
x,y,-z
1/2-x,1/2+y,z
1/2+x,1/2-y,z
loop_
_atom_site_type_symbol
_atom_site_label
_atom_site_fract_x
_atom_site_fract_y
_atom_site_fract_z
Si Si1 0.349354 0.676347 0.120144
Si Si2 0.832331 0.570706 0.500000
Si Si3 0.125598 0.751175 0.500000
Si Si4 0.715392 0.511203 0.273706
Si Si5 0.286303 0.494022 0.500000
Si Si6 0.057325 0.942788 0.880006
Si Si7 0.121273 0.753051 0.273668
Si Si8 0.339914 0.929577 0.270017
O O1 0.303015 0.593209 0.182354
O O2 0.400306 0.572402 0.124467
O O3 0.359907 0.820279 0.184038
O O4 0.335960 0.701830 0.000000
O O5 0.841369 0.397700 0.500000
O O6 0.769163 0.591882 0.500000
O O7 0.853739 0.618999 0.611698
O O8 0.165895 0.882910 0.500000
O O9 0.096978 0.757891 0.389829
O O10 0.711680 0.433437 0.386996
O O11 0.674231 0.645538 0.273545
O O12 0.775853 0.560716 0.262255
O O13 0.081035 0.818311 0.808789
O O14 0.053187 0.896477 0.000000
O O15 0.000000 0.000000 0.846335
O O16 0.138111 0.589835 0.253727
#
# Coordination Sequence:
#
# PCOD9424991 Si02
#       8
#     8   4   4   8   4   8   8   8
#     4  10  21  33  46  70 100 127 159 198 238 282
#     4   8  16  26  42  66  96 132 161 190 229 265
#     4   8  14  26  41  67 100 121 148 195 234 272
#     4   9  17  30  47  70 101 134 162 190 226 271
#     4   8  14  24  44  67  89 125 171 199 214 255
#     4   9  19  38  58  70  85 115 158 206 248 284
#     4   9  17  30  50  72  96 128 160 190 235 285
#     4  10  18  30  48  73 103 131 161 194 228 275
#
# _framework density 17.161106
#
# number of rings (size 3 to 8) (size 9 to 14) (size 15 to 20)
#    0.000    2.923    0.000    0.923    0.000    5.538 
#    0.000    5.000    0.000    2.769    0.000    3.231 
#    0.000    0.000    0.000    0.000    0.000    0.000 
#
# Total GULP energy -289561.038460 kJ/mol
# GULP energy per Si atom -5568.481509 kJ/mol
# Density = 1.712205 g / cm^3
# Si number density = 17.161106 Si / 1000 Ang^3
#
#
#
# Elastic Constant Matrix: (Units=GPa)
#
#
# Indices 1 2 3 4 5 6 
#
# 1 21.6161 -9.7094 16.0654 0.0000 0.0000 0.0000
# 2 -9.7094 60.2585 49.5256 0.0000 0.0000 0.0000
# 3 16.0654 49.5256 137.5220 0.0000 0.0000 0.0000
# 4 0.0000 0.0000 0.0000 29.5810 0.0000 0.0000
# 5 0.0000 0.0000 0.0000 0.0000 11.3918 0.0000
# 6 0.0000 0.0000 0.0000 0.0000 0.0000 3.4371
#
#
#
# Elastic Compliance Matrix: (Units=1/GPa)
#
#
# Indices 1 2 3 4 5 6 
#
# 1 0.071024 0.025942 -0.017639 0.000000 0.000000 0.000000
# 2 0.025942 0.033047 -0.014932 0.000000 0.000000 0.000000
# 3 -0.017639 -0.014932 0.014710 0.000000 0.000000 0.000000
# 4 0.000000 0.000000 0.000000 0.033805 0.000000 0.000000
# 5 0.000000 0.000000 0.000000 0.000000 0.087782 0.000000
# 6 0.000000 0.000000 0.000000 0.000000 0.000000 0.290941
#
#
# Mechanical properties :
#
#
# Convention : Reuss Voigt Hill
#
# Bulk Modulus (GPa) = 9.47670 36.79554 23.13612
# Shear Modulus (GPa) = 8.62452 19.78298 14.20375
#
# Velocity S-wave (km/s) = 2.24422 3.39895 2.88005
# Velocity P-wave (km/s) = 3.49994 6.07384 4.95687
#
# Compressibility (1/GPa) = 0.10552192
#
# Stress axis : x y z
#
# Youngs Moduli (GPa) = 14.07971 30.25957 67.98280
#
# Poissons Ratio (x) = -0.78498 1.19918
# Poissons Ratio (y) = -0.36525 1.01511
# Poissons Ratio (z) = 0.24836 0.45183
#
# Static dielectric constant tensor:
#      x y z
#    x 1.542600 0.000000 0.000000 
#    y 0.000000 1.603310 0.000000 
#    z 0.000000 0.000000 1.628230 
# 
# From -- ./inp_files/12416.got.cif
#   From: 2010.05.17/outbox.cif.g08.bks.cpg/sg55_7_cif.got.tgz:12416.got - 2010.06.03 13:27:54.
