data_PCOD9424187
_publ_section_title
;
Structure prediction by ZEFSAII (Michael W. Deem and Ramdas Pophale) SiO2 
 PCOD9424187
Probable space group: P C C A
;
_chemical_formula_sum "Si O2"
_cell_formula_units_Z 40
_cell_length_a 7.922871
_cell_length_b 12.744401
_cell_length_c 17.513345
_cell_angle_alpha 90.000000
_cell_angle_beta 90.000000
_cell_angle_gamma 90.000000
_cell_volume 1768.361764
_symmetry_space_group_name_H-M "P C C A"
_symmetry_group_IT_number 54
_symmetry_cell_setting 'orthorhombic'
loop_
_space_group_symop_operation_xyz
x,y,z
1/2-x,-y,z
1/2+x,-y,1/2-z
-x,y,1/2-z
-x,-y,-z
1/2+x,y,-z
1/2-x,y,1/2+z
x,-y,1/2+z
loop_
_atom_site_type_symbol
_atom_site_label
_atom_site_fract_x
_atom_site_fract_y
_atom_site_fract_z
Si Si1 0.833560 0.886897 0.096139
Si Si2 0.823211 0.603456 0.565323
Si Si3 0.830102 0.781879 0.450196
Si Si4 0.157294 0.388479 0.157017
Si Si5 0.825640 0.704082 0.202171
O O1 0.775946 0.817864 0.169274
O O2 0.032969 0.857498 0.089762
O O3 0.750000 0.000000 0.105965
O O4 0.772716 0.849231 0.012126
O O5 0.750000 0.500000 0.526355
O O6 0.893003 0.688306 0.506081
O O7 0.672242 0.643659 0.620807
O O8 0.975665 0.586292 0.622796
O O9 0.726703 0.712908 0.389796
O O10 0.250000 0.500000 0.151083
O O11 0.190351 0.349326 0.242847
O O12 0.000000 0.703050 0.250000
#
# Coordination Sequence:
#
# PCOD9424187 Si02
#       5
#     8   8   8   8   8
#     4  11  24  46  71  98 131 185 240 304 360 409
#     4  11  24  40  65 102 140 184 230 277 350 435
#     4  11  23  42  70  98 138 175 232 299 349 426
#     4  12  24  40  68 100 143 187 223 282 363 435
#     4  11  23  43  66  95 141 182 233 286 349 431
#
# _framework density 22.619804999999999
#
# number of rings (size 3 to 8) (size 9 to 14) (size 15 to 20)
#    0.000    0.800    4.000    3.600    2.800    1.600 
#    0.000    5.000    0.000    0.000    0.000    0.000 
#    0.000    0.000    0.000    0.000    0.000    0.000 
#
# Total GULP energy -223064.851997 kJ/mol
# GULP energy per Si atom -5576.621300 kJ/mol
# Density = 2.256832 g / cm^3
# Si number density = 22.619805 Si / 1000 Ang^3
#
#
#
# Elastic Constant Matrix: (Units=GPa)
#
#
# Indices 1 2 3 4 5 6 
#
# 1 68.0950 44.5454 15.1120 0.0000 0.0000 0.0000
# 2 44.5454 120.9951 16.7884 0.0000 0.0000 0.0000
# 3 15.1120 16.7884 93.2652 0.0000 0.0000 0.0000
# 4 0.0000 0.0000 0.0000 72.5515 0.0000 0.0000
# 5 0.0000 0.0000 0.0000 0.0000 26.1626 0.0000
# 6 0.0000 0.0000 0.0000 0.0000 0.0000 37.2916
#
#
#
# Elastic Compliance Matrix: (Units=1/GPa)
#
#
# Indices 1 2 3 4 5 6 
#
# 1 0.019678 -0.006976 -0.001933 0.000000 0.000000 0.000000
# 2 -0.006976 0.010950 -0.000841 0.000000 0.000000 0.000000
# 3 -0.001933 -0.000841 0.011187 0.000000 0.000000 0.000000
# 4 0.000000 0.000000 0.000000 0.013783 0.000000 0.000000
# 5 0.000000 0.000000 0.000000 0.000000 0.038222 0.000000
# 6 0.000000 0.000000 0.000000 0.000000 0.000000 0.026816
#
#
# Mechanical properties :
#
#
# Convention : Reuss Voigt Hill
#
# Bulk Modulus (GPa) = 44.81303 48.36078 46.58691
# Shear Modulus (GPa) = 33.88133 40.92843 37.40488
#
# Velocity S-wave (km/s) = 3.87442 4.25833 4.07090
# Velocity P-wave (km/s) = 6.31421 6.75308 6.53733
#
# Compressibility (1/GPa) = 0.02231494
#
# Stress axis : x y z
#
# Youngs Moduli (GPa) = 50.81806 91.32509 89.39279
#
# Poissons Ratio (x) = 0.63713 0.17277
# Poissons Ratio (y) = 0.35453 0.07515
# Poissons Ratio (z) = 0.09821 0.07677
#
# Static dielectric constant tensor:
#      x y z
#    x 1.932880 0.000000 0.000000 
#    y 0.000000 1.872030 0.000000 
#    z 0.000000 0.000000 1.864830 
# 
# From -- ./inp_files/16292.got.cif
#   From: 2010.05.17/outbox.cif.g08.bks.cpg/sg54_9_cif.got.tgz:16292.got - 2010.06.03 13:09:01.
