data_PCOD9424443
_publ_section_title
;
Structure prediction by ZEFSAII (Michael W. Deem and Ramdas Pophale) SiO2 
 PCOD9424443
Probable space group: P C C A
;
_chemical_formula_sum "Si O2"
_cell_formula_units_Z 40
_cell_length_a 8.675936
_cell_length_b 8.845439
_cell_length_c 20.290101
_cell_angle_alpha 90.000000
_cell_angle_beta 90.000000
_cell_angle_gamma 90.000000
_cell_volume 1557.112318
_symmetry_space_group_name_H-M "P C C A"
_symmetry_group_IT_number 54
_symmetry_cell_setting 'orthorhombic'
loop_
_space_group_symop_operation_xyz
x,y,z
1/2-x,-y,z
1/2+x,-y,1/2-z
-x,y,1/2-z
-x,-y,-z
1/2+x,y,-z
1/2-x,y,1/2+z
x,-y,1/2+z
loop_
_atom_site_type_symbol
_atom_site_label
_atom_site_fract_x
_atom_site_fract_y
_atom_site_fract_z
Si Si1 0.573568 0.428487 0.188294
Si Si2 0.250000 0.000000 0.662791
Si Si3 0.145379 0.770703 0.951167
Si Si4 0.393612 0.294545 0.646396
Si Si5 0.750000 0.500000 0.468252
Si Si6 0.982681 0.833757 0.083614
O O1 0.750000 0.500000 0.188360
O O2 0.500000 0.336077 0.250000
O O3 0.448211 0.562747 0.186504
O O4 0.536852 0.324867 0.124377
O O5 0.309160 0.164141 0.687966
O O6 0.096757 0.059032 0.624706
O O7 0.304761 0.849625 0.934949
O O8 0.047654 0.771367 0.885404
O O9 0.152961 0.597762 0.979068
O O10 0.061026 0.841314 0.012647
O O11 0.307733 0.367286 0.581805
#
# Coordination Sequence:
#
# PCOD9424443 Si02
#       6
#     8   4   8   8   4   8
#     4  12  28  50  83 110 139 188 259 322 371 432
#     4  12  28  46  68 108 162 206 232 298 376 466
#     4  12  22  39  74 101 147 193 247 305 358 435
#     4  12  24  44  70 105 149 190 246 297 372 440
#     4  12  20  38  70 102 136 194 244 304 350 418
#     4  12  25  46  72 113 151 198 253 300 379 441
#
# _framework density 25.688576000000001
#
# number of rings (size 3 to 8) (size 9 to 14) (size 15 to 20)
#    0.000    0.000    8.000    1.800    4.200    4.000 
#    0.000    1.000    0.000    0.000    0.000    0.000 
#    0.000    0.000    0.000    0.000    0.000    0.000 
#
# Total GULP energy -222810.160169 kJ/mol
# GULP energy per Si atom -5570.254004 kJ/mol
# Density = 2.563011 g / cm^3
# Si number density = 25.688576 Si / 1000 Ang^3
#
#
#
# Elastic Constant Matrix: (Units=GPa)
#
#
# Indices 1 2 3 4 5 6 
#
# 1 146.8580 32.5625 13.5993 0.0000 0.0000 0.0000
# 2 32.5625 131.4408 4.6072 0.0000 0.0000 0.0000
# 3 13.5993 4.6072 55.1605 0.0000 0.0000 0.0000
# 4 0.0000 0.0000 0.0000 0.7545 0.0000 0.0000
# 5 0.0000 0.0000 0.0000 0.0000 26.2402 0.0000
# 6 0.0000 0.0000 0.0000 0.0000 0.0000 62.2555
#
#
#
# Elastic Compliance Matrix: (Units=1/GPa)
#
#
# Indices 1 2 3 4 5 6 
#
# 1 0.007355 -0.001764 -0.001666 0.000000 0.000000 0.000000
# 2 -0.001764 0.008053 -0.000238 0.000000 0.000000 0.000000
# 3 -0.001666 -0.000238 0.018560 0.000000 0.000000 0.000000
# 4 0.000000 0.000000 0.000000 1.325402 0.000000 0.000000
# 5 0.000000 0.000000 0.000000 0.000000 0.038110 0.000000
# 6 0.000000 0.000000 0.000000 0.000000 0.000000 0.016063
#
#
# Mechanical properties :
#
#
# Convention : Reuss Voigt Hill
#
# Bulk Modulus (GPa) = 37.54789 48.33302 42.94045
# Shear Modulus (GPa) = 3.49711 36.69604 20.09657
#
# Velocity S-wave (km/s) = 1.16803 3.78365 2.80002
# Velocity P-wave (km/s) = 4.05800 6.15985 5.21590
#
# Compressibility (1/GPa) = 0.02663266
#
# Stress axis : x y z
#
# Youngs Moduli (GPa) = 135.96925 124.17374 53.88075
#
# Poissons Ratio (x) = 0.21899 0.08976
# Poissons Ratio (y) = 0.23980 0.01281
# Poissons Ratio (z) = 0.22651 0.02953
#
# Static dielectric constant tensor:
#      x y z
#    x 2.071680 0.000000 0.000000 
#    y 0.000000 5.360670 0.000000 
#    z 0.000000 0.000000 2.019280 
# 
# From -- ./inp_files/23310.got.cif
#   From: 2010.05.17/outbox.cif.g08.bks.cpg/sg54_12_cif.got.tgz:23310.got - 2010.06.03 13:09:01.
