data_PCOD9424733
_publ_section_title
;
Structure prediction by ZEFSAII (Michael W. Deem and Ramdas Pophale) SiO2 
 PCOD9424733
Probable space group: P B A M
;
_chemical_formula_sum "Si O2"
_cell_formula_units_Z 56
_cell_length_a 14.117451
_cell_length_b 7.535631
_cell_length_c 19.395983
_cell_angle_alpha 90.000000
_cell_angle_beta 90.000000
_cell_angle_gamma 90.000000
_cell_volume 2063.420343
_symmetry_space_group_name_H-M "P B A M"
_symmetry_group_IT_number 55
_symmetry_cell_setting 'orthorhombic'
loop_
_space_group_symop_operation_xyz
x,y,z
-x,-y,z
1/2+x,1/2-y,-z
1/2-x,1/2+y,-z
-x,-y,-z
x,y,-z
1/2-x,1/2+y,z
1/2+x,1/2-y,z
loop_
_atom_site_type_symbol
_atom_site_label
_atom_site_fract_x
_atom_site_fract_y
_atom_site_fract_z
Si Si1 0.778275 0.919122 0.921817
Si Si2 0.872662 0.099171 0.725173
Si Si3 0.121623 0.875146 0.425064
Si Si4 0.351849 0.824372 0.720347
Si Si5 0.433265 0.335108 0.879053
Si Si6 0.655287 0.202296 0.426957
Si Si7 0.102878 0.395297 0.134799
O O1 0.835678 0.104941 0.914101
O O2 0.671261 0.963081 0.900978
O O3 0.832554 0.784289 0.872327
O O4 0.787990 0.857668 0.000000
O O5 0.915293 0.166542 0.652052
O O6 0.761897 0.152866 0.727222
O O7 0.918001 0.160915 0.796510
O O8 0.875289 0.884669 0.724579
O O9 0.079076 0.822725 0.500000
O O10 0.229945 0.805563 0.425395
O O11 0.127435 0.090400 0.426010
O O12 0.377374 0.887485 0.643471
O O13 0.398086 0.927046 0.783523
O O14 0.500000 0.500000 0.899451
O O15 0.501540 0.168665 0.893177
O O16 0.625877 0.121073 0.500000
#
# Coordination Sequence:
#
# PCOD9424733 Si02
#       7
#     8   8   8   8   8   8   8
#     4  11  23  39  60  84 110 140 178 221 270 326
#     4  10  17  30  52  77 107 143 186 225 267 317
#     4   8  14  23  39  66 101 138 175 220 267 309
#     4  10  16  29  52  74 106 145 181 224 267 313
#     4  10  20  35  57  82 108 142 180 216 261 324
#     4   8  14  22  37  66  99 135 178 218 260 308
#     4  11  21  38  60  83 110 143 179 222 268 320
#
# _framework density 27.139405
#
# number of rings (size 3 to 8) (size 9 to 14) (size 15 to 20)
#    0.000    2.286    4.286    0.429    0.000    3.143 
#    0.000    0.714    0.000    3.000    0.000    0.000 
#    0.000    0.000    0.000   56.143    0.000    3.000 
#
# Total GULP energy -313428.512544 kJ/mol
# GULP energy per Si atom -5596.937724 kJ/mol
# Density = 2.707763 g / cm^3
# Si number density = 27.139405 Si / 1000 Ang^3
#
#
#
# Elastic Constant Matrix: (Units=GPa)
#
#
# Indices 1 2 3 4 5 6 
#
# 1 157.8256 0.6306 15.9535 0.0000 0.0000 0.0000
# 2 0.6306 80.4522 -5.0671 0.0000 0.0000 0.0000
# 3 15.9535 -5.0671 162.5713 0.0000 0.0000 0.0000
# 4 0.0000 0.0000 0.0000 2.3896 0.0000 0.0000
# 5 0.0000 0.0000 0.0000 0.0000 -13.0527 0.0000
# 6 0.0000 0.0000 0.0000 0.0000 0.0000 29.9952
#
#
#
# Elastic Compliance Matrix: (Units=1/GPa)
#
#
# Indices 1 2 3 4 5 6 
#
# 1 0.006400 -0.000090 -0.000631 0.000000 0.000000 0.000000
# 2 -0.000090 0.012455 0.000397 0.000000 0.000000 0.000000
# 3 -0.000631 0.000397 0.006225 0.000000 0.000000 0.000000
# 4 0.000000 0.000000 0.000000 0.418484 0.000000 0.000000
# 5 0.000000 0.000000 0.000000 0.000000 -0.076612 0.000000
# 6 0.000000 0.000000 0.000000 0.000000 0.000000 0.033339
#
#
# Mechanical properties :
#
#
# Convention : Reuss Voigt Hill
#
# Bulk Modulus (GPa) = 40.92714 47.09810 44.01262
# Shear Modulus (GPa) = 12.22244 29.82188 21.02216
#
# Velocity S-wave (km/s) = 2.12447 3.31847 2.78618
# Velocity P-wave (km/s) = 4.59683 5.66346 5.15780
#
# Compressibility (1/GPa) = 0.02443367
#
# Stress axis : x y z
#
# Youngs Moduli (GPa) = 156.24417 80.28611 160.63144
#
# Poissons Ratio (x) = 0.00722 0.10134
# Poissons Ratio (y) = 0.01405 -0.06378
# Poissons Ratio (z) = 0.09857 -0.03188
#
# Static dielectric constant tensor:
#      x y z
#    x 2.132470 0.000000 0.000000 
#    y 0.000000 2.539120 0.000000 
#    z 0.000000 0.000000 2.078530 
# 
# From -- ./inp_files/22957.got.cif
#   From: 2010.05.17/outbox.cif.g08.bks.cpg/sg55_12_cif.got.tgz:22957.got - 2010.06.03 13:27:54.
