data_PCOD9424940
_publ_section_title
;
Structure prediction by ZEFSAII (Michael W. Deem and Ramdas Pophale) SiO2 
 PCOD9424940
Probable space group: P B A M
;
_chemical_formula_sum "Si O2"
_cell_formula_units_Z 58
_cell_length_a 24.632238
_cell_length_b 8.617461
_cell_length_c 15.027732
_cell_angle_alpha 90.000000
_cell_angle_beta 90.000000
_cell_angle_gamma 90.000000
_cell_volume 3189.896853
_symmetry_space_group_name_H-M "P B A M"
_symmetry_group_IT_number 55
_symmetry_cell_setting 'orthorhombic'
loop_
_space_group_symop_operation_xyz
x,y,z
-x,-y,z
1/2+x,1/2-y,-z
1/2-x,1/2+y,-z
-x,-y,-z
x,y,-z
1/2-x,1/2+y,z
1/2+x,1/2-y,z
loop_
_atom_site_type_symbol
_atom_site_label
_atom_site_fract_x
_atom_site_fract_y
_atom_site_fract_z
Si Si1 0.921956 0.364697 0.898509
Si Si2 0.525902 0.756205 0.634391
Si Si3 0.210809 0.187027 0.107872
Si Si4 0.500000 0.500000 0.500000
Si Si5 0.988927 0.825460 0.170248
Si Si6 0.678150 0.657764 0.106881
Si Si7 0.087908 0.432529 0.399512
Si Si8 0.117063 0.343890 0.209475
O O1 0.982395 0.296761 0.894621
O O2 0.879996 0.228637 0.869969
O O3 0.911790 0.505235 0.832048
O O4 0.908588 0.410989 0.000000
O O5 0.531323 0.602828 0.576795
O O6 0.518888 0.710433 0.736499
O O7 0.570468 0.888846 0.617486
O O8 0.468493 0.834882 0.605059
O O9 0.273105 0.225264 0.130539
O O10 0.172068 0.308132 0.157699
O O11 0.192818 0.015130 0.137474
O O12 0.204785 0.200757 0.000000
O O13 0.925852 0.792467 0.187324
O O14 0.000000 0.000000 0.140931
O O15 0.678428 0.646922 0.000000
O O16 0.109784 0.415320 0.500000
O O17 0.121963 0.370903 0.315344
#
# Coordination Sequence:
#
# PCOD9424940 Si02
#       8
#     8   8   8   2   8   8   8   8
#     4  11  22  36  52  73 104 143 182 219 263 318
#     4  10  18  29  48  71  99 132 173 217 263 307
#     4  10  19  35  56  81 107 132 170 219 267 313
#     4  12  16  26  52  76  90 134 176 224 276 294
#     4  11  22  34  47  72 111 143 176 218 259 324
#     4   9  19  35  57  81 105 133 171 224 271 309
#     4  10  18  33  48  69 101 137 172 217 260 311
#     4  11  22  33  52  77 105 142 180 213 265 322
#
# _framework density 18.182406
#
# number of rings (size 3 to 8) (size 9 to 14) (size 15 to 20)
#    0.000    1.655    3.448    2.897    0.000    4.138 
#    0.000    0.000    0.000    0.000    0.000    3.862 
#    0.000    0.000    0.000    0.000    0.000    0.000 
#
# Total GULP energy -323030.207875 kJ/mol
# GULP energy per Si atom -5569.486343 kJ/mol
# Density = 1.814102 g / cm^3
# Si number density = 18.182406 Si / 1000 Ang^3
#
#
#
# Elastic Constant Matrix: (Units=GPa)
#
#
# Indices 1 2 3 4 5 6 
#
# 1 44.1081 -5.1536 5.6934 0.0000 0.0000 0.0000
# 2 -5.1536 47.5740 -2.7482 0.0000 0.0000 0.0000
# 3 5.6934 -2.7482 73.6336 0.0000 0.0000 0.0000
# 4 0.0000 0.0000 0.0000 22.5410 0.0000 0.0000
# 5 0.0000 0.0000 0.0000 0.0000 8.7504 0.0000
# 6 0.0000 0.0000 0.0000 0.0000 0.0000 20.7329
#
#
#
# Elastic Compliance Matrix: (Units=1/GPa)
#
#
# Indices 1 2 3 4 5 6 
#
# 1 0.023173 0.002412 -0.001702 0.000000 0.000000 0.000000
# 2 0.002412 0.021316 0.000609 0.000000 0.000000 0.000000
# 3 -0.001702 0.000609 0.013735 0.000000 0.000000 0.000000
# 4 0.000000 0.000000 0.000000 0.044364 0.000000 0.000000
# 5 0.000000 0.000000 0.000000 0.000000 0.114281 0.000000
# 6 0.000000 0.000000 0.000000 0.000000 0.000000 0.048233
#
#
# Mechanical properties :
#
#
# Convention : Reuss Voigt Hill
#
# Bulk Modulus (GPa) = 16.43030 17.87765 17.15397
# Shear Modulus (GPa) = 17.68343 21.57312 19.62828
#
# Velocity S-wave (km/s) = 3.12197 3.44827 3.28917
# Velocity P-wave (km/s) = 4.69591 5.07029 4.88669
#
# Compressibility (1/GPa) = 0.06086317
#
# Stress axis : x y z
#
# Youngs Moduli (GPa) = 43.15355 46.91236 72.80633
#
# Poissons Ratio (x) = -0.11315 0.12390
# Poissons Ratio (y) = -0.10409 -0.04434
# Poissons Ratio (z) = 0.07344 -0.02857
#
# Static dielectric constant tensor:
#      x y z
#    x 1.613100 0.000000 0.000000 
#    y 0.000000 1.666960 0.000000 
#    z 0.000000 0.000000 1.632880 
# 
# From -- ./inp_files/19937.got.cif
#   From: 2010.05.17/outbox.cif.g08.bks.cpg/sg55_10_cif.got.tgz:19937.got - 2010.06.03 13:27:54.
