data_PCOD9424086
_publ_section_title
;
Structure prediction by ZEFSAII (Michael W. Deem and Ramdas Pophale) SiO2 
 PCOD9424086
Probable space group: P C C A
;
_chemical_formula_sum "Si O2"
_cell_formula_units_Z 48
_cell_length_a 9.261806
_cell_length_b 13.982908
_cell_length_c 18.192524
_cell_angle_alpha 90.000000
_cell_angle_beta 90.000000
_cell_angle_gamma 90.000000
_cell_volume 2356.058864
_symmetry_space_group_name_H-M "P C C A"
_symmetry_group_IT_number 54
_symmetry_cell_setting 'orthorhombic'
loop_
_space_group_symop_operation_xyz
x,y,z
1/2-x,-y,z
1/2+x,-y,1/2-z
-x,y,1/2-z
-x,-y,-z
1/2+x,y,-z
1/2-x,y,1/2+z
x,-y,1/2+z
loop_
_atom_site_type_symbol
_atom_site_label
_atom_site_fract_x
_atom_site_fract_y
_atom_site_fract_z
Si Si1 0.307703 0.099982 0.453441
Si Si2 0.642933 0.754757 0.290287
Si Si3 0.957549 0.388847 0.504061
Si Si4 0.794169 0.391061 0.900520
Si Si5 0.490336 0.201743 0.929431
Si Si6 0.156076 0.092762 0.786141
O O1 0.413789 0.155778 0.506431
O O2 0.373131 0.082531 0.373245
O O3 0.167137 0.161286 0.436581
O O4 0.250000 0.000000 0.485748
O O5 0.500000 0.713546 0.250000
O O6 0.733359 0.678053 0.337653
O O7 0.569256 0.820767 0.353154
O O8 0.747060 0.815563 0.237490
O O9 0.790129 0.380131 0.479689
O O10 0.017901 0.315485 0.443140
O O11 0.000000 0.500000 0.500000
O O12 0.039291 0.364761 0.580472
O O13 0.750000 0.500000 0.879621
O O14 0.000000 0.097231 0.750000
O O15 0.250000 0.000000 0.764234
#
# Coordination Sequence:
#
# PCOD9424086 Si02
#       6
#     8   8   8   8   8   8
#     4  11  25  41  61  95 126 161 215 262 314 377
#     4  11  22  42  63  87 130 173 206 260 322 388
#     4   9  18  35  60  93 120 160 206 256 311 380
#     4   9  19  36  63  91 126 162 207 260 322 376
#     4  11  22  39  65  91 125 165 208 264 320 368
#     4  11  26  44  66  90 126 169 215 259 321 393
#
# _framework density 20.373004999999999
#
# number of rings (size 3 to 8) (size 9 to 14) (size 15 to 20)
#    0.000    1.667    1.667    3.000    7.000    0.667 
#    0.000    0.833    3.667    0.000    0.000    0.000 
#    0.000    0.000    0.000    0.000    0.000    0.000 
#
# Total GULP energy -267356.722031 kJ/mol
# GULP energy per Si atom -5569.931709 kJ/mol
# Density = 2.032664 g / cm^3
# Si number density = 20.373005 Si / 1000 Ang^3
#
#
#
# Elastic Constant Matrix: (Units=GPa)
#
#
# Indices 1 2 3 4 5 6 
#
# 1 72.0794 7.3187 29.2808 0.0000 0.0000 0.0000
# 2 7.3187 51.9263 8.5041 0.0000 0.0000 0.0000
# 3 29.2808 8.5041 68.5166 0.0000 0.0000 0.0000
# 4 0.0000 0.0000 0.0000 -12.4787 0.0000 0.0000
# 5 0.0000 0.0000 0.0000 0.0000 36.9461 0.0000
# 6 0.0000 0.0000 0.0000 0.0000 0.0000 19.8712
#
#
#
# Elastic Compliance Matrix: (Units=1/GPa)
#
#
# Indices 1 2 3 4 5 6 
#
# 1 0.016864 -0.001221 -0.007055 0.000000 0.000000 0.000000
# 2 -0.001221 0.019746 -0.001929 0.000000 0.000000 0.000000
# 3 -0.007055 -0.001929 0.017849 0.000000 0.000000 0.000000
# 4 0.000000 0.000000 0.000000 -0.080137 0.000000 0.000000
# 5 0.000000 0.000000 0.000000 0.000000 0.027066 0.000000
# 6 0.000000 0.000000 0.000000 0.000000 0.000000 0.050324
#
#
# Mechanical properties :
#
#
# Convention : Reuss Voigt Hill
#
# Bulk Modulus (GPa) = 29.36997 31.41440 30.39218
# Shear Modulus (GPa) = 59.89941 18.69563 39.29752
#
# Velocity S-wave (km/s) = 5.42818 3.03259 4.39669
# Velocity P-wave (km/s) = 7.33037 5.26452 6.38160
#
# Compressibility (1/GPa) = 0.03404838
#
# Stress axis : x y z
#
# Youngs Moduli (GPa) = 59.29933 50.64285 56.02412
#
# Poissons Ratio (x) = 0.06185 0.39526
# Poissons Ratio (y) = 0.07243 0.10806
# Poissons Ratio (z) = 0.41836 0.09768
#
# Static dielectric constant tensor:
#      x y z
#    x 1.748590 0.000000 0.000000 
#    y 0.000000 1.761420 0.000000 
#    z 0.000000 0.000000 1.747050 
# 
# From -- ./inp_files/16595.got.cif
#   From: 2010.05.17/outbox.cif.g08.bks.cpg/sg54_9_cif.got.tgz:16595.got - 2010.06.03 13:09:01.
