data_PCOD9424990
_publ_section_title
;
Structure prediction by ZEFSAII (Michael W. Deem and Ramdas Pophale) SiO2 
 PCOD9424990
Probable space group: P B A M
;
_chemical_formula_sum "Si O2"
_cell_formula_units_Z 56
_cell_length_a 9.242573
_cell_length_b 10.676867
_cell_length_c 21.753622
_cell_angle_alpha 90.000000
_cell_angle_beta 90.000000
_cell_angle_gamma 90.000000
_cell_volume 2146.684893
_symmetry_space_group_name_H-M "P B A M"
_symmetry_group_IT_number 55
_symmetry_cell_setting 'orthorhombic'
loop_
_space_group_symop_operation_xyz
x,y,z
-x,-y,z
1/2+x,1/2-y,-z
1/2-x,1/2+y,-z
-x,-y,-z
x,y,-z
1/2-x,1/2+y,z
1/2+x,1/2-y,z
loop_
_atom_site_type_symbol
_atom_site_label
_atom_site_fract_x
_atom_site_fract_y
_atom_site_fract_z
Si Si1 0.669172 0.490930 0.158597
Si Si2 0.828837 0.073412 0.299909
Si Si3 0.020610 0.293803 0.434196
Si Si4 0.890001 0.619807 0.931549
Si Si5 0.182075 0.929550 0.433705
Si Si6 0.566506 0.858763 0.828098
Si Si7 0.459316 0.775350 0.697311
O O1 0.500000 0.500000 0.148446
O O2 0.692548 0.523978 0.231033
O O3 0.750883 0.574760 0.107235
O O4 0.764902 0.364614 0.156398
O O5 0.799487 0.009761 0.366611
O O6 0.990004 0.131707 0.304371
O O7 0.708000 0.186797 0.300822
O O8 0.966666 0.347250 0.500000
O O9 0.966234 0.150650 0.434327
O O10 0.978192 0.337494 0.365482
O O11 0.190869 0.323358 0.435130
O O12 0.000000 0.500000 0.939757
O O13 0.982819 0.704470 0.884582
O O14 0.858084 0.667735 0.000000
O O15 0.194304 0.995407 0.500000
O O16 0.531588 0.811934 0.761137
O O17 0.500000 0.000000 0.824494
#
# Coordination Sequence:
#
# PCOD9424990 Si02
#       7
#     8   8   8   8   8   8   8
#     4  10  20  32  48  75 101 124 156 199 242 274
#     4  10  19  30  47  73  98 124 162 200 238 286
#     4   8  14  24  40  62  89 116 154 200 235 271
#     4   8  15  31  54  74  92 122 160 193 228 279
#     4   8  14  25  41  61  87 120 156 197 235 270
#     4   9  17  33  51  69  94 130 156 191 236 285
#     4  10  18  30  48  72  95 127 163 196 240 285
#
# _framework density 26.086735000000001
#
# number of rings (size 3 to 8) (size 9 to 14) (size 15 to 20)
#    0.000    3.286    2.857    0.000    2.000    0.286 
#    0.000    0.000    0.000    2.571    0.000    0.000 
#    0.000    0.000    0.000    0.000    0.000    0.000 
#
# Total GULP energy -311822.682707 kJ/mol
# GULP energy per Si atom -5568.262191 kJ/mol
# Density = 2.602736 g / cm^3
# Si number density = 26.086735 Si / 1000 Ang^3
#
#
#
# Elastic Constant Matrix: (Units=GPa)
#
#
# Indices 1 2 3 4 5 6 
#
# 1 161.3876 19.8531 92.2095 0.0000 0.0000 0.0000
# 2 19.8531 37.3424 28.9251 0.0000 0.0000 0.0000
# 3 92.2095 28.9251 322.8674 0.0000 0.0000 0.0000
# 4 0.0000 0.0000 0.0000 21.0377 0.0000 0.0000
# 5 0.0000 0.0000 0.0000 0.0000 21.2305 0.0000
# 6 0.0000 0.0000 0.0000 0.0000 0.0000 41.1944
#
#
#
# Elastic Compliance Matrix: (Units=1/GPa)
#
#
# Indices 1 2 3 4 5 6 
#
# 1 0.007623 -0.002543 -0.001949 0.000000 0.000000 0.000000
# 2 -0.002543 0.029624 -0.001928 0.000000 0.000000 0.000000
# 3 -0.001949 -0.001928 0.003827 0.000000 0.000000 0.000000
# 4 0.000000 0.000000 0.000000 0.047534 0.000000 0.000000
# 5 0.000000 0.000000 0.000000 0.000000 0.047102 0.000000
# 6 0.000000 0.000000 0.000000 0.000000 0.000000 0.024275
#
#
# Mechanical properties :
#
#
# Convention : Reuss Voigt Hill
#
# Bulk Modulus (GPa) = 35.41814 89.28588 62.35201
# Shear Modulus (GPa) = 27.43700 42.06649 34.75174
#
# Velocity S-wave (km/s) = 3.24660 4.02003 3.65384
# Velocity P-wave (km/s) = 5.25932 7.47318 6.46177
#
# Compressibility (1/GPa) = 0.02823412
#
# Stress axis : x y z
#
# Youngs Moduli (GPa) = 131.18599 33.75606 261.32572
#
# Poissons Ratio (x) = 0.08583 0.50938
# Poissons Ratio (y) = 0.33358 0.50378
# Poissons Ratio (z) = 0.25571 0.06507
#
# Static dielectric constant tensor:
#      x y z
#    x 2.082960 0.000000 0.000000 
#    y 0.000000 2.200780 0.000000 
#    z 0.000000 0.000000 2.095250 
# 
# From -- ./inp_files/22688.got.cif
#   From: 2010.05.17/outbox.cif.g08.bks.cpg/sg55_12_cif.got.tgz:22688.got - 2010.06.03 13:27:54.
