data_PCOD9424289
_publ_section_title
;
Structure prediction by ZEFSAII (Michael W. Deem and Ramdas Pophale) SiO2 
 PCOD9424289
Probable space group: P C C A
;
_chemical_formula_sum "Si O2"
_cell_formula_units_Z 56
_cell_length_a 14.306923
_cell_length_b 14.530111
_cell_length_c 11.300393
_cell_angle_alpha 90.000000
_cell_angle_beta 90.000000
_cell_angle_gamma 90.000000
_cell_volume 2349.139023
_symmetry_space_group_name_H-M "P C C A"
_symmetry_group_IT_number 54
_symmetry_cell_setting 'orthorhombic'
loop_
_space_group_symop_operation_xyz
x,y,z
1/2-x,-y,z
1/2+x,-y,1/2-z
-x,y,1/2-z
-x,-y,-z
1/2+x,y,-z
1/2-x,y,1/2+z
x,-y,1/2+z
loop_
_atom_site_type_symbol
_atom_site_label
_atom_site_fract_x
_atom_site_fract_y
_atom_site_fract_z
Si Si1 0.649769 0.344342 0.239069
Si Si2 0.750000 0.500000 0.890036
Si Si3 0.000000 0.051115 0.750000
Si Si4 0.227260 0.193705 0.913305
Si Si5 0.895317 0.189602 0.922337
Si Si6 0.829176 0.065963 0.263909
Si Si7 0.427379 0.584219 0.993705
Si Si8 0.437793 0.212891 0.572254
O O1 0.698696 0.425713 0.308945
O O2 0.727645 0.286323 0.164867
O O3 0.603141 0.275954 0.333726
O O4 0.578839 0.381823 0.141068
O O5 0.673160 0.454004 0.971997
O O6 0.943146 0.108672 0.847904
O O7 0.914186 0.989610 0.703147
O O8 0.263289 0.113681 0.831325
O O9 0.289304 0.190518 0.031237
O O10 0.120191 0.188655 0.953049
O O11 0.954924 0.194187 0.042786
O O12 0.886394 0.146232 0.334750
O O13 0.750000 0.000000 0.328932
O O14 0.500000 0.500000 0.000000
O O15 0.436970 0.675228 0.077751
#
# Coordination Sequence:
#
# PCOD9424289 Si02
#       8
#     8   4   4   8   8   8   8   8
#     4  11  24  46  71 102 141 184 234 292 361 432
#     4  12  24  42  68 102 140 174 226 292 354 430
#     4  12  26  42  66 100 134 180 240 290 352 428
#     4  11  24  44  70  99 138 187 233 289 357 423
#     4  12  25  46  72  97 139 188 235 297 355 423
#     4  12  25  43  68 104 145 185 239 299 357 429
#     4  11  25  44  70 103 137 183 237 290 359 435
#     4  11  25  44  69 101 139 187 238 290 361 429
#
# _framework density 23.838519999999999
#
# number of rings (size 3 to 8) (size 9 to 14) (size 15 to 20)
#    0.000    0.571    0.000    9.857    0.000    9.143 
#    0.000    2.857    0.000    0.000    0.000    0.000 
#    0.000    0.000    0.000    0.000    0.000    0.000 
#
# Total GULP energy -312900.539439 kJ/mol
# GULP energy per Si atom -5587.509633 kJ/mol
# Density = 2.378426 g / cm^3
# Si number density = 23.838520 Si / 1000 Ang^3
#
#
#
# Elastic Constant Matrix: (Units=GPa)
#
#
# Indices 1 2 3 4 5 6 
#
# 1 111.1016 51.6851 18.0899 0.0000 0.0000 0.0000
# 2 51.6851 145.7047 46.1217 0.0000 0.0000 0.0000
# 3 18.0899 46.1217 80.6587 0.0000 0.0000 0.0000
# 4 0.0000 0.0000 0.0000 -15.3729 0.0000 0.0000
# 5 0.0000 0.0000 0.0000 0.0000 31.1535 0.0000
# 6 0.0000 0.0000 0.0000 0.0000 0.0000 55.6443
#
#
#
# Elastic Compliance Matrix: (Units=1/GPa)
#
#
# Indices 1 2 3 4 5 6 
#
# 1 0.010785 -0.003736 -0.000282 0.000000 0.000000 0.000000
# 2 -0.003736 0.009674 -0.004694 0.000000 0.000000 0.000000
# 3 -0.000282 -0.004694 0.015145 0.000000 0.000000 0.000000
# 4 0.000000 0.000000 0.000000 -0.065050 0.000000 0.000000
# 5 0.000000 0.000000 0.000000 0.000000 0.032099 0.000000
# 6 0.000000 0.000000 0.000000 0.000000 0.000000 0.017971
#
#
# Mechanical properties :
#
#
# Convention : Reuss Voigt Hill
#
# Bulk Modulus (GPa) = 55.00738 63.25090 59.12914
# Shear Modulus (GPa) = 113.35166 29.05620 71.20393
#
# Velocity S-wave (km/s) = 6.90312 3.49503 5.47121
# Velocity P-wave (km/s) = 9.30927 6.54810 8.04798
#
# Compressibility (1/GPa) = 0.01817938
#
# Stress axis : x y z
#
# Youngs Moduli (GPa) = 92.72233 103.36561 66.02699
#
# Poissons Ratio (x) = 0.38620 0.01864
# Poissons Ratio (y) = 0.34644 0.30993
# Poissons Ratio (z) = 0.02618 0.48520
#
# Static dielectric constant tensor:
#      x y z
#    x 1.867770 0.000000 0.000000 
#    y 0.000000 1.991800 0.000000 
#    z 0.000000 0.000000 1.901520 
# 
# From -- ./inp_files/8475.got.cif
#   From: 2010.05.17/outbox.cif.g08.bks.cpg/sg54_5_cif.got.tgz:8475.got - 2010.06.03 13:09:01.
