data_PCOD9424585
_publ_section_title
;
Structure prediction by ZEFSAII (Michael W. Deem and Ramdas Pophale) SiO2 
 PCOD9424585
Probable space group: P C C A
;
_chemical_formula_sum "Si O2"
_cell_formula_units_Z 32
_cell_length_a 32.063675
_cell_length_b 4.773802
_cell_length_c 8.595011
_cell_angle_alpha 90.000000
_cell_angle_beta 90.000000
_cell_angle_gamma 90.000000
_cell_volume 1315.600824
_symmetry_space_group_name_H-M "P C C A"
_symmetry_group_IT_number 54
_symmetry_cell_setting 'orthorhombic'
loop_
_space_group_symop_operation_xyz
x,y,z
1/2-x,-y,z
1/2+x,-y,1/2-z
-x,y,1/2-z
-x,-y,-z
1/2+x,y,-z
1/2-x,y,1/2+z
x,-y,1/2+z
loop_
_atom_site_type_symbol
_atom_site_label
_atom_site_fract_x
_atom_site_fract_y
_atom_site_fract_z
Si Si1 0.921741 0.389412 0.705832
Si Si2 0.453522 0.887963 0.477874
Si Si3 0.796872 0.890620 0.431711
Si Si4 0.328613 0.611889 0.252508
O O1 0.950402 0.647773 0.652680
O O2 0.875281 0.503881 0.724318
O O3 0.925317 0.147788 0.576309
O O4 0.937174 0.251334 0.864778
O O5 0.500000 0.000000 0.500000
O O6 0.800997 0.651354 0.300755
O O7 0.811977 0.752571 0.590874
O O8 0.750000 0.000000 0.444078
O O9 0.825317 0.151095 0.379921
#
# Coordination Sequence:
#
# PCOD9424585 Si02
#       4
#     8   8   8   8
#     4  12  27  50  77 112 152 201 254 314 380 454
#     4  12  27  50  77 112 153 200 254 315 382 455
#     4  12  27  50  77 112 152 200 252 312 378 450
#     4  12  27  50  78 112 153 201 254 313 379 453
#
# _framework density 24.323485999999999
#
# number of rings (size 3 to 8) (size 9 to 14) (size 15 to 20)
#    0.000    0.000    0.000    9.000    0.000    8.000 
#    0.000    1.250    0.000    0.000    0.000    0.000 
#    0.000    0.000    0.000    0.000    0.000    0.000 
#
# Total GULP energy -179937.228698 kJ/mol
# GULP energy per Si atom -5623.038397 kJ/mol
# Density = 2.426812 g / cm^3
# Si number density = 24.323486 Si / 1000 Ang^3
#
#
#
# Elastic Constant Matrix: (Units=GPa)
#
#
# Indices 1 2 3 4 5 6 
#
# 1 211.8395 114.8548 132.2281 0.0000 0.0000 0.0000
# 2 114.8548 200.3230 81.2371 0.0000 0.0000 0.0000
# 3 132.2281 81.2371 126.0658 0.0000 0.0000 0.0000
# 4 0.0000 0.0000 0.0000 77.3145 0.0000 0.0000
# 5 0.0000 0.0000 0.0000 0.0000 29.8477 0.0000
# 6 0.0000 0.0000 0.0000 0.0000 0.0000 65.9374
#
#
#
# Elastic Compliance Matrix: (Units=1/GPa)
#
#
# Indices 1 2 3 4 5 6 
#
# 1 0.014879 -0.002981 -0.013685 0.000000 0.000000 0.000000
# 2 -0.002981 0.007355 -0.001613 0.000000 0.000000 0.000000
# 3 -0.013685 -0.001613 0.023326 0.000000 0.000000 0.000000
# 4 0.000000 0.000000 0.000000 0.012934 0.000000 0.000000
# 5 0.000000 0.000000 0.000000 0.000000 0.033503 0.000000
# 6 0.000000 0.000000 0.000000 0.000000 0.000000 0.015166
#
#
# Mechanical properties :
#
#
# Convention : Reuss Voigt Hill
#
# Bulk Modulus (GPa) = 111.09115 132.76313 121.92714
# Shear Modulus (GPa) = 34.07772 48.61381 41.34576
#
# Velocity S-wave (km/s) = 3.74708 4.47546 4.12737
# Velocity P-wave (km/s) = 8.03071 9.02259 8.54106
#
# Compressibility (1/GPa) = 0.00900162
#
# Stress axis : x y z
#
# Youngs Moduli (GPa) = 67.20819 135.95790 42.87030
#
# Poissons Ratio (x) = 0.40530 0.58670
# Poissons Ratio (y) = 0.20035 0.06915
# Poissons Ratio (z) = 0.91977 0.21929
#
# Static dielectric constant tensor:
#      x y z
#    x 1.770550 0.000000 0.000000 
#    y 0.000000 1.857940 0.000000 
#    z 0.000000 0.000000 2.015360 
# 
# From -- ./inp_files/5698.got.cif
#   From: 2010.05.17/outbox.cif.g08.bks.cpg/sg54_3_cif.got.tgz:5698.got - 2010.06.03 13:09:01.
