data_PCOD9424794
_publ_section_title
;
Structure prediction by ZEFSAII (Michael W. Deem and Ramdas Pophale) SiO2 
 PCOD9424794
Probable space group: P B A M
;
_chemical_formula_sum "Si O2"
_cell_formula_units_Z 56
_cell_length_a 19.792653
_cell_length_b 20.111986
_cell_length_c 7.414003
_cell_angle_alpha 90.000000
_cell_angle_beta 90.000000
_cell_angle_gamma 90.000000
_cell_volume 2951.288912
_symmetry_space_group_name_H-M "P B A M"
_symmetry_group_IT_number 55
_symmetry_cell_setting 'orthorhombic'
loop_
_space_group_symop_operation_xyz
x,y,z
-x,-y,z
1/2+x,1/2-y,-z
1/2-x,1/2+y,-z
-x,-y,-z
x,y,-z
1/2-x,1/2+y,z
1/2+x,1/2-y,z
loop_
_atom_site_type_symbol
_atom_site_label
_atom_site_fract_x
_atom_site_fract_y
_atom_site_fract_z
Si Si1 0.981079 0.199693 0.782341
Si Si2 0.755674 0.876453 0.779511
Si Si3 0.151621 0.730415 0.780611
Si Si4 0.284936 0.477209 0.790703
Si Si5 0.235287 0.337535 0.779949
Si Si6 0.368488 0.730005 0.780124
Si Si7 0.440303 0.452551 0.288057
O O1 0.922807 0.249969 0.718693
O O2 0.960573 0.124191 0.737395
O O3 0.055704 0.217884 0.716930
O O4 0.982360 0.203120 0.000000
O O5 0.687675 0.837789 0.723812
O O6 0.818774 0.829994 0.725768
O O7 0.765128 0.951267 0.713526
O O8 0.756555 0.877202 0.000000
O O9 0.202235 0.790063 0.728210
O O10 0.150501 0.729467 0.000000
O O11 0.249289 0.411633 0.713181
O O12 0.365822 0.466827 0.786815
O O13 0.264533 0.479587 0.000000
O O14 0.167636 0.298681 0.724846
O O15 0.235682 0.339115 0.000000
O O16 0.369403 0.729899 0.000000
O O17 0.500000 0.500000 0.214969
O O18 0.434698 0.466343 0.500000
#
# Coordination Sequence:
#
# PCOD9424794 Si02
#       7
#     8   8   8   8   8   8   8
#     4  10  17  28  48  68  84 114 157 186 208 261
#     4   8  14  23  38  63  90 111 139 183 224 254
#     4   8  13  23  39  62  88 109 139 185 225 250
#     4  10  17  28  48  68  84 114 157 186 208 261
#     4   8  13  23  39  62  88 109 139 185 225 250
#     4   8  14  23  38  63  90 111 139 183 224 254
#     4  11  23  33  41  61  97 127 141 174 235 276
#
# _framework density 18.97476
#
# number of rings (size 3 to 8) (size 9 to 14) (size 15 to 20)
#    0.000    3.000    1.429    3.000    0.000    2.286 
#    0.000    0.000    0.000    2.571    0.000    6.000 
#    0.000    0.000    0.000    2.571    0.000    2.857 
#
# Total GULP energy -312338.586541 kJ/mol
# GULP energy per Si atom -5577.474760 kJ/mol
# Density = 1.893157 g / cm^3
# Si number density = 18.974760 Si / 1000 Ang^3
#
#
#
# Elastic Constant Matrix: (Units=GPa)
#
#
# Indices 1 2 3 4 5 6 
#
# 1 71.6414 84.1934 -6.6585 0.0000 0.0000 0.0000
# 2 84.1934 185.1067 -0.5424 0.0000 0.0000 0.0000
# 3 -6.6585 -0.5424 60.1452 0.0000 0.0000 0.0000
# 4 0.0000 0.0000 0.0000 -40.1750 0.0000 0.0000
# 5 0.0000 0.0000 0.0000 0.0000 -19.1089 0.0000
# 6 0.0000 0.0000 0.0000 0.0000 0.0000 29.2890
#
#
#
# Elastic Compliance Matrix: (Units=1/GPa)
#
#
# Indices 1 2 3 4 5 6 
#
# 1 0.030615 -0.013915 0.003264 0.000000 0.000000 0.000000
# 2 -0.013915 0.011727 -0.001435 0.000000 0.000000 0.000000
# 3 0.003264 -0.001435 0.016975 0.000000 0.000000 0.000000
# 4 0.000000 0.000000 0.000000 -0.024891 0.000000 0.000000
# 5 0.000000 0.000000 0.000000 0.000000 -0.052332 0.000000
# 6 0.000000 0.000000 0.000000 0.000000 0.000000 0.034142
#
#
# Mechanical properties :
#
#
# Convention : Reuss Voigt Hill
#
# Bulk Modulus (GPa) = 28.45382 52.31981 40.38681
# Shear Modulus (GPa) = 95.92426 9.99442 52.95934
#
# Velocity S-wave (km/s) = 7.11782 2.29753 5.28876
# Velocity P-wave (km/s) = 9.08732 5.88824 7.65672
#
# Compressibility (1/GPa) = 0.03514467
#
# Stress axis : x y z
#
# Youngs Moduli (GPa) = 32.66359 85.27119 58.91080
#
# Poissons Ratio (x) = 1.18658 -0.19227
# Poissons Ratio (y) = 0.45452 0.08452
# Poissons Ratio (z) = -0.10661 0.12234
#
# Static dielectric constant tensor:
#      x y z
#    x 1.642600 0.000000 0.000000 
#    y 0.000000 1.652450 0.000000 
#    z 0.000000 0.000000 1.707360 
# 
# From -- ./inp_files/7877.got.cif
#   From: 2010.05.17/outbox.cif.g08.bks.cpg/sg55_4_cif.got.tgz:7877.got - 2010.06.03 13:27:54.
