data_PCOD9424145
_publ_section_title
;
Structure prediction by ZEFSAII (Michael W. Deem and Ramdas Pophale) SiO2 
 PCOD9424145
Probable space group: P C C A
;
_chemical_formula_sum "Si O2"
_cell_formula_units_Z 60
_cell_length_a 24.778478
_cell_length_b 6.840356
_cell_length_c 15.611177
_cell_angle_alpha 90.000000
_cell_angle_beta 90.000000
_cell_angle_gamma 90.000000
_cell_volume 2645.994756
_symmetry_space_group_name_H-M "P C C A"
_symmetry_group_IT_number 54
_symmetry_cell_setting 'orthorhombic'
loop_
_space_group_symop_operation_xyz
x,y,z
1/2-x,-y,z
1/2+x,-y,1/2-z
-x,y,1/2-z
-x,-y,-z
1/2+x,y,-z
1/2-x,y,1/2+z
x,-y,1/2+z
loop_
_atom_site_type_symbol
_atom_site_label
_atom_site_fract_x
_atom_site_fract_y
_atom_site_fract_z
Si Si1 0.549418 0.697543 0.016526
Si Si2 0.129544 0.031591 0.986676
Si Si3 0.868696 0.595764 0.287222
Si Si4 0.539659 0.141024 0.322516
Si Si5 0.141257 0.567176 0.409029
Si Si6 0.250000 0.500000 0.495415
Si Si7 0.217394 0.180131 0.607242
Si Si8 0.558274 0.271689 0.880667
O O1 0.584712 0.882836 0.050208
O O2 0.534653 0.768085 0.918984
O O3 0.505306 0.341318 0.932055
O O4 0.591703 0.522204 0.035568
O O5 0.175098 0.911216 0.038249
O O6 0.098873 0.156843 0.058042
O O7 0.146748 0.198110 0.920236
O O8 0.901582 0.797489 0.291348
O O9 0.864300 0.524691 0.190763
O O10 0.813729 0.662373 0.333671
O O11 0.906769 0.439087 0.335555
O O12 0.500000 0.224453 0.250000
O O13 0.536194 0.907975 0.324376
O O14 0.196307 0.472136 0.441709
O O15 0.259098 0.310102 0.553436
O O16 0.250000 0.000000 0.648982
#
# Coordination Sequence:
#
# PCOD9424145 Si02
#       8
#     8   8   8   8   8   4   8   8
#     4  11  25  47  73 110 151 204 251 294 375 462
#     4  11  22  48  73 106 140 194 253 301 372 455
#     4  12  29  47  68 118 153 187 253 318 376 445
#     4  11  25  44  71 108 154 198 254 304 362 439
#     4  12  28  45  75 109 152 194 251 316 373 461
#     4  12  24  52  78 104 138 194 254 306 390 448
#     4  12  25  51  81 102 137 195 252 321 383 450
#     4  11  26  45  75 104 153 205 242 303 376 454
#
# _framework density 22.675782999999999
#
# number of rings (size 3 to 8) (size 9 to 14) (size 15 to 20)
#    0.000    0.533    5.333    3.200    7.467    1.600 
#    2.400    0.000    0.000    0.000    0.000    0.000 
#    0.000    0.000    0.000    0.000    0.000    0.000 
#
# Total GULP energy -335158.735540 kJ/mol
# GULP energy per Si atom -5585.978926 kJ/mol
# Density = 2.262417 g / cm^3
# Si number density = 22.675783 Si / 1000 Ang^3
#
#
#
# Elastic Constant Matrix: (Units=GPa)
#
#
# Indices 1 2 3 4 5 6 
#
# 1 110.1879 30.4177 50.5813 0.0000 0.0000 0.0000
# 2 30.4177 122.4216 48.0116 0.0000 0.0000 0.0000
# 3 50.5813 48.0116 95.5524 0.0000 0.0000 0.0000
# 4 0.0000 0.0000 0.0000 26.5446 0.0000 0.0000
# 5 0.0000 0.0000 0.0000 0.0000 33.9032 0.0000
# 6 0.0000 0.0000 0.0000 0.0000 0.0000 46.3938
#
#
#
# Elastic Compliance Matrix: (Units=1/GPa)
#
#
# Indices 1 2 3 4 5 6 
#
# 1 0.012025 -0.000612 -0.006058 0.000000 0.000000 0.000000
# 2 -0.000612 0.010204 -0.004803 0.000000 0.000000 0.000000
# 3 -0.006058 -0.004803 0.016086 0.000000 0.000000 0.000000
# 4 0.000000 0.000000 0.000000 0.037672 0.000000 0.000000
# 5 0.000000 0.000000 0.000000 0.000000 0.029496 0.000000
# 6 0.000000 0.000000 0.000000 0.000000 0.000000 0.021555
#
#
# Mechanical properties :
#
#
# Convention : Reuss Voigt Hill
#
# Bulk Modulus (GPa) = 65.06798 65.13144 65.09971
# Shear Modulus (GPa) = 32.23555 34.64508 33.44031
#
# Velocity S-wave (km/s) = 3.77448 3.91301 3.84437
# Velocity P-wave (km/s) = 6.91034 7.01432 6.96253
#
# Compressibility (1/GPa) = 0.01536854
#
# Stress axis : x y z
#
# Youngs Moduli (GPa) = 83.15776 97.99753 62.16616
#
# Poissons Ratio (x) = 0.05997 0.37661
# Poissons Ratio (y) = 0.05089 0.29861
# Poissons Ratio (z) = 0.50379 0.47072
#
# Static dielectric constant tensor:
#      x y z
#    x 1.854360 0.000000 0.000000 
#    y 0.000000 1.949250 0.000000 
#    z 0.000000 0.000000 1.914290 
# 
# From -- ./inp_files/19329.got.cif
#   From: 2010.05.17/outbox.cif.g08.bks.cpg/sg54_10_cif.got.tgz:19329.got - 2010.06.03 13:09:01.
