data_PCOD9424423
_publ_section_title
;
Structure prediction by ZEFSAII (Michael W. Deem and Ramdas Pophale) SiO2 
 PCOD9424423
Probable space group: P C C A
;
_chemical_formula_sum "Si O2"
_cell_formula_units_Z 32
_cell_length_a 8.240511
_cell_length_b 4.959681
_cell_length_c 28.940248
_cell_angle_alpha 90.000000
_cell_angle_beta 90.000000
_cell_angle_gamma 90.000000
_cell_volume 1182.796787
_symmetry_space_group_name_H-M "P C C A"
_symmetry_group_IT_number 54
_symmetry_cell_setting 'orthorhombic'
loop_
_space_group_symop_operation_xyz
x,y,z
1/2-x,-y,z
1/2+x,-y,1/2-z
-x,y,1/2-z
-x,-y,-z
1/2+x,y,-z
1/2-x,y,1/2+z
x,-y,1/2+z
loop_
_atom_site_type_symbol
_atom_site_label
_atom_site_fract_x
_atom_site_fract_y
_atom_site_fract_z
Si Si1 0.456704 0.725732 0.094772
Si Si2 0.250000 0.500000 0.448834
Si Si3 0.750000 0.500000 0.200683
Si Si4 0.250000 0.000000 0.015431
Si Si5 0.250000 0.000000 0.172641
Si Si6 0.500000 0.888555 0.250000
Si Si7 0.750000 0.000000 0.643085
O O1 0.572892 0.472447 0.078002
O O2 0.322455 0.769762 0.137020
O O3 0.603153 0.896261 0.114170
O O4 0.376100 0.862162 0.050629
O O5 0.213440 0.246984 0.481583
O O6 0.624811 0.677922 0.228287
O O7 0.817825 0.741410 0.170130
O O8 0.397321 0.044692 0.210234
#
# Coordination Sequence:
#
# PCOD9424423 Si02
#       7
#     8   4   4   4   4   4   4
#     4  11  26  49  82 119 164 217 277 345 419 515
#     4  12  25  50  83 118 168 214 278 351 426 507
#     4  12  29  48  83 110 166 206 280 337 428 489
#     4  11  27  50  80 124 162 216 275 349 428 504
#     4  11  27  52  82 118 164 216 283 341 430 494
#     4  12  28  50  86 120 168 216 284 354 428 516
#     4  12  26  50  76 118 158 218 266 342 412 508
#
# _framework density 27.054518000000002
#
# number of rings (size 3 to 8) (size 9 to 14) (size 15 to 20)
#    0.000    0.500    2.500    3.750    3.500    5.000 
#    0.000    0.000    0.000    0.000    0.000    0.000 
#    0.000    0.000    0.000    0.000    0.000    0.000 
#
# Total GULP energy -178344.186337 kJ/mol
# GULP energy per Si atom -5573.255823 kJ/mol
# Density = 2.699294 g / cm^3
# Si number density = 27.054518 Si / 1000 Ang^3
#
#
#
# Elastic Constant Matrix: (Units=GPa)
#
#
# Indices 1 2 3 4 5 6 
#
# 1 176.4980 34.8994 88.5233 0.0000 0.0000 0.0000
# 2 34.8994 78.7945 35.2216 0.0000 0.0000 0.0000
# 3 88.5233 35.2216 171.0397 0.0000 0.0000 0.0000
# 4 0.0000 0.0000 0.0000 55.1571 0.0000 0.0000
# 5 0.0000 0.0000 0.0000 0.0000 140.8011 0.0000
# 6 0.0000 0.0000 0.0000 0.0000 0.0000 52.1898
#
#
#
# Elastic Compliance Matrix: (Units=1/GPa)
#
#
# Indices 1 2 3 4 5 6 
#
# 1 0.007887 -0.001838 -0.003703 0.000000 0.000000 0.000000
# 2 -0.001838 0.014406 -0.002015 0.000000 0.000000 0.000000
# 3 -0.003703 -0.002015 0.008178 0.000000 0.000000 0.000000
# 4 0.000000 0.000000 0.000000 0.018130 0.000000 0.000000
# 5 0.000000 0.000000 0.000000 0.000000 0.007102 0.000000
# 6 0.000000 0.000000 0.000000 0.000000 0.000000 0.019161
#
#
# Mechanical properties :
#
#
# Convention : Reuss Voigt Hill
#
# Bulk Modulus (GPa) = 65.11266 82.62455 73.86860
# Shear Modulus (GPa) = 52.57815 67.47545 60.02680
#
# Velocity S-wave (km/s) = 4.41320 4.99947 4.71546
# Velocity P-wave (km/s) = 7.07728 7.99578 7.55051
#
# Compressibility (1/GPa) = 0.01535800
#
# Stress axis : x y z
#
# Youngs Moduli (GPa) = 126.79744 69.41496 122.27411
#
# Poissons Ratio (x) = 0.12756 0.45282
# Poissons Ratio (y) = 0.23301 0.24644
# Poissons Ratio (z) = 0.46958 0.13990
#
# Static dielectric constant tensor:
#      x y z
#    x 2.037690 0.000000 0.000000 
#    y 0.000000 2.179530 0.000000 
#    z 0.000000 0.000000 2.444890 
# 
# From -- ./inp_files/27480.got.cif
#   From: 2010.05.17/outbox.cif.g08.bks.cpg/sg54_14_cif.got.tgz:27480.got - 2010.06.03 13:09:01.
