data_PCOD9424102
_publ_section_title
;
Structure prediction by ZEFSAII (Michael W. Deem and Ramdas Pophale) SiO2 
 PCOD9424102
Probable space group: P C C A
;
_chemical_formula_sum "Si O2"
_cell_formula_units_Z 36
_cell_length_a 16.260910
_cell_length_b 7.710839
_cell_length_c 15.650436
_cell_angle_alpha 90.000000
_cell_angle_beta 90.000000
_cell_angle_gamma 90.000000
_cell_volume 1962.333971
_symmetry_space_group_name_H-M "P C C A"
_symmetry_group_IT_number 54
_symmetry_cell_setting 'orthorhombic'
loop_
_space_group_symop_operation_xyz
x,y,z
1/2-x,-y,z
1/2+x,-y,1/2-z
-x,y,1/2-z
-x,-y,-z
1/2+x,y,-z
1/2-x,y,1/2+z
x,-y,1/2+z
loop_
_atom_site_type_symbol
_atom_site_label
_atom_site_fract_x
_atom_site_fract_y
_atom_site_fract_z
Si Si1 0.931094 0.304125 0.684903
Si Si2 0.920172 0.121907 0.500851
Si Si3 0.537389 0.543697 0.408657
Si Si4 0.250000 0.000000 0.070906
Si Si5 0.811498 0.340045 0.832673
O O1 0.920797 0.208481 0.594920
O O2 0.848207 0.308083 0.738745
O O3 0.000000 0.226718 0.750000
O O4 0.966988 0.494835 0.659704
O O5 0.931310 0.262122 0.423764
O O6 0.832359 0.033456 0.484084
O O7 0.000000 0.000000 0.500000
O O8 0.500000 0.500000 0.500000
O O9 0.610848 0.410585 0.387643
O O10 0.271163 0.169190 0.127575
O O11 0.750000 0.500000 0.831070
#
# Coordination Sequence:
#
# PCOD9424102 Si02
#       5
#     8   8   8   4   8
#     4   9  20  40  63  89 125 168 214 265 324 385
#     4  11  22  41  64  99 129 172 225 270 321 396
#     4   9  18  39  64  85 120 170 215 258 318 381
#     4  12  24  40  70  96 132 176 216 270 330 386
#     4  11  22  43  61  91 134 164 208 272 326 378
#
# _framework density 18.345500999999999
#
# number of rings (size 3 to 8) (size 9 to 14) (size 15 to 20)
#    0.000    1.778    2.222    4.000    0.000    0.889 
#   16.000    1.111    0.000    0.000    0.000    0.000 
#    0.000    0.000    0.000    0.000    0.000    0.000 
#
# Total GULP energy -200516.739463 kJ/mol
# GULP energy per Si atom -5569.909430 kJ/mol
# Density = 1.830375 g / cm^3
# Si number density = 18.345501 Si / 1000 Ang^3
#
#
#
# Elastic Constant Matrix: (Units=GPa)
#
#
# Indices 1 2 3 4 5 6 
#
# 1 126.6825 62.6827 53.9763 0.0000 0.0000 0.0000
# 2 62.6827 115.0364 54.3103 0.0000 0.0000 0.0000
# 3 53.9763 54.3103 123.7586 0.0000 0.0000 0.0000
# 4 0.0000 0.0000 0.0000 20.8533 0.0000 0.0000
# 5 0.0000 0.0000 0.0000 0.0000 37.5675 0.0000
# 6 0.0000 0.0000 0.0000 0.0000 0.0000 34.5717
#
#
#
# Elastic Compliance Matrix: (Units=1/GPa)
#
#
# Indices 1 2 3 4 5 6 
#
# 1 0.011565 -0.004945 -0.002874 0.000000 0.000000 0.000000
# 2 -0.004945 0.013079 -0.003583 0.000000 0.000000 0.000000
# 3 -0.002874 -0.003583 0.010906 0.000000 0.000000 0.000000
# 4 0.000000 0.000000 0.000000 0.047954 0.000000 0.000000
# 5 0.000000 0.000000 0.000000 0.000000 0.026619 0.000000
# 6 0.000000 0.000000 0.000000 0.000000 0.000000 0.028925
#
#
# Mechanical properties :
#
#
# Convention : Reuss Voigt Hill
#
# Bulk Modulus (GPa) = 78.45319 78.60180 78.52750
# Shear Modulus (GPa) = 30.10228 31.56570 30.83399
#
# Velocity S-wave (km/s) = 4.05514 4.15254 4.10413
# Velocity P-wave (km/s) = 8.04877 8.11971 8.08432
#
# Compressibility (1/GPa) = 0.01274645
#
# Stress axis : x y z
#
# Youngs Moduli (GPa) = 86.46766 76.45927 91.69253
#
# Poissons Ratio (x) = 0.37808 0.26352
# Poissons Ratio (y) = 0.42757 0.32852
# Poissons Ratio (z) = 0.24851 0.27394
#
# Static dielectric constant tensor:
#      x y z
#    x 1.609370 0.000000 0.000000 
#    y 0.000000 1.676310 0.000000 
#    z 0.000000 0.000000 1.624640 
# 
# From -- ./inp_files/13063.got.cif
#   From: 2010.05.17/outbox.cif.g08.bks.cpg/sg54_7_cif.got.tgz:13063.got - 2010.06.03 13:09:01.
