data_PCOD9424180
_publ_section_title
;
Structure prediction by ZEFSAII (Michael W. Deem and Ramdas Pophale) SiO2 
 PCOD9424180
Probable space group: P C C A
;
_chemical_formula_sum "Si O2"
_cell_formula_units_Z 24
_cell_length_a 12.516091
_cell_length_b 4.890953
_cell_length_c 17.968748
_cell_angle_alpha 90.000000
_cell_angle_beta 90.000000
_cell_angle_gamma 90.000000
_cell_volume 1099.967921
_symmetry_space_group_name_H-M "P C C A"
_symmetry_group_IT_number 54
_symmetry_cell_setting 'orthorhombic'
loop_
_space_group_symop_operation_xyz
x,y,z
1/2-x,-y,z
1/2+x,-y,1/2-z
-x,y,1/2-z
-x,-y,-z
1/2+x,y,-z
1/2-x,y,1/2+z
x,-y,1/2+z
loop_
_atom_site_type_symbol
_atom_site_label
_atom_site_fract_x
_atom_site_fract_y
_atom_site_fract_z
Si Si1 0.483977 0.361065 0.836616
Si Si2 0.823335 0.750676 0.939982
Si Si3 0.134473 0.863802 0.396784
O O1 0.500000 0.413209 0.750000
O O2 0.594496 0.379278 0.881880
O O3 0.392927 0.560450 0.869228
O O4 0.447668 0.053476 0.853044
O O5 0.750000 0.500000 0.966702
O O6 0.750000 0.000000 0.910068
O O7 0.880359 0.864839 0.014022
O O8 0.250000 0.000000 0.383166
#
# Coordination Sequence:
#
# PCOD9424180 Si02
#       3
#     8   8   8
#     4  12  25  41  64  96 131 166 204 260 324 379
#     4  11  23  42  66  93 123 166 215 261 308 370
#     4  11  23  43  66  91 123 168 215 259 309 375
#
# _framework density 21.818818
#
# number of rings (size 3 to 8) (size 9 to 14) (size 15 to 20)
#    0.000    0.667    0.000   10.000    0.000    4.000 
#    0.000    0.000    0.000    0.000    0.000    0.000 
#    0.000    0.000    0.000    0.000    0.000    0.000 
#
# Total GULP energy -134179.519115 kJ/mol
# GULP energy per Si atom -5590.813296 kJ/mol
# Density = 2.176916 g / cm^3
# Si number density = 21.818818 Si / 1000 Ang^3
#
#
#
# Elastic Constant Matrix: (Units=GPa)
#
#
# Indices 1 2 3 4 5 6 
#
# 1 77.9443 17.4214 63.0439 0.0000 0.0000 0.0000
# 2 17.4214 90.2745 -3.2664 0.0000 0.0000 0.0000
# 3 63.0439 -3.2664 124.7086 0.0000 0.0000 0.0000
# 4 0.0000 0.0000 0.0000 40.2698 0.0000 0.0000
# 5 0.0000 0.0000 0.0000 0.0000 31.3574 0.0000
# 6 0.0000 0.0000 0.0000 0.0000 0.0000 61.6304
#
#
#
# Elastic Compliance Matrix: (Units=1/GPa)
#
#
# Indices 1 2 3 4 5 6 
#
# 1 0.023787 -0.005030 -0.012157 0.000000 0.000000 0.000000
# 2 -0.005030 0.012152 0.002861 0.000000 0.000000 0.000000
# 3 -0.012157 0.002861 0.014239 0.000000 0.000000 0.000000
# 4 0.000000 0.000000 0.000000 0.024833 0.000000 0.000000
# 5 0.000000 0.000000 0.000000 0.000000 0.031890 0.000000
# 6 0.000000 0.000000 0.000000 0.000000 0.000000 0.016226
#
#
# Mechanical properties :
#
#
# Convention : Reuss Voigt Hill
#
# Bulk Modulus (GPa) = 46.45519 49.70278 48.07898
# Shear Modulus (GPa) = 31.45590 41.03343 36.24466
#
# Velocity S-wave (km/s) = 3.80107 4.34134 4.08016
# Velocity P-wave (km/s) = 6.37195 6.92524 6.65435
#
# Compressibility (1/GPa) = 0.02152612
#
# Stress axis : x y z
#
# Youngs Moduli (GPa) = 42.04038 82.29372 70.22884
#
# Poissons Ratio (x) = 0.41396 0.85374
# Poissons Ratio (y) = 0.21147 -0.20094
# Poissons Ratio (z) = 0.51107 -0.23546
#
# Static dielectric constant tensor:
#      x y z
#    x 1.854490 0.000000 0.000000 
#    y 0.000000 1.751380 0.000000 
#    z 0.000000 0.000000 1.729150 
# 
# From -- ./inp_files/12848.got.cif
#   From: 2010.05.17/outbox.cif.g08.bks.cpg/sg54_7_cif.got.tgz:12848.got - 2010.06.03 13:09:01.
