data_PCOD9424709
_publ_section_title
;
Structure prediction by ZEFSAII (Michael W. Deem and Ramdas Pophale) SiO2 
 PCOD9424709
Probable space group: P B A M
;
_chemical_formula_sum "Si O2"
_cell_formula_units_Z 64
_cell_length_a 5.448299
_cell_length_b 18.850060
_cell_length_c 29.826129
_cell_angle_alpha 90.000000
_cell_angle_beta 90.000000
_cell_angle_gamma 90.000000
_cell_volume 3063.166207
_symmetry_space_group_name_H-M "P B A M"
_symmetry_group_IT_number 55
_symmetry_cell_setting 'orthorhombic'
loop_
_space_group_symop_operation_xyz
x,y,z
-x,-y,z
1/2+x,1/2-y,-z
1/2-x,1/2+y,-z
-x,-y,-z
x,y,-z
1/2-x,1/2+y,z
1/2+x,1/2-y,z
loop_
_atom_site_type_symbol
_atom_site_label
_atom_site_fract_x
_atom_site_fract_y
_atom_site_fract_z
Si Si1 0.925529 0.082286 0.950327
Si Si2 0.704990 0.796834 0.451702
Si Si3 0.142761 0.611143 0.265786
Si Si4 0.784245 0.297082 0.647640
Si Si5 0.853590 0.102653 0.765401
Si Si6 0.609098 0.754188 0.200646
Si Si7 0.247316 0.454891 0.138388
Si Si8 0.236584 0.213577 0.054079
O O1 0.741533 0.086441 0.908686
O O2 0.156210 0.132045 0.938303
O O3 0.832045 0.104234 0.000000
O O4 0.000000 0.000000 0.954093
O O5 0.709206 0.836203 0.500000
O O6 0.450880 0.751912 0.451916
O O7 0.711095 0.831007 0.402390
O O8 0.203120 0.645205 0.313403
O O9 0.382200 0.571511 0.247501
O O10 0.108162 0.674483 0.229366
O O11 0.873108 0.577529 0.264734
O O12 0.530764 0.251807 0.651884
O O13 0.886313 0.188791 0.763841
O O14 0.783727 0.089787 0.816835
O O15 0.359840 0.746796 0.173878
O O16 0.500000 0.500000 0.136684
O O17 0.000000 0.500000 0.143011
O O18 0.499740 0.241112 0.070040
O O19 0.247950 0.220746 0.000000
#
# Coordination Sequence:
#
# PCOD9424709 Si02
#       8
#     8   8   8   8   8   8   8   8
#     4   9  20  40  66  92 116 147 189 232 269 318
#     4   8  14  22  31  47  76 117 165 209 245 285
#     4  10  17  28  46  69  94 122 160 201 241 290
#     4  10  16  23  38  60  88 124 165 211 253 285
#     4  10  19  32  48  66  93 124 152 191 245 297
#     4   8  14  24  40  62  89 115 145 185 226 272
#     4  11  24  41  58  78 103 131 169 212 257 311
#     4   9  18  34  56  83 116 147 173 211 266 318
#
# _framework density 20.893415999999998
#
# number of rings (size 3 to 8) (size 9 to 14) (size 15 to 20)
#    0.000    2.625    0.000    3.750    0.000    2.250 
#    0.000    7.500    0.000    0.000    0.000    0.000 
#    0.000    0.000    0.000    0.000    0.000   12.500 
#
# Total GULP energy -356549.973817 kJ/mol
# GULP energy per Si atom -5571.093341 kJ/mol
# Density = 2.084586 g / cm^3
# Si number density = 20.893416 Si / 1000 Ang^3
#
#
#
# Elastic Constant Matrix: (Units=GPa)
#
#
# Indices 1 2 3 4 5 6 
#
# 1 162.5913 11.9554 14.4080 0.0000 0.0000 0.0000
# 2 11.9554 52.3761 7.2304 0.0000 0.0000 0.0000
# 3 14.4080 7.2304 135.4977 0.0000 0.0000 0.0000
# 4 0.0000 0.0000 0.0000 25.3763 0.0000 0.0000
# 5 0.0000 0.0000 0.0000 0.0000 24.7936 0.0000
# 6 0.0000 0.0000 0.0000 0.0000 0.0000 25.4768
#
#
#
# Elastic Compliance Matrix: (Units=1/GPa)
#
#
# Indices 1 2 3 4 5 6 
#
# 1 0.006303 -0.001356 -0.000598 0.000000 0.000000 0.000000
# 2 -0.001356 0.019526 -0.000898 0.000000 0.000000 0.000000
# 3 -0.000598 -0.000898 0.007492 0.000000 0.000000 0.000000
# 4 0.000000 0.000000 0.000000 0.039407 0.000000 0.000000
# 5 0.000000 0.000000 0.000000 0.000000 0.040333 0.000000
# 6 0.000000 0.000000 0.000000 0.000000 0.000000 0.039251
#
#
# Mechanical properties :
#
#
# Convention : Reuss Voigt Hill
#
# Bulk Modulus (GPa) = 36.20916 46.40586 41.30751
# Shear Modulus (GPa) = 29.90043 36.25409 33.07726
#
# Velocity S-wave (km/s) = 3.78708 4.17008 3.98319
# Velocity P-wave (km/s) = 6.04075 6.74130 6.40062
#
# Compressibility (1/GPa) = 0.02761732
#
# Stress axis : x y z
#
# Youngs Moduli (GPa) = 158.65227 51.21327 133.48152
#
# Poissons Ratio (x) = 0.06946 0.07980
# Poissons Ratio (y) = 0.21517 0.11983
# Poissons Ratio (z) = 0.09485 0.04598
#
# Static dielectric constant tensor:
#      x y z
#    x 1.720980 0.000000 0.000000 
#    y 0.000000 1.799130 0.000000 
#    z 0.000000 0.000000 1.766640 
# 
# From -- ./inp_files/24123.got.cif
#   From: 2010.05.17/outbox.cif.g08.bks.cpg/sg55_13_cif.got.tgz:24123.got - 2010.06.03 13:27:54.
