data_PCOD9424042
_publ_section_title
;
Structure prediction by ZEFSAII (Michael W. Deem and Ramdas Pophale) SiO2 
 PCOD9424042
Probable space group: P C C A
;
_chemical_formula_sum "Si O2"
_cell_formula_units_Z 48
_cell_length_a 9.331400
_cell_length_b 17.140133
_cell_length_c 13.265226
_cell_angle_alpha 90.000000
_cell_angle_beta 90.000000
_cell_angle_gamma 90.000000
_cell_volume 2121.659310
_symmetry_space_group_name_H-M "P C C A"
_symmetry_group_IT_number 54
_symmetry_cell_setting 'orthorhombic'
loop_
_space_group_symop_operation_xyz
x,y,z
1/2-x,-y,z
1/2+x,-y,1/2-z
-x,y,1/2-z
-x,-y,-z
1/2+x,y,-z
1/2-x,y,1/2+z
x,-y,1/2+z
loop_
_atom_site_type_symbol
_atom_site_label
_atom_site_fract_x
_atom_site_fract_y
_atom_site_fract_z
Si Si1 0.864564 0.554951 0.983905
Si Si2 0.128123 0.184290 0.173056
Si Si3 0.660372 0.351380 0.792028
Si Si4 0.142058 0.927669 0.184447
Si Si5 0.048830 0.179969 0.510648
Si Si6 0.307565 0.284657 0.408100
O O1 0.750000 0.500000 0.036027
O O2 0.817314 0.577606 0.869153
O O3 0.865885 0.638463 0.035270
O O4 0.000000 0.500000 0.000000
O O5 0.166150 0.271893 0.142521
O O6 0.259175 0.142344 0.226900
O O7 0.000000 0.189533 0.250000
O O8 0.058150 0.146715 0.074691
O O9 0.500000 0.362798 0.750000
O O10 0.756268 0.323514 0.697595
O O11 0.000000 0.942294 0.250000
O O12 0.250000 0.000000 0.181693
O O13 0.110246 0.891897 0.074271
O O14 0.169946 0.236216 0.456901
O O15 0.945804 0.228114 0.586891
#
# Coordination Sequence:
#
# PCOD9424042 Si02
#       6
#     8   8   8   8   8   8
#     4  12  26  43  65 101 148 191 242 299 369 448
#     4  11  22  44  75 106 143 194 249 308 367 444
#     4  11  21  41  71  99 138 191 240 308 365 423
#     4  12  28  48  71 110 155 196 241 302 381 454
#     4  12  23  45  78 108 144 190 258 309 372 451
#     4  12  23  45  74 107 143 194 253 314 373 438
#
# _framework density 22.623801
#
# number of rings (size 3 to 8) (size 9 to 14) (size 15 to 20)
#    0.000    0.333    6.667    3.500    0.000    2.667 
#    0.000    5.000    0.000    0.000    0.000    0.000 
#    0.000    0.000    0.000    0.000    0.000    0.000 
#
# Total GULP energy -267504.098647 kJ/mol
# GULP energy per Si atom -5573.002055 kJ/mol
# Density = 2.257231 g / cm^3
# Si number density = 22.623801 Si / 1000 Ang^3
#
#
#
# Elastic Constant Matrix: (Units=GPa)
#
#
# Indices 1 2 3 4 5 6 
#
# 1 121.6057 54.4168 26.6304 0.0000 0.0000 0.0000
# 2 54.4168 120.0578 34.4350 0.0000 0.0000 0.0000
# 3 26.6304 34.4350 96.9792 0.0000 0.0000 0.0000
# 4 0.0000 0.0000 0.0000 17.4703 0.0000 0.0000
# 5 0.0000 0.0000 0.0000 0.0000 25.8002 0.0000
# 6 0.0000 0.0000 0.0000 0.0000 0.0000 22.9754
#
#
#
# Elastic Compliance Matrix: (Units=1/GPa)
#
#
# Indices 1 2 3 4 5 6 
#
# 1 0.010466 -0.004364 -0.001324 0.000000 0.000000 0.000000
# 2 -0.004364 0.011093 -0.002741 0.000000 0.000000 0.000000
# 3 -0.001324 -0.002741 0.011648 0.000000 0.000000 0.000000
# 4 0.000000 0.000000 0.000000 0.057240 0.000000 0.000000
# 5 0.000000 0.000000 0.000000 0.000000 0.038759 0.000000
# 6 0.000000 0.000000 0.000000 0.000000 0.000000 0.043525
#
#
# Mechanical properties :
#
#
# Convention : Reuss Voigt Hill
#
# Bulk Modulus (GPa) = 61.16313 63.28966 62.22639
# Shear Modulus (GPa) = 25.63577 28.12655 26.88116
#
# Velocity S-wave (km/s) = 3.36986 3.52977 3.45074
# Velocity P-wave (km/s) = 6.49883 6.68191 6.59100
#
# Compressibility (1/GPa) = 0.01634972
#
# Stress axis : x y z
#
# Youngs Moduli (GPa) = 95.54617 90.14390 85.84922
#
# Poissons Ratio (x) = 0.39338 0.11370
# Poissons Ratio (y) = 0.41696 0.23528
# Poissons Ratio (z) = 0.12655 0.24705
#
# Static dielectric constant tensor:
#      x y z
#    x 1.667330 0.000000 0.000000 
#    y 0.000000 1.878940 0.000000 
#    z 0.000000 0.000000 1.953570 
# 
# From -- ./inp_files/11736.got.cif
#   From: 2010.05.17/outbox.cif.g08.bks.cpg/sg54_6_cif.got.tgz:11736.got - 2010.06.03 13:09:01.
