data_PCOD9424564
_publ_section_title
;
Structure prediction by ZEFSAII (Michael W. Deem and Ramdas Pophale) SiO2 
 PCOD9424564
Probable space group: P C C A
;
_chemical_formula_sum "Si O2"
_cell_formula_units_Z 28
_cell_length_a 15.555481
_cell_length_b 8.425485
_cell_length_c 8.155351
_cell_angle_alpha 90.000000
_cell_angle_beta 90.000000
_cell_angle_gamma 90.000000
_cell_volume 1068.860461
_symmetry_space_group_name_H-M "P C C A"
_symmetry_group_IT_number 54
_symmetry_cell_setting 'orthorhombic'
loop_
_space_group_symop_operation_xyz
x,y,z
1/2-x,-y,z
1/2+x,-y,1/2-z
-x,y,1/2-z
-x,-y,-z
1/2+x,y,-z
1/2-x,y,1/2+z
x,-y,1/2+z
loop_
_atom_site_type_symbol
_atom_site_label
_atom_site_fract_x
_atom_site_fract_y
_atom_site_fract_z
Si Si1 0.210693 0.335192 0.781732
Si Si2 0.326269 0.877389 0.079878
Si Si3 0.545599 0.345014 0.423781
Si Si4 0.500000 0.000000 0.000000
O O1 0.250000 0.500000 0.838661
O O2 0.163137 0.235808 0.922544
O O3 0.290801 0.229510 0.724543
O O4 0.145116 0.364403 0.630602
O O5 0.250000 0.000000 0.042682
O O6 0.412737 0.972454 0.111324
O O7 0.500000 0.314342 0.250000
O O8 0.500000 0.500000 0.500000
O O9 0.528325 0.187718 0.527673
#
# Coordination Sequence:
#
# PCOD9424564 Si02
#       4
#     8   8   8   4
#     4  12  27  48  75 112 160 206 263 338 399 487
#     4  12  26  48  77 112 153 208 265 320 405 480
#     4  12  28  50  79 118 156 214 273 334 415 488
#     4  12  26  52  78 110 164 206 264 332 402 488
#
# _framework density 26.196121000000002
#
# number of rings (size 3 to 8) (size 9 to 14) (size 15 to 20)
#    0.000    0.000    5.714    3.429    4.000    1.143 
#    0.000    0.000    0.000    0.000    0.000    0.000 
#    0.000    0.000    0.000    0.000    0.000    0.000 
#
# Total GULP energy -156102.059434 kJ/mol
# GULP energy per Si atom -5575.073551 kJ/mol
# Density = 2.613650 g / cm^3
# Si number density = 26.196121 Si / 1000 Ang^3
#
#
#
# Elastic Constant Matrix: (Units=GPa)
#
#
# Indices 1 2 3 4 5 6 
#
# 1 111.0338 18.0457 5.7325 0.0000 0.0000 0.0000
# 2 18.0457 175.1094 14.1642 0.0000 0.0000 0.0000
# 3 5.7325 14.1642 58.8622 0.0000 0.0000 0.0000
# 4 0.0000 0.0000 0.0000 -48.4933 0.0000 0.0000
# 5 0.0000 0.0000 0.0000 0.0000 37.1434 0.0000
# 6 0.0000 0.0000 0.0000 0.0000 0.0000 43.8736
#
#
#
# Elastic Compliance Matrix: (Units=1/GPa)
#
#
# Indices 1 2 3 4 5 6 
#
# 1 0.009186 -0.000892 -0.000680 0.000000 0.000000 0.000000
# 2 -0.000892 0.005911 -0.001335 0.000000 0.000000 0.000000
# 3 -0.000680 -0.001335 0.017376 0.000000 0.000000 0.000000
# 4 0.000000 0.000000 0.000000 -0.020621 0.000000 0.000000
# 5 0.000000 0.000000 0.000000 0.000000 0.026923 0.000000
# 6 0.000000 0.000000 0.000000 0.000000 0.000000 0.022793
#
#
# Mechanical properties :
#
#
# Convention : Reuss Voigt Hill
#
# Bulk Modulus (GPa) = 37.51087 46.76558 42.13822
# Shear Modulus (GPa) = 65.55823 26.97560 46.26691
#
# Velocity S-wave (km/s) = 5.00802 3.21246 4.20715
# Velocity P-wave (km/s) = 6.91308 5.62590 6.30244
#
# Compressibility (1/GPa) = 0.02665894
#
# Stress axis : x y z
#
# Youngs Moduli (GPa) = 108.85779 169.18678 57.54931
#
# Poissons Ratio (x) = 0.15086 0.03914
# Poissons Ratio (y) = 0.09707 0.07685
# Poissons Ratio (z) = 0.07403 0.22594
#
# Static dielectric constant tensor:
#      x y z
#    x 2.106990 0.000000 0.000000 
#    y 0.000000 1.977650 0.000000 
#    z 0.000000 0.000000 2.077710 
# 
# From -- ./inp_files/3869.got.cif
#   From: 2010.05.17/outbox.cif.g08.bks.cpg/sg54_2_cif.got.tgz:3869.got - 2010.06.03 13:09:01.
