data_PCOD9424864
_publ_section_title
;
Structure prediction by ZEFSAII (Michael W. Deem and Ramdas Pophale) SiO2 
 PCOD9424864
Probable space group: P B A M
;
_chemical_formula_sum "Si O2"
_cell_formula_units_Z 64
_cell_length_a 27.318935
_cell_length_b 18.986409
_cell_length_c 8.761856
_cell_angle_alpha 90.000000
_cell_angle_beta 90.000000
_cell_angle_gamma 90.000000
_cell_volume 4544.673712
_symmetry_space_group_name_H-M "P B A M"
_symmetry_group_IT_number 55
_symmetry_cell_setting 'orthorhombic'
loop_
_space_group_symop_operation_xyz
x,y,z
-x,-y,z
1/2+x,1/2-y,-z
1/2-x,1/2+y,-z
-x,-y,-z
x,y,-z
1/2-x,1/2+y,z
1/2+x,1/2-y,z
loop_
_atom_site_type_symbol
_atom_site_label
_atom_site_fract_x
_atom_site_fract_y
_atom_site_fract_z
Si Si1 0.746197 0.423375 0.815065
Si Si2 0.148296 0.837858 0.316974
Si Si3 0.052342 0.921562 0.315779
Si Si4 0.649088 0.339160 0.185797
Si Si5 0.201004 0.296255 0.176713
Si Si6 0.254618 0.421967 0.317947
Si Si7 0.196945 0.708563 0.175951
Si Si8 0.552560 0.422120 0.184138
O O1 0.693768 0.390301 0.766507
O O2 0.752004 0.501634 0.754149
O O3 0.788539 0.368672 0.764272
O O4 0.746673 0.423585 0.000000
O O5 0.149358 0.838120 0.500000
O O6 0.096765 0.870839 0.268566
O O7 0.193497 0.887687 0.265145
O O8 0.159395 0.758989 0.261717
O O9 0.050074 0.924952 0.500000
O O10 0.999856 0.898909 0.249723
O O11 0.061766 0.999804 0.250524
O O12 0.660906 0.259390 0.236310
O O13 0.597188 0.371492 0.229883
O O14 0.650768 0.337134 0.000000
O O15 0.212937 0.366512 0.268642
O O16 0.251210 0.250448 0.178414
O O17 0.190735 0.314134 0.000000
O O18 0.255972 0.427795 0.500000
O O19 0.181660 0.702435 0.000000
O O20 0.550333 0.426022 0.000000
#
# Coordination Sequence:
#
# PCOD9424864 Si02
#       8
#     8   8   8   8   8   8   8   8
#     4   9  16  27  41  58  79 105 132 159 193 235
#     4   9  18  29  40  54  77 107 136 162 194 230
#     4  10  19  30  40  54  79 109 135 162 196 235
#     4   8  15  27  43  59  76 100 134 167 196 230
#     4   8  14  27  42  55  74 102 129 158 195 233
#     4  10  18  26  37  58  82 104 132 164 191 224
#     4   8  15  26  41  58  75  97 130 164 193 227
#     4  10  18  28  42  60  78 100 133 172 201 224
#
# _framework density 14.082419
#
# number of rings (size 3 to 8) (size 9 to 14) (size 15 to 20)
#    0.000    3.000    0.000    4.125    0.000    2.000 
#    0.000    3.750    0.000    0.000    0.000    0.000 
#    0.000    1.000    0.000   11.250    0.000    5.625 
#
# Total GULP energy -356292.502698 kJ/mol
# GULP energy per Si atom -5567.070355 kJ/mol
# Density = 1.405037 g / cm^3
# Si number density = 14.082419 Si / 1000 Ang^3
#
#
#
# Elastic Constant Matrix: (Units=GPa)
#
#
# Indices 1 2 3 4 5 6 
#
# 1 95.6277 65.4782 23.9255 0.0000 0.0000 0.0000
# 2 65.4782 119.2326 26.7089 0.0000 0.0000 0.0000
# 3 23.9255 26.7089 25.6498 0.0000 0.0000 0.0000
# 4 0.0000 0.0000 0.0000 -6.5930 0.0000 0.0000
# 5 0.0000 0.0000 0.0000 0.0000 15.7800 0.0000
# 6 0.0000 0.0000 0.0000 0.0000 0.0000 27.7226
#
#
#
# Elastic Compliance Matrix: (Units=1/GPa)
#
#
# Indices 1 2 3 4 5 6 
#
# 1 0.018079 -0.008022 -0.008511 0.000000 0.000000 0.000000
# 2 -0.008022 0.014498 -0.007614 0.000000 0.000000 0.000000
# 3 -0.008511 -0.007614 0.054853 0.000000 0.000000 0.000000
# 4 0.000000 0.000000 0.000000 -0.151676 0.000000 0.000000
# 5 0.000000 0.000000 0.000000 0.000000 0.063371 0.000000
# 6 0.000000 0.000000 0.000000 0.000000 0.000000 0.036072
#
#
# Mechanical properties :
#
#
# Convention : Reuss Voigt Hill
#
# Bulk Modulus (GPa) = 25.55092 52.52616 39.03854
# Shear Modulus (GPa) = 51.79400 15.67509 33.73455
#
# Velocity S-wave (km/s) = 6.07116 3.33993 4.89970
# Velocity P-wave (km/s) = 8.20540 7.22866 7.73247
#
# Compressibility (1/GPa) = 0.03913754
#
# Stress axis : x y z
#
# Youngs Moduli (GPa) = 55.31136 68.97518 18.23045
#
# Poissons Ratio (x) = 0.55333 0.15515
# Poissons Ratio (y) = 0.44372 0.13880
# Poissons Ratio (z) = 0.47074 0.52516
#
# Static dielectric constant tensor:
#      x y z
#    x 1.461120 0.000000 0.000000 
#    y 0.000000 1.461020 0.000000 
#    z 0.000000 0.000000 1.476890 
# 
# From -- ./inp_files/10310.got.cif
#   From: 2010.05.17/outbox.cif.g08.bks.cpg/sg55_6_cif.got.tgz:10310.got - 2010.06.03 13:27:54.
