data_PCOD9424084
_publ_section_title
;
Structure prediction by ZEFSAII (Michael W. Deem and Ramdas Pophale) SiO2 
 PCOD9424084
Probable space group: P C C A
;
_chemical_formula_sum "Si O2"
_cell_formula_units_Z 40
_cell_length_a 23.307746
_cell_length_b 8.967551
_cell_length_c 8.980569
_cell_angle_alpha 90.000000
_cell_angle_beta 90.000000
_cell_angle_gamma 90.000000
_cell_volume 1877.059269
_symmetry_space_group_name_H-M "P C C A"
_symmetry_group_IT_number 54
_symmetry_cell_setting 'orthorhombic'
loop_
_space_group_symop_operation_xyz
x,y,z
1/2-x,-y,z
1/2+x,-y,1/2-z
-x,y,1/2-z
-x,-y,-z
1/2+x,y,-z
1/2-x,y,1/2+z
x,-y,1/2+z
loop_
_atom_site_type_symbol
_atom_site_label
_atom_site_fract_x
_atom_site_fract_y
_atom_site_fract_z
Si Si1 0.190439 0.427286 0.402526
Si Si2 0.044014 0.452444 0.626299
Si Si3 0.681763 0.050282 0.091427
Si Si4 0.139279 0.671821 0.597541
Si Si5 0.355081 0.205819 0.099823
O O1 0.250000 0.500000 0.377385
O O2 0.148583 0.557947 0.458452
O O3 0.174178 0.353279 0.248390
O O4 0.194395 0.317880 0.543769
O O5 0.077797 0.608929 0.654447
O O6 0.089868 0.316091 0.608008
O O7 0.000000 0.399968 0.750000
O O8 0.000000 0.500000 0.500000
O O9 0.663401 0.119059 0.251192
O O10 0.750000 0.000000 0.088835
O O11 0.661677 0.174278 0.971004
O O12 0.643769 0.909621 0.037723
#
# Coordination Sequence:
#
# PCOD9424084 Si02
#       5
#     8   8   8   8   8
#     4  11  22  39  63  95 132 176 226 280 334 403
#     4  11  23  45  71  96 128 172 231 297 338 376
#     4  12  25  44  66 100 147 184 215 270 341 422
#     4  11  23  41  67  99 133 178 230 277 337 408
#     4  11  25  43  66  98 134 180 229 274 339 415
#
# _framework density 21.309927999999999
#
# number of rings (size 3 to 8) (size 9 to 14) (size 15 to 20)
#    0.000    0.800    0.000    9.600    0.000    4.800 
#    0.000    7.000    0.000    0.000    0.000    0.000 
#    0.000    0.000    0.000    0.000    0.000    0.000 
#
# Total GULP energy -222699.789510 kJ/mol
# GULP energy per Si atom -5567.494738 kJ/mol
# Density = 2.126143 g / cm^3
# Si number density = 21.309928 Si / 1000 Ang^3
#
#
#
# Elastic Constant Matrix: (Units=GPa)
#
#
# Indices 1 2 3 4 5 6 
#
# 1 128.3800 64.2074 63.7712 0.0000 0.0000 0.0000
# 2 64.2074 131.7729 62.5926 0.0000 0.0000 0.0000
# 3 63.7712 62.5926 128.0290 0.0000 0.0000 0.0000
# 4 0.0000 0.0000 0.0000 50.1837 0.0000 0.0000
# 5 0.0000 0.0000 0.0000 0.0000 40.0743 0.0000
# 6 0.0000 0.0000 0.0000 0.0000 0.0000 34.9914
#
#
#
# Elastic Compliance Matrix: (Units=1/GPa)
#
#
# Indices 1 2 3 4 5 6 
#
# 1 0.011651 -0.003804 -0.003944 0.000000 0.000000 0.000000
# 2 -0.003804 0.011126 -0.003545 0.000000 0.000000 0.000000
# 3 -0.003944 -0.003545 0.011508 0.000000 0.000000 0.000000
# 4 0.000000 0.000000 0.000000 0.019927 0.000000 0.000000
# 5 0.000000 0.000000 0.000000 0.000000 0.024954 0.000000
# 6 0.000000 0.000000 0.000000 0.000000 0.000000 0.028578
#
#
# Mechanical properties :
#
#
# Convention : Reuss Voigt Hill
#
# Bulk Modulus (GPa) = 85.46607 85.48050 85.47328
# Shear Modulus (GPa) = 37.25008 38.22394 37.73701
#
# Velocity S-wave (km/s) = 4.18546 4.23982 4.21273
# Velocity P-wave (km/s) = 7.97187 8.01051 7.99121
#
# Compressibility (1/GPa) = 0.01170055
#
# Stress axis : x y z
#
# Youngs Moduli (GPa) = 85.83214 89.87976 86.89541
#
# Poissons Ratio (x) = 0.34187 0.34268
# Poissons Ratio (y) = 0.32647 0.30803
# Poissons Ratio (z) = 0.33849 0.31861
#
# Static dielectric constant tensor:
#      x y z
#    x 1.733460 0.000000 0.000000 
#    y 0.000000 1.898660 0.000000 
#    z 0.000000 0.000000 1.839130 
# 
# From -- ./inp_files/5019.got.cif
#   From: 2010.05.17/outbox.cif.g08.bks.cpg/sg54_3_cif.got.tgz:5019.got - 2010.06.03 13:09:01.
