data_PCOD9424244
_publ_section_title
;
Structure prediction by ZEFSAII (Michael W. Deem and Ramdas Pophale) SiO2 
 PCOD9424244
Probable space group: P C C A
;
_chemical_formula_sum "Si O2"
_cell_formula_units_Z 56
_cell_length_a 14.317308
_cell_length_b 11.314819
_cell_length_c 14.317137
_cell_angle_alpha 90.000000
_cell_angle_beta 90.000000
_cell_angle_gamma 90.000000
_cell_volume 2319.343960
_symmetry_space_group_name_H-M "P C C A"
_symmetry_group_IT_number 54
_symmetry_cell_setting 'orthorhombic'
loop_
_space_group_symop_operation_xyz
x,y,z
1/2-x,-y,z
1/2+x,-y,1/2-z
-x,y,1/2-z
-x,-y,-z
1/2+x,y,-z
1/2-x,y,1/2+z
x,-y,1/2+z
loop_
_atom_site_type_symbol
_atom_site_label
_atom_site_fract_x
_atom_site_fract_y
_atom_site_fract_z
Si Si1 0.474984 0.337411 0.457222
Si Si2 0.363683 0.293203 0.906569
Si Si3 0.408365 0.504661 0.792025
Si Si4 0.180710 0.838375 0.654126
Si Si5 0.321729 0.857638 0.947743
Si Si6 0.500000 0.827163 0.250000
Si Si7 0.662763 0.561555 0.393651
Si Si8 0.250000 0.000000 0.301995
O O1 0.577935 0.310484 0.497197
O O2 0.453167 0.394431 0.356389
O O3 0.415465 0.217707 0.454442
O O4 0.424077 0.419585 0.536403
O O5 0.349741 0.420574 0.858984
O O6 0.266156 0.225648 0.917802
O O7 0.433258 0.231876 0.830845
O O8 0.500000 0.438500 0.750000
O O9 0.353996 0.523395 0.695706
O O10 0.201569 0.888666 0.553410
O O11 0.179636 0.695436 0.644181
O O12 0.079542 0.884970 0.686962
O O13 0.246495 0.888468 0.733895
O O14 0.330078 0.966139 0.876526
O O15 0.750000 0.500000 0.443801
#
# Coordination Sequence:
#
# PCOD9424244 Si02
#       8
#     8   8   8   8   8   4   8   4
#     4  11  26  43  65 101 145 178 239 284 347 425
#     4  12  21  45  69  97 139 189 232 290 348 429
#     4  12  23  37  62  98 139 189 229 279 348 412
#     4  11  24  46  73 101 140 183 242 291 351 432
#     4  11  26  44  74 102 134 185 241 295 360 419
#     4  12  18  46  76  96 130 194 236 282 358 434
#     4  11  24  39  64 101 137 184 230 279 349 422
#     4  12  24  46  70 104 138 184 232 302 358 408
#
# _framework density 24.144760000000002
#
# number of rings (size 3 to 8) (size 9 to 14) (size 15 to 20)
#    0.000    0.571    7.857    0.857    8.000    0.000 
#    0.000    4.286    0.000    0.000    0.000    0.000 
#    0.000    0.000    0.000    0.000    0.000    0.000 
#
# Total GULP energy -312526.718241 kJ/mol
# GULP energy per Si atom -5580.834254 kJ/mol
# Density = 2.408981 g / cm^3
# Si number density = 24.144760 Si / 1000 Ang^3
#
#
#
# Elastic Constant Matrix: (Units=GPa)
#
#
# Indices 1 2 3 4 5 6 
#
# 1 49.8663 3.8697 -3.9512 0.0000 0.0000 0.0000
# 2 3.8697 61.7302 32.3840 0.0000 0.0000 0.0000
# 3 -3.9512 32.3840 153.6163 0.0000 0.0000 0.0000
# 4 0.0000 0.0000 0.0000 27.4013 0.0000 0.0000
# 5 0.0000 0.0000 0.0000 0.0000 44.6406 0.0000
# 6 0.0000 0.0000 0.0000 0.0000 0.0000 14.3661
#
#
#
# Elastic Compliance Matrix: (Units=1/GPa)
#
#
# Indices 1 2 3 4 5 6 
#
# 1 0.020259 -0.001735 0.000887 0.000000 0.000000 0.000000
# 2 -0.001735 0.018362 -0.003916 0.000000 0.000000 0.000000
# 3 0.000887 -0.003916 0.007358 0.000000 0.000000 0.000000
# 4 0.000000 0.000000 0.000000 0.036495 0.000000 0.000000
# 5 0.000000 0.000000 0.000000 0.000000 0.022401 0.000000
# 6 0.000000 0.000000 0.000000 0.000000 0.000000 0.069608
#
#
# Mechanical properties :
#
#
# Convention : Reuss Voigt Hill
#
# Bulk Modulus (GPa) = 27.43406 36.64644 32.04025
# Shear Modulus (GPa) = 25.48921 32.80896 29.14909
#
# Velocity S-wave (km/s) = 3.25265 3.69025 3.47834
# Velocity P-wave (km/s) = 5.04909 5.77650 5.42500
#
# Compressibility (1/GPa) = 0.03645104
#
# Stress axis : x y z
#
# Youngs Moduli (GPa) = 49.36191 54.45890 135.90658
#
# Poissons Ratio (x) = 0.09450 -0.12053
# Poissons Ratio (y) = 0.08565 0.53216
# Poissons Ratio (z) = -0.04378 0.21324
#
# Static dielectric constant tensor:
#      x y z
#    x 2.007550 0.000000 0.000000 
#    y 0.000000 1.995850 0.000000 
#    z 0.000000 0.000000 1.970260 
# 
# From -- ./inp_files/13529.got.cif
#   From: 2010.05.17/outbox.cif.g08.bks.cpg/sg54_7_cif.got.tgz:13529.got - 2010.06.03 13:09:01.
