data_PCOD9424048
_publ_section_title
;
Structure prediction by ZEFSAII (Michael W. Deem and Ramdas Pophale) SiO2 
 PCOD9424048
Probable space group: P C C A
;
_chemical_formula_sum "Si O2"
_cell_formula_units_Z 44
_cell_length_a 15.592741
_cell_length_b 10.033061
_cell_length_c 14.459366
_cell_angle_alpha 90.000000
_cell_angle_beta 90.000000
_cell_angle_gamma 90.000000
_cell_volume 2262.065462
_symmetry_space_group_name_H-M "P C C A"
_symmetry_group_IT_number 54
_symmetry_cell_setting 'orthorhombic'
loop_
_space_group_symop_operation_xyz
x,y,z
1/2-x,-y,z
1/2+x,-y,1/2-z
-x,y,1/2-z
-x,-y,-z
1/2+x,y,-z
1/2-x,y,1/2+z
x,-y,1/2+z
loop_
_atom_site_type_symbol
_atom_site_label
_atom_site_fract_x
_atom_site_fract_y
_atom_site_fract_z
Si Si1 0.021215 0.626871 0.937653
Si Si2 0.500000 0.521541 0.750000
Si Si3 0.804490 0.135035 0.642215
Si Si4 0.638700 0.731587 0.822101
Si Si5 0.784460 0.649152 0.512964
Si Si6 0.011998 0.868675 0.440026
O O1 0.001586 0.576469 0.836535
O O2 0.121367 0.658778 0.942992
O O3 0.000000 0.500000 0.000000
O O4 0.974076 0.749680 0.985948
O O5 0.581504 0.619091 0.768969
O O6 0.804468 0.194911 0.745467
O O7 0.771839 0.241961 0.566514
O O8 0.904432 0.111273 0.621609
O O9 0.750000 0.000000 0.634921
O O10 0.698717 0.675368 0.904084
O O11 0.568436 0.824476 0.875690
O O12 0.750000 0.500000 0.526014
O O13 0.000000 0.000000 0.500000
#
# Coordination Sequence:
#
# PCOD9424048 Si02
#       6
#     8   4   8   8   8   8
#     4  11  21  42  68  97 127 175 224 265 325 406
#     4  12  20  40  74  96 126 172 234 270 320 396
#     4  12  25  44  66  97 137 174 221 279 340 403
#     4  11  23  43  70  94 133 181 221 275 340 402
#     4  11  24  41  66 100 137 168 214 283 338 384
#     4  11  23  45  69  93 132 180 224 273 333 403
#
# _framework density 19.451249000000001
#
# number of rings (size 3 to 8) (size 9 to 14) (size 15 to 20)
#    0.000    0.727    5.455    4.364    0.000    4.364 
#    6.545    0.000    0.000    0.000    0.000    0.000 
#    0.000    0.000    0.000    0.000    0.000    0.000 
#
# Total GULP energy -245726.470343 kJ/mol
# GULP energy per Si atom -5584.692508 kJ/mol
# Density = 1.940698 g / cm^3
# Si number density = 19.451249 Si / 1000 Ang^3
#
#
#
# Elastic Constant Matrix: (Units=GPa)
#
#
# Indices 1 2 3 4 5 6 
#
# 1 46.2311 12.3400 5.4137 0.0000 0.0000 0.0000
# 2 12.3400 132.0756 52.9736 0.0000 0.0000 0.0000
# 3 5.4137 52.9736 117.7296 0.0000 0.0000 0.0000
# 4 0.0000 0.0000 0.0000 28.1847 0.0000 0.0000
# 5 0.0000 0.0000 0.0000 0.0000 9.4262 0.0000
# 6 0.0000 0.0000 0.0000 0.0000 0.0000 37.0003
#
#
#
# Elastic Compliance Matrix: (Units=1/GPa)
#
#
# Indices 1 2 3 4 5 6 
#
# 1 0.022185 -0.002030 -0.000107 0.000000 0.000000 0.000000
# 2 -0.002030 0.009425 -0.004147 0.000000 0.000000 0.000000
# 3 -0.000107 -0.004147 0.010365 0.000000 0.000000 0.000000
# 4 0.000000 0.000000 0.000000 0.035480 0.000000 0.000000
# 5 0.000000 0.000000 0.000000 0.000000 0.106087 0.000000
# 6 0.000000 0.000000 0.000000 0.000000 0.000000 0.027027
#
#
# Mechanical properties :
#
#
# Convention : Reuss Voigt Hill
#
# Bulk Modulus (GPa) = 34.00622 48.61010 41.30816
# Shear Modulus (GPa) = 21.46488 29.94285 25.70386
#
# Velocity S-wave (km/s) = 3.32553 3.92775 3.63912
# Velocity P-wave (km/s) = 5.68034 6.75386 6.24023
#
# Compressibility (1/GPa) = 0.02940638
#
# Stress axis : x y z
#
# Youngs Moduli (GPa) = 45.07590 106.10641 96.47789
#
# Poissons Ratio (x) = 0.21539 0.01030
# Poissons Ratio (y) = 0.09150 0.40012
# Poissons Ratio (z) = 0.00481 0.44006
#
# Static dielectric constant tensor:
#      x y z
#    x 1.762040 0.000000 0.000000 
#    y 0.000000 1.731770 0.000000 
#    z 0.000000 0.000000 1.682440 
# 
# From -- ./inp_files/13981.got.cif
#   From: 2010.05.17/outbox.cif.g08.bks.cpg/sg54_7_cif.got.tgz:13981.got - 2010.06.03 13:09:01.
