data_PCOD9424063
_publ_section_title
;
Structure prediction by ZEFSAII (Michael W. Deem and Ramdas Pophale) SiO2 
 PCOD9424063
Probable space group: P C C A
;
_chemical_formula_sum "Si O2"
_cell_formula_units_Z 64
_cell_length_a 30.692983
_cell_length_b 11.388246
_cell_length_c 8.762103
_cell_angle_alpha 90.000000
_cell_angle_beta 90.000000
_cell_angle_gamma 90.000000
_cell_volume 3062.698831
_symmetry_space_group_name_H-M "P C C A"
_symmetry_group_IT_number 54
_symmetry_cell_setting 'orthorhombic'
loop_
_space_group_symop_operation_xyz
x,y,z
1/2-x,-y,z
1/2+x,-y,1/2-z
-x,y,1/2-z
-x,-y,-z
1/2+x,y,-z
1/2-x,y,1/2+z
x,-y,1/2+z
loop_
_atom_site_type_symbol
_atom_site_label
_atom_site_fract_x
_atom_site_fract_y
_atom_site_fract_z
Si Si1 0.161944 0.828295 0.479878
Si Si2 0.714747 0.598326 0.249027
Si Si3 0.155169 0.753860 0.145592
Si Si4 0.748127 0.753671 0.990789
Si Si5 0.400677 0.049503 0.981446
Si Si6 0.548051 0.118893 0.816626
Si Si7 0.098597 0.335081 0.129085
Si Si8 0.373361 0.549568 0.420044
O O1 0.153488 0.752750 0.327320
O O2 0.213413 0.847588 0.497375
O O3 0.140828 0.751748 0.616410
O O4 0.135301 0.947707 0.460353
O O5 0.750000 0.500000 0.219619
O O6 0.724976 0.642527 0.419880
O O7 0.669662 0.544066 0.188872
O O8 0.727282 0.711664 0.148880
O O9 0.205470 0.782656 0.106445
O O10 0.122385 0.851816 0.082418
O O11 0.141680 0.636259 0.056318
O O12 0.440526 0.985947 0.067864
O O13 0.418301 0.101271 0.823866
O O14 0.500000 0.115301 0.750000
O O15 0.559335 0.243600 0.895469
O O16 0.094328 0.390855 0.297353
O O17 0.106586 0.436405 0.003689
#
# Coordination Sequence:
#
# PCOD9424063 Si02
#       8
#     8   8   8   8   8   8   8   8
#     4  11  22  41  61  91 132 170 223 269 317 379
#     4  11  22  33  52  83 122 171 225 268 305 353
#     4  11  23  41  61  92 132 177 226 267 318 386
#     4  11  22  35  54  86 127 170 222 269 307 366
#     4  11  23  43  72  97 126 170 209 271 338 397
#     4  11  24  46  74 102 129 159 215 278 338 412
#     4  11  23  40  66  96 131 172 215 260 333 390
#     4  11  23  37  62  89 133 175 213 264 320 381
#
# _framework density 20.896602999999999
#
# number of rings (size 3 to 8) (size 9 to 14) (size 15 to 20)
#    0.000    1.000    5.000    2.250    3.500    0.500 
#    0.000    1.875    0.000    0.000    0.000    0.000 
#    0.000    0.000    0.000    0.000    0.000    0.000 
#
# Total GULP energy -357304.682515 kJ/mol
# GULP energy per Si atom -5582.885664 kJ/mol
# Density = 2.084904 g / cm^3
# Si number density = 20.896603 Si / 1000 Ang^3
#
#
#
# Elastic Constant Matrix: (Units=GPa)
#
#
# Indices 1 2 3 4 5 6 
#
# 1 46.6604 36.1590 8.4816 0.0000 0.0000 0.0000
# 2 36.1590 79.3394 28.9916 0.0000 0.0000 0.0000
# 3 8.4816 28.9916 90.4770 0.0000 0.0000 0.0000
# 4 0.0000 0.0000 0.0000 30.7172 0.0000 0.0000
# 5 0.0000 0.0000 0.0000 0.0000 21.4286 0.0000
# 6 0.0000 0.0000 0.0000 0.0000 0.0000 13.4654
#
#
#
# Elastic Compliance Matrix: (Units=1/GPa)
#
#
# Indices 1 2 3 4 5 6 
#
# 1 0.033444 -0.015966 0.001981 0.000000 0.000000 0.000000
# 2 -0.015966 0.021898 -0.005520 0.000000 0.000000 0.000000
# 3 0.001981 -0.005520 0.012636 0.000000 0.000000 0.000000
# 4 0.000000 0.000000 0.000000 0.032555 0.000000 0.000000
# 5 0.000000 0.000000 0.000000 0.000000 0.046667 0.000000
# 6 0.000000 0.000000 0.000000 0.000000 0.000000 0.074265
#
#
# Mechanical properties :
#
#
# Convention : Reuss Voigt Hill
#
# Bulk Modulus (GPa) = 34.52191 40.41567 37.46879
# Shear Modulus (GPa) = 18.50964 22.64521 20.57742
#
# Velocity S-wave (km/s) = 2.97942 3.29550 3.14144
# Velocity P-wave (km/s) = 5.32843 5.81921 5.57922
#
# Compressibility (1/GPa) = 0.02896711
#
# Stress axis : x y z
#
# Youngs Moduli (GPa) = 29.90068 45.66705 79.14140
#
# Poissons Ratio (x) = 0.72912 -0.15677
# Poissons Ratio (y) = 0.47739 0.43686
# Poissons Ratio (z) = -0.05923 0.25208
#
# Static dielectric constant tensor:
#      x y z
#    x 1.759820 0.000000 0.000000 
#    y 0.000000 1.774520 0.000000 
#    z 0.000000 0.000000 1.789340 
# 
# From -- ./inp_files/5974.got.cif
#   From: 2010.05.17/outbox.cif.g08.bks.cpg/sg54_3_cif.got.tgz:5974.got - 2010.06.03 13:09:01.
