data_PCOD9424401
_publ_section_title
;
Structure prediction by ZEFSAII (Michael W. Deem and Ramdas Pophale) SiO2 
 PCOD9424401
Probable space group: P C C A
;
_chemical_formula_sum "Si O2"
_cell_formula_units_Z 36
_cell_length_a 11.091725
_cell_length_b 4.736289
_cell_length_c 26.489799
_cell_angle_alpha 90.000000
_cell_angle_beta 90.000000
_cell_angle_gamma 90.000000
_cell_volume 1391.604905
_symmetry_space_group_name_H-M "P C C A"
_symmetry_group_IT_number 54
_symmetry_cell_setting 'orthorhombic'
loop_
_space_group_symop_operation_xyz
x,y,z
1/2-x,-y,z
1/2+x,-y,1/2-z
-x,y,1/2-z
-x,-y,-z
1/2+x,y,-z
1/2-x,y,1/2+z
x,-y,1/2+z
loop_
_atom_site_type_symbol
_atom_site_label
_atom_site_fract_x
_atom_site_fract_y
_atom_site_fract_z
Si Si1 0.250000 0.000000 0.046178
Si Si2 0.402893 0.802682 0.893939
Si Si3 0.250000 0.500000 0.311472
Si Si4 0.061427 0.305077 0.118594
Si Si5 0.250000 0.500000 0.978637
Si Si6 0.622100 0.152131 0.767791
O O1 0.157778 0.177719 0.080272
O O2 0.308635 0.249176 0.012021
O O3 0.315577 0.722558 0.847866
O O4 0.527363 0.630635 0.887129
O O5 0.341539 0.678362 0.943882
O O6 0.438587 0.128730 0.892260
O O7 0.354604 0.613899 0.274943
O O8 0.103076 0.256822 0.175610
O O9 0.500000 0.996421 0.750000
O O10 0.750000 0.000000 0.767223
#
# Coordination Sequence:
#
# PCOD9424401 Si02
#       6
#     4   8   4   8   4   8
#     4  12  26  46  72 108 146 188 248 320 386 454
#     4  11  26  48  73 105 146 196 253 315 375 461
#     4  11  26  43  74 104 154 195 262 303 384 456
#     4  12  26  46  72 107 149 194 245 317 383 453
#     4  11  26  47  76 106 140 193 252 315 388 462
#     4  12  26  46  75 111 153 209 252 315 384 463
#
# _framework density 25.869409999999998
#
# number of rings (size 3 to 8) (size 9 to 14) (size 15 to 20)
#    0.000    0.444    3.333    4.000    3.111    8.889 
#    0.000    0.000    0.000    0.000    0.000    0.000 
#    0.000    0.000    0.000    0.000    0.000    0.000 
#
# Total GULP energy -201894.310145 kJ/mol
# GULP energy per Si atom -5608.175282 kJ/mol
# Density = 2.581053 g / cm^3
# Si number density = 25.869410 Si / 1000 Ang^3
#
#
#
# Elastic Constant Matrix: (Units=GPa)
#
#
# Indices 1 2 3 4 5 6 
#
# 1 117.7067 17.2163 39.9040 0.0000 0.0000 0.0000
# 2 17.2163 94.5401 26.7881 0.0000 0.0000 0.0000
# 3 39.9040 26.7881 148.5686 0.0000 0.0000 0.0000
# 4 0.0000 0.0000 0.0000 20.9569 0.0000 0.0000
# 5 0.0000 0.0000 0.0000 0.0000 37.1923 0.0000
# 6 0.0000 0.0000 0.0000 0.0000 0.0000 51.9052
#
#
#
# Elastic Compliance Matrix: (Units=1/GPa)
#
#
# Indices 1 2 3 4 5 6 
#
# 1 0.009446 -0.001055 -0.002347 0.000000 0.000000 0.000000
# 2 -0.001055 0.011265 -0.001748 0.000000 0.000000 0.000000
# 3 -0.002347 -0.001748 0.007676 0.000000 0.000000 0.000000
# 4 0.000000 0.000000 0.000000 0.047717 0.000000 0.000000
# 5 0.000000 0.000000 0.000000 0.000000 0.026887 0.000000
# 6 0.000000 0.000000 0.000000 0.000000 0.000000 0.019266
#
#
# Mechanical properties :
#
#
# Convention : Reuss Voigt Hill
#
# Bulk Modulus (GPa) = 55.28659 58.73690 57.01174
# Shear Modulus (GPa) = 36.07885 40.47136 38.27510
#
# Velocity S-wave (km/s) = 3.73856 3.95960 3.85067
# Velocity P-wave (km/s) = 6.32879 6.60750 6.46964
#
# Compressibility (1/GPa) = 0.01808757
#
# Stress axis : x y z
#
# Youngs Moduli (GPa) = 105.86944 88.77136 130.27041
#
# Poissons Ratio (x) = 0.09367 0.30571
# Poissons Ratio (y) = 0.11171 0.22768
# Poissons Ratio (z) = 0.24845 0.15515
#
# Static dielectric constant tensor:
#      x y z
#    x 2.046930 0.000000 0.000000 
#    y 0.000000 2.005680 0.000000 
#    z 0.000000 0.000000 2.003070 
# 
# From -- ./inp_files/23891.got.cif
#   From: 2010.05.17/outbox.cif.g08.bks.cpg/sg54_12_cif.got.tgz:23891.got - 2010.06.03 13:09:01.
