data_PCOD9424891
_publ_section_title
;
Structure prediction by ZEFSAII (Michael W. Deem and Ramdas Pophale) SiO2 
 PCOD9424891
Probable space group: P B A M
;
_chemical_formula_sum "Si O2"
_cell_formula_units_Z 44
_cell_length_a 5.366659
_cell_length_b 25.901623
_cell_length_c 13.835853
_cell_angle_alpha 90.000000
_cell_angle_beta 90.000000
_cell_angle_gamma 90.000000
_cell_volume 1923.255212
_symmetry_space_group_name_H-M "P B A M"
_symmetry_group_IT_number 55
_symmetry_cell_setting 'orthorhombic'
loop_
_space_group_symop_operation_xyz
x,y,z
-x,-y,z
1/2+x,1/2-y,-z
1/2-x,1/2+y,-z
-x,-y,-z
x,y,-z
1/2-x,1/2+y,z
1/2+x,1/2-y,z
loop_
_atom_site_type_symbol
_atom_site_label
_atom_site_fract_x
_atom_site_fract_y
_atom_site_fract_z
Si Si1 0.252244 0.964931 0.208110
Si Si2 0.298216 0.229889 0.198055
Si Si3 0.749312 0.035293 0.000000
Si Si4 0.303827 0.145640 0.338789
Si Si5 0.297562 0.298202 0.394706
Si Si6 0.525351 0.561613 0.608262
O O1 0.211700 0.929406 0.301740
O O2 0.500000 0.000000 0.216424
O O3 0.258381 0.936821 0.103842
O O4 0.000000 0.000000 0.204263
O O5 0.045470 0.248506 0.149005
O O6 0.307722 0.169933 0.230222
O O7 0.291306 0.260549 0.302374
O O8 0.500000 0.000000 0.000000
O O9 0.000000 0.000000 0.000000
O O10 0.051552 0.170107 0.384058
O O11 0.236606 0.086412 0.357995
O O12 0.553957 0.166244 0.386760
O O13 0.295654 0.272704 0.500000
O O14 0.500000 0.500000 0.601524
O O15 0.596050 0.578858 0.500000
#
# Coordination Sequence:
#
# PCOD9424891 Si02
#       6
#     8   8   4   8   8   8
#     4   9  18  32  49  67  86 112 149 191 230 264
#     4   8  16  27  41  59  76  97 132 179 226 264
#     4   8  14  28  50  70  84 102 138 190 240 272
#     4  10  20  31  42  57  80 111 145 179 215 257
#     4  10  18  28  43  60  76 100 139 185 228 263
#     4  10  21  34  46  63  92 130 164 187 212 259
#
# _framework density 22.877877999999999
#
# number of rings (size 3 to 8) (size 9 to 14) (size 15 to 20)
#    0.000    2.727    0.000    1.636    0.000   10.545 
#    0.000    3.636    0.000    0.000    0.000    0.000 
#    0.000    0.000    0.000   14.727    0.000    4.909 
#
# Total GULP energy -245204.327568 kJ/mol
# GULP energy per Si atom -5572.825627 kJ/mol
# Density = 2.282581 g / cm^3
# Si number density = 22.877878 Si / 1000 Ang^3
#
#
#
# Elastic Constant Matrix: (Units=GPa)
#
#
# Indices 1 2 3 4 5 6 
#
# 1 176.3781 12.7455 6.7100 0.0000 0.0000 0.0000
# 2 12.7455 60.5055 -8.4592 0.0000 0.0000 0.0000
# 3 6.7100 -8.4592 127.9968 0.0000 0.0000 0.0000
# 4 0.0000 0.0000 0.0000 4.7392 0.0000 0.0000
# 5 0.0000 0.0000 0.0000 0.0000 53.0104 0.0000
# 6 0.0000 0.0000 0.0000 0.0000 0.0000 35.1976
#
#
#
# Elastic Compliance Matrix: (Units=1/GPa)
#
#
# Indices 1 2 3 4 5 6 
#
# 1 0.005776 -0.001271 -0.000387 0.000000 0.000000 0.000000
# 2 -0.001271 0.016961 0.001188 0.000000 0.000000 0.000000
# 3 -0.000387 0.001188 0.007911 0.000000 0.000000 0.000000
# 4 0.000000 0.000000 0.000000 0.211006 0.000000 0.000000
# 5 0.000000 0.000000 0.000000 0.000000 0.018864 0.000000
# 6 0.000000 0.000000 0.000000 0.000000 0.000000 0.028411
#
#
# Mechanical properties :
#
#
# Convention : Reuss Voigt Hill
#
# Bulk Modulus (GPa) = 33.66021 42.98590 38.32306
# Shear Modulus (GPa) = 16.67931 42.18172 29.43052
#
# Velocity S-wave (km/s) = 2.70304 4.29858 3.59056
# Velocity P-wave (km/s) = 4.94842 6.59296 5.82898
#
# Compressibility (1/GPa) = 0.02970867
#
# Stress axis : x y z
#
# Youngs Moduli (GPa) = 173.12458 58.95825 126.39898
#
# Poissons Ratio (x) = 0.07493 0.04889
# Poissons Ratio (y) = 0.22001 -0.15011
# Poissons Ratio (z) = 0.06696 -0.07002
#
# Static dielectric constant tensor:
#      x y z
#    x 1.960340 0.000000 0.000000 
#    y 0.000000 2.056510 0.000000 
#    z 0.000000 0.000000 1.907340 
# 
# From -- ./inp_files/16636.got.cif
#   From: 2010.05.17/outbox.cif.g08.bks.cpg/sg55_9_cif.got.tgz:16636.got - 2010.06.03 13:27:54.
