data_PCOD9424087
_publ_section_title
;
Structure prediction by ZEFSAII (Michael W. Deem and Ramdas Pophale) SiO2 
 PCOD9424087
Probable space group: P C C A
;
_chemical_formula_sum "Si O2"
_cell_formula_units_Z 24
_cell_length_a 10.708910
_cell_length_b 4.849530
_cell_length_c 18.445790
_cell_angle_alpha 90.000000
_cell_angle_beta 90.000000
_cell_angle_gamma 90.000000
_cell_volume 957.948538
_symmetry_space_group_name_H-M "P C C A"
_symmetry_group_IT_number 54
_symmetry_cell_setting 'orthorhombic'
loop_
_space_group_symop_operation_xyz
x,y,z
1/2-x,-y,z
1/2+x,-y,1/2-z
-x,y,1/2-z
-x,-y,-z
1/2+x,y,-z
1/2-x,y,1/2+z
x,-y,1/2+z
loop_
_atom_site_type_symbol
_atom_site_label
_atom_site_fract_x
_atom_site_fract_y
_atom_site_fract_z
Si Si1 0.563858 0.476918 0.615279
Si Si2 0.117088 0.050365 0.794244
Si Si3 0.656064 0.254406 0.464719
O O1 0.653512 0.723611 0.643719
O O2 0.589177 0.297729 0.542443
O O3 0.445034 0.670155 0.595964
O O4 0.563884 0.236871 0.674621
O O5 0.000000 0.172052 0.750000
O O6 0.250000 0.000000 0.754634
O O7 0.750000 0.500000 0.462039
O O8 0.750000 0.000000 0.458387
#
# Coordination Sequence:
#
# PCOD9424087 Si02
#       3
#     8   8   8
#     4  11  24  42  66  97 134 177 223 279 349 414
#     4  12  26  45  68  94 132 182 234 286 341 406
#     4  11  22  39  67 101 136 173 218 278 346 418
#
# _framework density 25.053540000000002
#
# number of rings (size 3 to 8) (size 9 to 14) (size 15 to 20)
#    0.000    0.667    0.000    9.000    0.000    9.333 
#    0.000    0.000    0.000    0.000    0.000    0.000 
#    0.000    0.000    0.000    0.000    0.000    0.000 
#
# Total GULP energy -133898.011893 kJ/mol
# GULP energy per Si atom -5579.083829 kJ/mol
# Density = 2.499652 g / cm^3
# Si number density = 25.053540 Si / 1000 Ang^3
#
#
#
# Elastic Constant Matrix: (Units=GPa)
#
#
# Indices 1 2 3 4 5 6 
#
# 1 155.4984 40.5289 37.3041 0.0000 0.0000 0.0000
# 2 40.5289 216.8818 24.9912 0.0000 0.0000 0.0000
# 3 37.3041 24.9912 76.0703 0.0000 0.0000 0.0000
# 4 0.0000 0.0000 0.0000 31.9734 0.0000 0.0000
# 5 0.0000 0.0000 0.0000 0.0000 35.2712 0.0000
# 6 0.0000 0.0000 0.0000 0.0000 0.0000 63.6375
#
#
#
# Elastic Compliance Matrix: (Units=1/GPa)
#
#
# Indices 1 2 3 4 5 6 
#
# 1 0.007498 -0.001016 -0.003343 0.000000 0.000000 0.000000
# 2 -0.001016 0.004930 -0.001121 0.000000 0.000000 0.000000
# 3 -0.003343 -0.001121 0.015154 0.000000 0.000000 0.000000
# 4 0.000000 0.000000 0.000000 0.031276 0.000000 0.000000
# 5 0.000000 0.000000 0.000000 0.000000 0.028352 0.000000
# 6 0.000000 0.000000 0.000000 0.000000 0.000000 0.015714
#
#
# Mechanical properties :
#
#
# Convention : Reuss Voigt Hill
#
# Bulk Modulus (GPa) = 60.16696 72.67764 66.42230
# Shear Modulus (GPa) = 41.86774 49.21818 45.54296
#
# Velocity S-wave (km/s) = 4.09238 4.43710 4.26822
# Velocity P-wave (km/s) = 6.81158 7.43790 7.13162
#
# Compressibility (1/GPa) = 0.01662042
#
# Stress axis : x y z
#
# Youngs Moduli (GPa) = 133.37402 202.84532 65.99113
#
# Poissons Ratio (x) = 0.20607 0.22061
# Poissons Ratio (y) = 0.13549 0.07400
# Poissons Ratio (z) = 0.44588 0.22747
#
# Static dielectric constant tensor:
#      x y z
#    x 2.051250 0.000000 0.000000 
#    y 0.000000 1.945650 0.000000 
#    z 0.000000 0.000000 1.494390 
# 
# From -- ./inp_files/20710.got.cif
#   From: 2010.05.17/outbox.cif.g08.bks.cpg/sg54_11_cif.got.tgz:20710.got - 2010.06.03 13:09:01.
