data_PCOD9424498
_publ_section_title
;
Structure prediction by ZEFSAII (Michael W. Deem and Ramdas Pophale) SiO2 
 PCOD9424498
Probable space group: P C C A
;
_chemical_formula_sum "Si O2"
_cell_formula_units_Z 24
_cell_length_a 5.119944
_cell_length_b 15.862851
_cell_length_c 13.244258
_cell_angle_alpha 90.000000
_cell_angle_beta 90.000000
_cell_angle_gamma 90.000000
_cell_volume 1075.657694
_symmetry_space_group_name_H-M "P C C A"
_symmetry_group_IT_number 54
_symmetry_cell_setting 'orthorhombic'
loop_
_space_group_symop_operation_xyz
x,y,z
1/2-x,-y,z
1/2+x,-y,1/2-z
-x,y,1/2-z
-x,-y,-z
1/2+x,y,-z
1/2-x,y,1/2+z
x,-y,1/2+z
loop_
_atom_site_type_symbol
_atom_site_label
_atom_site_fract_x
_atom_site_fract_y
_atom_site_fract_z
Si Si1 0.749224 0.321377 0.819772
Si Si2 0.500000 0.053731 0.250000
Si Si3 0.273159 0.156128 0.061445
Si Si4 0.250000 0.500000 0.071996
O O1 0.500000 0.302179 0.750000
O O2 0.770855 0.255119 0.910799
O O3 0.738860 0.416181 0.860822
O O4 0.000000 0.311444 0.750000
O O5 0.374986 0.108765 0.160523
O O6 0.250000 0.000000 0.287445
O O7 0.481826 0.135437 0.974303
O O8 0.500000 0.500000 0.000000
#
# Coordination Sequence:
#
# PCOD9424498 Si02
#       4
#     8   4   8   4
#     4  12  24  43  70 100 141 189 237 289 351 418
#     4  12  28  48  74 106 144 184 236 304 360 434
#     4  12  26  46  74 106 141 188 235 289 358 430
#     4  12  24  42  64 102 142 184 242 292 344 416
#
# _framework density 22.311931999999999
#
# number of rings (size 3 to 8) (size 9 to 14) (size 15 to 20)
#    0.000    0.000    1.667    9.000    2.333    4.000 
#    0.000    0.000    0.000    0.000    0.000    0.000 
#    0.000    0.000    0.000    0.000    0.000    0.000 
#
# Total GULP energy -134518.477271 kJ/mol
# GULP energy per Si atom -5604.936553 kJ/mol
# Density = 2.226115 g / cm^3
# Si number density = 22.311932 Si / 1000 Ang^3
#
#
#
# Elastic Constant Matrix: (Units=GPa)
#
#
# Indices 1 2 3 4 5 6 
#
# 1 174.6777 13.7452 29.4893 0.0000 0.0000 0.0000
# 2 13.7452 93.5247 20.4340 0.0000 0.0000 0.0000
# 3 29.4893 20.4340 72.3324 0.0000 0.0000 0.0000
# 4 0.0000 0.0000 0.0000 -43.6322 0.0000 0.0000
# 5 0.0000 0.0000 0.0000 0.0000 47.1202 0.0000
# 6 0.0000 0.0000 0.0000 0.0000 0.0000 35.3758
#
#
#
# Elastic Compliance Matrix: (Units=1/GPa)
#
#
# Indices 1 2 3 4 5 6 
#
# 1 0.006161 -0.000380 -0.002404 0.000000 0.000000 0.000000
# 2 -0.000380 0.011419 -0.003071 0.000000 0.000000 0.000000
# 3 -0.002404 -0.003071 0.015673 0.000000 0.000000 0.000000
# 4 0.000000 0.000000 0.000000 -0.022919 0.000000 0.000000
# 5 0.000000 0.000000 0.000000 0.000000 0.021222 0.000000
# 6 0.000000 0.000000 0.000000 0.000000 0.000000 0.028268
#
#
# Mechanical properties :
#
#
# Convention : Reuss Voigt Hill
#
# Bulk Modulus (GPa) = 46.42103 51.98575 49.20339
# Shear Modulus (GPa) = 63.51999 26.23050 44.87524
#
# Velocity S-wave (km/s) = 5.34143 3.43246 4.48958
# Velocity P-wave (km/s) = 7.67410 6.24973 6.99825
#
# Compressibility (1/GPa) = 0.02154196
#
# Stress axis : x y z
#
# Youngs Moduli (GPa) = 162.32107 87.57181 63.80477
#
# Poissons Ratio (x) = 0.03329 0.15340
# Poissons Ratio (y) = 0.06170 0.19594
# Poissons Ratio (z) = 0.39026 0.26893
#
# Static dielectric constant tensor:
#      x y z
#    x 1.754930 0.000000 0.000000 
#    y 0.000000 1.710420 0.000000 
#    z 0.000000 0.000000 1.792140 
# 
# From -- ./inp_files/10673.got.cif
#   From: 2010.05.17/outbox.cif.g08.bks.cpg/sg54_6_cif.got.tgz:10673.got - 2010.06.03 13:09:01.
