data_PCOD9424458
_publ_section_title
;
Structure prediction by ZEFSAII (Michael W. Deem and Ramdas Pophale) SiO2 
 PCOD9424458
Probable space group: P C C A
;
_chemical_formula_sum "Si O2"
_cell_formula_units_Z 24
_cell_length_a 16.602324
_cell_length_b 4.762228
_cell_length_c 12.854983
_cell_angle_alpha 90.000000
_cell_angle_beta 90.000000
_cell_angle_gamma 90.000000
_cell_volume 1016.367047
_symmetry_space_group_name_H-M "P C C A"
_symmetry_group_IT_number 54
_symmetry_cell_setting 'orthorhombic'
loop_
_space_group_symop_operation_xyz
x,y,z
1/2-x,-y,z
1/2+x,-y,1/2-z
-x,y,1/2-z
-x,-y,-z
1/2+x,y,-z
1/2-x,y,1/2+z
x,-y,1/2+z
loop_
_atom_site_type_symbol
_atom_site_label
_atom_site_fract_x
_atom_site_fract_y
_atom_site_fract_z
Si Si1 0.065815 0.756498 0.820502
Si Si2 0.409359 0.951551 0.621138
Si Si3 0.844648 0.451613 0.497749
O O1 0.115211 0.939913 0.736497
O O2 0.000000 0.588413 0.750000
O O3 0.003961 0.966097 0.880115
O O4 0.115273 0.562385 0.896423
O O5 0.363846 0.135530 0.534376
O O6 0.386348 0.637928 0.592772
O O7 0.750000 0.500000 0.500087
#
# Coordination Sequence:
#
# PCOD9424458 Si02
#       3
#     8   8   8
#     4   8  22  41  68  91 127 177 226 263 312 403
#     4   9  23  40  64  92 127 170 219 265 318 391
#     4  12  22  40  63  97 131 167 210 280 333 380
#
# _framework density 23.613517999999999
#
# number of rings (size 3 to 8) (size 9 to 14) (size 15 to 20)
#    2.000    0.000    0.000    3.000    0.000    9.333 
#    0.000    3.333    0.000    0.000    0.000    0.000 
#    0.000    0.000    0.000    0.000    0.000    0.000 
#
# Total GULP energy -134072.601555 kJ/mol
# GULP energy per Si atom -5586.358398 kJ/mol
# Density = 2.355977 g / cm^3
# Si number density = 23.613518 Si / 1000 Ang^3
#
#
#
# Elastic Constant Matrix: (Units=GPa)
#
#
# Indices 1 2 3 4 5 6 
#
# 1 114.6510 10.4511 36.9819 0.0000 0.0000 0.0000
# 2 10.4511 61.4328 1.5793 0.0000 0.0000 0.0000
# 3 36.9819 1.5793 118.4265 0.0000 0.0000 0.0000
# 4 0.0000 0.0000 0.0000 18.7112 0.0000 0.0000
# 5 0.0000 0.0000 0.0000 0.0000 0.8662 0.0000
# 6 0.0000 0.0000 0.0000 0.0000 0.0000 21.5122
#
#
#
# Elastic Compliance Matrix: (Units=1/GPa)
#
#
# Indices 1 2 3 4 5 6 
#
# 1 0.009853 -0.001598 -0.003056 0.000000 0.000000 0.000000
# 2 -0.001598 0.016543 0.000278 0.000000 0.000000 0.000000
# 3 -0.003056 0.000278 0.009395 0.000000 0.000000 0.000000
# 4 0.000000 0.000000 0.000000 0.053444 0.000000 0.000000
# 5 0.000000 0.000000 0.000000 0.000000 1.154512 0.000000
# 6 0.000000 0.000000 0.000000 0.000000 0.000000 0.046485
#
#
# Mechanical properties :
#
#
# Convention : Reuss Voigt Hill
#
# Bulk Modulus (GPa) = 36.98171 43.61498 40.29834
# Shear Modulus (GPa) = 3.82264 24.58444 14.20354
#
# Velocity S-wave (km/s) = 1.27372 3.23014 2.45521
# Velocity P-wave (km/s) = 4.22592 5.69404 5.01401
#
# Compressibility (1/GPa) = 0.02704040
#
# Stress axis : x y z
#
# Youngs Moduli (GPa) = 101.48769 60.45000 106.44449
#
# Poissons Ratio (x) = 0.09658 0.32526
# Poissons Ratio (y) = 0.16215 -0.02963
# Poissons Ratio (z) = 0.31011 -0.01682
#
# Static dielectric constant tensor:
#      x y z
#    x 1.845200 0.000000 0.000000 
#    y 0.000000 1.873800 0.000000 
#    z 0.000000 0.000000 1.977380 
# 
# From -- ./inp_files/8596.got.cif
#   From: 2010.05.17/outbox.cif.g08.bks.cpg/sg54_5_cif.got.tgz:8596.got - 2010.06.03 13:09:01.
