data_PCOD9424383
_publ_section_title
;
Structure prediction by ZEFSAII (Michael W. Deem and Ramdas Pophale) SiO2 
 PCOD9424383
Probable space group: P C C A
;
_chemical_formula_sum "Si O2"
_cell_formula_units_Z 32
_cell_length_a 12.724405
_cell_length_b 5.243482
_cell_length_c 19.441422
_cell_angle_alpha 90.000000
_cell_angle_beta 90.000000
_cell_angle_gamma 90.000000
_cell_volume 1297.135342
_symmetry_space_group_name_H-M "P C C A"
_symmetry_group_IT_number 54
_symmetry_cell_setting 'orthorhombic'
loop_
_space_group_symop_operation_xyz
x,y,z
1/2-x,-y,z
1/2+x,-y,1/2-z
-x,y,1/2-z
-x,-y,-z
1/2+x,y,-z
1/2-x,y,1/2+z
x,-y,1/2+z
loop_
_atom_site_type_symbol
_atom_site_label
_atom_site_fract_x
_atom_site_fract_y
_atom_site_fract_z
Si Si1 0.250000 0.000000 0.240497
Si Si2 0.750000 0.500000 0.849799
Si Si3 0.364140 0.391197 0.441063
Si Si4 0.558185 0.243265 0.926124
Si Si5 0.944132 0.902340 0.182727
O O1 0.272703 0.248318 0.194753
O O2 0.352329 0.923651 0.285087
O O3 0.646409 0.430299 0.893885
O O4 0.250000 0.500000 0.453196
O O5 0.392524 0.179543 0.499242
O O6 0.450783 0.612003 0.443640
O O7 0.378890 0.284701 0.365116
O O8 0.526946 0.038975 0.868108
O O9 0.000000 0.788154 0.250000
#
# Coordination Sequence:
#
# PCOD9424383 Si02
#       5
#     4   4   8   8   8
#     4  12  28  46  80 114 162 204 264 322 412 474
#     4  12  26  52  76 122 154 214 258 336 402 482
#     4  11  25  47  74 107 151 206 269 329 404 477
#     4  11  25  47  74 108 152 205 270 328 401 475
#     4  12  25  45  71 112 151 210 255 338 391 496
#
# _framework density 24.669747999999998
#
# number of rings (size 3 to 8) (size 9 to 14) (size 15 to 20)
#    0.000    0.500    3.750    3.750    5.250    1.000 
#    0.000    0.000    0.000    0.000    0.000    0.000 
#    0.000    0.000    0.000    0.000    0.000    0.000 
#
# Total GULP energy -179038.184063 kJ/mol
# GULP energy per Si atom -5594.943252 kJ/mol
# Density = 2.461360 g / cm^3
# Si number density = 24.669748 Si / 1000 Ang^3
#
#
#
# Elastic Constant Matrix: (Units=GPa)
#
#
# Indices 1 2 3 4 5 6 
#
# 1 171.4106 23.4639 46.5301 0.0000 0.0000 0.0000
# 2 23.4639 71.8497 33.4243 0.0000 0.0000 0.0000
# 3 46.5301 33.4243 164.0467 0.0000 0.0000 0.0000
# 4 0.0000 0.0000 0.0000 35.5251 0.0000 0.0000
# 5 0.0000 0.0000 0.0000 0.0000 8.8264 0.0000
# 6 0.0000 0.0000 0.0000 0.0000 0.0000 25.8612
#
#
#
# Elastic Compliance Matrix: (Units=1/GPa)
#
#
# Indices 1 2 3 4 5 6 
#
# 1 0.006443 -0.001385 -0.001545 0.000000 0.000000 0.000000
# 2 -0.001385 0.015673 -0.002800 0.000000 0.000000 0.000000
# 3 -0.001545 -0.002800 0.007105 0.000000 0.000000 0.000000
# 4 0.000000 0.000000 0.000000 0.028149 0.000000 0.000000
# 5 0.000000 0.000000 0.000000 0.000000 0.113297 0.000000
# 6 0.000000 0.000000 0.000000 0.000000 0.000000 0.038668
#
#
# Mechanical properties :
#
#
# Convention : Reuss Voigt Hill
#
# Bulk Modulus (GPa) = 56.30978 68.23819 62.27399
# Shear Modulus (GPa) = 22.05401 34.30178 28.17790
#
# Velocity S-wave (km/s) = 2.99318 3.73290 3.38332
# Velocity P-wave (km/s) = 5.90089 6.80442 6.36870
#
# Compressibility (1/GPa) = 0.01775890
#
# Stress axis : x y z
#
# Youngs Moduli (GPa) = 155.20639 63.80360 140.75173
#
# Poissons Ratio (x) = 0.08838 0.21750
# Poissons Ratio (y) = 0.21500 0.39417
# Poissons Ratio (z) = 0.23983 0.17868
#
# Static dielectric constant tensor:
#      x y z
#    x 1.992830 0.000000 0.000000 
#    y 0.000000 1.933030 0.000000 
#    z 0.000000 0.000000 2.213240 
# 
# From -- ./inp_files/20858.got.cif
#   From: 2010.05.17/outbox.cif.g08.bks.cpg/sg54_11_cif.got.tgz:20858.got - 2010.06.03 13:09:01.
