data_PCOD9424397
_publ_section_title
;
Structure prediction by ZEFSAII (Michael W. Deem and Ramdas Pophale) SiO2 
 PCOD9424397
Probable space group: P C C A
;
_chemical_formula_sum "Si O2"
_cell_formula_units_Z 32
_cell_length_a 7.124002
_cell_length_b 12.481758
_cell_length_c 12.998673
_cell_angle_alpha 90.000000
_cell_angle_beta 90.000000
_cell_angle_gamma 90.000000
_cell_volume 1155.842899
_symmetry_space_group_name_H-M "P C C A"
_symmetry_group_IT_number 54
_symmetry_cell_setting 'orthorhombic'
loop_
_space_group_symop_operation_xyz
x,y,z
1/2-x,-y,z
1/2+x,-y,1/2-z
-x,y,1/2-z
-x,-y,-z
1/2+x,y,-z
1/2-x,y,1/2+z
x,-y,1/2+z
loop_
_atom_site_type_symbol
_atom_site_label
_atom_site_fract_x
_atom_site_fract_y
_atom_site_fract_z
Si Si1 0.245480 0.172423 0.067578
Si Si2 0.547945 0.672425 0.069326
Si Si3 0.029011 0.993313 0.367175
Si Si4 0.964318 0.542603 0.359937
O O1 0.310645 0.232561 0.963047
O O2 0.923838 0.121069 0.876648
O O3 0.128124 0.267012 0.120530
O O4 0.094804 0.075386 0.064431
O O5 0.588205 0.566966 0.134043
O O6 0.499189 0.618532 0.957667
O O7 0.000000 0.030305 0.250000
O O8 0.250000 0.000000 0.384345
O O9 0.750000 0.500000 0.370595
O O10 0.000000 0.594895 0.250000
#
# Coordination Sequence:
#
# PCOD9424397 Si02
#       4
#     8   8   8   8
#     4  11  26  47  78 112 156 223 256 345 394 470
#     4  11  26  51  72 116 166 201 278 325 406 486
#     4  11  25  50  76 118 166 206 276 339 403 484
#     4  11  26  48  79 115 159 213 259 335 416 481
#
# _framework density 27.685421999999999
#
# number of rings (size 3 to 8) (size 9 to 14) (size 15 to 20)
#    0.000    1.000    5.000    0.000    7.000    6.000 
#    0.000    0.000    0.000    0.000    0.000    0.000 
#    0.000    0.000    0.000    0.000    0.000    0.000 
#
# Total GULP energy -179012.122593 kJ/mol
# GULP energy per Si atom -5594.128831 kJ/mol
# Density = 2.762241 g / cm^3
# Si number density = 27.685422 Si / 1000 Ang^3
#
#
#
# Elastic Constant Matrix: (Units=GPa)
#
#
# Indices 1 2 3 4 5 6 
#
# 1 206.4120 94.2533 39.6276 0.0000 0.0000 0.0000
# 2 94.2533 176.4697 20.0362 0.0000 0.0000 0.0000
# 3 39.6276 20.0362 106.1926 0.0000 0.0000 0.0000
# 4 0.0000 0.0000 0.0000 27.5877 0.0000 0.0000
# 5 0.0000 0.0000 0.0000 0.0000 40.8991 0.0000
# 6 0.0000 0.0000 0.0000 0.0000 0.0000 76.1831
#
#
#
# Elastic Compliance Matrix: (Units=1/GPa)
#
#
# Indices 1 2 3 4 5 6 
#
# 1 0.006756 -0.003395 -0.001881 0.000000 0.000000 0.000000
# 2 -0.003395 0.007497 -0.000148 0.000000 0.000000 0.000000
# 3 -0.001881 -0.000148 0.010146 0.000000 0.000000 0.000000
# 4 0.000000 0.000000 0.000000 0.036248 0.000000 0.000000
# 5 0.000000 0.000000 0.000000 0.000000 0.024450 0.000000
# 6 0.000000 0.000000 0.000000 0.000000 0.000000 0.013126
#
#
# Mechanical properties :
#
#
# Convention : Reuss Voigt Hill
#
# Bulk Modulus (GPa) = 73.78432 88.54540 81.16486
# Shear Modulus (GPa) = 44.01898 51.27780 47.64839
#
# Velocity S-wave (km/s) = 3.99177 4.30834 4.15307
# Velocity P-wave (km/s) = 6.92491 7.53666 7.23725
#
# Compressibility (1/GPa) = 0.01355301
#
# Stress axis : x y z
#
# Youngs Moduli (GPa) = 148.01904 133.39289 98.55652
#
# Poissons Ratio (x) = 0.45285 0.18534
# Poissons Ratio (y) = 0.50250 0.01455
# Poissons Ratio (z) = 0.27836 0.01969
#
# Static dielectric constant tensor:
#      x y z
#    x 2.275470 0.000000 0.000000 
#    y 0.000000 2.143110 0.000000 
#    z 0.000000 0.000000 2.096730 
# 
# From -- ./inp_files/11234.got.cif
#   From: 2010.05.17/outbox.cif.g08.bks.cpg/sg54_6_cif.got.tgz:11234.got - 2010.06.03 13:09:01.
