data_PCOD9424393
_publ_section_title
;
Structure prediction by ZEFSAII (Michael W. Deem and Ramdas Pophale) SiO2 
 PCOD9424393
Probable space group: P C C A
;
_chemical_formula_sum "Si O2"
_cell_formula_units_Z 40
_cell_length_a 12.926235
_cell_length_b 7.664159
_cell_length_c 13.743374
_cell_angle_alpha 90.000000
_cell_angle_beta 90.000000
_cell_angle_gamma 90.000000
_cell_volume 1361.538475
_symmetry_space_group_name_H-M "P C C A"
_symmetry_group_IT_number 54
_symmetry_cell_setting 'orthorhombic'
loop_
_space_group_symop_operation_xyz
x,y,z
1/2-x,-y,z
1/2+x,-y,1/2-z
-x,y,1/2-z
-x,-y,-z
1/2+x,y,-z
1/2-x,y,1/2+z
x,-y,1/2+z
loop_
_atom_site_type_symbol
_atom_site_label
_atom_site_fract_x
_atom_site_fract_y
_atom_site_fract_z
Si Si1 0.905471 0.905348 0.174673
Si Si2 0.380914 0.774102 0.218537
Si Si3 0.860819 0.594148 0.420105
Si Si4 0.867732 0.003058 0.967782
Si Si5 0.595989 0.517268 0.639223
O O1 0.865437 0.712878 0.155413
O O2 0.000000 0.876583 0.250000
O O3 0.841892 0.057909 0.223983
O O4 0.933896 0.976788 0.066963
O O5 0.500000 0.778219 0.250000
O O6 0.352447 0.603368 0.279258
O O7 0.373696 0.836931 0.106402
O O8 0.750000 0.500000 0.394158
O O9 0.867024 0.805927 0.415206
O O10 0.874554 0.552230 0.533667
O O11 0.967903 0.527881 0.367669
O O12 0.750000 0.000000 0.007786
#
# Coordination Sequence:
#
# PCOD9424393 Si02
#       5
#     8   8   8   8   8
#     4  11  25  50  83 120 161 220 292 351 439 538
#     4  11  26  46  79 120 163 224 282 351 435 529
#     4  11  25  48  86 126 170 232 302 372 443 531
#     4  12  28  52  86 125 179 230 294 376 447 525
#     4  11  25  49  83 119 169 227 288 365 449 525
#
# _framework density 29.378530000000001
#
# number of rings (size 3 to 8) (size 9 to 14) (size 15 to 20)
#    0.000    0.800    2.000    4.200    8.400    4.800 
#    3.600    0.000    0.000    0.000    0.000    0.000 
#    0.000    0.000    0.000    0.000    0.000    0.000 
#
# Total GULP energy -223751.180634 kJ/mol
# GULP energy per Si atom -5593.779516 kJ/mol
# Density = 2.931166 g / cm^3
# Si number density = 29.378530 Si / 1000 Ang^3
#
#
#
# Elastic Constant Matrix: (Units=GPa)
#
#
# Indices 1 2 3 4 5 6 
#
# 1 154.7721 36.5877 50.5333 0.0000 0.0000 0.0000
# 2 36.5877 203.2259 65.1984 0.0000 0.0000 0.0000
# 3 50.5333 65.1984 220.9520 0.0000 0.0000 0.0000
# 4 0.0000 0.0000 0.0000 61.9111 0.0000 0.0000
# 5 0.0000 0.0000 0.0000 0.0000 -25.4672 0.0000
# 6 0.0000 0.0000 0.0000 0.0000 0.0000 3.5380
#
#
#
# Elastic Compliance Matrix: (Units=1/GPa)
#
#
# Indices 1 2 3 4 5 6 
#
# 1 0.007109 -0.000838 -0.001379 0.000000 0.000000 0.000000
# 2 -0.000838 0.005534 -0.001441 0.000000 0.000000 0.000000
# 3 -0.001379 -0.001441 0.005267 0.000000 0.000000 0.000000
# 4 0.000000 0.000000 0.000000 0.016152 0.000000 0.000000
# 5 0.000000 0.000000 0.000000 0.000000 -0.039266 0.000000
# 6 0.000000 0.000000 0.000000 0.000000 0.000000 0.282643
#
#
# Mechanical properties :
#
#
# Convention : Reuss Voigt Hill
#
# Bulk Modulus (GPa) = 94.39137 98.17654 96.28396
# Shear Modulus (GPa) = 17.34395 36.43844 26.89119
#
# Velocity S-wave (km/s) = 2.43237 3.52562 3.02873
# Velocity P-wave (km/s) = 6.33148 7.07557 6.71384
#
# Compressibility (1/GPa) = 0.01059419
#
# Stress axis : x y z
#
# Youngs Moduli (GPa) = 140.66096 180.70637 189.87846
#
# Poissons Ratio (x) = 0.15136 0.26180
# Poissons Ratio (y) = 0.11781 0.27368
# Poissons Ratio (z) = 0.19394 0.26046
#
# Static dielectric constant tensor:
#      x y z
#    x 2.497800 0.000000 0.000000 
#    y 0.000000 2.435060 0.000000 
#    z 0.000000 0.000000 2.220880 
# 
# From -- ./inp_files/8735.got.cif
#   From: 2010.05.17/outbox.cif.g08.bks.cpg/sg54_5_cif.got.tgz:8735.got - 2010.06.03 13:09:01.
