data_PCOD9424135
_publ_section_title
;
Structure prediction by ZEFSAII (Michael W. Deem and Ramdas Pophale) SiO2 
 PCOD9424135
Probable space group: P C C A
;
_chemical_formula_sum "Si O2"
_cell_formula_units_Z 48
_cell_length_a 8.242771
_cell_length_b 14.313302
_cell_length_c 18.503093
_cell_angle_alpha 90.000000
_cell_angle_beta 90.000000
_cell_angle_gamma 90.000000
_cell_volume 2183.018423
_symmetry_space_group_name_H-M "P C C A"
_symmetry_group_IT_number 54
_symmetry_cell_setting 'orthorhombic'
loop_
_space_group_symop_operation_xyz
x,y,z
1/2-x,-y,z
1/2+x,-y,1/2-z
-x,y,1/2-z
-x,-y,-z
1/2+x,y,-z
1/2-x,y,1/2+z
x,-y,1/2+z
loop_
_atom_site_type_symbol
_atom_site_label
_atom_site_fract_x
_atom_site_fract_y
_atom_site_fract_z
Si Si1 0.859753 0.072883 0.016582
Si Si2 0.000000 0.801660 0.750000
Si Si3 0.375496 0.167731 0.599300
Si Si4 0.911482 0.374610 0.420927
Si Si5 0.165117 0.312217 0.780495
Si Si6 0.250000 0.500000 0.693749
Si Si7 0.721496 0.603522 0.578287
O O1 0.760492 0.111824 0.947067
O O2 0.750000 0.000000 0.062274
O O3 0.955319 0.154209 0.056170
O O4 0.000000 0.000000 0.000000
O O5 0.925968 0.857287 0.818621
O O6 0.840790 0.739770 0.726166
O O7 0.327981 0.276955 0.600323
O O8 0.879113 0.452997 0.360915
O O9 0.854504 0.404805 0.499776
O O10 0.100086 0.355813 0.427327
O O11 0.187185 0.412454 0.740230
O O12 0.128689 0.333943 0.864359
O O13 0.000000 0.265788 0.750000
O O14 0.750000 0.500000 0.607826
#
# Coordination Sequence:
#
# PCOD9424135 Si02
#       7
#     8   4   8   8   8   4   8
#     4   9  21  45  76 108 136 183 226 282 378 484
#     4  12  26  48  62 110 152 186 246 316 366 428
#     4  11  22  43  73 104 148 182 237 307 374 444
#     4  12  25  39  63  95 136 182 244 310 354 421
#     4  12  26  42  65  86 138 202 251 301 375 431
#     4  12  24  42  62  92 138 200 252 310 372 430
#     4  12  24  40  57  90 128 184 253 309 355 417
#
# _framework density 21.987905999999999
#
# number of rings (size 3 to 8) (size 9 to 14) (size 15 to 20)
#    0.000    0.667    5.000    2.500    3.500    1.333 
#    3.000    2.500    0.000    0.000    0.000    0.000 
#    0.000    0.000    0.000    0.000    0.000    0.000 
#
# Total GULP energy -267531.903526 kJ/mol
# GULP energy per Si atom -5573.581323 kJ/mol
# Density = 2.193786 g / cm^3
# Si number density = 21.987906 Si / 1000 Ang^3
#
#
#
# Elastic Constant Matrix: (Units=GPa)
#
#
# Indices 1 2 3 4 5 6 
#
# 1 90.4574 19.5646 27.0295 0.0000 0.0000 0.0000
# 2 19.5646 66.8474 3.8708 0.0000 0.0000 0.0000
# 3 27.0295 3.8708 125.6405 0.0000 0.0000 0.0000
# 4 0.0000 0.0000 0.0000 27.4010 0.0000 0.0000
# 5 0.0000 0.0000 0.0000 0.0000 24.1133 0.0000
# 6 0.0000 0.0000 0.0000 0.0000 0.0000 25.1764
#
#
#
# Elastic Compliance Matrix: (Units=1/GPa)
#
#
# Indices 1 2 3 4 5 6 
#
# 1 0.012597 -0.003536 -0.002601 0.000000 0.000000 0.000000
# 2 -0.003536 0.015979 0.000268 0.000000 0.000000 0.000000
# 3 -0.002601 0.000268 0.008511 0.000000 0.000000 0.000000
# 4 0.000000 0.000000 0.000000 0.036495 0.000000 0.000000
# 5 0.000000 0.000000 0.000000 0.000000 0.041471 0.000000
# 6 0.000000 0.000000 0.000000 0.000000 0.000000 0.039720
#
#
# Mechanical properties :
#
#
# Convention : Reuss Voigt Hill
#
# Bulk Modulus (GPa) = 39.44974 42.65280 41.05127
# Shear Modulus (GPa) = 28.57807 30.83682 29.70744
#
# Velocity S-wave (km/s) = 3.60907 3.74899 3.67969
# Velocity P-wave (km/s) = 5.94539 6.17902 6.06333
#
# Compressibility (1/GPa) = 0.02534871
#
# Stress axis : x y z
#
# Youngs Moduli (GPa) = 79.38402 62.58267 117.50150
#
# Poissons Ratio (x) = 0.22131 0.30563
# Poissons Ratio (y) = 0.28072 -0.03155
# Poissons Ratio (z) = 0.20649 -0.01680
#
# Static dielectric constant tensor:
#      x y z
#    x 1.773900 0.000000 0.000000 
#    y 0.000000 1.868810 0.000000 
#    z 0.000000 0.000000 1.860080 
# 
# From -- ./inp_files/16685.got.cif
#   From: 2010.05.17/outbox.cif.g08.bks.cpg/sg54_9_cif.got.tgz:16685.got - 2010.06.03 13:09:01.
