data_PCOD9424802
_publ_section_title
;
Structure prediction by ZEFSAII (Michael W. Deem and Ramdas Pophale) SiO2 
 PCOD9424802
Probable space group: P B A M
;
_chemical_formula_sum "Si O2"
_cell_formula_units_Z 48
_cell_length_a 21.783807
_cell_length_b 8.960048
_cell_length_c 13.271387
_cell_angle_alpha 90.000000
_cell_angle_beta 90.000000
_cell_angle_gamma 90.000000
_cell_volume 2590.361821
_symmetry_space_group_name_H-M "P B A M"
_symmetry_group_IT_number 55
_symmetry_cell_setting 'orthorhombic'
loop_
_space_group_symop_operation_xyz
x,y,z
-x,-y,z
1/2+x,1/2-y,-z
1/2-x,1/2+y,-z
-x,-y,-z
x,y,-z
1/2-x,1/2+y,z
1/2+x,1/2-y,z
loop_
_atom_site_type_symbol
_atom_site_label
_atom_site_fract_x
_atom_site_fract_y
_atom_site_fract_z
Si Si1 0.335350 0.156563 0.700033
Si Si2 0.257686 0.402583 0.239748
Si Si3 0.440738 0.810923 0.175793
Si Si4 0.077137 0.652911 0.884300
Si Si5 0.570097 0.053344 0.609829
Si Si6 0.179225 0.156329 0.117543
O O1 0.296803 0.305312 0.681074
O O2 0.367748 0.186476 0.808302
O O3 0.288662 0.018902 0.709990
O O4 0.388368 0.093072 0.628976
O O5 0.217839 0.287005 0.173157
O O6 0.301136 0.502787 0.169523
O O7 0.512568 0.780558 0.156176
O O8 0.424967 0.839199 0.293525
O O9 0.392485 0.694251 0.132458
O O10 0.429585 0.972491 0.123654
O O11 0.087577 0.695237 0.000000
O O12 0.584640 0.118392 0.500000
O O13 0.500000 0.000000 0.610981
O O14 0.194311 0.154683 0.000000
#
# Coordination Sequence:
#
# PCOD9424802 Si02
#       6
#     8   8   8   8   8   8
#     4  10  20  37  53  79 110 143 185 226 273 318
#     4  10  22  34  52  73 114 151 185 220 265 320
#     4  10  17  31  50  79 107 135 176 225 276 317
#     4  10  17  28  50  76 106 140 178 220 268 320
#     4  10  18  34  62  88 103 129 183 238 281 323
#     4  11  20  33  52  79 112 151 189 222 263 324
#
# _framework density 18.530228999999999
#
# number of rings (size 3 to 8) (size 9 to 14) (size 15 to 20)
#    0.000    1.833    6.667    2.500    0.000    3.333 
#    0.000    1.667    0.000    3.000    0.000    2.333 
#    0.000    0.000    0.000    0.000    0.000    0.000 
#
# Total GULP energy -267632.926135 kJ/mol
# GULP energy per Si atom -5575.685961 kJ/mol
# Density = 1.848805 g / cm^3
# Si number density = 18.530229 Si / 1000 Ang^3
#
#
#
# Elastic Constant Matrix: (Units=GPa)
#
#
# Indices 1 2 3 4 5 6 
#
# 1 102.6838 36.5247 3.3679 0.0000 0.0000 0.0000
# 2 36.5247 68.4375 2.6080 0.0000 0.0000 0.0000
# 3 3.3679 2.6080 71.3936 0.0000 0.0000 0.0000
# 4 0.0000 0.0000 0.0000 5.0644 0.0000 0.0000
# 5 0.0000 0.0000 0.0000 0.0000 -16.5171 0.0000
# 6 0.0000 0.0000 0.0000 0.0000 0.0000 14.7110
#
#
#
# Elastic Compliance Matrix: (Units=1/GPa)
#
#
# Indices 1 2 3 4 5 6 
#
# 1 0.012028 -0.006407 -0.000333 0.000000 0.000000 0.000000
# 2 -0.006407 0.018045 -0.000357 0.000000 0.000000 0.000000
# 3 -0.000333 -0.000357 0.014036 0.000000 0.000000 0.000000
# 4 0.000000 0.000000 0.000000 0.197456 0.000000 0.000000
# 5 0.000000 0.000000 0.000000 0.000000 -0.060543 0.000000
# 6 0.000000 0.000000 0.000000 0.000000 0.000000 0.067976
#
#
# Mechanical properties :
#
#
# Convention : Reuss Voigt Hill
#
# Bulk Modulus (GPa) = 33.42851 36.39067 34.90959
# Shear Modulus (GPa) = 18.30405 13.98595 16.14500
#
# Velocity S-wave (km/s) = 3.14633 2.75028 2.95495
# Velocity P-wave (km/s) = 5.59270 5.45587 5.52471
#
# Compressibility (1/GPa) = 0.02991458
#
# Stress axis : x y z
#
# Youngs Moduli (GPa) = 83.13598 55.41767 71.24723
#
# Poissons Ratio (x) = 0.35505 0.02375
# Poissons Ratio (y) = 0.53264 0.02543
# Poissons Ratio (z) = 0.02772 0.01978
#
# Static dielectric constant tensor:
#      x y z
#    x 1.681810 0.000000 0.000000 
#    y 0.000000 1.612120 0.000000 
#    z 0.000000 0.000000 1.655290 
# 
# From -- ./inp_files/19867.got.cif
#   From: 2010.05.17/outbox.cif.g08.bks.cpg/sg55_10_cif.got.tgz:19867.got - 2010.06.03 13:27:54.
