data_PCOD9424317
_publ_section_title
;
Structure prediction by ZEFSAII (Michael W. Deem and Ramdas Pophale) SiO2 
 PCOD9424317
Probable space group: P C C A
;
_chemical_formula_sum "Si O2"
_cell_formula_units_Z 40
_cell_length_a 9.945027
_cell_length_b 15.761962
_cell_length_c 9.793716
_cell_angle_alpha 90.000000
_cell_angle_beta 90.000000
_cell_angle_gamma 90.000000
_cell_volume 1535.195712
_symmetry_space_group_name_H-M "P C C A"
_symmetry_group_IT_number 54
_symmetry_cell_setting 'orthorhombic'
loop_
_space_group_symop_operation_xyz
x,y,z
1/2-x,-y,z
1/2+x,-y,1/2-z
-x,y,1/2-z
-x,-y,-z
1/2+x,y,-z
1/2-x,y,1/2+z
x,-y,1/2+z
loop_
_atom_site_type_symbol
_atom_site_label
_atom_site_fract_x
_atom_site_fract_y
_atom_site_fract_z
Si Si1 0.697825 0.142200 0.337361
Si Si2 0.574713 0.345902 0.963891
Si Si3 0.000000 0.404637 0.750000
Si Si4 0.250000 0.500000 0.662838
Si Si5 0.675023 0.243568 0.580840
Si Si6 0.924037 0.030678 0.369432
O O1 0.613665 0.185399 0.458510
O O2 0.755804 0.198740 0.213348
O O3 0.817797 0.098344 0.421468
O O4 0.630915 0.053532 0.290848
O O5 0.499564 0.357686 0.108033
O O6 0.701201 0.286275 0.998185
O O7 0.650756 0.432596 0.914777
O O8 0.446684 0.307640 0.880466
O O9 0.141319 0.452572 0.754133
O O10 0.000000 0.079469 0.250000
O O11 0.000000 0.000000 0.500000
#
# Coordination Sequence:
#
# PCOD9424317 Si02
#       6
#     8   8   4   4   8   8
#     4  11  27  47  71 114 154 208 269 328 405 483
#     4  12  28  51  74 117 153 210 265 335 426 494
#     4  12  26  50  78 110 152 204 262 338 400 514
#     4  12  28  50  82 110 154 210 276 332 418 520
#     4  12  28  47  79 110 160 204 262 341 406 484
#     4  11  24  45  76 105 151 212 266 329 387 481
#
# _framework density 26.055306999999999
#
# number of rings (size 3 to 8) (size 9 to 14) (size 15 to 20)
#    0.000    0.400    2.000    4.800   11.200    3.200 
#    0.000    0.000    0.000    0.000    0.000    0.000 
#    0.000    0.000    0.000    0.000    0.000    0.000 
#
# Total GULP energy -223133.471313 kJ/mol
# GULP energy per Si atom -5578.336783 kJ/mol
# Density = 2.599600 g / cm^3
# Si number density = 26.055307 Si / 1000 Ang^3
#
#
#
# Elastic Constant Matrix: (Units=GPa)
#
#
# Indices 1 2 3 4 5 6 
#
# 1 123.6948 20.3016 6.0893 0.0000 0.0000 0.0000
# 2 20.3016 78.8127 21.3800 0.0000 0.0000 0.0000
# 3 6.0893 21.3800 109.2067 0.0000 0.0000 0.0000
# 4 0.0000 0.0000 0.0000 187.8062 0.0000 0.0000
# 5 0.0000 0.0000 0.0000 0.0000 39.6529 0.0000
# 6 0.0000 0.0000 0.0000 0.0000 0.0000 59.7638
#
#
#
# Elastic Compliance Matrix: (Units=1/GPa)
#
#
# Indices 1 2 3 4 5 6 
#
# 1 0.008442 -0.002162 -0.000048 0.000000 0.000000 0.000000
# 2 -0.002162 0.013953 -0.002611 0.000000 0.000000 0.000000
# 3 -0.000048 -0.002611 0.009671 0.000000 0.000000 0.000000
# 4 0.000000 0.000000 0.000000 0.005325 0.000000 0.000000
# 5 0.000000 0.000000 0.000000 0.000000 0.025219 0.000000
# 6 0.000000 0.000000 0.000000 0.000000 0.000000 0.016733
#
#
# Mechanical properties :
#
#
# Convention : Reuss Voigt Hill
#
# Bulk Modulus (GPa) = 44.59273 45.25066 44.92169
# Shear Modulus (GPa) = 51.83628 75.04080 63.43854
#
# Velocity S-wave (km/s) = 4.46519 5.37244 4.93969
# Velocity P-wave (km/s) = 6.61329 7.47589 7.05779
#
# Compressibility (1/GPa) = 0.02242518
#
# Stress axis : x y z
#
# Youngs Moduli (GPa) = 118.46199 71.66664 103.40389
#
# Poissons Ratio (x) = 0.15491 0.00491
# Poissons Ratio (y) = 0.25607 0.27001
# Poissons Ratio (z) = 0.00563 0.18714
#
# Static dielectric constant tensor:
#      x y z
#    x 2.097920 0.000000 0.000000 
#    y 0.000000 2.297980 0.000000 
#    z 0.000000 0.000000 1.970240 
# 
# From -- ./inp_files/2958.got.cif
#   From: 2010.05.17/outbox.cif.g08.bks.cpg/sg54_2_cif.got.tgz:2958.got - 2010.06.03 13:09:01.
