data_PCOD9424749
_publ_section_title
;
Structure prediction by ZEFSAII (Michael W. Deem and Ramdas Pophale) SiO2 
 PCOD9424749
Probable space group: P B A M
;
_chemical_formula_sum "Si O2"
_cell_formula_units_Z 54
_cell_length_a 17.155525
_cell_length_b 5.120219
_cell_length_c 33.123191
_cell_angle_alpha 90.000000
_cell_angle_beta 90.000000
_cell_angle_gamma 90.000000
_cell_volume 2909.542590
_symmetry_space_group_name_H-M "P B A M"
_symmetry_group_IT_number 55
_symmetry_cell_setting 'orthorhombic'
loop_
_space_group_symop_operation_xyz
x,y,z
-x,-y,z
1/2+x,1/2-y,-z
1/2-x,1/2+y,-z
-x,-y,-z
x,y,-z
1/2-x,1/2+y,z
1/2+x,1/2-y,z
loop_
_atom_site_type_symbol
_atom_site_label
_atom_site_fract_x
_atom_site_fract_y
_atom_site_fract_z
Si Si1 0.698876 0.286242 0.304046
Si Si2 0.199915 0.927410 0.000000
Si Si3 0.945143 0.753810 0.152933
Si Si4 0.694574 0.190861 0.215638
Si Si5 0.420121 0.659080 0.939831
Si Si6 0.553656 0.255249 0.547165
Si Si7 0.195235 0.311324 0.607965
Si Si8 0.000000 0.500000 0.000000
O O1 0.726935 0.586531 0.304135
O O2 0.660437 0.222131 0.261177
O O3 0.659820 0.222861 0.346821
O O4 0.148310 0.999556 0.039059
O O5 0.269721 0.135458 0.000000
O O6 0.873674 0.721758 0.183426
O O7 0.913169 0.797953 0.107533
O O8 0.000000 0.500000 0.152780
O O9 0.000000 0.000000 0.163206
O O10 0.759737 0.417797 0.211592
O O11 0.500000 0.500000 0.948446
O O12 0.436184 0.920751 0.964750
O O13 0.500000 0.500000 0.558926
O O14 0.575980 0.288069 0.500000
O O15 0.629323 0.228201 0.574770
O O16 0.500000 0.000000 0.550511
O O17 0.238010 0.589556 0.604460
#
# Coordination Sequence:
#
# PCOD9424749 Si02
#       8
#     8   4   8   8   8   8   8   2
#     4   8  16  31  52  78 106 140 178 217 271 329
#     4  11  26  37  56  86 114 131 170 229 263 291
#     4  11  23  39  58  87 113 143 183 230 263 310
#     4  10  20  37  60  82 112 151 181 216 274 336
#     4  10  23  38  62  78 108 150 185 206 261 329
#     4  10  21  36  51  72 108 148 180 221 284 344
#     4  10  19  33  55  80 104 135 186 237 266 316
#     4  10  16  36  60  74  92 138 188 200 238 316
#
# _framework density 18.559619000000001
#
# number of rings (size 3 to 8) (size 9 to 14) (size 15 to 20)
#    0.000    2.074    0.741    2.667    4.148    1.778 
#    0.000    1.481    0.000    0.000    0.000    0.000 
#    0.000    0.000    0.000    0.000    0.000    0.000 
#
# Total GULP energy -300792.600237 kJ/mol
# GULP energy per Si atom -5570.233338 kJ/mol
# Density = 1.851738 g / cm^3
# Si number density = 18.559619 Si / 1000 Ang^3
#
#
#
# Elastic Constant Matrix: (Units=GPa)
#
#
# Indices 1 2 3 4 5 6 
#
# 1 61.5722 5.7738 57.5303 0.0000 0.0000 0.0000
# 2 5.7738 77.4046 -9.3064 0.0000 0.0000 0.0000
# 3 57.5303 -9.3064 111.8615 0.0000 0.0000 0.0000
# 4 0.0000 0.0000 0.0000 -15.8353 0.0000 0.0000
# 5 0.0000 0.0000 0.0000 0.0000 123.7274 0.0000
# 6 0.0000 0.0000 0.0000 0.0000 0.0000 27.0902
#
#
#
# Elastic Compliance Matrix: (Units=1/GPa)
#
#
# Indices 1 2 3 4 5 6 
#
# 1 0.032756 -0.004514 -0.017222 0.000000 0.000000 0.000000
# 2 -0.004514 0.013672 0.003459 0.000000 0.000000 0.000000
# 3 -0.017222 0.003459 0.018084 0.000000 0.000000 0.000000
# 4 0.000000 0.000000 0.000000 -0.063150 0.000000 0.000000
# 5 0.000000 0.000000 0.000000 0.000000 0.008082 0.000000
# 6 0.000000 0.000000 0.000000 0.000000 0.000000 0.036914
#
#
# Mechanical properties :
#
#
# Convention : Reuss Voigt Hill
#
# Bulk Modulus (GPa) = 35.76739 39.87039 37.81889
# Shear Modulus (GPa) = 54.21208 40.11917 47.16562
#
# Velocity S-wave (km/s) = 5.41046 4.65439 5.04660
# Velocity P-wave (km/s) = 7.63834 7.10024 7.37420
#
# Compressibility (1/GPa) = 0.02795843
#
# Stress axis : x y z
#
# Youngs Moduli (GPa) = 30.52922 73.14380 55.29604
#
# Poissons Ratio (x) = 0.33016 0.95229
# Poissons Ratio (y) = 0.13781 -0.19126
# Poissons Ratio (z) = 0.52576 -0.25300
#
# Static dielectric constant tensor:
#      x y z
#    x 1.591560 0.000000 0.000000 
#    y 0.000000 1.684670 0.000000 
#    z 0.000000 0.000000 1.654470 
# 
# From -- ./inp_files/24200.got.cif
#   From: 2010.05.17/outbox.cif.g08.bks.cpg/sg55_13_cif.got.tgz:24200.got - 2010.06.03 13:27:54.
