data_PCOD9424868
_publ_section_title
;
Structure prediction by ZEFSAII (Michael W. Deem and Ramdas Pophale) SiO2 
 PCOD9424868
Probable space group: P B A M
;
_chemical_formula_sum "Si O2"
_cell_formula_units_Z 48
_cell_length_a 14.508378
_cell_length_b 10.266375
_cell_length_c 14.485507
_cell_angle_alpha 90.000000
_cell_angle_beta 90.000000
_cell_angle_gamma 90.000000
_cell_volume 2157.593803
_symmetry_space_group_name_H-M "P B A M"
_symmetry_group_IT_number 55
_symmetry_cell_setting 'orthorhombic'
loop_
_space_group_symop_operation_xyz
x,y,z
-x,-y,z
1/2+x,1/2-y,-z
1/2-x,1/2+y,-z
-x,-y,-z
x,y,-z
1/2-x,1/2+y,z
1/2+x,1/2-y,z
loop_
_atom_site_type_symbol
_atom_site_label
_atom_site_fract_x
_atom_site_fract_y
_atom_site_fract_z
Si Si1 0.161522 0.081927 0.500000
Si Si2 0.126581 0.722857 0.208968
Si Si3 0.094545 0.658081 0.000000
Si Si4 0.368359 0.958937 0.302549
Si Si5 0.357876 0.482761 0.699344
Si Si6 0.343336 0.896823 0.500000
Si Si7 0.123839 0.363259 0.000000
Si Si8 0.156897 0.221792 0.188299
O O1 0.178098 0.239783 0.500000
O O2 0.116434 0.041358 0.401306
O O3 0.253020 0.990561 0.500000
O O4 0.110832 0.728704 0.098412
O O5 0.095036 0.586275 0.251783
O O6 0.098793 0.845374 0.271437
O O7 0.237104 0.718380 0.217896
O O8 0.148985 0.517887 0.000000
O O9 0.985955 0.634146 0.000000
O O10 0.254839 0.966992 0.302087
O O11 0.395313 0.935838 0.407415
O O12 0.394070 0.831026 0.246816
O O13 0.380199 0.581951 0.782674
O O14 0.155446 0.279408 0.086715
#
# Coordination Sequence:
#
# PCOD9424868 Si02
#       8
#     4   8   4   8   8   4   4   8
#     4  10  18  28  44  76 117 146 174 215 270 323
#     4  10  20  35  54  78 112 142 181 223 269 320
#     4  11  23  39  55  81 106 141 182 234 278 321
#     4   9  17  29  49  74 110 143 178 212 260 319
#     4   9  19  29  50  77 110 143 175 220 267 317
#     4  10  18  26  44  76 115 147 175 216 269 318
#     4  11  23  37  59  79 106 141 186 226 278 331
#     4  10  18  35  53  80 105 145 179 217 265 324
#
# _framework density 22.247005000000001
#
# number of rings (size 3 to 8) (size 9 to 14) (size 15 to 20)
#    0.000    2.167    3.333    0.500    7.000    0.667 
#    0.000    1.667    0.000    0.000    0.000    7.000 
#    0.000    0.000    0.000    0.000    0.000    0.000 
#
# Total GULP energy -267625.402798 kJ/mol
# GULP energy per Si atom -5575.529225 kJ/mol
# Density = 2.219637 g / cm^3
# Si number density = 22.247005 Si / 1000 Ang^3
#
#
#
# Elastic Constant Matrix: (Units=GPa)
#
#
# Indices 1 2 3 4 5 6 
#
# 1 34.5057 9.8475 -27.9477 0.0000 0.0000 0.0000
# 2 9.8475 105.2636 28.4780 0.0000 0.0000 0.0000
# 3 -27.9477 28.4780 123.8527 0.0000 0.0000 0.0000
# 4 0.0000 0.0000 0.0000 142.6022 0.0000 0.0000
# 5 0.0000 0.0000 0.0000 0.0000-3005.2822 0.0000
# 6 0.0000 0.0000 0.0000 0.0000 0.0000 5.9757
#
#
#
# Elastic Compliance Matrix: (Units=1/GPa)
#
#
# Indices 1 2 3 4 5 6 
#
# 1 0.039190 -0.006461 0.010329 0.000000 0.000000 0.000000
# 2 -0.006461 0.011195 -0.004032 0.000000 0.000000 0.000000
# 3 0.010329 -0.004032 0.011332 0.000000 0.000000 0.000000
# 4 0.000000 0.000000 0.000000 0.007013 0.000000 0.000000
# 5 0.000000 0.000000 0.000000 0.000000 -0.000333 0.000000
# 6 0.000000 0.000000 0.000000 0.000000 0.000000 0.167345
#
#
# Mechanical properties :
#
#
# Convention : Reuss Voigt Hill
#
# Bulk Modulus (GPa) = 16.28927 31.59749 23.94338
# Shear Modulus (GPa) = 19.49064 -554.45790 -267.48363
#
# Velocity S-wave (km/s) = 2.96311 -15.80409 -10.97700
# Velocity P-wave (km/s) = 4.36401 17.85474 12.24228
#
# Compressibility (1/GPa) = 0.06139012
#
# Stress axis : x y z
#
# Youngs Moduli (GPa) = 25.51643 89.32416 88.24589
#
# Poissons Ratio (x) = 0.57710 -0.91149
# Poissons Ratio (y) = 0.16485 0.35581
# Poissons Ratio (z) = -0.26356 0.36016
#
# Static dielectric constant tensor:
#      x y z
#    x 1.863680 0.000000 0.000000 
#    y 0.000000 1.862960 0.000000 
#    z 0.000000 0.000000 1.703480 
# 
# From -- ./inp_files/19408.got.cif
#   From: 2010.05.17/outbox.cif.g08.bks.cpg/sg55_10_cif.got.tgz:19408.got - 2010.06.03 13:27:54.
