data_PCOD9424313
_publ_section_title
;
Structure prediction by ZEFSAII (Michael W. Deem and Ramdas Pophale) SiO2 
 PCOD9424313
Probable space group: P C C A
;
_chemical_formula_sum "Si O2"
_cell_formula_units_Z 28
_cell_length_a 9.878707
_cell_length_b 4.868444
_cell_length_c 21.699176
_cell_angle_alpha 90.000000
_cell_angle_beta 90.000000
_cell_angle_gamma 90.000000
_cell_volume 1043.598691
_symmetry_space_group_name_H-M "P C C A"
_symmetry_group_IT_number 54
_symmetry_cell_setting 'orthorhombic'
loop_
_space_group_symop_operation_xyz
x,y,z
1/2-x,-y,z
1/2+x,-y,1/2-z
-x,y,1/2-z
-x,-y,-z
1/2+x,y,-z
1/2-x,y,1/2+z
x,-y,1/2+z
loop_
_atom_site_type_symbol
_atom_site_label
_atom_site_fract_x
_atom_site_fract_y
_atom_site_fract_z
Si Si1 0.983444 0.253319 0.821816
Si Si2 0.361039 0.278463 0.866984
Si Si3 0.750000 0.000000 0.393089
Si Si4 0.130332 0.310997 0.507960
O O1 0.093223 0.010977 0.838113
O O2 0.000000 0.310974 0.750000
O O3 0.834237 0.170309 0.841951
O O4 0.008247 0.530843 0.859617
O O5 0.250000 0.500000 0.841262
O O6 0.329071 0.237309 0.938503
O O7 0.869989 0.949945 0.446512
O O8 0.250000 0.500000 0.535995
O O9 0.000000 0.500000 0.500000
#
# Coordination Sequence:
#
# PCOD9424313 Si02
#       4
#     8   8   4   8
#     4  12  28  50  74 111 155 206 261 316 391 476
#     4  11  26  47  76 107 150 201 257 320 394 461
#     4  12  28  44  80 110 160 198 268 324 402 466
#     4  11  24  45  73 111 157 200 259 327 395 464
#
# _framework density 26.830234999999998
#
# number of rings (size 3 to 8) (size 9 to 14) (size 15 to 20)
#    0.000    0.571    2.857    3.429   12.000    2.286 
#    0.000    0.000    0.000    0.000    0.000    0.000 
#    0.000    0.000    0.000    0.000    0.000    0.000 
#
# Total GULP energy -156035.653701 kJ/mol
# GULP energy per Si atom -5572.701918 kJ/mol
# Density = 2.676917 g / cm^3
# Si number density = 26.830235 Si / 1000 Ang^3
#
#
#
# Elastic Constant Matrix: (Units=GPa)
#
#
# Indices 1 2 3 4 5 6 
#
# 1 96.9798 52.1522 17.6140 0.0000 0.0000 0.0000
# 2 52.1522 177.9002 26.2524 0.0000 0.0000 0.0000
# 3 17.6140 26.2524 156.7663 0.0000 0.0000 0.0000
# 4 0.0000 0.0000 0.0000 15.9607 0.0000 0.0000
# 5 0.0000 0.0000 0.0000 0.0000 40.5557 0.0000
# 6 0.0000 0.0000 0.0000 0.0000 0.0000 28.5603
#
#
#
# Elastic Compliance Matrix: (Units=1/GPa)
#
#
# Indices 1 2 3 4 5 6 
#
# 1 0.012338 -0.003499 -0.000800 0.000000 0.000000 0.000000
# 2 -0.003499 0.006756 -0.000738 0.000000 0.000000 0.000000
# 3 -0.000800 -0.000738 0.006592 0.000000 0.000000 0.000000
# 4 0.000000 0.000000 0.000000 0.062654 0.000000 0.000000
# 5 0.000000 0.000000 0.000000 0.000000 0.024657 0.000000
# 6 0.000000 0.000000 0.000000 0.000000 0.000000 0.035014
#
#
# Mechanical properties :
#
#
# Convention : Reuss Voigt Hill
#
# Bulk Modulus (GPa) = 64.05487 69.29814 66.67651
# Shear Modulus (GPa) = 30.62023 39.39051 35.00537
#
# Velocity S-wave (km/s) = 3.38192 3.83579 3.61598
# Velocity P-wave (km/s) = 6.25906 6.74553 6.50684
#
# Compressibility (1/GPa) = 0.01561162
#
# Stress axis : x y z
#
# Youngs Moduli (GPa) = 81.04778 148.02109 151.68815
#
# Poissons Ratio (x) = 0.51792 0.12141
# Poissons Ratio (y) = 0.28358 0.11198
# Poissons Ratio (z) = 0.06487 0.10927
#
# Static dielectric constant tensor:
#      x y z
#    x 2.177940 0.000000 0.000000 
#    y 0.000000 2.297440 0.000000 
#    z 0.000000 0.000000 1.975340 
# 
# From -- ./inp_files/20773.got.cif
#   From: 2010.05.17/outbox.cif.g08.bks.cpg/sg54_11_cif.got.tgz:20773.got - 2010.06.03 13:09:01.
