data_PCOD9424263
_publ_section_title
;
Structure prediction by ZEFSAII (Michael W. Deem and Ramdas Pophale) SiO2 
 PCOD9424263
Probable space group: P C C A
;
_chemical_formula_sum "Si O2"
_cell_formula_units_Z 48
_cell_length_a 9.083608
_cell_length_b 8.611374
_cell_length_c 31.368498
_cell_angle_alpha 90.000000
_cell_angle_beta 90.000000
_cell_angle_gamma 90.000000
_cell_volume 2453.717496
_symmetry_space_group_name_H-M "P C C A"
_symmetry_group_IT_number 54
_symmetry_cell_setting 'orthorhombic'
loop_
_space_group_symop_operation_xyz
x,y,z
1/2-x,-y,z
1/2+x,-y,1/2-z
-x,y,1/2-z
-x,-y,-z
1/2+x,y,-z
1/2-x,y,1/2+z
x,-y,1/2+z
loop_
_atom_site_type_symbol
_atom_site_label
_atom_site_fract_x
_atom_site_fract_y
_atom_site_fract_z
Si Si1 0.584229 0.936056 0.458648
Si Si2 0.915595 0.064300 0.623922
Si Si3 0.084405 0.564300 0.376078
Si Si4 0.915770 0.436056 0.458648
Si Si5 0.915301 0.936070 0.793980
Si Si6 0.915301 0.563930 0.793980
O O1 0.586089 0.750000 0.459547
O O2 0.750000 0.000000 0.458392
O O3 0.500000 0.000000 0.500000
O O4 0.500432 0.994707 0.416634
O O5 0.913342 0.250000 0.620930
O O6 0.750000 0.000000 0.624768
O O7 0.999379 0.011907 0.666582
O O8 0.250000 0.500000 0.375232
O O9 0.999568 0.494708 0.416634
O O10 0.000621 0.511906 0.333418
O O11 0.750000 0.500000 0.458392
O O12 0.000000 0.500000 0.500000
O O13 0.912414 0.750000 0.799643
O O14 0.000000 0.970870 0.750000
O O15 0.750000 0.000000 0.792027
O O16 0.750000 0.500000 0.792027
O O17 0.000000 0.529129 0.750000
#
# Coordination Sequence:
#
# PCOD9424263 Si02
#       6
#     8   8   8   8   8   8
#     4  12  25  44  67  95 129 167 211 259 314 373
#     4  12  25  43  66  94 128 167 211 260 315 374
#     4  12  25  43  66  94 128 167 211 260 315 374
#     4  12  25  44  67  95 129 167 211 259 314 373
#     4  11  24  42  65  94 128 167 211 260 315 374
#     4  11  24  42  65  94 128 167 211 260 315 374
#
# _framework density 19.562154
#
# number of rings (size 3 to 8) (size 9 to 14) (size 15 to 20)
#    0.000    0.333    0.000   10.000    0.000    5.333 
#    0.000    0.000    0.000    0.000    0.000    0.000 
#    0.000    0.000    0.000    0.000    0.000    0.000 
#
# Total GULP energy -268995.988579 kJ/mol
# GULP energy per Si atom -5604.083095 kJ/mol
# Density = 1.951763 g / cm^3
# Si number density = 19.562154 Si / 1000 Ang^3
#
#
#
# Elastic Constant Matrix: (Units=GPa)
#
#
# Indices 1 2 3 4 5 6 
#
# 1 238.5051 110.2484 124.3260 0.0000 0.0000 0.0000
# 2 110.2484 217.5988 118.7627 0.0000 0.0000 0.0000
# 3 124.3260 118.7627 197.9971 0.0000 0.0000 0.0000
# 4 0.0000 0.0000 0.0000 32.8935 0.0000 0.0000
# 5 0.0000 0.0000 0.0000 0.0000 38.2792 0.0000
# 6 0.0000 0.0000 0.0000 0.0000 0.0000 40.9333
#
#
#
# Elastic Compliance Matrix: (Units=1/GPa)
#
#
# Indices 1 2 3 4 5 6 
#
# 1 0.006590 -0.001606 -0.003175 0.000000 0.000000 0.000000
# 2 -0.001606 0.007224 -0.003324 0.000000 0.000000 0.000000
# 3 -0.003175 -0.003324 0.009038 0.000000 0.000000 0.000000
# 4 0.000000 0.000000 0.000000 0.030401 0.000000 0.000000
# 5 0.000000 0.000000 0.000000 0.000000 0.026124 0.000000
# 6 0.000000 0.000000 0.000000 0.000000 0.000000 0.024430
#
#
# Mechanical properties :
#
#
# Convention : Reuss Voigt Hill
#
# Bulk Modulus (GPa) = 150.56961 151.19725 150.88343
# Shear Modulus (GPa) = 40.90604 42.47210 41.68907
#
# Velocity S-wave (km/s) = 4.57779 4.66460 4.62140
# Velocity P-wave (km/s) = 10.25078 10.31842 10.28466
#
# Compressibility (1/GPa) = 0.00664145
#
# Stress axis : x y z
#
# Youngs Moduli (GPa) = 151.74286 138.42976 110.64410
#
# Poissons Ratio (x) = 0.22236 0.35125
# Poissons Ratio (y) = 0.24374 0.36783
# Poissons Ratio (z) = 0.48172 0.46020
#
# Static dielectric constant tensor:
#      x y z
#    x 1.636670 0.000000 0.000000 
#    y 0.000000 1.654730 0.000000 
#    z 0.000000 0.000000 1.644050 
# 
# From -- ./inp_files/27722.got.cif
#   From: 2010.05.17/outbox.cif.g08.bks.cpg/sg54_14_cif.got.tgz:27722.got - 2010.06.03 13:09:01.
