data_PCOD9424531
_publ_section_title
;
Structure prediction by ZEFSAII (Michael W. Deem and Ramdas Pophale) SiO2 
 PCOD9424531
Probable space group: P C C A
;
_chemical_formula_sum "Si O2"
_cell_formula_units_Z 40
_cell_length_a 19.492723
_cell_length_b 4.809687
_cell_length_c 17.493285
_cell_angle_alpha 90.000000
_cell_angle_beta 90.000000
_cell_angle_gamma 90.000000
_cell_volume 1640.063630
_symmetry_space_group_name_H-M "P C C A"
_symmetry_group_IT_number 54
_symmetry_cell_setting 'orthorhombic'
loop_
_space_group_symop_operation_xyz
x,y,z
1/2-x,-y,z
1/2+x,-y,1/2-z
-x,y,1/2-z
-x,-y,-z
1/2+x,y,-z
1/2-x,y,1/2+z
x,-y,1/2+z
loop_
_atom_site_type_symbol
_atom_site_label
_atom_site_fract_x
_atom_site_fract_y
_atom_site_fract_z
Si Si1 0.202882 0.738023 0.988313
Si Si2 0.013829 0.136589 0.084177
Si Si3 0.619851 0.416169 0.655962
Si Si4 0.899314 0.671148 0.383694
Si Si5 0.669185 0.068999 0.241151
O O1 0.250000 0.500000 0.024529
O O2 0.178589 0.654555 0.904770
O O3 0.250000 0.000000 0.983136
O O4 0.136994 0.783014 0.040026
O O5 0.075442 0.362228 0.094421
O O6 0.949513 0.310713 0.116065
O O7 0.034932 0.866492 0.133134
O O8 0.000000 0.000000 0.000000
O O9 0.634187 0.735076 0.676676
O O10 0.631196 0.225770 0.730937
O O11 0.846266 0.756126 0.317485
O O12 0.750000 0.000000 0.233932
#
# Coordination Sequence:
#
# PCOD9424531 Si02
#       5
#     8   8   8   8   8
#     4  12  25  43  70 104 138 192 257 307 373 458
#     4  12  26  47  76 110 150 193 259 324 381 457
#     4  12  26  45  76 104 150 199 254 316 383 456
#     4  12  27  46  75 106 152 200 249 321 389 457
#     4  12  27  48  72 110 155 200 251 317 387 465
#
# _framework density 24.389299000000001
#
# number of rings (size 3 to 8) (size 9 to 14) (size 15 to 20)
#    0.000    0.000    2.000    8.400    2.800    6.400 
#    0.000    0.000    0.000    0.000    0.000    0.000 
#    0.000    0.000    0.000    0.000    0.000    0.000 
#
# Total GULP energy -223595.641926 kJ/mol
# GULP energy per Si atom -5589.891048 kJ/mol
# Density = 2.433379 g / cm^3
# Si number density = 24.389299 Si / 1000 Ang^3
#
#
#
# Elastic Constant Matrix: (Units=GPa)
#
#
# Indices 1 2 3 4 5 6 
#
# 1 99.0658 31.0066 19.5063 0.0000 0.0000 0.0000
# 2 31.0066 109.4149 0.4245 0.0000 0.0000 0.0000
# 3 19.5063 0.4245 77.7381 0.0000 0.0000 0.0000
# 4 0.0000 0.0000 0.0000 37.2078 0.0000 0.0000
# 5 0.0000 0.0000 0.0000 0.0000 35.2007 0.0000
# 6 0.0000 0.0000 0.0000 0.0000 0.0000 49.6376
#
#
#
# Elastic Compliance Matrix: (Units=1/GPa)
#
#
# Indices 1 2 3 4 5 6 
#
# 1 0.011704 -0.003305 -0.002919 0.000000 0.000000 0.000000
# 2 -0.003305 0.010073 0.000774 0.000000 0.000000 0.000000
# 3 -0.002919 0.000774 0.013592 0.000000 0.000000 0.000000
# 4 0.000000 0.000000 0.000000 0.026876 0.000000 0.000000
# 5 0.000000 0.000000 0.000000 0.000000 0.028409 0.000000
# 6 0.000000 0.000000 0.000000 0.000000 0.000000 0.020146
#
#
# Mechanical properties :
#
#
# Convention : Reuss Voigt Hill
#
# Bulk Modulus (GPa) = 40.86733 43.12152 41.99442
# Shear Modulus (GPa) = 38.50457 40.09465 39.29961
#
# Velocity S-wave (km/s) = 3.97766 4.05896 4.01851
# Velocity P-wave (km/s) = 6.15535 6.29966 6.22792
#
# Compressibility (1/GPa) = 0.02446942
#
# Stress axis : x y z
#
# Youngs Moduli (GPa) = 85.44451 99.27342 73.57363
#
# Poissons Ratio (x) = 0.32813 0.21473
# Poissons Ratio (y) = 0.28242 -0.05697
# Poissons Ratio (z) = 0.24938 -0.07687
#
# Static dielectric constant tensor:
#      x y z
#    x 1.989410 0.000000 0.000000 
#    y 0.000000 1.909670 0.000000 
#    z 0.000000 0.000000 1.959270 
# 
# From -- ./inp_files/18371.got.cif
#   From: 2010.05.17/outbox.cif.g08.bks.cpg/sg54_10_cif.got.tgz:18371.got - 2010.06.03 13:09:01.
