data_PCOD9424417
_publ_section_title
;
Structure prediction by ZEFSAII (Michael W. Deem and Ramdas Pophale) SiO2 
 PCOD9424417
Probable space group: P C C A
;
_chemical_formula_sum "Si O2"
_cell_formula_units_Z 32
_cell_length_a 11.685924
_cell_length_b 8.996567
_cell_length_c 13.303176
_cell_angle_alpha 90.000000
_cell_angle_beta 90.000000
_cell_angle_gamma 90.000000
_cell_volume 1398.605439
_symmetry_space_group_name_H-M "P C C A"
_symmetry_group_IT_number 54
_symmetry_cell_setting 'orthorhombic'
loop_
_space_group_symop_operation_xyz
x,y,z
1/2-x,-y,z
1/2+x,-y,1/2-z
-x,y,1/2-z
-x,-y,-z
1/2+x,y,-z
1/2-x,y,1/2+z
x,-y,1/2+z
loop_
_atom_site_type_symbol
_atom_site_label
_atom_site_fract_x
_atom_site_fract_y
_atom_site_fract_z
Si Si1 0.660093 0.706635 0.666423
Si Si2 0.424391 0.622744 0.347544
Si Si3 0.870126 0.973967 0.281659
Si Si4 0.069708 0.145489 0.030467
O O1 0.591125 0.554802 0.644724
O O2 0.794884 0.675381 0.669066
O O3 0.625554 0.794315 0.768758
O O4 0.635352 0.805485 0.568614
O O5 0.500000 0.649369 0.250000
O O6 0.487646 0.719782 0.432947
O O7 0.000000 0.016608 0.250000
O O8 0.750000 0.000000 0.222837
O O9 0.854718 0.080804 0.378165
O O10 0.000000 0.000000 0.000000
#
# Coordination Sequence:
#
# PCOD9424417 Si02
#       4
#     8   8   8   8
#     4  11  26  47  76 106 151 200 252 313 381 464
#     4  11  26  51  71 109 153 198 253 314 387 457
#     4  12  25  44  72 112 146 198 253 314 381 447
#     4  12  26  42  75 108 149 192 251 316 373 458
#
# _framework density 22.879933000000001
#
# number of rings (size 3 to 8) (size 9 to 14) (size 15 to 20)
#    0.000    0.500    2.500    5.250    3.500    0.000 
#    0.000    2.500    0.000    0.000    0.000    0.000 
#    0.000    0.000    0.000    0.000    0.000    0.000 
#
# Total GULP energy -178359.025698 kJ/mol
# GULP energy per Si atom -5573.719553 kJ/mol
# Density = 2.282786 g / cm^3
# Si number density = 22.879933 Si / 1000 Ang^3
#
#
#
# Elastic Constant Matrix: (Units=GPa)
#
#
# Indices 1 2 3 4 5 6 
#
# 1 144.2595 53.4673 32.3804 0.0000 0.0000 0.0000
# 2 53.4673 176.6976 61.5162 0.0000 0.0000 0.0000
# 3 32.3804 61.5162 87.4390 0.0000 0.0000 0.0000
# 4 0.0000 0.0000 0.0000 51.0267 0.0000 0.0000
# 5 0.0000 0.0000 0.0000 0.0000 37.2621 0.0000
# 6 0.0000 0.0000 0.0000 0.0000 0.0000 39.0559
#
#
#
# Elastic Compliance Matrix: (Units=1/GPa)
#
#
# Indices 1 2 3 4 5 6 
#
# 1 0.007987 -0.001837 -0.001665 0.000000 0.000000 0.000000
# 2 -0.001837 0.007918 -0.004890 0.000000 0.000000 0.000000
# 3 -0.001665 -0.004890 0.015494 0.000000 0.000000 0.000000
# 4 0.000000 0.000000 0.000000 0.019598 0.000000 0.000000
# 5 0.000000 0.000000 0.000000 0.000000 0.026837 0.000000
# 6 0.000000 0.000000 0.000000 0.000000 0.000000 0.025604
#
#
# Mechanical properties :
#
#
# Convention : Reuss Voigt Hill
#
# Bulk Modulus (GPa) = 68.43098 78.12488 73.27793
# Shear Modulus (GPa) = 39.97050 42.87109 41.42080
#
# Velocity S-wave (km/s) = 4.18421 4.33337 4.25944
# Velocity P-wave (km/s) = 7.30186 7.69787 7.50248
#
# Compressibility (1/GPa) = 0.01461326
#
# Stress axis : x y z
#
# Youngs Moduli (GPa) = 125.21035 126.29955 64.54295
#
# Poissons Ratio (x) = 0.23200 0.10748
# Poissons Ratio (y) = 0.23000 0.31562
# Poissons Ratio (z) = 0.20851 0.61762
#
# Static dielectric constant tensor:
#      x y z
#    x 1.837880 0.000000 0.000000 
#    y 0.000000 1.981040 0.000000 
#    z 0.000000 0.000000 1.765490 
# 
# From -- ./inp_files/12202.got.cif
#   From: 2010.05.17/outbox.cif.g08.bks.cpg/sg54_7_cif.got.tgz:12202.got - 2010.06.03 13:09:01.
