data_PCOD9424660
_publ_section_title
;
Structure prediction by ZEFSAII (Michael W. Deem and Ramdas Pophale) SiO2 
 PCOD9424660
Probable space group: P C C A
;
_chemical_formula_sum "Si O2"
_cell_formula_units_Z 48
_cell_length_a 9.000000
_cell_length_b 15.000000
_cell_length_c 18.000000
_cell_angle_alpha 90.000000
_cell_angle_beta 90.000000
_cell_angle_gamma 90.000000
_cell_volume 2430.000000
_symmetry_space_group_name_H-M "P C C A"
_symmetry_group_IT_number 54
_symmetry_cell_setting 'orthorhombic'
loop_
_space_group_symop_operation_xyz
x,y,z
1/2-x,-y,z
1/2+x,-y,1/2-z
-x,y,1/2-z
-x,-y,-z
1/2+x,y,-z
1/2-x,y,1/2+z
x,-y,1/2+z
loop_
_atom_site_type_symbol
_atom_site_label
_atom_site_fract_x
_atom_site_fract_y
_atom_site_fract_z
Si Si1 0.789570 0.218084 0.409003
Si Si2 0.002885 0.361441 0.160877
Si Si3 0.912980 0.953262 0.826129
Si Si4 0.511784 0.857036 0.660584
Si Si5 0.791455 0.279065 0.581840
Si Si6 0.078569 0.529559 0.424036
O O1 0.886962 0.131327 0.380811
O O2 0.628148 0.191415 0.378035
O O3 0.782129 0.242150 0.496942
O O4 0.856937 0.306107 0.370043
O O5 0.861676 0.316712 0.117547
O O6 0.997100 0.466463 0.138394
O O7 0.000000 0.352235 0.250000
O O8 0.000000 0.926488 0.750000
O O9 0.750000 0.000000 0.809884
O O10 0.004718 0.037605 0.858761
O O11 0.500000 0.851849 0.750000
O O12 0.652950 0.802949 0.631857
O O13 0.907846 0.363236 0.584506
O O14 0.250000 0.500000 0.428093
O O15 0.000000 0.500000 0.500000
#
# Coordination Sequence:
#
# PCOD9424660 Si02
#       6
#     8   8   8   8   8   8
#     4  11  21  37  64  91 125 168 207 262 315 378
#     4  11  23  40  63  94 124 163 217 261 311 378
#     4   9  20  38  60  89 127 168 212 257 316 376
#     4  10  22  40  60  88 127 168 211 258 313 374
#     4  11  23  40  63  92 128 162 210 262 317 379
#     4  10  22  40  62  88 123 164 205 254 321 380
#
# _framework density 19.753086
#
# number of rings (size 3 to 8) (size 9 to 14) (size 15 to 20)
#    0.000    1.667    1.667    2.500    2.333    4.000 
#    0.000    5.833    0.000    0.000    0.000    0.000 
#    0.000    0.000    0.000    0.000    0.000    0.000 
#
# Total GULP energy -267979.811285 kJ/mol
# GULP energy per Si atom -5582.912735 kJ/mol
# Density = 1.970813 g / cm^3
# Si number density = 19.753086 Si / 1000 Ang^3
#
#
#
# Elastic Constant Matrix: (Units=GPa)
#
#
# Indices 1 2 3 4 5 6 
#
# 1 17.4463 15.0370 6.8868 0.0000 0.0000 0.0000
# 2 15.0370 111.8397 37.7090 0.0000 0.0000 0.0000
# 3 6.8868 37.7090 146.7425 0.0000 0.0000 0.0000
# 4 0.0000 0.0000 0.0000 43.7446 0.0000 0.0000
# 5 0.0000 0.0000 0.0000 0.0000 35.1482 0.0000
# 6 0.0000 0.0000 0.0000 0.0000 0.0000 37.9170
#
#
#
# Elastic Compliance Matrix: (Units=1/GPa)
#
#
# Indices 1 2 3 4 5 6 
#
# 1 0.064936 -0.008434 -0.000880 0.000000 0.000000 0.000000
# 2 -0.008434 0.010885 -0.002401 0.000000 0.000000 0.000000
# 3 -0.000880 -0.002401 0.007473 0.000000 0.000000 0.000000
# 4 0.000000 0.000000 0.000000 0.022860 0.000000 0.000000
# 5 0.000000 0.000000 0.000000 0.000000 0.028451 0.000000
# 6 0.000000 0.000000 0.000000 0.000000 0.000000 0.026373
#
#
# Mechanical properties :
#
#
# Convention : Reuss Voigt Hill
#
# Bulk Modulus (GPa) = 16.70489 43.92156 30.31323
# Shear Modulus (GPa) = 24.46627 37.78833 31.12730
#
# Velocity S-wave (km/s) = 3.52320 4.37857 3.97397
# Velocity P-wave (km/s) = 5.00258 6.91708 6.03622
#
# Compressibility (1/GPa) = 0.05986270
#
# Stress axis : x y z
#
# Youngs Moduli (GPa) = 15.39989 91.86973 133.81416
#
# Poissons Ratio (x) = 0.77482 0.11778
# Poissons Ratio (y) = 0.12988 0.32133
# Poissons Ratio (z) = 0.01355 0.22061
#
# Static dielectric constant tensor:
#      x y z
#    x 1.734490 0.000000 0.000000 
#    y 0.000000 1.722540 0.000000 
#    z 0.000000 0.000000 1.670480 
# 
# From -- ./inp_files/16625.got.cif
#   From: 2010.05.17/outbox.ucp.g08.bks.cvg/sg54_9_cif.got.tgz:16625.got - 2010.06.11 16:34:40.
