data_PCOD9424436
_publ_section_title
;
Structure prediction by ZEFSAII (Michael W. Deem and Ramdas Pophale) SiO2 
 PCOD9424436
Probable space group: P C C A
;
_chemical_formula_sum "Si O2"
_cell_formula_units_Z 32
_cell_length_a 16.517736
_cell_length_b 5.048533
_cell_length_c 15.030874
_cell_angle_alpha 90.000000
_cell_angle_beta 90.000000
_cell_angle_gamma 90.000000
_cell_volume 1253.429622
_symmetry_space_group_name_H-M "P C C A"
_symmetry_group_IT_number 54
_symmetry_cell_setting 'orthorhombic'
loop_
_space_group_symop_operation_xyz
x,y,z
1/2-x,-y,z
1/2+x,-y,1/2-z
-x,y,1/2-z
-x,-y,-z
1/2+x,y,-z
1/2-x,y,1/2+z
x,-y,1/2+z
loop_
_atom_site_type_symbol
_atom_site_label
_atom_site_fract_x
_atom_site_fract_y
_atom_site_fract_z
Si Si1 0.834329 0.884921 0.274801
Si Si2 0.164026 0.099481 0.022572
Si Si3 0.417304 0.498475 0.623546
Si Si4 0.035798 0.001754 0.374152
O O1 0.855756 0.575502 0.295787
O O2 0.750000 0.000000 0.238622
O O3 0.835899 0.993408 0.376039
O O4 0.905689 0.973633 0.210205
O O5 0.140467 0.408538 0.040990
O O6 0.250000 0.000000 0.986273
O O7 0.094129 0.991801 0.959317
O O8 0.479811 0.257598 0.633842
O O9 0.520805 0.743336 0.882864
#
# Coordination Sequence:
#
# PCOD9424436 Si02
#       4
#     8   8   8   8
#     4  11  28  50  78 112 160 201 260 313 395 452
#     4  11  27  51  79 114 159 202 260 314 396 452
#     4  12  27  51  76 116 149 207 258 321 378 461
#     4  12  28  51  80 113 157 203 262 319 384 463
#
# _framework density 25.529955000000001
#
# number of rings (size 3 to 8) (size 9 to 14) (size 15 to 20)
#    0.000    0.500    2.500    3.000   10.500    4.000 
#    0.000    2.500    0.000    0.000    0.000    0.000 
#    0.000    0.000    0.000    0.000    0.000    0.000 
#
# Total GULP energy -178811.161842 kJ/mol
# GULP energy per Si atom -5587.848808 kJ/mol
# Density = 2.547185 g / cm^3
# Si number density = 25.529955 Si / 1000 Ang^3
#
#
#
# Elastic Constant Matrix: (Units=GPa)
#
#
# Indices 1 2 3 4 5 6 
#
# 1 260.3907 111.5357 51.9658 0.0000 0.0000 0.0000
# 2 111.5357 193.6480 41.9777 0.0000 0.0000 0.0000
# 3 51.9658 41.9777 115.1825 0.0000 0.0000 0.0000
# 4 0.0000 0.0000 0.0000 12.3461 0.0000 0.0000
# 5 0.0000 0.0000 0.0000 0.0000 21.8207 0.0000
# 6 0.0000 0.0000 0.0000 0.0000 0.0000 33.2199
#
#
#
# Elastic Compliance Matrix: (Units=1/GPa)
#
#
# Indices 1 2 3 4 5 6 
#
# 1 0.005295 -0.002749 -0.001387 0.000000 0.000000 0.000000
# 2 -0.002749 0.007034 -0.001323 0.000000 0.000000 0.000000
# 3 -0.001387 -0.001323 0.009790 0.000000 0.000000 0.000000
# 4 0.000000 0.000000 0.000000 0.080997 0.000000 0.000000
# 5 0.000000 0.000000 0.000000 0.000000 0.045828 0.000000
# 6 0.000000 0.000000 0.000000 0.000000 0.000000 0.030102
#
#
# Mechanical properties :
#
#
# Convention : Reuss Voigt Hill
#
# Bulk Modulus (GPa) = 89.28314 108.90885 99.09600
# Shear Modulus (GPa) = 25.81338 37.72681 31.77010
#
# Velocity S-wave (km/s) = 3.18323 3.84832 3.53147
# Velocity P-wave (km/s) = 6.96839 7.90556 7.45172
#
# Compressibility (1/GPa) = 0.01120032
#
# Stress axis : x y z
#
# Youngs Moduli (GPa) = 188.87045 142.16301 102.14628
#
# Poissons Ratio (x) = 0.39079 0.14167
# Poissons Ratio (y) = 0.51919 0.13518
# Poissons Ratio (z) = 0.26194 0.18813
#
# Static dielectric constant tensor:
#      x y z
#    x 2.071040 0.000000 0.000000 
#    y 0.000000 2.229390 0.000000 
#    z 0.000000 0.000000 2.065240 
# 
# From -- ./inp_files/13777.got.cif
#   From: 2010.05.17/outbox.cif.g08.bks.cpg/sg54_7_cif.got.tgz:13777.got - 2010.06.03 13:09:01.
