data_PCOD9424400
_publ_section_title
;
Structure prediction by ZEFSAII (Michael W. Deem and Ramdas Pophale) SiO2 
 PCOD9424400
Probable space group: P C C A
;
_chemical_formula_sum "Si O2"
_cell_formula_units_Z 32
_cell_length_a 9.626005
_cell_length_b 14.067501
_cell_length_c 10.194812
_cell_angle_alpha 90.000000
_cell_angle_beta 90.000000
_cell_angle_gamma 90.000000
_cell_volume 1380.518590
_symmetry_space_group_name_H-M "P C C A"
_symmetry_group_IT_number 54
_symmetry_cell_setting 'orthorhombic'
loop_
_space_group_symop_operation_xyz
x,y,z
1/2-x,-y,z
1/2+x,-y,1/2-z
-x,y,1/2-z
-x,-y,-z
1/2+x,y,-z
1/2-x,y,1/2+z
x,-y,1/2+z
loop_
_atom_site_type_symbol
_atom_site_label
_atom_site_fract_x
_atom_site_fract_y
_atom_site_fract_z
Si Si1 0.108508 0.485903 0.848740
Si Si2 0.798395 0.787116 0.924054
Si Si3 0.966100 0.662044 0.498057
Si Si4 0.340355 0.095653 0.308297
O O1 0.250000 0.500000 0.775552
O O2 0.000000 0.525346 0.750000
O O3 0.071138 0.378909 0.887024
O O4 0.108070 0.562319 0.964663
O O5 0.842162 0.850840 0.050799
O O6 0.929201 0.716531 0.905039
O O7 0.658366 0.729729 0.958761
O O8 0.751783 0.845954 0.797176
O O9 0.500000 0.084117 0.250000
O O10 0.250000 0.000000 0.327265
#
# Coordination Sequence:
#
# PCOD9424400 Si02
#       4
#     8   8   8   8
#     4  11  26  42  66 100 152 193 246 305 361 426
#     4  12  27  49  81 108 150 195 251 303 364 452
#     4  11  26  44  68 107 145 199 248 298 364 430
#     4  12  30  52  78 114 150 189 243 312 380 447
#
# _framework density 23.179694999999999
#
# number of rings (size 3 to 8) (size 9 to 14) (size 15 to 20)
#    0.000    0.500    5.000    0.750   14.000    2.000 
#    0.000    0.000    0.000    0.000    0.000    0.000 
#    0.000    0.000    0.000    0.000    0.000    0.000 
#
# Total GULP energy -178550.586353 kJ/mol
# GULP energy per Si atom -5579.705824 kJ/mol
# Density = 2.312694 g / cm^3
# Si number density = 23.179695 Si / 1000 Ang^3
#
#
#
# Elastic Constant Matrix: (Units=GPa)
#
#
# Indices 1 2 3 4 5 6 
#
# 1 134.1170 37.3528 5.9465 0.0000 0.0000 0.0000
# 2 37.3528 100.8621 15.6256 0.0000 0.0000 0.0000
# 3 5.9465 15.6256 66.2911 0.0000 0.0000 0.0000
# 4 0.0000 0.0000 0.0000 -18.7097 0.0000 0.0000
# 5 0.0000 0.0000 0.0000 0.0000 3.4308 0.0000
# 6 0.0000 0.0000 0.0000 0.0000 0.0000 39.0478
#
#
#
# Elastic Compliance Matrix: (Units=1/GPa)
#
#
# Indices 1 2 3 4 5 6 
#
# 1 0.008314 -0.003076 -0.000021 0.000000 0.000000 0.000000
# 2 -0.003076 0.011428 -0.002418 0.000000 0.000000 0.000000
# 3 -0.000021 -0.002418 0.015657 0.000000 0.000000 0.000000
# 4 0.000000 0.000000 0.000000 -0.053448 0.000000 0.000000
# 5 0.000000 0.000000 0.000000 0.000000 0.291475 0.000000
# 6 0.000000 0.000000 0.000000 0.000000 0.000000 0.025610
#
#
# Mechanical properties :
#
#
# Convention : Reuss Voigt Hill
#
# Bulk Modulus (GPa) = 41.03403 46.56888 43.80145
# Shear Modulus (GPa) = 15.71405 20.91014 18.31209
#
# Velocity S-wave (km/s) = 2.60652 3.00674 2.81375
# Velocity P-wave (km/s) = 5.17683 5.67344 5.43082
#
# Compressibility (1/GPa) = 0.02437002
#
# Stress axis : x y z
#
# Youngs Moduli (GPa) = 120.28360 87.50350 63.87013
#
# Poissons Ratio (x) = 0.26913 0.00133
# Poissons Ratio (y) = 0.36995 0.15443
# Poissons Ratio (z) = 0.00250 0.21157
#
# Static dielectric constant tensor:
#      x y z
#    x 1.974710 0.000000 0.000000 
#    y 0.000000 1.876150 0.000000 
#    z 0.000000 0.000000 1.970320 
# 
# From -- ./inp_files/6703.got.cif
#   From: 2010.05.17/outbox.cif.g08.bks.cpg/sg54_4_cif.got.tgz:6703.got - 2010.06.03 13:09:01.
