data_PCOD9424117
_publ_section_title
;
Structure prediction by ZEFSAII (Michael W. Deem and Ramdas Pophale) SiO2 
 PCOD9424117
Probable space group: P C C A
;
_chemical_formula_sum "Si O2"
_cell_formula_units_Z 48
_cell_length_a 7.993607
_cell_length_b 9.582218
_cell_length_c 28.423551
_cell_angle_alpha 90.000000
_cell_angle_beta 90.000000
_cell_angle_gamma 90.000000
_cell_volume 2177.144094
_symmetry_space_group_name_H-M "P C C A"
_symmetry_group_IT_number 54
_symmetry_cell_setting 'orthorhombic'
loop_
_space_group_symop_operation_xyz
x,y,z
1/2-x,-y,z
1/2+x,-y,1/2-z
-x,y,1/2-z
-x,-y,-z
1/2+x,y,-z
1/2-x,y,1/2+z
x,-y,1/2+z
loop_
_atom_site_type_symbol
_atom_site_label
_atom_site_fract_x
_atom_site_fract_y
_atom_site_fract_z
Si Si1 0.930425 0.298544 0.612361
Si Si2 0.000000 0.615795 0.750000
Si Si3 0.642470 0.138041 0.902232
Si Si4 0.757785 0.667985 0.827755
Si Si5 0.689846 0.861907 0.046020
Si Si6 0.250000 0.500000 0.823210
Si Si7 0.840687 0.355879 0.967426
O O1 0.838301 0.182211 0.581263
O O2 0.789326 0.372935 0.642605
O O3 0.080623 0.274325 0.650736
O O4 0.011795 0.389292 0.569758
O O5 0.837318 0.685338 0.775468
O O6 0.911049 0.526624 0.709312
O O7 0.614731 0.240162 0.858219
O O8 0.469093 0.095088 0.924149
O O9 0.735653 0.241521 0.938287
O O10 0.750000 0.000000 0.891777
O O11 0.750000 0.500000 0.836636
O O12 0.750000 0.000000 0.017939
O O13 0.629348 0.731218 0.014679
O O14 0.750000 0.500000 0.977721
#
# Coordination Sequence:
#
# PCOD9424117 Si02
#       7
#     8   4   8   8   8   4   8
#     4  11  24  39  65  98 139 178 225 284 341 410
#     4  12  22  40  70 104 138 172 218 280 356 422
#     4  11  24  44  69  93 136 187 226 283 348 417
#     4  11  22  42  67 104 137 174 224 282 349 419
#     4  12  26  43  65  98 136 187 242 283 342 410
#     4  12  22  38  66 102 132 172 214 284 344 418
#     4  11  26  42  66  97 140 183 236 286 338 403
#
# _framework density 22.047232000000001
#
# number of rings (size 3 to 8) (size 9 to 14) (size 15 to 20)
#    0.000    0.667    2.500    6.500    3.500    3.333 
#    0.000    0.000    0.000    9.000    0.000    0.000 
#    0.000    0.000    0.000    0.000    0.000    0.000 
#
# Total GULP energy -267519.783362 kJ/mol
# GULP energy per Si atom -5573.328820 kJ/mol
# Density = 2.199705 g / cm^3
# Si number density = 22.047232 Si / 1000 Ang^3
#
#
#
# Elastic Constant Matrix: (Units=GPa)
#
#
# Indices 1 2 3 4 5 6 
#
# 1 69.5634 19.3635 32.5380 0.0000 0.0000 0.0000
# 2 19.3635 101.0363 51.4834 0.0000 0.0000 0.0000
# 3 32.5380 51.4834 106.4021 0.0000 0.0000 0.0000
# 4 0.0000 0.0000 0.0000 18.7619 0.0000 0.0000
# 5 0.0000 0.0000 0.0000 0.0000 4.3535 0.0000
# 6 0.0000 0.0000 0.0000 0.0000 0.0000 23.2436
#
#
#
# Elastic Compliance Matrix: (Units=1/GPa)
#
#
# Indices 1 2 3 4 5 6 
#
# 1 0.016823 -0.000800 -0.004758 0.000000 0.000000 0.000000
# 2 -0.000800 0.013174 -0.006130 0.000000 0.000000 0.000000
# 3 -0.004758 -0.006130 0.013819 0.000000 0.000000 0.000000
# 4 0.000000 0.000000 0.000000 0.053299 0.000000 0.000000
# 5 0.000000 0.000000 0.000000 0.000000 0.229700 0.000000
# 6 0.000000 0.000000 0.000000 0.000000 0.000000 0.043023
#
#
# Mechanical properties :
#
#
# Convention : Reuss Voigt Hill
#
# Bulk Modulus (GPa) = 48.91872 53.75241 51.33556
# Shear Modulus (GPa) = 12.49914 20.84626 16.67270
#
# Velocity S-wave (km/s) = 2.38360 3.07828 2.75294
# Velocity P-wave (km/s) = 5.46001 6.08834 5.78272
#
# Compressibility (1/GPa) = 0.02044207
#
# Stress axis : x y z
#
# Youngs Moduli (GPa) = 59.44112 75.90588 72.36342
#
# Poissons Ratio (x) = 0.06072 0.34427
# Poissons Ratio (y) = 0.04755 0.44357
# Poissons Ratio (z) = 0.28279 0.46529
#
# Static dielectric constant tensor:
#      x y z
#    x 1.914880 0.000000 0.000000 
#    y 0.000000 1.797770 0.000000 
#    z 0.000000 0.000000 1.854570 
# 
# From -- ./inp_files/27814.got.cif
#   From: 2010.05.17/outbox.cif.g08.bks.cpg/sg54_14_cif.got.tgz:27814.got - 2010.06.03 13:09:01.
