data_PCOD9424809
_publ_section_title
;
Structure prediction by ZEFSAII (Michael W. Deem and Ramdas Pophale) SiO2 
 PCOD9424809
Probable space group: P B A M
;
_chemical_formula_sum "Si O2"
_cell_formula_units_Z 56
_cell_length_a 15.176114
_cell_length_b 22.059139
_cell_length_c 7.343200
_cell_angle_alpha 90.000000
_cell_angle_beta 90.000000
_cell_angle_gamma 90.000000
_cell_volume 2458.297811
_symmetry_space_group_name_H-M "P B A M"
_symmetry_group_IT_number 55
_symmetry_cell_setting 'orthorhombic'
loop_
_space_group_symop_operation_xyz
x,y,z
-x,-y,z
1/2+x,1/2-y,-z
1/2-x,1/2+y,-z
-x,-y,-z
x,y,-z
1/2-x,1/2+y,z
1/2+x,1/2-y,z
loop_
_atom_site_type_symbol
_atom_site_label
_atom_site_fract_x
_atom_site_fract_y
_atom_site_fract_z
Si Si1 0.194112 0.735210 0.277792
Si Si2 0.280076 0.974857 0.704142
Si Si3 0.548114 0.365089 0.718818
Si Si4 0.327684 0.842788 0.723120
Si Si5 0.081799 0.961369 0.790152
Si Si6 0.991102 0.732840 0.721111
Si Si7 0.737441 0.397707 0.722544
O O1 0.195996 0.736660 0.500000
O O2 0.254828 0.792255 0.220293
O O3 0.229702 0.668778 0.223940
O O4 0.092167 0.736253 0.219205
O O5 0.317972 0.977378 0.500000
O O6 0.311062 0.911401 0.787760
O O7 0.174146 0.967420 0.694016
O O8 0.289648 0.042442 0.785471
O O9 0.546808 0.366726 0.500000
O O10 0.457298 0.393893 0.782798
O O11 0.554789 0.295706 0.774071
O O12 0.634998 0.400662 0.779463
O O13 0.323130 0.843952 0.500000
O O14 0.424854 0.820039 0.777171
O O15 0.094522 0.978219 0.000000
O O16 0.000000 0.000000 0.712810
O O17 0.993843 0.730684 0.500000
O O18 0.739430 0.399566 0.500000
#
# Coordination Sequence:
#
# PCOD9424809 Si02
#       7
#     8   8   8   8   8   8   8
#     4   9  15  25  40  63  97 129 155 193 244 286
#     4  10  19  31  48  69  95 127 161 199 238 283
#     4  10  17  29  49  70  93 125 161 197 236 284
#     4   9  16  27  43  69  98 122 158 202 240 284
#     4  11  22  32  44  68 100 127 154 193 243 295
#     4   9  16  26  45  72  98 125 159 200 243 283
#     4   9  16  26  42  65  93 123 158 195 233 282
#
# _framework density 22.779990000000002
#
# number of rings (size 3 to 8) (size 9 to 14) (size 15 to 20)
#    0.000    2.429    2.857    1.286    0.000    2.857 
#    0.000    0.714    0.000    5.143    0.000    1.000 
#    0.000    1.143    0.000    0.000    0.000    0.000 
#
# Total GULP energy -312556.367392 kJ/mol
# GULP energy per Si atom -5581.363703 kJ/mol
# Density = 2.272814 g / cm^3
# Si number density = 22.779990 Si / 1000 Ang^3
#
#
#
# Elastic Constant Matrix: (Units=GPa)
#
#
# Indices 1 2 3 4 5 6 
#
# 1 62.0941 15.6811 -0.8668 0.0000 0.0000 0.0000
# 2 15.6811 136.5816 6.4949 0.0000 0.0000 0.0000
# 3 -0.8668 6.4949 89.6291 0.0000 0.0000 0.0000
# 4 0.0000 0.0000 0.0000 8.4088 0.0000 0.0000
# 5 0.0000 0.0000 0.0000 0.0000 -75.9625 0.0000
# 6 0.0000 0.0000 0.0000 0.0000 0.0000 42.4915
#
#
#
# Elastic Compliance Matrix: (Units=1/GPa)
#
#
# Indices 1 2 3 4 5 6 
#
# 1 0.016593 -0.001919 0.000300 0.000000 0.000000 0.000000
# 2 -0.001919 0.007569 -0.000567 0.000000 0.000000 0.000000
# 3 0.000300 -0.000567 0.011201 0.000000 0.000000 0.000000
# 4 0.000000 0.000000 0.000000 0.118923 0.000000 0.000000
# 5 0.000000 0.000000 0.000000 0.000000 -0.013164 0.000000
# 6 0.000000 0.000000 0.000000 0.000000 0.000000 0.023534
#
#
# Mechanical properties :
#
#
# Convention : Reuss Voigt Hill
#
# Bulk Modulus (GPa) = 32.26862 36.76923 34.51892
# Shear Modulus (GPa) = 27.87689 12.78727 20.33208
#
# Velocity S-wave (km/s) = 3.50200 2.37183 2.99078
# Velocity P-wave (km/s) = 5.52703 4.86588 5.20696
#
# Compressibility (1/GPa) = 0.03098986
#
# Stress axis : x y z
#
# Youngs Moduli (GPa) = 60.26458 132.11861 89.27716
#
# Poissons Ratio (x) = 0.25358 -0.02674
# Poissons Ratio (y) = 0.11567 0.05062
# Poissons Ratio (z) = -0.01805 0.07492
#
# Static dielectric constant tensor:
#      x y z
#    x 1.805970 0.000000 0.000000 
#    y 0.000000 1.902610 0.000000 
#    z 0.000000 0.000000 1.871060 
# 
# From -- ./inp_files/7889.got.cif
#   From: 2010.05.17/outbox.cif.g08.bks.cpg/sg55_4_cif.got.tgz:7889.got - 2010.06.03 13:27:54.
