data_PCOD9424091
_publ_section_title
;
Structure prediction by ZEFSAII (Michael W. Deem and Ramdas Pophale) SiO2 
 PCOD9424091
Probable space group: P C C A
;
_chemical_formula_sum "Si O2"
_cell_formula_units_Z 48
_cell_length_a 18.295135
_cell_length_b 12.326734
_cell_length_c 9.009297
_cell_angle_alpha 90.000000
_cell_angle_beta 90.000000
_cell_angle_gamma 90.000000
_cell_volume 2031.770016
_symmetry_space_group_name_H-M "P C C A"
_symmetry_group_IT_number 54
_symmetry_cell_setting 'orthorhombic'
loop_
_space_group_symop_operation_xyz
x,y,z
1/2-x,-y,z
1/2+x,-y,1/2-z
-x,y,1/2-z
-x,-y,-z
1/2+x,y,-z
1/2-x,y,1/2+z
x,-y,1/2+z
loop_
_atom_site_type_symbol
_atom_site_label
_atom_site_fract_x
_atom_site_fract_y
_atom_site_fract_z
Si Si1 0.946026 0.553871 0.384461
Si Si2 0.236050 0.796691 0.120590
Si Si3 0.129323 0.330824 0.119657
Si Si4 0.596643 0.232491 0.561457
Si Si5 0.039807 0.171537 0.908758
Si Si6 0.812725 0.084980 0.602475
O O1 0.889405 0.456656 0.354638
O O2 0.912657 0.659494 0.459846
O O3 0.000000 0.578956 0.250000
O O4 0.000000 0.500000 0.500000
O O5 0.283622 0.688161 0.106187
O O6 0.204177 0.817387 0.281764
O O7 0.171470 0.814759 0.002867
O O8 0.296120 0.884130 0.067691
O O9 0.103598 0.267939 0.268723
O O10 0.085976 0.273758 0.981490
O O11 0.526639 0.159653 0.524315
O O12 0.099911 0.076400 0.889506
O O13 0.000000 0.186900 0.750000
O O14 0.750000 0.000000 0.643319
#
# Coordination Sequence:
#
# PCOD9424091 Si02
#       6
#     8   8   8   8   8   8
#     4  12  23  37  63  98 137 182 231 288 337 403
#     4  11  24  43  72  95 135 185 221 279 361 420
#     4  11  24  43  65 101 143 184 229 281 347 407
#     4  12  23  42  67 100 139 182 232 287 342 409
#     4  11  22  39  73 102 131 179 232 274 343 415
#     4  11  24  45  71  99 135 174 225 288 353 421
#
# _framework density 23.624721000000001
#
# number of rings (size 3 to 8) (size 9 to 14) (size 15 to 20)
#    0.000    0.667    6.667    1.500    0.000    0.667 
#    0.000    2.500    3.667    0.000    0.000    0.000 
#    0.000    0.000    0.000    0.000    0.000    0.000 
#
# Total GULP energy -267861.580671 kJ/mol
# GULP energy per Si atom -5580.449597 kJ/mol
# Density = 2.357095 g / cm^3
# Si number density = 23.624721 Si / 1000 Ang^3
#
#
#
# Elastic Constant Matrix: (Units=GPa)
#
#
# Indices 1 2 3 4 5 6 
#
# 1 164.1123 45.6423 30.4182 0.0000 0.0000 0.0000
# 2 45.6423 56.8252 12.3375 0.0000 0.0000 0.0000
# 3 30.4182 12.3375 128.0199 0.0000 0.0000 0.0000
# 4 0.0000 0.0000 0.0000 21.3039 0.0000 0.0000
# 5 0.0000 0.0000 0.0000 0.0000 42.6531 0.0000
# 6 0.0000 0.0000 0.0000 0.0000 0.0000 39.0741
#
#
#
# Elastic Compliance Matrix: (Units=1/GPa)
#
#
# Indices 1 2 3 4 5 6 
#
# 1 0.008058 -0.006186 -0.001319 0.000000 0.000000 0.000000
# 2 -0.006186 0.022723 -0.000720 0.000000 0.000000 0.000000
# 3 -0.001319 -0.000720 0.008194 0.000000 0.000000 0.000000
# 4 0.000000 0.000000 0.000000 0.046940 0.000000 0.000000
# 5 0.000000 0.000000 0.000000 0.000000 0.023445 0.000000
# 6 0.000000 0.000000 0.000000 0.000000 0.000000 0.025592
#
#
# Mechanical properties :
#
#
# Convention : Reuss Voigt Hill
#
# Bulk Modulus (GPa) = 44.39354 58.41703 51.40528
# Shear Modulus (GPa) = 31.46435 37.97686 34.72060
#
# Velocity S-wave (km/s) = 3.65340 4.01372 3.83779
# Velocity P-wave (km/s) = 6.05214 6.80152 6.43774
#
# Compressibility (1/GPa) = 0.02252580
#
# Stress axis : x y z
#
# Youngs Moduli (GPa) = 124.09648 44.00847 122.04115
#
# Poissons Ratio (x) = 0.27224 0.16091
# Poissons Ratio (y) = 0.76768 0.08787
# Poissons Ratio (z) = 0.16362 0.03169
#
# Static dielectric constant tensor:
#      x y z
#    x 1.916890 0.000000 0.000000 
#    y 0.000000 1.884050 0.000000 
#    z 0.000000 0.000000 1.823790 
# 
# From -- ./inp_files/4187.got.cif
#   From: 2010.05.17/outbox.cif.g08.bks.cpg/sg54_3_cif.got.tgz:4187.got - 2010.06.03 13:09:01.
