data_PCOD9424785
_publ_section_title
;
Structure prediction by ZEFSAII (Michael W. Deem and Ramdas Pophale) SiO2 
 PCOD9424785
Probable space group: P B A M
;
_chemical_formula_sum "Si O2"
_cell_formula_units_Z 44
_cell_length_a 10.057598
_cell_length_b 20.856071
_cell_length_c 8.155400
_cell_angle_alpha 90.000000
_cell_angle_beta 90.000000
_cell_angle_gamma 90.000000
_cell_volume 1710.692835
_symmetry_space_group_name_H-M "P B A M"
_symmetry_group_IT_number 55
_symmetry_cell_setting 'orthorhombic'
loop_
_space_group_symop_operation_xyz
x,y,z
-x,-y,z
1/2+x,1/2-y,-z
1/2-x,1/2+y,-z
-x,-y,-z
x,y,-z
1/2-x,1/2+y,z
1/2+x,1/2-y,z
loop_
_atom_site_type_symbol
_atom_site_label
_atom_site_fract_x
_atom_site_fract_y
_atom_site_fract_z
Si Si1 0.727997 0.724827 0.685005
Si Si2 0.882336 0.772829 0.000000
Si Si3 0.943073 0.122438 0.177970
Si Si4 0.681464 0.453428 0.694433
Si Si5 0.884983 0.547680 0.192978
Si Si6 0.584834 0.858877 0.690811
O O1 0.788080 0.731920 0.500000
O O2 0.809390 0.733404 0.851970
O O3 0.656326 0.656120 0.696865
O O4 0.624115 0.784840 0.703214
O O5 0.955600 0.819088 0.862193
O O6 0.040332 0.066189 0.233608
O O7 0.879930 0.107257 0.000000
O O8 0.671524 0.446708 0.500000
O O9 0.746858 0.521953 0.735186
O O10 0.791156 0.401132 0.758215
O O11 0.949877 0.616493 0.227489
O O12 0.000000 0.500000 0.263382
O O13 0.879640 0.537277 0.000000
O O14 0.571784 0.874241 0.500000
#
# Coordination Sequence:
#
# PCOD9424785 Si02
#       6
#     8   4   8   8   8   8
#     4  11  21  33  51  73  98 131 170 204 246 292
#     4  10  20  36  50  67  98 135 162 208 246 292
#     4  10  20  31  49  69  97 126 167 202 244 285
#     4  10  17  28  43  63  93 126 158 195 237 286
#     4   9  17  24  39  60  86 122 160 188 227 287
#     4   9  17  28  42  62  90 125 158 193 232 287
#
# _framework density 25.720572000000001
#
# number of rings (size 3 to 8) (size 9 to 14) (size 15 to 20)
#    0.545    1.636    2.727    1.636    1.273    3.636 
#    0.000    0.000    0.000    0.000    0.000    0.000 
#    0.000    2.909    0.000    7.636    0.000    0.000 
#
# Total GULP energy -244961.182910 kJ/mol
# GULP energy per Si atom -5567.299612 kJ/mol
# Density = 2.566203 g / cm^3
# Si number density = 25.720572 Si / 1000 Ang^3
#
#
#
# Elastic Constant Matrix: (Units=GPa)
#
#
# Indices 1 2 3 4 5 6 
#
# 1 96.3336 44.2614 26.3228 0.0000 0.0000 0.0000
# 2 44.2614 115.7095 40.0480 0.0000 0.0000 0.0000
# 3 26.3228 40.0480 115.2707 0.0000 0.0000 0.0000
# 4 0.0000 0.0000 0.0000 -8.2145 0.0000 0.0000
# 5 0.0000 0.0000 0.0000 0.0000 -33.3245 0.0000
# 6 0.0000 0.0000 0.0000 0.0000 0.0000 52.4840
#
#
#
# Elastic Compliance Matrix: (Units=1/GPa)
#
#
# Indices 1 2 3 4 5 6 
#
# 1 0.012786 -0.004411 -0.001387 0.000000 0.000000 0.000000
# 2 -0.004411 0.011345 -0.002934 0.000000 0.000000 0.000000
# 3 -0.001387 -0.002934 0.010012 0.000000 0.000000 0.000000
# 4 0.000000 0.000000 0.000000 -0.121736 0.000000 0.000000
# 5 0.000000 0.000000 0.000000 0.000000 -0.030008 0.000000
# 6 0.000000 0.000000 0.000000 0.000000 0.000000 0.019053
#
#
# Mechanical properties :
#
#
# Convention : Reuss Voigt Hill
#
# Bulk Modulus (GPa) = 59.95993 60.95313 60.45653
# Shear Modulus (GPa) = -66.20473 16.63445 -24.78514
#
# Velocity S-wave (km/s) = -5.07896 2.54586 -3.10761
# Velocity P-wave (km/s) = 3.32142 5.69136 3.26800
#
# Compressibility (1/GPa) = 0.01667780
#
# Stress axis : x y z
#
# Youngs Moduli (GPa) = 78.20877 88.14308 99.88483
#
# Poissons Ratio (x) = 0.38879 0.13858
# Poissons Ratio (y) = 0.34497 0.29310
# Poissons Ratio (z) = 0.10851 0.25864
#
# Static dielectric constant tensor:
#      x y z
#    x 2.097290 0.000000 0.000000 
#    y 0.000000 2.062710 0.000000 
#    z 0.000000 0.000000 1.935450 
# 
# From -- ./inp_files/5419.got.cif
#   From: 2010.05.17/outbox.cif.g08.bks.cpg/sg55_3_cif.got.tgz:5419.got - 2010.06.03 13:27:54.
