data_PCOD9424782
_publ_section_title
;
Structure prediction by ZEFSAII (Michael W. Deem and Ramdas Pophale) SiO2 
 PCOD9424782
Probable space group: P B A M
;
_chemical_formula_sum "Si O2"
_cell_formula_units_Z 52
_cell_length_a 25.116430
_cell_length_b 7.553320
_cell_length_c 11.688097
_cell_angle_alpha 90.000000
_cell_angle_beta 90.000000
_cell_angle_gamma 90.000000
_cell_volume 2217.377320
_symmetry_space_group_name_H-M "P B A M"
_symmetry_group_IT_number 55
_symmetry_cell_setting 'orthorhombic'
loop_
_space_group_symop_operation_xyz
x,y,z
-x,-y,z
1/2+x,1/2-y,-z
1/2-x,1/2+y,-z
-x,-y,-z
x,y,-z
1/2-x,1/2+y,z
1/2+x,1/2-y,z
loop_
_atom_site_type_symbol
_atom_site_label
_atom_site_fract_x
_atom_site_fract_y
_atom_site_fract_z
Si Si1 0.510085 0.214721 0.127674
Si Si2 0.388896 0.449382 0.500000
Si Si3 0.729717 0.100257 0.630297
Si Si4 0.455867 0.841979 0.375219
Si Si5 0.366609 0.121745 0.661628
Si Si6 0.834741 0.911304 0.708704
Si Si7 0.109998 0.833859 0.870936
O O1 0.537014 0.251645 0.251416
O O2 0.453939 0.318034 0.132512
O O3 0.500000 0.000000 0.126607
O O4 0.534109 0.254370 0.000000
O O5 0.374875 0.591070 0.397978
O O6 0.391286 0.291189 0.597979
O O7 0.730272 0.170741 0.500000
O O8 0.693328 0.924504 0.628133
O O9 0.788337 0.048423 0.669451
O O10 0.698031 0.230363 0.714420
O O11 0.464763 0.746957 0.500000
O O12 0.401854 0.953927 0.370093
O O13 0.500000 0.000000 0.374965
O O14 0.370319 0.170324 0.794007
O O15 0.864698 0.989718 0.817059
O O16 0.127414 0.814516 0.000000
#
# Coordination Sequence:
#
# PCOD9424782 Si02
#       7
#     8   4   8   8   8   8   8
#     4   9  16  30  53  82 115 149 194 242 286 343
#     4  10  18  32  53  86 111 147 186 233 291 340
#     4  12  22  39  57  88 119 153 194 240 300 361
#     4  10  17  27  47  88 123 150 187 245 294 339
#     4  11  20  33  58  88 121 153 195 241 295 351
#     4  11  23  36  59  83 113 154 195 240 293 355
#     4  10  21  38  58  85 117 153 199 248 289 343
#
# _framework density 23.451129000000002
#
# number of rings (size 3 to 8) (size 9 to 14) (size 15 to 20)
#    0.000    1.538    6.154    1.846    0.000    0.000 
#    0.000    3.846    0.000    0.923    0.000    5.385 
#    0.000    0.000    0.000    0.000    0.000    0.000 
#
# Total GULP energy -289587.728912 kJ/mol
# GULP energy per Si atom -5568.994787 kJ/mol
# Density = 2.339775 g / cm^3
# Si number density = 23.451129 Si / 1000 Ang^3
#
#
#
# Elastic Constant Matrix: (Units=GPa)
#
#
# Indices 1 2 3 4 5 6 
#
# 1 64.2963 6.9274 34.1959 0.0000 0.0000 0.0000
# 2 6.9274 72.6315 11.9011 0.0000 0.0000 0.0000
# 3 34.1959 11.9011 236.3852 0.0000 0.0000 0.0000
# 4 0.0000 0.0000 0.0000 16.6201 0.0000 0.0000
# 5 0.0000 0.0000 0.0000 0.0000 18.2582 0.0000
# 6 0.0000 0.0000 0.0000 0.0000 0.0000 38.3991
#
#
#
# Elastic Compliance Matrix: (Units=1/GPa)
#
#
# Indices 1 2 3 4 5 6 
#
# 1 0.016957 -0.001225 -0.002391 0.000000 0.000000 0.000000
# 2 -0.001225 0.013971 -0.000526 0.000000 0.000000 0.000000
# 3 -0.002391 -0.000526 0.004603 0.000000 0.000000 0.000000
# 4 0.000000 0.000000 0.000000 0.060168 0.000000 0.000000
# 5 0.000000 0.000000 0.000000 0.000000 0.054770 0.000000
# 6 0.000000 0.000000 0.000000 0.000000 0.000000 0.026042
#
#
# Mechanical properties :
#
#
# Convention : Reuss Voigt Hill
#
# Bulk Modulus (GPa) = 36.70387 53.26241 44.98314
# Shear Modulus (GPa) = 25.78934 36.00806 30.89870
#
# Velocity S-wave (km/s) = 3.31978 3.92273 3.63378
# Velocity P-wave (km/s) = 5.51178 6.57864 6.06870
#
# Compressibility (1/GPa) = 0.02724508
#
# Stress axis : x y z
#
# Youngs Moduli (GPa) = 58.97319 71.57572 217.25890
#
# Poissons Ratio (x) = 0.08771 0.51953
# Poissons Ratio (y) = 0.07227 0.11430
# Poissons Ratio (z) = 0.14102 0.03766
#
# Static dielectric constant tensor:
#      x y z
#    x 1.968050 0.000000 0.000000 
#    y 0.000000 1.998490 0.000000 
#    z 0.000000 0.000000 1.860660 
# 
# From -- ./inp_files/12388.got.cif
#   From: 2010.05.17/outbox.cif.g08.bks.cpg/sg55_7_cif.got.tgz:12388.got - 2010.06.03 13:27:54.
