data_PCOD9424651
_publ_section_title
;
Structure prediction by ZEFSAII (Michael W. Deem and Ramdas Pophale) SiO2 
 PCOD9424651
Probable space group: P C C A
;
_chemical_formula_sum "Si O2"
_cell_formula_units_Z 44
_cell_length_a 9.000000
_cell_length_b 9.000000
_cell_length_c 30.000000
_cell_angle_alpha 90.000000
_cell_angle_beta 90.000000
_cell_angle_gamma 90.000000
_cell_volume 2430.000000
_symmetry_space_group_name_H-M "P C C A"
_symmetry_group_IT_number 54
_symmetry_cell_setting 'orthorhombic'
loop_
_space_group_symop_operation_xyz
x,y,z
1/2-x,-y,z
1/2+x,-y,1/2-z
-x,y,1/2-z
-x,-y,-z
1/2+x,y,-z
1/2-x,y,1/2+z
x,-y,1/2+z
loop_
_atom_site_type_symbol
_atom_site_label
_atom_site_fract_x
_atom_site_fract_y
_atom_site_fract_z
Si Si1 0.250000 0.500000 0.593140
Si Si2 0.825626 0.733679 0.648671
Si Si3 0.310047 0.829590 0.453070
Si Si4 0.250000 0.000000 0.787961
Si Si5 0.509959 0.575231 0.662198
Si Si6 0.081484 0.655444 0.513234
Si Si7 0.000000 0.776962 0.250000
O O1 0.376790 0.570683 0.625691
O O2 0.172092 0.616473 0.558771
O O3 0.846710 0.787960 0.598097
O O4 0.833359 0.878283 0.680627
O O5 0.658446 0.665402 0.648422
O O6 0.933298 0.597982 0.664618
O O7 0.189578 0.716035 0.474567
O O8 0.461009 0.785140 0.478760
O O9 0.250000 0.000000 0.456573
O O10 0.136517 0.108914 0.761014
O O11 0.467783 0.664077 0.708093
O O12 0.000000 0.500000 0.500000
#
# Coordination Sequence:
#
# PCOD9424651 Si02
#       7
#     4   8   8   4   8   8   4
#     4  12  22  38  64  96 122 166 226 274 320 362
#     4  10  21  40  65  90 126 175 210 258 322 399
#     4  12  24  41  63  96 133 172 216 272 322 384
#     4  10  22  44  66  94 130 170 208 262 348 392
#     4  10  23  39  66  94 123 164 223 268 318 397
#     4  12  24  41  64  94 130 178 224 270 314 387
#     4  10  24  44  64  98 124 166 210 278 330 398
#
# _framework density 18.106995999999999
#
# number of rings (size 3 to 8) (size 9 to 14) (size 15 to 20)
#    0.000    1.091    4.545    1.636    2.545    5.091 
#    0.000    0.000    0.000    0.000    0.000    0.000 
#    0.000    0.000    0.000    0.000    0.000    0.000 
#
# Total GULP energy -245366.533067 kJ/mol
# GULP energy per Si atom -5576.512115 kJ/mol
# Density = 1.806578 g / cm^3
# Si number density = 18.106996 Si / 1000 Ang^3
#
#
#
# Elastic Constant Matrix: (Units=GPa)
#
#
# Indices 1 2 3 4 5 6 
#
# 1 85.3316 39.6695 42.5271 0.0000 0.0000 0.0000
# 2 39.6695 144.5676 51.1801 0.0000 0.0000 0.0000
# 3 42.5271 51.1801 116.9221 0.0000 0.0000 0.0000
# 4 0.0000 0.0000 0.0000 40.7696 0.0000 0.0000
# 5 0.0000 0.0000 0.0000 0.0000 37.8299 0.0000
# 6 0.0000 0.0000 0.0000 0.0000 0.0000 41.8070
#
#
#
# Elastic Compliance Matrix: (Units=1/GPa)
#
#
# Indices 1 2 3 4 5 6 
#
# 1 0.015098 -0.002602 -0.004352 0.000000 0.000000 0.000000
# 2 -0.002602 0.008634 -0.002833 0.000000 0.000000 0.000000
# 3 -0.004352 -0.002833 0.011376 0.000000 0.000000 0.000000
# 4 0.000000 0.000000 0.000000 0.024528 0.000000 0.000000
# 5 0.000000 0.000000 0.000000 0.000000 0.026434 0.000000
# 6 0.000000 0.000000 0.000000 0.000000 0.000000 0.023919
#
#
# Mechanical properties :
#
#
# Convention : Reuss Voigt Hill
#
# Bulk Modulus (GPa) = 64.37940 68.17497 66.27719
# Shear Modulus (GPa) = 37.10801 38.31094 37.70948
#
# Velocity S-wave (km/s) = 4.53191 4.60478 4.56849
# Velocity P-wave (km/s) = 7.93829 8.12434 8.03186
#
# Compressibility (1/GPa) = 0.01553292
#
# Stress axis : x y z
#
# Youngs Moduli (GPa) = 66.23495 115.81973 87.90545
#
# Poissons Ratio (x) = 0.30136 0.38260
# Poissons Ratio (y) = 0.17234 0.24904
# Poissons Ratio (z) = 0.28828 0.32812
#
# Static dielectric constant tensor:
#      x y z
#    x 1.650380 0.000000 0.000000 
#    y 0.000000 1.599400 0.000000 
#    z 0.000000 0.000000 1.637490 
# 
# From -- ./inp_files/27651.got.cif
#   From: 2010.05.17/outbox.ucp.g08.bks.cvg/sg54_14_cif.got.tgz:27651.got - 2010.06.11 16:34:40.
