data_PCOD9424170
_publ_section_title
;
Structure prediction by ZEFSAII (Michael W. Deem and Ramdas Pophale) SiO2 
 PCOD9424170
Probable space group: P C C A
;
_chemical_formula_sum "Si O2"
_cell_formula_units_Z 64
_cell_length_a 8.414888
_cell_length_b 10.817682
_cell_length_c 30.165584
_cell_angle_alpha 90.000000
_cell_angle_beta 90.000000
_cell_angle_gamma 90.000000
_cell_volume 2745.960516
_symmetry_space_group_name_H-M "P C C A"
_symmetry_group_IT_number 54
_symmetry_cell_setting 'orthorhombic'
loop_
_space_group_symop_operation_xyz
x,y,z
1/2-x,-y,z
1/2+x,-y,1/2-z
-x,y,1/2-z
-x,-y,-z
1/2+x,y,-z
1/2-x,y,1/2+z
x,-y,1/2+z
loop_
_atom_site_type_symbol
_atom_site_label
_atom_site_fract_x
_atom_site_fract_y
_atom_site_fract_z
Si Si1 0.419550 0.556701 0.623892
Si Si2 0.625701 0.662054 0.111325
Si Si3 0.444263 0.760000 0.556778
Si Si4 0.754913 0.352509 0.015991
Si Si5 0.870519 0.115786 0.620815
Si Si6 0.061345 0.025590 0.703152
Si Si7 0.647691 0.612986 0.778670
Si Si8 0.549794 0.745463 0.299170
O O1 0.250000 0.500000 0.609366
O O2 0.579598 0.484632 0.610296
O O3 0.410015 0.690133 0.602508
O O4 0.420207 0.556703 0.676424
O O5 0.628377 0.679867 0.057649
O O6 0.771867 0.754517 0.123809
O O7 0.506611 0.695951 0.152673
O O8 0.297877 0.738704 0.524417
O O9 0.580216 0.681413 0.532417
O O10 0.526116 0.883479 0.575127
O O11 0.750000 0.500000 0.005143
O O12 0.985804 0.098688 0.662579
O O13 0.750000 0.000000 0.620093
O O14 0.000000 0.075408 0.750000
O O15 0.250000 0.000000 0.701282
O O16 0.992073 0.885893 0.700556
O O17 0.750000 0.500000 0.757590
O O18 0.500000 0.650751 0.750000
O O19 0.762595 0.722091 0.794385
O O20 0.500000 0.694203 0.250000
#
# Coordination Sequence:
#
# PCOD9424170 Si02
#       8
#     8   8   8   8   8   8   8   8
#     4  11  23  41  67 104 146 188 239 293 355 439
#     4  11  23  43  70 101 142 188 238 291 365 417
#     4  11  26  43  71 108 140 186 240 294 368 430
#     4  11  23  43  70 108 143 185 232 295 353 439
#     4  11  25  49  74 101 144 188 244 308 362 432
#     4  11  26  47  75 106 139 187 252 310 364 423
#     4  11  24  41  61  99 147 193 236 285 360 444
#     4  11  24  44  67  97 140 190 236 299 354 425
#
# _framework density 23.306964000000001
#
# number of rings (size 3 to 8) (size 9 to 14) (size 15 to 20)
#    0.000    1.000    5.000    1.500    5.250    2.500 
#    0.000    2.500    0.000    0.000    0.000    0.000 
#    0.000    0.000    0.000    0.000    0.000    0.000 
#
# Total GULP energy -356463.969824 kJ/mol
# GULP energy per Si atom -5569.749529 kJ/mol
# Density = 2.325392 g / cm^3
# Si number density = 23.306964 Si / 1000 Ang^3
#
#
#
# Elastic Constant Matrix: (Units=GPa)
#
#
# Indices 1 2 3 4 5 6 
#
# 1 92.1667 21.2874 48.4443 0.0000 0.0000 0.0000
# 2 21.2874 77.8108 33.9872 0.0000 0.0000 0.0000
# 3 48.4443 33.9872 103.1481 0.0000 0.0000 0.0000
# 4 0.0000 0.0000 0.0000 15.3942 0.0000 0.0000
# 5 0.0000 0.0000 0.0000 0.0000 21.9623 0.0000
# 6 0.0000 0.0000 0.0000 0.0000 0.0000 32.0789
#
#
#
# Elastic Compliance Matrix: (Units=1/GPa)
#
#
# Indices 1 2 3 4 5 6 
#
# 1 0.014495 -0.001159 -0.006426 0.000000 0.000000 0.000000
# 2 -0.001159 0.015105 -0.004433 0.000000 0.000000 0.000000
# 3 -0.006426 -0.004433 0.014173 0.000000 0.000000 0.000000
# 4 0.000000 0.000000 0.000000 0.064959 0.000000 0.000000
# 5 0.000000 0.000000 0.000000 0.000000 0.045532 0.000000
# 6 0.000000 0.000000 0.000000 0.000000 0.000000 0.031173
#
#
# Mechanical properties :
#
#
# Convention : Reuss Voigt Hill
#
# Bulk Modulus (GPa) = 50.66269 53.39593 52.02931
# Shear Modulus (GPa) = 23.14245 25.18086 24.16166
#
# Velocity S-wave (km/s) = 3.15452 3.29051 3.22323
# Velocity P-wave (km/s) = 5.92050 6.11524 6.01866
#
# Compressibility (1/GPa) = 0.01973839
#
# Stress axis : x y z
#
# Youngs Moduli (GPa) = 68.98873 66.20360 70.55462
#
# Poissons Ratio (x) = 0.07671 0.45338
# Poissons Ratio (y) = 0.07994 0.31276
# Poissons Ratio (z) = 0.44332 0.29347
#
# Static dielectric constant tensor:
#      x y z
#    x 1.915730 0.000000 0.000000 
#    y 0.000000 2.014900 0.000000 
#    z 0.000000 0.000000 1.866330 
# 
# From -- ./inp_files/27941.got.cif
#   From: 2010.05.17/outbox.cif.g08.bks.cpg/sg54_14_cif.got.tgz:27941.got - 2010.06.03 13:09:01.
