data_PCOD9424454
_publ_section_title
;
Structure prediction by ZEFSAII (Michael W. Deem and Ramdas Pophale) SiO2 
 PCOD9424454
Probable space group: P C C A
;
_chemical_formula_sum "Si O2"
_cell_formula_units_Z 48
_cell_length_a 7.716271
_cell_length_b 8.060275
_cell_length_c 31.452131
_cell_angle_alpha 90.000000
_cell_angle_beta 90.000000
_cell_angle_gamma 90.000000
_cell_volume 1956.173661
_symmetry_space_group_name_H-M "P C C A"
_symmetry_group_IT_number 54
_symmetry_cell_setting 'orthorhombic'
loop_
_space_group_symop_operation_xyz
x,y,z
1/2-x,-y,z
1/2+x,-y,1/2-z
-x,y,1/2-z
-x,-y,-z
1/2+x,y,-z
1/2-x,y,1/2+z
x,-y,1/2+z
loop_
_atom_site_type_symbol
_atom_site_label
_atom_site_fract_x
_atom_site_fract_y
_atom_site_fract_z
Si Si1 0.971829 0.316127 0.953686
Si Si2 0.559153 0.707067 0.363680
Si Si3 0.556389 0.697718 0.455448
Si Si4 0.522838 0.311673 0.361391
Si Si5 0.165926 0.327568 0.778622
Si Si6 0.603018 0.887704 0.285317
O O1 0.024233 0.511314 0.956165
O O2 0.763604 0.316915 0.951959
O O3 0.035034 0.250761 0.908163
O O4 0.020822 0.229995 0.997963
O O5 0.504957 0.774164 0.410027
O O6 0.511309 0.513215 0.361948
O O7 0.769360 0.716014 0.358389
O O8 0.494273 0.805071 0.322645
O O9 0.413022 0.246161 0.321657
O O10 0.250000 0.500000 0.792140
O O11 0.300318 0.240888 0.746114
O O12 0.000000 0.370183 0.750000
O O13 0.500000 0.992998 0.250000
O O14 0.750000 0.000000 0.305210
#
# Coordination Sequence:
#
# PCOD9424454 Si02
#       6
#     8   8   8   8   8   8
#     4   8  14  26  42  73 108 139 176 217 269 323
#     4   9  17  34  55  77 109 148 184 222 280 341
#     4   8  14  26  46  69 106 144 170 215 272 326
#     4   9  17  31  54  81 111 146 183 225 277 336
#     4  12  22  36  58  84 114 148 187 234 284 334
#     4  12  26  42  58  80 110 148 192 238 284 341
#
# _framework density 24.537696
#
# number of rings (size 3 to 8) (size 9 to 14) (size 15 to 20)
#    0.000    2.333    1.667    5.000    0.000    0.000 
#   12.000    0.000    0.000    0.000    0.000    5.833 
#    0.000    0.000    0.000    0.000    0.000    0.000 
#
# Total GULP energy -267863.774680 kJ/mol
# GULP energy per Si atom -5580.495306 kJ/mol
# Density = 2.448185 g / cm^3
# Si number density = 24.537696 Si / 1000 Ang^3
#
#
#
# Elastic Constant Matrix: (Units=GPa)
#
#
# Indices 1 2 3 4 5 6 
#
# 1 52.6332 -1.6340 34.9740 0.0000 0.0000 0.0000
# 2 -1.6340 31.2017 25.8564 0.0000 0.0000 0.0000
# 3 34.9740 25.8564 262.2251 0.0000 0.0000 0.0000
# 4 0.0000 0.0000 0.0000 5.6686 0.0000 0.0000
# 5 0.0000 0.0000 0.0000 0.0000 37.7302 0.0000
# 6 0.0000 0.0000 0.0000 0.0000 0.0000 12.3105
#
#
#
# Elastic Compliance Matrix: (Units=1/GPa)
#
#
# Indices 1 2 3 4 5 6 
#
# 1 0.021246 0.003769 -0.003205 0.000000 0.000000 0.000000
# 2 0.003769 0.035570 -0.004010 0.000000 0.000000 0.000000
# 3 -0.003205 -0.004010 0.004636 0.000000 0.000000 0.000000
# 4 0.000000 0.000000 0.000000 0.176412 0.000000 0.000000
# 5 0.000000 0.000000 0.000000 0.000000 0.026504 0.000000
# 6 0.000000 0.000000 0.000000 0.000000 0.000000 0.081232
#
#
# Mechanical properties :
#
#
# Convention : Reuss Voigt Hill
#
# Bulk Modulus (GPa) = 18.32854 51.60587 34.96720
# Shear Modulus (GPa) = 13.48875 30.26609 21.87742
#
# Velocity S-wave (km/s) = 2.34714 3.51586 2.98918
# Velocity P-wave (km/s) = 3.85113 6.12851 5.11810
#
# Compressibility (1/GPa) = 0.05455973
#
# Stress axis : x y z
#
# Youngs Moduli (GPa) = 47.06697 28.11361 215.68334
#
# Poissons Ratio (x) = -0.10596 0.69134
# Poissons Ratio (y) = -0.17739 0.86489
# Poissons Ratio (z) = 0.15087 0.11274
#
# Static dielectric constant tensor:
#      x y z
#    x 2.055530 0.000000 0.000000 
#    y 0.000000 1.929040 0.000000 
#    z 0.000000 0.000000 2.006890 
# 
# From -- ./inp_files/27720.got.cif
#   From: 2010.05.17/outbox.cif.g08.bks.cpg/sg54_14_cif.got.tgz:27720.got - 2010.06.03 13:09:01.
