data_PCOD9424210
_publ_section_title
;
Structure prediction by ZEFSAII (Michael W. Deem and Ramdas Pophale) SiO2 
 PCOD9424210
Probable space group: P C C A
;
_chemical_formula_sum "Si O2"
_cell_formula_units_Z 40
_cell_length_a 19.413927
_cell_length_b 5.368589
_cell_length_c 17.828030
_cell_angle_alpha 90.000000
_cell_angle_beta 90.000000
_cell_angle_gamma 90.000000
_cell_volume 1858.133468
_symmetry_space_group_name_H-M "P C C A"
_symmetry_group_IT_number 54
_symmetry_cell_setting 'orthorhombic'
loop_
_space_group_symop_operation_xyz
x,y,z
1/2-x,-y,z
1/2+x,-y,1/2-z
-x,y,1/2-z
-x,-y,-z
1/2+x,y,-z
1/2-x,y,1/2+z
x,-y,1/2+z
loop_
_atom_site_type_symbol
_atom_site_label
_atom_site_fract_x
_atom_site_fract_y
_atom_site_fract_z
Si Si1 0.078520 0.345714 0.721666
Si Si2 0.750000 0.000000 0.598171
Si Si3 0.750000 0.500000 0.502271
Si Si4 0.101202 0.455334 0.558355
Si Si5 0.513484 0.804636 0.064704
Si Si6 0.881071 0.146263 0.197306
O O1 0.080784 0.304942 0.632264
O O2 0.114528 0.597407 0.754910
O O3 0.000000 0.362373 0.750000
O O4 0.113211 0.100650 0.754108
O O5 0.767604 0.246712 0.548858
O O6 0.687190 0.104760 0.647825
O O7 0.818078 0.549448 0.453966
O O8 0.064927 0.385518 0.479468
O O9 0.062910 0.708663 0.580770
O O10 0.553937 0.863991 0.140049
O O11 0.500000 0.000000 0.000000
#
# Coordination Sequence:
#
# PCOD9424210 Si02
#       6
#     8   4   4   8   8   8
#     4  12  26  46  71 108 147 188 236 304 359 429
#     4  12  26  48  72 104 144 192 244 298 360 440
#     4  12  26  46  72 108 144 186 242 316 352 426
#     4  11  26  43  72 107 143 186 245 296 366 420
#     4  11  23  44  73 102 134 195 244 294 344 433
#     4  12  26  45  73 101 143 192 236 291 366 430
#
# _framework density 21.526979999999998
#
# number of rings (size 3 to 8) (size 9 to 14) (size 15 to 20)
#    0.000    0.400    4.000    4.200    5.600    1.600 
#    0.000    0.000    0.000    0.000    0.000    0.000 
#    0.000    0.000    0.000    0.000    0.000    0.000 
#
# Total GULP energy -223247.528981 kJ/mol
# GULP energy per Si atom -5581.188225 kJ/mol
# Density = 2.147798 g / cm^3
# Si number density = 21.526980 Si / 1000 Ang^3
#
#
#
# Elastic Constant Matrix: (Units=GPa)
#
#
# Indices 1 2 3 4 5 6 
#
# 1 86.2014 -13.4024 -16.8546 0.0000 0.0000 0.0000
# 2 -13.4024 105.1682 15.7982 0.0000 0.0000 0.0000
# 3 -16.8546 15.7982 71.2770 0.0000 0.0000 0.0000
# 4 0.0000 0.0000 0.0000 -18.8785 0.0000 0.0000
# 5 0.0000 0.0000 0.0000 0.0000 14.2740 0.0000
# 6 0.0000 0.0000 0.0000 0.0000 0.0000 11.4701
#
#
#
# Elastic Compliance Matrix: (Units=1/GPa)
#
#
# Indices 1 2 3 4 5 6 
#
# 1 0.012301 0.001170 0.002649 0.000000 0.000000 0.000000
# 2 0.001170 0.009947 -0.001928 0.000000 0.000000 0.000000
# 3 0.002649 -0.001928 0.015084 0.000000 0.000000 0.000000
# 4 0.000000 0.000000 0.000000 -0.052970 0.000000 0.000000
# 5 0.000000 0.000000 0.000000 0.000000 0.070057 0.000000
# 6 0.000000 0.000000 0.000000 0.000000 0.000000 0.087183
#
#
# Mechanical properties :
#
#
# Convention : Reuss Voigt Hill
#
# Bulk Modulus (GPa) = 24.32310 25.96989 25.14650
# Shear Modulus (GPa) = 32.99792 19.84681 26.42236
#
# Velocity S-wave (km/s) = 3.91943 3.03966 3.50724
# Velocity P-wave (km/s) = 5.63968 4.94059 5.30167
#
# Compressibility (1/GPa) = 0.04111317
#
# Stress axis : x y z
#
# Youngs Moduli (GPa) = 81.29674 100.53003 66.29690
#
# Poissons Ratio (x) = -0.11758 -0.17565
# Poissons Ratio (y) = -0.09508 0.12783
# Poissons Ratio (z) = -0.21539 0.19384
#
# Static dielectric constant tensor:
#      x y z
#    x 1.810460 0.000000 0.000000 
#    y 0.000000 1.324200 0.000000 
#    z 0.000000 0.000000 1.730680 
# 
# From -- ./inp_files/18392.got.cif
#   From: 2010.05.17/outbox.cif.g08.bks.cpg/sg54_10_cif.got.tgz:18392.got - 2010.06.03 13:09:01.
