data_PCOD9424563
_publ_section_title
;
Structure prediction by ZEFSAII (Michael W. Deem and Ramdas Pophale) SiO2 
 PCOD9424563
Probable space group: P C C A
;
_chemical_formula_sum "Si O2"
_cell_formula_units_Z 32
_cell_length_a 18.504417
_cell_length_b 6.773302
_cell_length_c 12.133009
_cell_angle_alpha 90.000000
_cell_angle_beta 90.000000
_cell_angle_gamma 90.000000
_cell_volume 1520.702873
_symmetry_space_group_name_H-M "P C C A"
_symmetry_group_IT_number 54
_symmetry_cell_setting 'orthorhombic'
loop_
_space_group_symop_operation_xyz
x,y,z
1/2-x,-y,z
1/2+x,-y,1/2-z
-x,y,1/2-z
-x,-y,-z
1/2+x,y,-z
1/2-x,y,1/2+z
x,-y,1/2+z
loop_
_atom_site_type_symbol
_atom_site_label
_atom_site_fract_x
_atom_site_fract_y
_atom_site_fract_z
Si Si1 0.000000 0.170089 0.250000
Si Si2 0.885865 0.848851 0.246195
Si Si3 0.250000 0.000000 0.898127
Si Si4 0.439016 0.496485 0.406866
Si Si5 0.810555 0.647805 0.452040
O O1 0.960114 0.315320 0.166231
O O2 0.936965 0.023913 0.290360
O O3 0.930888 0.700221 0.166836
O O4 0.855841 0.730505 0.350241
O O5 0.817910 0.934836 0.177459
O O6 0.225183 0.822392 0.977312
O O7 0.500000 0.500000 0.500000
O O8 0.362946 0.530403 0.466060
O O9 0.750000 0.500000 0.408437
#
# Coordination Sequence:
#
# PCOD9424563 Si02
#       5
#     4   8   4   8   8
#     4  12  26  48  74 106 152 194 244 306 358 444
#     4  12  28  46  76 114 143 198 253 298 369 448
#     4  12  26  48  74 110 148 192 246 308 372 438
#     4  12  27  47  73 109 150 195 242 304 369 435
#     4  12  27  47  76 105 149 191 243 310 371 436
#
# _framework density 21.042902000000002
#
# number of rings (size 3 to 8) (size 9 to 14) (size 15 to 20)
#    0.000    0.000    5.000    4.500    7.000    6.000 
#    0.000    0.000    0.000    0.000    0.000    0.000 
#    0.000    0.000    0.000    0.000    0.000    0.000 
#
# Total GULP energy -179126.737307 kJ/mol
# GULP energy per Si atom -5597.710541 kJ/mol
# Density = 2.099501 g / cm^3
# Si number density = 21.042902 Si / 1000 Ang^3
#
#
#
# Elastic Constant Matrix: (Units=GPa)
#
#
# Indices 1 2 3 4 5 6 
#
# 1 88.3088 30.7304 8.5807 0.0000 0.0000 0.0000
# 2 30.7304 90.4670 16.0676 0.0000 0.0000 0.0000
# 3 8.5807 16.0676 54.5366 0.0000 0.0000 0.0000
# 4 0.0000 0.0000 0.0000 69.1335 0.0000 0.0000
# 5 0.0000 0.0000 0.0000 0.0000 50.0563 0.0000
# 6 0.0000 0.0000 0.0000 0.0000 0.0000 67.0319
#
#
#
# Elastic Compliance Matrix: (Units=1/GPa)
#
#
# Indices 1 2 3 4 5 6 
#
# 1 0.012873 -0.004235 -0.000778 0.000000 0.000000 0.000000
# 2 -0.004235 0.013057 -0.003181 0.000000 0.000000 0.000000
# 3 -0.000778 -0.003181 0.019396 0.000000 0.000000 0.000000
# 4 0.000000 0.000000 0.000000 0.014465 0.000000 0.000000
# 5 0.000000 0.000000 0.000000 0.000000 0.019978 0.000000
# 6 0.000000 0.000000 0.000000 0.000000 0.000000 0.014918
#
#
# Mechanical properties :
#
#
# Convention : Reuss Voigt Hill
#
# Bulk Modulus (GPa) = 34.55450 38.22997 36.39223
# Shear Modulus (GPa) = 41.41839 49.10659 45.26249
#
# Velocity S-wave (km/s) = 4.44135 4.83602 4.64288
# Velocity P-wave (km/s) = 6.53891 7.02779 6.78775
#
# Compressibility (1/GPa) = 0.02893979
#
# Stress axis : x y z
#
# Youngs Moduli (GPa) = 77.68140 76.58658 51.55760
#
# Poissons Ratio (x) = 0.32432 0.04010
# Poissons Ratio (y) = 0.32895 0.16399
# Poissons Ratio (z) = 0.06042 0.24359
#
# Static dielectric constant tensor:
#      x y z
#    x 1.753010 0.000000 0.000000 
#    y 0.000000 1.736800 0.000000 
#    z 0.000000 0.000000 1.744640 
# 
# From -- ./inp_files/9259.got.cif
#   From: 2010.05.17/outbox.cif.g08.bks.cpg/sg54_5_cif.got.tgz:9259.got - 2010.06.03 13:09:01.
