data_PCOD9424316
_publ_section_title
;
Structure prediction by ZEFSAII (Michael W. Deem and Ramdas Pophale) SiO2 
 PCOD9424316
Probable space group: P C C A
;
_chemical_formula_sum "Si O2"
_cell_formula_units_Z 32
_cell_length_a 13.365257
_cell_length_b 7.902722
_cell_length_c 13.637236
_cell_angle_alpha 90.000000
_cell_angle_beta 90.000000
_cell_angle_gamma 90.000000
_cell_volume 1440.390921
_symmetry_space_group_name_H-M "P C C A"
_symmetry_group_IT_number 54
_symmetry_cell_setting 'orthorhombic'
loop_
_space_group_symop_operation_xyz
x,y,z
1/2-x,-y,z
1/2+x,-y,1/2-z
-x,y,1/2-z
-x,-y,-z
1/2+x,y,-z
1/2-x,y,1/2+z
x,-y,1/2+z
loop_
_atom_site_type_symbol
_atom_site_label
_atom_site_fract_x
_atom_site_fract_y
_atom_site_fract_z
Si Si1 0.380097 0.281330 0.974116
Si Si2 0.439030 0.177129 0.656770
Si Si3 0.903823 0.426101 0.810124
Si Si4 0.750000 0.500000 0.170453
Si Si5 0.750000 0.000000 0.937478
O O1 0.479751 0.198768 0.929852
O O2 0.334074 0.416109 0.898053
O O3 0.402201 0.362364 0.079498
O O4 0.293518 0.146881 0.994423
O O5 0.500000 0.107245 0.750000
O O6 0.406212 0.368987 0.683469
O O7 0.343396 0.069282 0.625407
O O8 0.808431 0.376147 0.744809
O O9 0.000000 0.369227 0.750000
#
# Coordination Sequence:
#
# PCOD9424316 Si02
#       5
#     8   8   8   4   4
#     4  12  26  44  72 104 145 185 242 293 359 430
#     4  11  24  49  71 106 145 185 243 298 353 434
#     4  11  24  45  75 106 134 181 241 301 358 408
#     4  12  22  44  74 104 138 186 232 300 352 424
#     4  12  28  44  68 102 150 198 232 286 368 432
#
# _framework density 22.216191999999999
#
# number of rings (size 3 to 8) (size 9 to 14) (size 15 to 20)
#    0.000    0.500    5.000    5.250    3.500    2.000 
#    0.000    0.000    0.000    0.000    0.000    0.000 
#    0.000    0.000    0.000    0.000    0.000    0.000 
#
# Total GULP energy -179103.894404 kJ/mol
# GULP energy per Si atom -5596.996700 kJ/mol
# Density = 2.216563 g / cm^3
# Si number density = 22.216192 Si / 1000 Ang^3
#
#
#
# Elastic Constant Matrix: (Units=GPa)
#
#
# Indices 1 2 3 4 5 6 
#
# 1 175.4410 22.5981 92.6203 0.0000 0.0000 0.0000
# 2 22.5981 26.8531 25.8075 0.0000 0.0000 0.0000
# 3 92.6203 25.8075 193.5175 0.0000 0.0000 0.0000
# 4 0.0000 0.0000 0.0000 -11.9676 0.0000 0.0000
# 5 0.0000 0.0000 0.0000 0.0000 49.2479 0.0000
# 6 0.0000 0.0000 0.0000 0.0000 0.0000 36.0832
#
#
#
# Elastic Compliance Matrix: (Units=1/GPa)
#
#
# Indices 1 2 3 4 5 6 
#
# 1 0.007897 -0.003456 -0.003319 0.000000 0.000000 0.000000
# 2 -0.003456 0.044227 -0.004244 0.000000 0.000000 0.000000
# 3 -0.003319 -0.004244 0.007322 0.000000 0.000000 0.000000
# 4 0.000000 0.000000 0.000000 -0.083559 0.000000 0.000000
# 5 0.000000 0.000000 0.000000 0.000000 0.020305 0.000000
# 6 0.000000 0.000000 0.000000 0.000000 0.000000 0.027714
#
#
# Mechanical properties :
#
#
# Convention : Reuss Voigt Hill
#
# Bulk Modulus (GPa) = 26.73219 75.31815 51.02517
# Shear Modulus (GPa) = 85.59628 31.65840 58.62734
#
# Velocity S-wave (km/s) = 6.21389 3.77903 5.14264
# Velocity P-wave (km/s) = 7.97133 7.28131 7.63412
#
# Compressibility (1/GPa) = 0.03740808
#
# Stress axis : x y z
#
# Youngs Moduli (GPa) = 126.62718 22.61067 136.57711
#
# Poissons Ratio (x) = 0.07815 0.45327
# Poissons Ratio (y) = 0.43766 0.57961
# Poissons Ratio (z) = 0.42025 0.09596
#
# Static dielectric constant tensor:
#      x y z
#    x 1.832550 0.000000 0.000000 
#    y 0.000000 1.842450 0.000000 
#    z 0.000000 0.000000 1.806990 
# 
# From -- ./inp_files/8111.got.cif
#   From: 2010.05.17/outbox.cif.g08.bks.cpg/sg54_5_cif.got.tgz:8111.got - 2010.06.03 13:09:01.
