data_PCOD9424979
_publ_section_title
;
Structure prediction by ZEFSAII (Michael W. Deem and Ramdas Pophale) SiO2 
 PCOD9424979
Probable space group: P B A M
;
_chemical_formula_sum "Si O2"
_cell_formula_units_Z 64
_cell_length_a 19.619575
_cell_length_b 24.046867
_cell_length_c 8.556789
_cell_angle_alpha 90.000000
_cell_angle_beta 90.000000
_cell_angle_gamma 90.000000
_cell_volume 4037.001583
_symmetry_space_group_name_H-M "P B A M"
_symmetry_group_IT_number 55
_symmetry_cell_setting 'orthorhombic'
loop_
_space_group_symop_operation_xyz
x,y,z
-x,-y,z
1/2+x,1/2-y,-z
1/2-x,1/2+y,-z
-x,-y,-z
x,y,-z
1/2-x,1/2+y,z
1/2+x,1/2-y,z
loop_
_atom_site_type_symbol
_atom_site_label
_atom_site_fract_x
_atom_site_fract_y
_atom_site_fract_z
Si Si1 0.361193 0.061668 0.809290
Si Si2 0.854158 0.225274 0.813113
Si Si3 0.355681 0.934412 0.189015
Si Si4 0.002239 0.748121 0.685143
Si Si5 0.226950 0.663596 0.810262
Si Si6 0.773229 0.665646 0.685232
Si Si7 0.356611 0.729491 0.187317
Si Si8 0.000719 0.377567 0.811173
O O1 0.303502 0.105184 0.756066
O O2 0.434605 0.086824 0.764118
O O3 0.351468 0.998328 0.758621
O O4 0.360578 0.061085 0.000000
O O5 0.931884 0.222970 0.760253
O O6 0.824026 0.286061 0.766595
O O7 0.803150 0.180805 0.737865
O O8 0.849263 0.221288 0.000000
O O9 0.298767 0.894313 0.259815
O O10 0.429548 0.908868 0.230902
O O11 0.350678 0.932855 0.000000
O O12 0.007956 0.750033 0.500000
O O13 0.930844 0.774240 0.739141
O O14 0.001409 0.683876 0.740678
O O15 0.302306 0.682535 0.760893
O O16 0.227574 0.662316 0.000000
O O17 0.779752 0.671140 0.500000
O O18 0.822007 0.711875 0.765301
O O19 0.362391 0.728294 0.000000
O O20 0.998983 0.371769 0.000000
#
# Coordination Sequence:
#
# PCOD9424979 Si02
#       8
#     8   8   8   8   8   8   8   8
#     4   9  16  29  49  74  97 127 173 216 243 279
#     4  10  19  34  54  72  95 127 166 205 247 301
#     4  10  19  30  49  72  98 135 176 206 240 290
#     4  12  22  31  47  74 103 132 162 203 255 299
#     4   8  15  28  49  73  93 119 161 210 246 279
#     4  11  21  33  48  71 102 130 163 207 252 292
#     4  10  19  32  50  70  95 131 171 205 247 299
#     4  10  18  30  47  68  99 137 175 206 236 284
#
# _framework density 15.853350000000001
#
# number of rings (size 3 to 8) (size 9 to 14) (size 15 to 20)
#    0.000    2.000    2.500    4.125    0.000    1.500 
#    0.000    0.625    0.000    1.500    0.000    0.875 
#    0.000    7.000    0.000    0.000    0.000    0.000 
#
# Total GULP energy -357120.201664 kJ/mol
# GULP energy per Si atom -5580.003151 kJ/mol
# Density = 1.581727 g / cm^3
# Si number density = 15.853350 Si / 1000 Ang^3
#
#
#
# Elastic Constant Matrix: (Units=GPa)
#
#
# Indices 1 2 3 4 5 6 
#
# 1 109.0266 56.5551 8.4152 0.0000 0.0000 0.0000
# 2 56.5551 91.7361 16.7035 0.0000 0.0000 0.0000
# 3 8.4152 16.7035 25.3452 0.0000 0.0000 0.0000
# 4 0.0000 0.0000 0.0000 -6.9640 0.0000 0.0000
# 5 0.0000 0.0000 0.0000 0.0000 13.4849 0.0000
# 6 0.0000 0.0000 0.0000 0.0000 0.0000 20.4553
#
#
#
# Elastic Compliance Matrix: (Units=1/GPa)
#
#
# Indices 1 2 3 4 5 6 
#
# 1 0.013513 -0.008539 0.001141 0.000000 0.000000 0.000000
# 2 -0.008539 0.017782 -0.008884 0.000000 0.000000 0.000000
# 3 0.001141 -0.008884 0.044932 0.000000 0.000000 0.000000
# 4 0.000000 0.000000 0.000000 -0.143595 0.000000 0.000000
# 5 0.000000 0.000000 0.000000 0.000000 0.074157 0.000000
# 6 0.000000 0.000000 0.000000 0.000000 0.000000 0.048887
#
#
# Mechanical properties :
#
#
# Convention : Reuss Voigt Hill
#
# Bulk Modulus (GPa) = 22.90290 43.27284 33.08787
# Shear Modulus (GPa) = 48.64029 15.02416 31.83223
#
# Velocity S-wave (km/s) = 5.54509 3.08181 4.48584
# Velocity P-wave (km/s) = 7.44818 6.32601 6.90991
#
# Compressibility (1/GPa) = 0.04366259
#
# Stress axis : x y z
#
# Youngs Moduli (GPa) = 74.00162 56.23509 22.25604
#
# Poissons Ratio (x) = 0.48017 -0.02538
# Poissons Ratio (y) = 0.63187 0.19773
# Poissons Ratio (z) = -0.08440 0.49961
#
# Static dielectric constant tensor:
#      x y z
#    x 1.531810 0.000000 0.000000 
#    y 0.000000 1.513960 0.000000 
#    z 0.000000 0.000000 1.528840 
# 
# From -- ./inp_files/8192.got.cif
#   From: 2010.05.17/outbox.cif.g08.bks.cpg/sg55_5_cif.got.tgz:8192.got - 2010.06.03 13:27:54.
