data_PCOD9424985
_publ_section_title
;
Structure prediction by ZEFSAII (Michael W. Deem and Ramdas Pophale) SiO2 
 PCOD9424985
Probable space group: P B A M
;
_chemical_formula_sum "Si O2"
_cell_formula_units_Z 56
_cell_length_a 18.926653
_cell_length_b 21.446511
_cell_length_c 8.677305
_cell_angle_alpha 90.000000
_cell_angle_beta 90.000000
_cell_angle_gamma 90.000000
_cell_volume 3522.210702
_symmetry_space_group_name_H-M "P B A M"
_symmetry_group_IT_number 55
_symmetry_cell_setting 'orthorhombic'
loop_
_space_group_symop_operation_xyz
x,y,z
-x,-y,z
1/2+x,1/2-y,-z
1/2-x,1/2+y,-z
-x,-y,-z
x,y,-z
1/2-x,1/2+y,z
1/2+x,1/2-y,z
loop_
_atom_site_type_symbol
_atom_site_label
_atom_site_fract_x
_atom_site_fract_y
_atom_site_fract_z
Si Si1 0.082573 0.001298 0.685692
Si Si2 0.345252 0.624120 0.185895
Si Si3 0.351843 0.367952 0.315581
Si Si4 0.570971 0.753614 0.186172
Si Si5 0.295742 0.177988 0.177159
Si Si6 0.084161 0.249155 0.316331
Si Si7 0.283737 0.812275 0.177340
O O1 0.086636 0.008461 0.500000
O O2 0.118255 0.935555 0.727138
O O3 0.121171 0.059462 0.763005
O O4 0.000000 0.000000 0.728365
O O5 0.263982 0.632438 0.243687
O O6 0.390093 0.681920 0.252589
O O7 0.344922 0.629786 0.000000
O O8 0.355210 0.361282 0.500000
O O9 0.399322 0.313297 0.241529
O O10 0.271636 0.357734 0.259289
O O11 0.627564 0.805625 0.243953
O O12 0.492792 0.763174 0.248865
O O13 0.571377 0.754118 0.000000
O O14 0.256101 0.245078 0.176336
O O15 0.307351 0.158582 0.000000
O O16 0.081803 0.246581 0.500000
O O17 0.142607 0.299072 0.261170
O O18 0.295049 0.830327 0.000000
#
# Coordination Sequence:
#
# PCOD9424985 Si02
#       7
#     8   8   8   8   8   8   8
#     4  10  21  34  46  65  96 130 161 192 227 270
#     4  10  19  32  49  68  91 122 161 196 230 275
#     4  10  19  31  47  68  96 128 160 194 233 275
#     4  10  18  30  48  69  95 124 154 190 235 283
#     4   7  14  28  45  65  88 114 146 188 229 270
#     4  11  20  30  46  70  98 123 152 192 239 284
#     4   9  17  31  48  66  90 121 158 194 232 279
#
# _framework density 15.899105
#
# number of rings (size 3 to 8) (size 9 to 14) (size 15 to 20)
#    0.000    2.429    0.000    5.571    0.000    2.571 
#    0.000    2.143    0.000    0.000    0.000    1.000 
#    0.000    8.000    0.000    0.000    0.000    0.000 
#
# Total GULP energy -312076.990025 kJ/mol
# GULP energy per Si atom -5572.803393 kJ/mol
# Density = 1.586292 g / cm^3
# Si number density = 15.899105 Si / 1000 Ang^3
#
#
#
# Elastic Constant Matrix: (Units=GPa)
#
#
# Indices 1 2 3 4 5 6 
#
# 1 169.8399 66.7212 49.4061 0.0000 0.0000 0.0000
# 2 66.7212 70.9055 30.8187 0.0000 0.0000 0.0000
# 3 49.4061 30.8187 66.7391 0.0000 0.0000 0.0000
# 4 0.0000 0.0000 0.0000 17.9003 0.0000 0.0000
# 5 0.0000 0.0000 0.0000 0.0000 23.3597 0.0000
# 6 0.0000 0.0000 0.0000 0.0000 0.0000 26.5857
#
#
#
# Elastic Compliance Matrix: (Units=1/GPa)
#
#
# Indices 1 2 3 4 5 6 
#
# 1 0.010076 -0.007806 -0.003854 0.000000 0.000000 0.000000
# 2 -0.007806 0.023692 -0.005162 0.000000 0.000000 0.000000
# 3 -0.003854 -0.005162 0.020221 0.000000 0.000000 0.000000
# 4 0.000000 0.000000 0.000000 0.055865 0.000000 0.000000
# 5 0.000000 0.000000 0.000000 0.000000 0.042809 0.000000
# 6 0.000000 0.000000 0.000000 0.000000 0.000000 0.037614
#
#
# Mechanical properties :
#
#
# Convention : Reuss Voigt Hill
#
# Bulk Modulus (GPa) = 49.15392 66.81959 57.98675
# Shear Modulus (GPa) = 21.67302 24.27172 22.97237
#
# Velocity S-wave (km/s) = 3.69611 3.91142 3.80529
# Velocity P-wave (km/s) = 7.01414 7.90680 7.47381
#
# Compressibility (1/GPa) = 0.02034426
#
# Stress axis : x y z
#
# Youngs Moduli (GPa) = 99.25007 42.20840 49.45428
#
# Poissons Ratio (x) = 0.32947 0.19061
# Poissons Ratio (y) = 0.77472 0.25528
# Poissons Ratio (z) = 0.38254 0.21788
#
# Static dielectric constant tensor:
#      x y z
#    x 1.555050 0.000000 0.000000 
#    y 0.000000 1.506130 0.000000 
#    z 0.000000 0.000000 1.538940 
# 
# From -- ./inp_files/7868.got.cif
#   From: 2010.05.17/outbox.cif.g08.bks.cpg/sg55_4_cif.got.tgz:7868.got - 2010.06.03 13:27:54.
