data_PCOD9424612
_publ_section_title
;
Structure prediction by ZEFSAII (Michael W. Deem and Ramdas Pophale) SiO2 
 PCOD9424612
Probable space group: P C C A
;
_chemical_formula_sum "Si O2"
_cell_formula_units_Z 60
_cell_length_a 27.000000
_cell_length_b 15.000000
_cell_length_c 9.000000
_cell_angle_alpha 90.000000
_cell_angle_beta 90.000000
_cell_angle_gamma 90.000000
_cell_volume 3645.000000
_symmetry_space_group_name_H-M "P C C A"
_symmetry_group_IT_number 54
_symmetry_cell_setting 'orthorhombic'
loop_
_space_group_symop_operation_xyz
x,y,z
1/2-x,-y,z
1/2+x,-y,1/2-z
-x,y,1/2-z
-x,-y,-z
1/2+x,y,-z
1/2-x,y,1/2+z
x,-y,1/2+z
loop_
_atom_site_type_symbol
_atom_site_label
_atom_site_fract_x
_atom_site_fract_y
_atom_site_fract_z
Si Si1 0.705275 0.117081 0.771360
Si Si2 0.688287 0.422672 0.985564
Si Si3 0.638830 0.240037 0.958360
Si Si4 0.836946 0.964225 0.470277
Si Si5 0.000000 0.011873 0.750000
Si Si6 0.815431 0.196599 0.778149
Si Si7 0.066219 0.914318 0.507505
Si Si8 0.795261 0.604234 0.337993
O O1 0.689792 0.075903 0.614021
O O2 0.759866 0.157552 0.773785
O O3 0.696954 0.037116 0.887830
O O4 0.667985 0.195253 0.821533
O O5 0.646497 0.347172 0.953619
O O6 0.700565 0.419109 0.162082
O O7 0.678609 0.523964 0.930008
O O8 0.738441 0.395691 0.896092
O O9 0.666549 0.211210 0.110539
O O10 0.587088 0.185945 0.968921
O O11 0.846330 0.879816 0.362251
O O12 0.886703 0.018718 0.508003
O O13 0.035376 0.949940 0.648828
O O14 0.967593 0.071469 0.637297
O O15 0.815227 0.294516 0.854071
#
# Coordination Sequence:
#
# PCOD9424612 Si02
#       8
#     8   8   8   8   4   8   8   8
#     4  11  21  33  45  67 100 146 176 210 240 285
#     4  10  19  33  49  70  98 138 175 223 239 293
#     4  10  20  34  52  72 103 129 179 215 251 291
#     4  11  22  32  50  69 104 132 179 213 254 292
#     4  10  20  36  58  70 102 128 166 202 286 336
#     4  11  21  32  46  70 101 142 179 209 241 292
#     4  10  20  36  52  77  97 133 160 215 261 324
#     4  10  20  31  49  67  99 137 185 204 254 275
#
# _framework density 16.460905
#
# number of rings (size 3 to 8) (size 9 to 14) (size 15 to 20)
#    0.000    1.600    1.333    6.800    1.867    3.200 
#    0.000    0.000    0.000    0.000    0.000    0.000 
#    0.000   36.267    0.000    0.000    0.000    0.000 
#
# Total GULP energy -334921.030408 kJ/mol
# GULP energy per Si atom -5582.017173 kJ/mol
# Density = 1.642344 g / cm^3
# Si number density = 16.460905 Si / 1000 Ang^3
#
#
#
# Elastic Constant Matrix: (Units=GPa)
#
#
# Indices 1 2 3 4 5 6 
#
# 1 52.1832 32.1441 15.3514 0.0000 0.0000 0.0000
# 2 32.1441 126.0288 25.0430 0.0000 0.0000 0.0000
# 3 15.3514 25.0430 73.6330 0.0000 0.0000 0.0000
# 4 0.0000 0.0000 0.0000 28.3679 0.0000 0.0000
# 5 0.0000 0.0000 0.0000 0.0000 20.8592 0.0000
# 6 0.0000 0.0000 0.0000 0.0000 0.0000 22.3886
#
#
#
# Elastic Compliance Matrix: (Units=1/GPa)
#
#
# Indices 1 2 3 4 5 6 
#
# 1 0.023357 -0.005351 -0.003050 0.000000 0.000000 0.000000
# 2 -0.005351 0.009736 -0.002196 0.000000 0.000000 0.000000
# 3 -0.003050 -0.002196 0.014963 0.000000 0.000000 0.000000
# 4 0.000000 0.000000 0.000000 0.035251 0.000000 0.000000
# 5 0.000000 0.000000 0.000000 0.000000 0.047940 0.000000
# 6 0.000000 0.000000 0.000000 0.000000 0.000000 0.044666
#
#
# Mechanical properties :
#
#
# Convention : Reuss Voigt Hill
#
# Bulk Modulus (GPa) = 37.22561 44.10243 40.66402
# Shear Modulus (GPa) = 24.26476 26.27689 25.27082
#
# Velocity S-wave (km/s) = 3.84355 3.99973 3.92242
# Velocity P-wave (km/s) = 6.50852 6.94124 6.72836
#
# Compressibility (1/GPa) = 0.02686323
#
# Stress axis : x y z
#
# Youngs Moduli (GPa) = 42.81434 102.71348 66.82984
#
# Poissons Ratio (x) = 0.54964 0.20380
# Poissons Ratio (y) = 0.22911 0.14673
# Poissons Ratio (z) = 0.13056 0.22551
#
# Static dielectric constant tensor:
#      x y z
#    x 1.552320 0.000000 0.000000 
#    y 0.000000 1.577760 0.000000 
#    z 0.000000 0.000000 1.582230 
# 
# From -- ./inp_files/5631.got.cif
#   From: 2010.05.17/outbox.ucp.g08.bks.cvg/sg54_3_cif.got.tgz:5631.got - 2010.06.11 16:34:40.
