data_PCOD9424194
_publ_section_title
;
Structure prediction by ZEFSAII (Michael W. Deem and Ramdas Pophale) SiO2 
 PCOD9424194
Probable space group: P C C A
;
_chemical_formula_sum "Si O2"
_cell_formula_units_Z 48
_cell_length_a 30.313715
_cell_length_b 8.370463
_cell_length_c 8.509457
_cell_angle_alpha 90.000000
_cell_angle_beta 90.000000
_cell_angle_gamma 90.000000
_cell_volume 2159.188171
_symmetry_space_group_name_H-M "P C C A"
_symmetry_group_IT_number 54
_symmetry_cell_setting 'orthorhombic'
loop_
_space_group_symop_operation_xyz
x,y,z
1/2-x,-y,z
1/2+x,-y,1/2-z
-x,y,1/2-z
-x,-y,-z
1/2+x,y,-z
1/2-x,y,1/2+z
x,-y,1/2+z
loop_
_atom_site_type_symbol
_atom_site_label
_atom_site_fract_x
_atom_site_fract_y
_atom_site_fract_z
Si Si1 0.772222 0.831498 0.869316
Si Si2 0.952808 0.269387 0.201872
Si Si3 0.132754 0.896258 0.674864
Si Si4 0.371690 0.768855 0.820609
Si Si5 0.282838 0.361401 0.339827
Si Si6 0.954983 0.613016 0.340761
O O1 0.819669 0.817723 0.784724
O O2 0.780124 0.795536 0.050918
O O3 0.738842 0.695231 0.819571
O O4 0.750000 0.000000 0.846130
O O5 0.909664 0.161393 0.227251
O O6 0.948708 0.422680 0.317606
O O7 0.000000 0.191860 0.250000
O O8 0.955255 0.333840 0.022644
O O9 0.123921 0.845457 0.494286
O O10 0.140460 0.084273 0.704602
O O11 0.416244 0.698220 0.753158
O O12 0.335339 0.625525 0.824013
O O13 0.250000 0.500000 0.394398
O O14 0.000000 0.652651 0.250000
#
# Coordination Sequence:
#
# PCOD9424194 Si02
#       6
#     8   8   8   8   8   8
#     4  11  23  43  67  93 135 180 227 281 345 415
#     4  11  23  43  70 100 138 179 225 280 342 411
#     4  11  24  41  65  98 130 180 227 281 343 409
#     4  11  24  43  64  99 135 178 230 285 343 412
#     4  11  25  42  65  98 134 176 232 284 345 409
#     4  11  23  43  69 100 138 178 224 279 344 411
#
# _framework density 22.230578999999999
#
# number of rings (size 3 to 8) (size 9 to 14) (size 15 to 20)
#    0.000    1.000    1.667    6.000    4.667    2.000 
#    0.000    3.333    0.000    0.000    0.000    0.000 
#    0.000    0.000    0.000    0.000    0.000    0.000 
#
# Total GULP energy -267964.604043 kJ/mol
# GULP energy per Si atom -5582.595918 kJ/mol
# Density = 2.217998 g / cm^3
# Si number density = 22.230579 Si / 1000 Ang^3
#
#
#
# Elastic Constant Matrix: (Units=GPa)
#
#
# Indices 1 2 3 4 5 6 
#
# 1 134.2588 44.8057 51.8694 0.0000 0.0000 0.0000
# 2 44.8057 58.4529 22.1531 0.0000 0.0000 0.0000
# 3 51.8694 22.1531 68.0179 0.0000 0.0000 0.0000
# 4 0.0000 0.0000 0.0000 26.7037 0.0000 0.0000
# 5 0.0000 0.0000 0.0000 0.0000 28.2980 0.0000
# 6 0.0000 0.0000 0.0000 0.0000 0.0000 40.6858
#
#
#
# Elastic Compliance Matrix: (Units=1/GPa)
#
#
# Indices 1 2 3 4 5 6 
#
# 1 0.012579 -0.006852 -0.007361 0.000000 0.000000 0.000000
# 2 -0.006852 0.023250 -0.002347 0.000000 0.000000 0.000000
# 3 -0.007361 -0.002347 0.021079 0.000000 0.000000 0.000000
# 4 0.000000 0.000000 0.000000 0.037448 0.000000 0.000000
# 5 0.000000 0.000000 0.000000 0.000000 0.035338 0.000000
# 6 0.000000 0.000000 0.000000 0.000000 0.000000 0.024579
#
#
# Mechanical properties :
#
#
# Convention : Reuss Voigt Hill
#
# Bulk Modulus (GPa) = 42.03731 55.37621 48.70676
# Shear Modulus (GPa) = 25.59878 28.59760 27.09819
#
# Velocity S-wave (km/s) = 3.39707 3.59054 3.49515
# Velocity P-wave (km/s) = 5.85983 6.49256 6.18429
#
# Compressibility (1/GPa) = 0.02378839
#
# Stress axis : x y z
#
# Youngs Moduli (GPa) = 79.49867 43.01130 47.43953
#
# Poissons Ratio (x) = 0.29473 0.34919
# Poissons Ratio (y) = 0.54476 0.11133
# Poissons Ratio (z) = 0.58516 0.10094
#
# Static dielectric constant tensor:
#      x y z
#    x 1.879080 0.000000 0.000000 
#    y 0.000000 1.821270 0.000000 
#    z 0.000000 0.000000 1.791660 
# 
# From -- ./inp_files/5837.got.cif
#   From: 2010.05.17/outbox.cif.g08.bks.cpg/sg54_3_cif.got.tgz:5837.got - 2010.06.03 13:09:01.
