data_PCOD9424956
_publ_section_title
;
Structure prediction by ZEFSAII (Michael W. Deem and Ramdas Pophale) SiO2 
 PCOD9424956
Probable space group: P B A M
;
_chemical_formula_sum "Si O2"
_cell_formula_units_Z 56
_cell_length_a 19.336576
_cell_length_b 17.464310
_cell_length_c 9.135636
_cell_angle_alpha 90.000000
_cell_angle_beta 90.000000
_cell_angle_gamma 90.000000
_cell_volume 3085.103890
_symmetry_space_group_name_H-M "P B A M"
_symmetry_group_IT_number 55
_symmetry_cell_setting 'orthorhombic'
loop_
_space_group_symop_operation_xyz
x,y,z
-x,-y,z
1/2+x,1/2-y,-z
1/2-x,1/2+y,-z
-x,-y,-z
x,y,-z
1/2-x,1/2+y,z
1/2+x,1/2-y,z
loop_
_atom_site_type_symbol
_atom_site_label
_atom_site_fract_x
_atom_site_fract_y
_atom_site_fract_z
Si Si1 0.399578 0.624379 0.168965
Si Si2 0.577586 0.980453 0.172475
Si Si3 0.250868 0.149037 0.172764
Si Si4 0.395675 0.201273 0.831412
Si Si5 0.460649 0.337538 0.327550
Si Si6 0.850703 0.052692 0.171768
Si Si7 0.284865 0.990189 0.673879
O O1 0.328606 0.671225 0.196171
O O2 0.462256 0.644483 0.273198
O O3 0.377658 0.535221 0.183974
O O4 0.420957 0.636333 0.000000
O O5 0.588262 0.888818 0.184617
O O6 0.638581 0.021910 0.261030
O O7 0.500000 0.000000 0.220369
O O8 0.584313 0.999843 0.000000
O O9 0.312851 0.208714 0.193036
O O10 0.266910 0.077306 0.276630
O O11 0.255602 0.123682 0.000000
O O12 0.438747 0.252906 0.722632
O O13 0.410724 0.222956 0.000000
O O14 0.454985 0.347517 0.500000
O O15 0.407260 0.393673 0.245920
O O16 0.776462 0.057798 0.250658
O O17 0.843756 0.070004 0.000000
O O18 0.283546 0.982203 0.500000
#
# Coordination Sequence:
#
# PCOD9424956 Si02
#       7
#     8   8   8   8   8   8   8
#     4   9  18  34  56  79 101 131 174 218 259 307
#     4   9  18  35  59  82 103 135 181 225 261 306
#     4   8  16  33  56  76  95 128 174 214 248 301
#     4   9  18  35  56  76 101 136 176 215 259 311
#     4  12  24  34  48  76 112 143 172 212 265 319
#     4  10  20  36  56  75 100 138 182 221 257 308
#     4  10  18  29  50  80 109 132 160 207 264 314
#
# _framework density 18.151738999999999
#
# number of rings (size 3 to 8) (size 9 to 14) (size 15 to 20)
#    0.000    2.429    0.000    5.143    0.000    7.143 
#    0.000    1.429    0.000    3.429    0.000    0.000 
#    0.000    0.000    0.000    0.000    0.000    0.000 
#
# Total GULP energy -312292.772781 kJ/mol
# GULP energy per Si atom -5576.656657 kJ/mol
# Density = 1.811042 g / cm^3
# Si number density = 18.151739 Si / 1000 Ang^3
#
#
#
# Elastic Constant Matrix: (Units=GPa)
#
#
# Indices 1 2 3 4 5 6 
#
# 1 160.9060 24.8540 85.3679 0.0000 0.0000 0.0000
# 2 24.8540 13.0955 19.9428 0.0000 0.0000 0.0000
# 3 85.3679 19.9428 117.8916 0.0000 0.0000 0.0000
# 4 0.0000 0.0000 0.0000 16.8508 0.0000 0.0000
# 5 0.0000 0.0000 0.0000 0.0000 8.1293 0.0000
# 6 0.0000 0.0000 0.0000 0.0000 0.0000 1.4805
#
#
#
# Elastic Compliance Matrix: (Units=1/GPa)
#
#
# Indices 1 2 3 4 5 6 
#
# 1 0.011372 -0.012180 -0.006174 0.000000 0.000000 0.000000
# 2 -0.012180 0.115906 -0.010787 0.000000 0.000000 0.000000
# 3 -0.006174 -0.010787 0.014778 0.000000 0.000000 0.000000
# 4 0.000000 0.000000 0.000000 0.059344 0.000000 0.000000
# 5 0.000000 0.000000 0.000000 0.000000 0.123012 0.000000
# 6 0.000000 0.000000 0.000000 0.000000 0.000000 0.675439
#
#
# Mechanical properties :
#
#
# Convention : Reuss Voigt Hill
#
# Bulk Modulus (GPa) = 11.93700 61.35807 36.64753
# Shear Modulus (GPa) = 4.60380 16.07402 10.33891
#
# Velocity S-wave (km/s) = 1.59430 2.97902 2.38918
# Velocity P-wave (km/s) = 3.15904 6.76084 5.27677
#
# Compressibility (1/GPa) = 0.08377317
#
# Stress axis : x y z
#
# Youngs Moduli (GPa) = 87.93603 8.62768 67.66825
#
# Poissons Ratio (x) = 0.10509 0.41780
# Poissons Ratio (y) = 1.07108 0.72993
# Poissons Ratio (z) = 0.54294 0.09307
#
# Static dielectric constant tensor:
#      x y z
#    x 1.648870 0.000000 0.000000 
#    y 0.000000 1.622450 0.000000 
#    z 0.000000 0.000000 1.600270 
# 
# From -- ./inp_files/7885.got.cif
#   From: 2010.05.17/outbox.cif.g08.bks.cpg/sg55_4_cif.got.tgz:7885.got - 2010.06.03 13:27:54.
