data_PCOD9424378
_publ_section_title
;
Structure prediction by ZEFSAII (Michael W. Deem and Ramdas Pophale) SiO2 
 PCOD9424378
Probable space group: P C C A
;
_chemical_formula_sum "Si O2"
_cell_formula_units_Z 32
_cell_length_a 15.610298
_cell_length_b 7.351010
_cell_length_c 12.024104
_cell_angle_alpha 90.000000
_cell_angle_beta 90.000000
_cell_angle_gamma 90.000000
_cell_volume 1379.783450
_symmetry_space_group_name_H-M "P C C A"
_symmetry_group_IT_number 54
_symmetry_cell_setting 'orthorhombic'
loop_
_space_group_symop_operation_xyz
x,y,z
1/2-x,-y,z
1/2+x,-y,1/2-z
-x,y,1/2-z
-x,-y,-z
1/2+x,y,-z
1/2-x,y,1/2+z
x,-y,1/2+z
loop_
_atom_site_type_symbol
_atom_site_label
_atom_site_fract_x
_atom_site_fract_y
_atom_site_fract_z
Si Si1 0.346123 0.198500 0.015948
Si Si2 0.153973 0.781395 0.556297
Si Si3 0.985398 0.334477 0.627340
Si Si4 0.914733 0.722721 0.711029
O O1 0.365679 0.174872 0.885376
O O2 0.250050 0.272118 0.023008
O O3 0.421647 0.318414 0.069401
O O4 0.348519 0.000019 0.071587
O O5 0.083194 0.742103 0.461420
O O6 0.135927 0.692751 0.675739
O O7 0.948587 0.534549 0.656908
O O8 0.000000 0.249399 0.750000
O O9 0.000000 0.825337 0.750000
#
# Coordination Sequence:
#
# PCOD9424378 Si02
#       4
#     8   8   8   8
#     4  11  26  46  74 106 147 186 247 307 365 424
#     4  11  27  46  73 112 141 192 248 299 370 434
#     4  11  26  46  70 104 148 188 237 297 363 433
#     4  11  25  47  70 102 146 189 245 295 357 440
#
# _framework density 23.192043000000002
#
# number of rings (size 3 to 8) (size 9 to 14) (size 15 to 20)
#    0.000    1.000    2.500    1.500   10.500    3.000 
#    4.500    0.000    0.000    0.000    0.000    0.000 
#    0.000    0.000    0.000    0.000    0.000    0.000 
#
# Total GULP energy -178817.954829 kJ/mol
# GULP energy per Si atom -5588.061088 kJ/mol
# Density = 2.313926 g / cm^3
# Si number density = 23.192043 Si / 1000 Ang^3
#
#
#
# Elastic Constant Matrix: (Units=GPa)
#
#
# Indices 1 2 3 4 5 6 
#
# 1 202.5490 14.3311 91.5112 0.0000 0.0000 0.0000
# 2 14.3311 94.4941 16.1311 0.0000 0.0000 0.0000
# 3 91.5112 16.1311 186.2646 0.0000 0.0000 0.0000
# 4 0.0000 0.0000 0.0000 14.6841 0.0000 0.0000
# 5 0.0000 0.0000 0.0000 0.0000 36.4714 0.0000
# 6 0.0000 0.0000 0.0000 0.0000 0.0000 6.4821
#
#
#
# Elastic Compliance Matrix: (Units=1/GPa)
#
#
# Indices 1 2 3 4 5 6 
#
# 1 0.006363 -0.000438 -0.003088 0.000000 0.000000 0.000000
# 2 -0.000438 0.010772 -0.000718 0.000000 0.000000 0.000000
# 3 -0.003088 -0.000718 0.006948 0.000000 0.000000 0.000000
# 4 0.000000 0.000000 0.000000 0.068101 0.000000 0.000000
# 5 0.000000 0.000000 0.000000 0.000000 0.027419 0.000000
# 6 0.000000 0.000000 0.000000 0.000000 0.000000 0.154271
#
#
# Mechanical properties :
#
#
# Convention : Reuss Voigt Hill
#
# Bulk Modulus (GPa) = 64.12232 80.80605 72.46418
# Shear Modulus (GPa) = 17.38768 35.61649 26.50209
#
# Velocity S-wave (km/s) = 2.74108 3.92308 3.38409
# Velocity P-wave (km/s) = 6.14219 7.44570 6.82514
#
# Compressibility (1/GPa) = 0.01559519
#
# Stress axis : x y z
#
# Youngs Moduli (GPa) = 157.14901 92.83675 143.92256
#
# Poissons Ratio (x) = 0.04065 0.44449
# Poissons Ratio (y) = 0.06881 0.10330
# Poissons Ratio (z) = 0.48534 0.06663
#
# Static dielectric constant tensor:
#      x y z
#    x 1.685140 0.000000 0.000000 
#    y 0.000000 1.934160 0.000000 
#    z 0.000000 0.000000 1.928640 
# 
# From -- ./inp_files/7927.got.cif
#   From: 2010.05.17/outbox.cif.g08.bks.cpg/sg54_4_cif.got.tgz:7927.got - 2010.06.03 13:09:01.
