data_PCOD9424789
_publ_section_title
;
Structure prediction by ZEFSAII (Michael W. Deem and Ramdas Pophale) SiO2 
 PCOD9424789
Probable space group: P B A M
;
_chemical_formula_sum "Si O2"
_cell_formula_units_Z 64
_cell_length_a 15.275829
_cell_length_b 28.610787
_cell_length_c 7.435629
_cell_angle_alpha 90.000000
_cell_angle_beta 90.000000
_cell_angle_gamma 90.000000
_cell_volume 3249.767603
_symmetry_space_group_name_H-M "P B A M"
_symmetry_group_IT_number 55
_symmetry_cell_setting 'orthorhombic'
loop_
_space_group_symop_operation_xyz
x,y,z
-x,-y,z
1/2+x,1/2-y,-z
1/2-x,1/2+y,-z
-x,-y,-z
x,y,-z
1/2-x,1/2+y,z
1/2+x,1/2-y,z
loop_
_atom_site_type_symbol
_atom_site_label
_atom_site_fract_x
_atom_site_fract_y
_atom_site_fract_z
Si Si1 0.407965 0.715313 0.717027
Si Si2 0.094712 0.670424 0.291956
Si Si3 0.600216 0.178043 0.278983
Si Si4 0.223626 0.134091 0.279223
Si Si5 0.093026 0.942836 0.280159
Si Si6 0.109005 0.778210 0.208334
Si Si7 0.395105 0.549743 0.281176
Si Si8 0.725190 0.634828 0.293507
O O1 0.407695 0.714850 0.500000
O O2 0.384585 0.767961 0.774604
O O3 0.339544 0.676548 0.777787
O O4 0.507981 0.706055 0.772552
O O5 0.088393 0.656389 0.500000
O O6 0.177964 0.643493 0.215045
O O7 0.114720 0.726025 0.286372
O O8 0.997122 0.664492 0.216135
O O9 0.600112 0.177913 0.500000
O O10 0.679474 0.145777 0.215542
O O11 0.225032 0.134884 0.500000
O O12 0.178866 0.085793 0.222747
O O13 0.092388 0.941158 0.500000
O O14 0.161931 0.904622 0.213858
O O15 0.992473 0.934041 0.225039
O O16 0.116186 0.995852 0.227047
O O17 0.171999 0.816536 0.292950
O O18 0.131629 0.774973 0.000000
O O19 0.395204 0.549974 0.500000
O O20 0.740338 0.620644 0.500000
#
# Coordination Sequence:
#
# PCOD9424789 Si02
#       8
#     8   8   8   8   8   8   8   8
#     4   9  16  28  44  63  84 111 143 175 208 253
#     4   9  17  31  46  61  83 115 148 179 210 250
#     4   8  15  26  42  61  82 108 146 183 208 239
#     4   9  15  24  45  68  86 111 147 181 211 249
#     4   8  14  23  39  62  90 113 134 171 217 256
#     4  11  21  30  41  63  91 116 139 175 219 258
#     4   8  13  22  36  64  94 110 131 173 220 256
#     4  10  17  28  46  64  82 114 152 181 208 251
#
# _framework density 19.693715999999998
#
# number of rings (size 3 to 8) (size 9 to 14) (size 15 to 20)
#    0.000    3.000    0.000    4.125    0.000    4.000 
#    0.000    5.625    0.000    0.750    0.000   13.125 
#    0.000    0.000    0.000    5.625    0.000    6.250 
#
# Total GULP energy -357095.956545 kJ/mol
# GULP energy per Si atom -5579.624321 kJ/mol
# Density = 1.964889 g / cm^3
# Si number density = 19.693716 Si / 1000 Ang^3
#
#
#
# Elastic Constant Matrix: (Units=GPa)
#
#
# Indices 1 2 3 4 5 6 
#
# 1 164.8401 105.9761 -3.1044 0.0000 0.0000 0.0000
# 2 105.9761 91.9357 -3.3666 0.0000 0.0000 0.0000
# 3 -3.1044 -3.3666 62.0501 0.0000 0.0000 0.0000
# 4 0.0000 0.0000 0.0000 -37.1373 0.0000 0.0000
# 5 0.0000 0.0000 0.0000 0.0000 -23.7621 0.0000
# 6 0.0000 0.0000 0.0000 0.0000 0.0000 32.7123
#
#
#
# Elastic Compliance Matrix: (Units=1/GPa)
#
#
# Indices 1 2 3 4 5 6 
#
# 1 0.023436 -0.027026 -0.000294 0.000000 0.000000 0.000000
# 2 -0.027026 0.042064 0.000930 0.000000 0.000000 0.000000
# 3 -0.000294 0.000930 0.016152 0.000000 0.000000 0.000000
# 4 0.000000 0.000000 0.000000 -0.026927 0.000000 0.000000
# 5 0.000000 0.000000 0.000000 0.000000 -0.042084 0.000000
# 6 0.000000 0.000000 0.000000 0.000000 0.000000 0.030570
#
#
# Mechanical properties :
#
#
# Convention : Reuss Voigt Hill
#
# Bulk Modulus (GPa) = 34.63423 57.53736 46.08579
# Shear Modulus (GPa) = 47.34217 8.98397 28.16307
#
# Velocity S-wave (km/s) = 4.90830 2.13817 3.78571
# Velocity P-wave (km/s) = 7.05312 5.94770 6.52387
#
# Compressibility (1/GPa) = 0.02887317
#
# Stress axis : x y z
#
# Youngs Moduli (GPa) = 42.66952 23.77304 61.91266
#
# Poissons Ratio (x) = 0.64249 0.01819
# Poissons Ratio (y) = 1.15318 -0.05759
# Poissons Ratio (z) = 0.01254 -0.02211
#
# Static dielectric constant tensor:
#      x y z
#    x 1.698880 0.000000 0.000000 
#    y 0.000000 1.659570 0.000000 
#    z 0.000000 0.000000 1.733750 
# 
# From -- ./inp_files/6938.got.cif
#   From: 2010.05.17/outbox.cif.g08.bks.cpg/sg55_4_cif.got.tgz:6938.got - 2010.06.03 13:27:54.
