data_PCOD9424011
_publ_section_title
;
Structure prediction by ZEFSAII (Michael W. Deem and Ramdas Pophale) SiO2 
 PCOD9424011
Probable space group: P C C A
;
_chemical_formula_sum "Si O2"
_cell_formula_units_Z 32
_cell_length_a 9.534819
_cell_length_b 5.290140
_cell_length_c 25.732260
_cell_angle_alpha 90.000000
_cell_angle_beta 90.000000
_cell_angle_gamma 90.000000
_cell_volume 1297.948765
_symmetry_space_group_name_H-M "P C C A"
_symmetry_group_IT_number 54
_symmetry_cell_setting 'orthorhombic'
loop_
_space_group_symop_operation_xyz
x,y,z
1/2-x,-y,z
1/2+x,-y,1/2-z
-x,y,1/2-z
-x,-y,-z
1/2+x,y,-z
1/2-x,y,1/2+z
x,-y,1/2+z
loop_
_atom_site_type_symbol
_atom_site_label
_atom_site_fract_x
_atom_site_fract_y
_atom_site_fract_z
Si Si1 0.412785 0.961148 0.612232
Si Si2 0.352715 0.253370 0.217891
Si Si3 0.172812 0.247513 0.394186
Si Si4 0.128128 0.673054 0.013262
O O1 0.418292 0.767959 0.659676
O O2 0.438791 0.864628 0.554116
O O3 0.250000 0.000000 0.609444
O O4 0.511773 0.201394 0.620885
O O5 0.250000 0.500000 0.224076
O O6 0.500000 0.255960 0.250000
O O7 0.250000 0.000000 0.225699
O O8 0.250000 0.500000 0.376544
O O9 0.183862 0.241248 0.457168
O O10 0.250000 0.000000 0.373241
O O11 0.250000 0.500000 0.038245
O O12 0.000000 0.500000 0.000000
#
# Coordination Sequence:
#
# PCOD9424011 Si02
#       4
#     8   8   8   8
#     4  11  23  42  70 100 135 185 240 288 347 421
#     4  11  26  50  78 108 141 183 237 301 369 434
#     4  11  24  41  62  96 141 184 225 275 337 402
#     4  11  21  37  62  96 139 184 231 282 336 403
#
# _framework density 24.654288000000001
#
# number of rings (size 3 to 8) (size 9 to 14) (size 15 to 20)
#    0.000    1.000    0.000    7.500    0.000    7.000 
#    0.000    6.250    0.000    0.000    0.000    0.000 
#    0.000    0.000    0.000    0.000    0.000    0.000 
#
# Total GULP energy -178629.788966 kJ/mol
# GULP energy per Si atom -5582.180905 kJ/mol
# Density = 2.459817 g / cm^3
# Si number density = 24.654288 Si / 1000 Ang^3
#
#
#
# Elastic Constant Matrix: (Units=GPa)
#
#
# Indices 1 2 3 4 5 6 
#
# 1 193.9689 113.2051 32.1541 0.0000 0.0000 0.0000
# 2 113.2051 186.2226 6.6683 0.0000 0.0000 0.0000
# 3 32.1541 6.6683 41.8841 0.0000 0.0000 0.0000
# 4 0.0000 0.0000 0.0000 23.1783 0.0000 0.0000
# 5 0.0000 0.0000 0.0000 0.0000 -15.2577 0.0000
# 6 0.0000 0.0000 0.0000 0.0000 0.0000 47.0388
#
#
#
# Elastic Compliance Matrix: (Units=1/GPa)
#
#
# Indices 1 2 3 4 5 6 
#
# 1 0.009417 -0.005497 -0.006354 0.000000 0.000000 0.000000
# 2 -0.005497 0.008610 0.002849 0.000000 0.000000 0.000000
# 3 -0.006354 0.002849 0.028300 0.000000 0.000000 0.000000
# 4 0.000000 0.000000 0.000000 0.043144 0.000000 0.000000
# 5 0.000000 0.000000 0.000000 0.000000 -0.065541 0.000000
# 6 0.000000 0.000000 0.000000 0.000000 0.000000 0.021259
#
#
# Mechanical properties :
#
#
# Convention : Reuss Voigt Hill
#
# Bulk Modulus (GPa) = 35.30751 80.68117 57.99434
# Shear Modulus (GPa) = 68.83879 28.99508 48.91694
#
# Velocity S-wave (km/s) = 5.28982 3.43310 4.45917
# Velocity P-wave (km/s) = 7.18761 6.96498 7.07717
#
# Compressibility (1/GPa) = 0.02832258
#
# Stress axis : x y z
#
# Youngs Moduli (GPa) = 106.19037 116.14947 35.33591
#
# Poissons Ratio (x) = 0.63849 0.22453
# Poissons Ratio (y) = 0.58374 -0.10069
# Poissons Ratio (z) = 0.67476 -0.33095
#
# Static dielectric constant tensor:
#      x y z
#    x 1.807020 0.000000 0.000000 
#    y 0.000000 1.962630 0.000000 
#    z 0.000000 0.000000 1.609900 
# 
# From -- ./inp_files/27379.got.cif
#   From: 2010.05.17/outbox.cif.g08.bks.cpg/sg54_14_cif.got.tgz:27379.got - 2010.06.03 13:09:01.
