data_PCOD9424622
_publ_section_title
;
Structure prediction by ZEFSAII (Michael W. Deem and Ramdas Pophale) SiO2 
 PCOD9424622
Probable space group: P C C A
;
_chemical_formula_sum "Si O2"
_cell_formula_units_Z 52
_cell_length_a 15.000000
_cell_length_b 21.000000
_cell_length_c 9.000000
_cell_angle_alpha 90.000000
_cell_angle_beta 90.000000
_cell_angle_gamma 90.000000
_cell_volume 2835.000000
_symmetry_space_group_name_H-M "P C C A"
_symmetry_group_IT_number 54
_symmetry_cell_setting 'orthorhombic'
loop_
_space_group_symop_operation_xyz
x,y,z
1/2-x,-y,z
1/2+x,-y,1/2-z
-x,y,1/2-z
-x,-y,-z
1/2+x,y,-z
1/2-x,y,1/2+z
x,-y,1/2+z
loop_
_atom_site_type_symbol
_atom_site_label
_atom_site_fract_x
_atom_site_fract_y
_atom_site_fract_z
Si Si1 0.020237 0.931289 0.426395
Si Si2 0.456077 0.404633 0.497441
Si Si3 0.370269 0.314641 0.032321
Si Si4 0.316746 0.157952 0.368422
Si Si5 0.500000 0.495538 0.750000
Si Si6 0.368211 0.166586 0.022762
Si Si7 0.182917 0.306468 0.879396
O O1 0.117242 0.896076 0.435464
O O2 0.000000 0.936991 0.250000
O O3 0.950373 0.880854 0.494038
O O4 0.000000 0.000000 0.500000
O O5 0.550939 0.366047 0.493496
O O6 0.445625 0.447155 0.644879
O O7 0.451999 0.456102 0.363410
O O8 0.381551 0.351792 0.472751
O O9 0.398300 0.240460 0.008400
O O10 0.337979 0.317781 0.204746
O O11 0.284442 0.322080 0.925577
O O12 0.331239 0.157817 0.190936
O O13 0.213878 0.149930 0.414729
O O14 0.336717 0.231713 0.414174
#
# Coordination Sequence:
#
# PCOD9424622 Si02
#       7
#     8   8   8   8   4   8   8
#     4  10  21  36  55  79 111 151 187 218 270 330
#     4  11  21  42  58  78 114 150 185 226 276 328
#     4  10  20  36  61  86 109 143 187 231 279 326
#     4   9  19  36  57  82 110 142 183 230 274 321
#     4  10  24  38  60  80 112 152 186 220 274 338
#     4   9  19  36  57  82 110 142 183 230 274 321
#     4  10  20  36  61  86 109 143 187 231 279 326
#
# _framework density 18.342151999999999
#
# number of rings (size 3 to 8) (size 9 to 14) (size 15 to 20)
#    0.000    2.154    1.538    0.923    2.154    4.308 
#    0.000    7.692    3.385    0.000    0.000    0.000 
#    0.000    0.000    0.000    0.000    0.000    0.000 
#
# Total GULP energy -289973.176591 kJ/mol
# GULP energy per Si atom -5576.407242 kJ/mol
# Density = 1.830040 g / cm^3
# Si number density = 18.342152 Si / 1000 Ang^3
#
#
#
# Elastic Constant Matrix: (Units=GPa)
#
#
# Indices 1 2 3 4 5 6 
#
# 1 70.7823 41.0449 4.3948 0.0000 0.0000 0.0000
# 2 41.0449 98.8396 16.9226 0.0000 0.0000 0.0000
# 3 4.3948 16.9226 30.0394 0.0000 0.0000 0.0000
# 4 0.0000 0.0000 0.0000 35.5128 0.0000 0.0000
# 5 0.0000 0.0000 0.0000 0.0000 19.8509 0.0000
# 6 0.0000 0.0000 0.0000 0.0000 0.0000 22.6864
#
#
#
# Elastic Compliance Matrix: (Units=1/GPa)
#
#
# Indices 1 2 3 4 5 6 
#
# 1 0.018698 -0.008075 0.001814 0.000000 0.000000 0.000000
# 2 -0.008075 0.014685 -0.007091 0.000000 0.000000 0.000000
# 3 0.001814 -0.007091 0.037019 0.000000 0.000000 0.000000
# 4 0.000000 0.000000 0.000000 0.028159 0.000000 0.000000
# 5 0.000000 0.000000 0.000000 0.000000 0.050375 0.000000
# 6 0.000000 0.000000 0.000000 0.000000 0.000000 0.044079
#
#
# Mechanical properties :
#
#
# Convention : Reuss Voigt Hill
#
# Bulk Modulus (GPa) = 22.88534 36.04289 29.46412
# Shear Modulus (GPa) = 21.34142 24.76329 23.05235
#
# Velocity S-wave (km/s) = 3.41474 3.67832 3.54898
# Velocity P-wave (km/s) = 5.29634 6.14272 5.73517
#
# Compressibility (1/GPa) = 0.04369610
#
# Stress axis : x y z
#
# Youngs Moduli (GPa) = 53.48236 68.09746 27.01311
#
# Poissons Ratio (x) = 0.54989 -0.04899
# Poissons Ratio (y) = 0.43187 0.19156
# Poissons Ratio (z) = -0.09699 0.48289
#
# Static dielectric constant tensor:
#      x y z
#    x 1.617750 0.000000 0.000000 
#    y 0.000000 1.619570 0.000000 
#    z 0.000000 0.000000 1.648900 
# 
# From -- ./inp_files/3656.got.cif
#   From: 2010.05.17/outbox.ucp.g08.bks.cvg/sg54_2_cif.got.tgz:3656.got - 2010.06.11 16:34:40.
