data_PCOD9424421
_publ_section_title
;
Structure prediction by ZEFSAII (Michael W. Deem and Ramdas Pophale) SiO2 
 PCOD9424421
Probable space group: P C C A
;
_chemical_formula_sum "Si O2"
_cell_formula_units_Z 32
_cell_length_a 14.896319
_cell_length_b 8.855040
_cell_length_c 10.174211
_cell_angle_alpha 90.000000
_cell_angle_beta 90.000000
_cell_angle_gamma 90.000000
_cell_volume 1342.054744
_symmetry_space_group_name_H-M "P C C A"
_symmetry_group_IT_number 54
_symmetry_cell_setting 'orthorhombic'
loop_
_space_group_symop_operation_xyz
x,y,z
1/2-x,-y,z
1/2+x,-y,1/2-z
-x,y,1/2-z
-x,-y,-z
1/2+x,y,-z
1/2-x,y,1/2+z
x,-y,1/2+z
loop_
_atom_site_type_symbol
_atom_site_label
_atom_site_fract_x
_atom_site_fract_y
_atom_site_fract_z
Si Si1 0.332502 0.580942 0.680485
Si Si2 0.082674 0.599588 0.454763
Si Si3 0.992521 0.143514 0.384612
Si Si4 0.345740 0.914585 0.565067
O O1 0.250000 0.500000 0.751979
O O2 0.345923 0.469599 0.556282
O O3 0.401787 0.588534 0.800908
O O4 0.325091 0.751509 0.627666
O O5 0.057573 0.767509 0.499615
O O6 0.000000 0.500000 0.500000
O O7 0.000000 0.235998 0.250000
O O8 0.093123 0.110120 0.434488
O O9 0.921897 0.008669 0.353748
O O10 0.250000 0.000000 0.548900
#
# Coordination Sequence:
#
# PCOD9424421 Si02
#       4
#     8   8   8   8
#     4  12  27  49  76 112 150 202 257 323 384 458
#     4  12  25  47  79 108 151 201 256 313 387 459
#     4  11  26  48  77 113 156 208 256 318 391 458
#     4  11  27  48  77 112 157 206 256 321 386 467
#
# _framework density 23.844035999999999
#
# number of rings (size 3 to 8) (size 9 to 14) (size 15 to 20)
#    0.000    0.500    2.500    4.500    7.000    1.000 
#    4.500    0.000    0.000    0.000    0.000    0.000 
#    0.000    0.000    0.000    0.000    0.000    0.000 
#
# Total GULP energy -178443.384174 kJ/mol
# GULP energy per Si atom -5576.355755 kJ/mol
# Density = 2.378977 g / cm^3
# Si number density = 23.844036 Si / 1000 Ang^3
#
#
#
# Elastic Constant Matrix: (Units=GPa)
#
#
# Indices 1 2 3 4 5 6 
#
# 1 167.7678 59.7131 61.4687 0.0000 0.0000 0.0000
# 2 59.7131 133.5130 44.7130 0.0000 0.0000 0.0000
# 3 61.4687 44.7130 140.9551 0.0000 0.0000 0.0000
# 4 0.0000 0.0000 0.0000 17.3873 0.0000 0.0000
# 5 0.0000 0.0000 0.0000 0.0000 23.2990 0.0000
# 6 0.0000 0.0000 0.0000 0.0000 0.0000 42.4263
#
#
#
# Elastic Compliance Matrix: (Units=1/GPa)
#
#
# Indices 1 2 3 4 5 6 
#
# 1 0.007849 -0.002645 -0.002584 0.000000 0.000000 0.000000
# 2 -0.002645 0.009272 -0.001788 0.000000 0.000000 0.000000
# 3 -0.002584 -0.001788 0.008788 0.000000 0.000000 0.000000
# 4 0.000000 0.000000 0.000000 0.057513 0.000000 0.000000
# 5 0.000000 0.000000 0.000000 0.000000 0.042920 0.000000
# 6 0.000000 0.000000 0.000000 0.000000 0.000000 0.023570
#
#
# Mechanical properties :
#
#
# Convention : Reuss Voigt Hill
#
# Bulk Modulus (GPa) = 84.20455 86.00284 85.10369
# Shear Modulus (GPa) = 29.77901 35.04525 32.41213
#
# Velocity S-wave (km/s) = 3.53782 3.83792 3.69092
# Velocity P-wave (km/s) = 7.21662 7.46905 7.34392
#
# Compressibility (1/GPa) = 0.01187584
#
# Stress axis : x y z
#
# Youngs Moduli (GPa) = 127.40975 107.85680 113.78865
#
# Poissons Ratio (x) = 0.28528 0.29399
# Poissons Ratio (y) = 0.33700 0.20341
# Poissons Ratio (z) = 0.32919 0.19281
#
# Static dielectric constant tensor:
#      x y z
#    x 2.266280 0.000000 0.000000 
#    y 0.000000 2.114820 0.000000 
#    z 0.000000 0.000000 1.895620 
# 
# From -- ./inp_files/7954.got.cif
#   From: 2010.05.17/outbox.cif.g08.bks.cpg/sg54_4_cif.got.tgz:7954.got - 2010.06.03 13:09:01.
