data_PCOD9424174
_publ_section_title
;
Structure prediction by ZEFSAII (Michael W. Deem and Ramdas Pophale) SiO2 
 PCOD9424174
Probable space group: P C C A
;
_chemical_formula_sum "Si O2"
_cell_formula_units_Z 64
_cell_length_a 9.437192
_cell_length_b 11.462816
_cell_length_c 27.344579
_cell_angle_alpha 90.000000
_cell_angle_beta 90.000000
_cell_angle_gamma 90.000000
_cell_volume 2958.048929
_symmetry_space_group_name_H-M "P C C A"
_symmetry_group_IT_number 54
_symmetry_cell_setting 'orthorhombic'
loop_
_space_group_symop_operation_xyz
x,y,z
1/2-x,-y,z
1/2+x,-y,1/2-z
-x,y,1/2-z
-x,-y,-z
1/2+x,y,-z
1/2-x,y,1/2+z
x,-y,1/2+z
loop_
_atom_site_type_symbol
_atom_site_label
_atom_site_fract_x
_atom_site_fract_y
_atom_site_fract_z
Si Si1 0.540480 0.260817 0.806138
Si Si2 0.468879 0.245055 0.305762
Si Si3 0.867671 0.201624 0.452374
Si Si4 0.710007 0.134302 0.649928
Si Si5 0.218699 0.131947 0.648046
Si Si6 0.317605 0.873911 0.463187
Si Si7 0.586934 0.469149 0.952022
Si Si8 0.578476 0.513727 0.844411
O O1 0.500000 0.254374 0.750000
O O2 0.449427 0.166087 0.835857
O O3 0.700689 0.222273 0.816555
O O4 0.517236 0.391129 0.825747
O O5 0.500000 0.210640 0.250000
O O6 0.306874 0.220959 0.318811
O O7 0.555751 0.164203 0.344073
O O8 0.518126 0.377423 0.314707
O O9 0.780544 0.152370 0.406204
O O10 0.758596 0.207904 0.497457
O O11 0.920354 0.331622 0.440745
O O12 0.011308 0.130657 0.464871
O O13 0.725751 0.155168 0.592191
O O14 0.750000 0.000000 0.660253
O O15 0.250000 0.000000 0.662546
O O16 0.250000 0.000000 0.474410
O O17 0.750000 0.500000 0.960875
O O18 0.543153 0.532434 0.901741
O O19 0.500000 0.500000 0.000000
O O20 0.750000 0.500000 0.841052
#
# Coordination Sequence:
#
# PCOD9424174 Si02
#       8
#     8   8   8   8   8   8   8   8
#     4  12  24  46  72  96 137 186 229 298 355 415
#     4  12  27  45  71 104 135 185 240 289 356 427
#     4  12  24  45  68 104 138 186 235 284 363 426
#     4  11  26  45  66 103 146 175 229 299 350 418
#     4  12  25  44  72 100 139 189 237 287 362 430
#     4  11  25  42  68  99 140 181 229 286 347 422
#     4  11  23  41  68  97 133 176 226 288 352 412
#     4  11  23  47  70  99 139 179 233 295 353 426
#
# _framework density 21.635883
#
# number of rings (size 3 to 8) (size 9 to 14) (size 15 to 20)
#    0.000    0.500    3.750    4.125    5.250    3.500 
#    0.000    0.000    0.000    0.000    0.000    0.000 
#    0.000    0.000    0.000    0.000    0.000    0.000 
#
# Total GULP energy -358102.527242 kJ/mol
# GULP energy per Si atom -5595.351988 kJ/mol
# Density = 2.158664 g / cm^3
# Si number density = 21.635883 Si / 1000 Ang^3
#
#
#
# Elastic Constant Matrix: (Units=GPa)
#
#
# Indices 1 2 3 4 5 6 
#
# 1 58.1593 0.5715 17.0238 0.0000 0.0000 0.0000
# 2 0.5715 84.4234 8.7201 0.0000 0.0000 0.0000
# 3 17.0238 8.7201 86.3378 0.0000 0.0000 0.0000
# 4 0.0000 0.0000 0.0000 8.8133 0.0000 0.0000
# 5 0.0000 0.0000 0.0000 0.0000 26.1130 0.0000
# 6 0.0000 0.0000 0.0000 0.0000 0.0000 34.0534
#
#
#
# Elastic Compliance Matrix: (Units=1/GPa)
#
#
# Indices 1 2 3 4 5 6 
#
# 1 0.018253 0.000251 -0.003624 0.000000 0.000000 0.000000
# 2 0.000251 0.011973 -0.001259 0.000000 0.000000 0.000000
# 3 -0.003624 -0.001259 0.012424 0.000000 0.000000 0.000000
# 4 0.000000 0.000000 0.000000 0.113465 0.000000 0.000000
# 5 0.000000 0.000000 0.000000 0.000000 0.038295 0.000000
# 6 0.000000 0.000000 0.000000 0.000000 0.000000 0.029366
#
#
# Mechanical properties :
#
#
# Convention : Reuss Voigt Hill
#
# Bulk Modulus (GPa) = 29.95307 31.28347 30.61827
# Shear Modulus (GPa) = 20.47765 27.30295 23.89030
#
# Velocity S-wave (km/s) = 3.07981 3.55622 3.32655
# Velocity P-wave (km/s) = 5.14987 5.59935 5.37931
#
# Compressibility (1/GPa) = 0.03338556
#
# Stress axis : x y z
#
# Youngs Moduli (GPa) = 54.78683 83.51859 80.48821
#
# Poissons Ratio (x) = -0.02095 0.29171
# Poissons Ratio (y) = -0.01374 0.10131
# Poissons Ratio (z) = 0.19856 0.10513
#
# Static dielectric constant tensor:
#      x y z
#    x 1.738920 0.000000 0.000000 
#    y 0.000000 1.764670 0.000000 
#    z 0.000000 0.000000 1.773560 
# 
# From -- ./inp_files/27939.got.cif
#   From: 2010.05.17/outbox.cif.g08.bks.cpg/sg54_14_cif.got.tgz:27939.got - 2010.06.03 13:09:01.
