data_PCOD9424422
_publ_section_title
;
Structure prediction by ZEFSAII (Michael W. Deem and Ramdas Pophale) SiO2 
 PCOD9424422
Probable space group: P C C A
;
_chemical_formula_sum "Si O2"
_cell_formula_units_Z 40
_cell_length_a 9.854329
_cell_length_b 20.565687
_cell_length_c 8.381331
_cell_angle_alpha 90.000000
_cell_angle_beta 90.000000
_cell_angle_gamma 90.000000
_cell_volume 1698.569306
_symmetry_space_group_name_H-M "P C C A"
_symmetry_group_IT_number 54
_symmetry_cell_setting 'orthorhombic'
loop_
_space_group_symop_operation_xyz
x,y,z
1/2-x,-y,z
1/2+x,-y,1/2-z
-x,y,1/2-z
-x,-y,-z
1/2+x,y,-z
1/2-x,y,1/2+z
x,-y,1/2+z
loop_
_atom_site_type_symbol
_atom_site_label
_atom_site_fract_x
_atom_site_fract_y
_atom_site_fract_z
Si Si1 0.455395 0.728944 0.936793
Si Si2 0.500000 0.929521 0.250000
Si Si3 0.692372 0.346730 0.584532
Si Si4 0.250000 0.000000 0.843800
Si Si5 0.150478 0.561367 0.178580
Si Si6 0.572821 0.879450 0.578251
O O1 0.500000 0.716608 0.750000
O O2 0.328413 0.685538 0.984894
O O3 0.400135 0.802771 0.936744
O O4 0.577838 0.709234 0.056953
O O5 0.627779 0.975590 0.262218
O O6 0.488036 0.892689 0.416965
O O7 0.627554 0.408235 0.494689
O O8 0.761087 0.381934 0.736179
O O9 0.191104 0.066061 0.923929
O O10 0.250000 0.500000 0.173685
O O11 0.000000 0.549861 0.250000
O O12 0.500000 0.886726 0.750000
#
# Coordination Sequence:
#
# PCOD9424422 Si02
#       6
#     8   4   8   4   8   8
#     4  11  26  49  72 108 149 190 249 313 374 454
#     4  12  28  46  72 108 144 198 258 302 410 456
#     4  12  23  49  73 101 148 191 243 304 371 444
#     4  12  26  50  74 110 154 198 256 332 384 480
#     4  12  28  47  72 111 150 194 251 310 371 446
#     4  11  28  47  77 109 153 200 257 328 388 471
#
# _framework density 23.549227999999999
#
# number of rings (size 3 to 8) (size 9 to 14) (size 15 to 20)
#    0.000    0.400    5.000    1.800    8.400    4.800 
#    0.000    0.000    0.000    0.000    0.000    0.000 
#    0.000    0.000    0.000    0.000    0.000    0.000 
#
# Total GULP energy -222787.190299 kJ/mol
# GULP energy per Si atom -5569.679757 kJ/mol
# Density = 2.349563 g / cm^3
# Si number density = 23.549228 Si / 1000 Ang^3
#
#
#
# Elastic Constant Matrix: (Units=GPa)
#
#
# Indices 1 2 3 4 5 6 
#
# 1 113.9922 60.5699 23.5943 0.0000 0.0000 0.0000
# 2 60.5699 154.1497 37.9449 0.0000 0.0000 0.0000
# 3 23.5943 37.9449 68.5938 0.0000 0.0000 0.0000
# 4 0.0000 0.0000 0.0000 5.3716 0.0000 0.0000
# 5 0.0000 0.0000 0.0000 0.0000 14.6142 0.0000
# 6 0.0000 0.0000 0.0000 0.0000 0.0000 37.0519
#
#
#
# Elastic Compliance Matrix: (Units=1/GPa)
#
#
# Indices 1 2 3 4 5 6 
#
# 1 0.011246 -0.004013 -0.001648 0.000000 0.000000 0.000000
# 2 -0.004013 0.008942 -0.003566 0.000000 0.000000 0.000000
# 3 -0.001648 -0.003566 0.017118 0.000000 0.000000 0.000000
# 4 0.000000 0.000000 0.000000 0.186166 0.000000 0.000000
# 5 0.000000 0.000000 0.000000 0.000000 0.068427 0.000000
# 6 0.000000 0.000000 0.000000 0.000000 0.000000 0.026989
#
#
# Mechanical properties :
#
#
# Convention : Reuss Voigt Hill
#
# Bulk Modulus (GPa) = 53.04733 64.55045 58.79889
# Shear Modulus (GPa) = 14.55066 25.71595 20.13331
#
# Velocity S-wave (km/s) = 2.48842 3.30814 2.92712
# Velocity P-wave (km/s) = 5.55260 6.48553 6.03711
#
# Compressibility (1/GPa) = 0.01885109
#
# Stress axis : x y z
#
# Youngs Moduli (GPa) = 88.91960 111.83285 58.41717
#
# Poissons Ratio (x) = 0.44881 0.09629
# Poissons Ratio (y) = 0.35685 0.20832
# Poissons Ratio (z) = 0.14657 0.39881
#
# Static dielectric constant tensor:
#      x y z
#    x 1.908750 0.000000 0.000000 
#    y 0.000000 1.934510 0.000000 
#    z 0.000000 0.000000 2.084910 
# 
# From -- ./inp_files/2546.got.cif
#   From: 2010.05.17/outbox.cif.g08.bks.cpg/sg54_2_cif.got.tgz:2546.got - 2010.06.03 13:09:01.
