data_PCOD9424953
_publ_section_title
;
Structure prediction by ZEFSAII (Michael W. Deem and Ramdas Pophale) SiO2 
 PCOD9424953
Probable space group: P B A M
;
_chemical_formula_sum "Si O2"
_cell_formula_units_Z 56
_cell_length_a 19.796136
_cell_length_b 17.088023
_cell_length_c 7.580143
_cell_angle_alpha 90.000000
_cell_angle_beta 90.000000
_cell_angle_gamma 90.000000
_cell_volume 2564.186724
_symmetry_space_group_name_H-M "P B A M"
_symmetry_group_IT_number 55
_symmetry_cell_setting 'orthorhombic'
loop_
_space_group_symop_operation_xyz
x,y,z
-x,-y,z
1/2+x,1/2-y,-z
1/2-x,1/2+y,-z
-x,-y,-z
x,y,-z
1/2-x,1/2+y,z
1/2+x,1/2-y,z
loop_
_atom_site_type_symbol
_atom_site_label
_atom_site_fract_x
_atom_site_fract_y
_atom_site_fract_z
Si Si1 0.978123 0.125278 0.292958
Si Si2 0.124672 0.140083 0.802949
Si Si3 0.116624 0.314195 0.785084
Si Si4 0.768668 0.168041 0.211529
Si Si5 0.855641 0.022364 0.785571
Si Si6 0.890238 0.275171 0.288911
Si Si7 0.516141 0.913223 0.706091
O O1 0.993639 0.135146 0.500000
O O2 0.928653 0.052554 0.271420
O O3 0.937760 0.202722 0.228069
O O4 0.046724 0.114984 0.189405
O O5 0.118514 0.224765 0.719406
O O6 0.160620 0.064904 0.721017
O O7 0.153237 0.152143 0.000000
O O8 0.191383 0.340741 0.732203
O O9 0.052805 0.362732 0.718530
O O10 0.110887 0.314756 0.000000
O O11 0.807647 0.091667 0.278072
O O12 0.813510 0.245490 0.253905
O O13 0.768004 0.165588 0.000000
O O14 0.853628 0.019775 0.000000
O O15 0.896519 0.277650 0.500000
O O16 0.923330 0.356742 0.221750
O O17 0.532894 0.925979 0.500000
O O18 0.500000 0.000000 0.782127
#
# Coordination Sequence:
#
# PCOD9424953 Si02
#       7
#     8   8   8   8   8   8   8
#     4  10  18  29  49  76 104 131 165 212 257 304
#     4  10  19  31  49  73 103 138 172 208 260 322
#     4  10  21  37  56  81 111 142 184 231 277 328
#     4   9  19  36  55  78 108 144 182 225 275 328
#     4   9  18  32  49  70 102 141 174 206 258 321
#     4   9  18  34  55  79 105 138 179 221 269 327
#     4  10  21  39  61  83 110 146 188 232 281 336
#
# _framework density 21.839283999999999
#
# number of rings (size 3 to 8) (size 9 to 14) (size 15 to 20)
#    0.000    2.429    1.429    0.857    0.000    4.286 
#    2.571    0.000    0.000    0.000    0.000    0.000 
#    0.000    0.000    0.000    0.000    0.000    0.000 
#
# Total GULP energy -312094.487308 kJ/mol
# GULP energy per Si atom -5573.115845 kJ/mol
# Density = 2.178958 g / cm^3
# Si number density = 21.839284 Si / 1000 Ang^3
#
#
#
# Elastic Constant Matrix: (Units=GPa)
#
#
# Indices 1 2 3 4 5 6 
#
# 1 53.8765 4.2709 -12.5878 0.0000 0.0000 0.0000
# 2 4.2709 123.4964 -3.6252 0.0000 0.0000 0.0000
# 3 -12.5878 -3.6252 55.0209 0.0000 0.0000 0.0000
# 4 0.0000 0.0000 0.0000 9.1261 0.0000 0.0000
# 5 0.0000 0.0000 0.0000 0.0000 50.2109 0.0000
# 6 0.0000 0.0000 0.0000 0.0000 0.0000 7.4868
#
#
#
# Elastic Compliance Matrix: (Units=1/GPa)
#
#
# Indices 1 2 3 4 5 6 
#
# 1 0.019646 -0.000549 0.004459 0.000000 0.000000 0.000000
# 2 -0.000549 0.008128 0.000410 0.000000 0.000000 0.000000
# 3 0.004459 0.000410 0.019222 0.000000 0.000000 0.000000
# 4 0.000000 0.000000 0.000000 0.109576 0.000000 0.000000
# 5 0.000000 0.000000 0.000000 0.000000 0.019916 0.000000
# 6 0.000000 0.000000 0.000000 0.000000 0.000000 0.133568
#
#
# Mechanical properties :
#
#
# Convention : Reuss Voigt Hill
#
# Bulk Modulus (GPa) = 17.97376 23.16773 20.57075
# Shear Modulus (GPa) = 15.62685 29.65382 22.64034
#
# Velocity S-wave (km/s) = 2.67786 3.68886 3.22324
# Velocity P-wave (km/s) = 4.22008 5.36422 4.82618
#
# Compressibility (1/GPa) = 0.05563666
#
# Stress axis : x y z
#
# Youngs Moduli (GPa) = 50.90050 123.02527 52.02383
#
# Poissons Ratio (x) = 0.06749 -0.23195
# Poissons Ratio (y) = 0.02792 -0.02133
# Poissons Ratio (z) = -0.22694 -0.05045
#
# Static dielectric constant tensor:
#      x y z
#    x 1.791610 0.000000 0.000000 
#    y 0.000000 1.865140 0.000000 
#    z 0.000000 0.000000 1.855230 
# 
# From -- ./inp_files/8664.got.cif
#   From: 2010.05.17/outbox.cif.g08.bks.cpg/sg55_5_cif.got.tgz:8664.got - 2010.06.03 13:27:54.
