data_PCOD9424886
_publ_section_title
;
Structure prediction by ZEFSAII (Michael W. Deem and Ramdas Pophale) SiO2 
 PCOD9424886
Probable space group: P B A M
;
_chemical_formula_sum "Si O2"
_cell_formula_units_Z 52
_cell_length_a 7.500596
_cell_length_b 27.595231
_cell_length_c 13.478149
_cell_angle_alpha 90.000000
_cell_angle_beta 90.000000
_cell_angle_gamma 90.000000
_cell_volume 2789.716435
_symmetry_space_group_name_H-M "P B A M"
_symmetry_group_IT_number 55
_symmetry_cell_setting 'orthorhombic'
loop_
_space_group_symop_operation_xyz
x,y,z
-x,-y,z
1/2+x,1/2-y,-z
1/2-x,1/2+y,-z
-x,-y,-z
x,y,-z
1/2-x,1/2+y,z
1/2+x,1/2-y,z
loop_
_atom_site_type_symbol
_atom_site_label
_atom_site_fract_x
_atom_site_fract_y
_atom_site_fract_z
Si Si1 0.962100 0.686883 0.884842
Si Si2 0.908365 0.593931 0.208822
Si Si3 0.500000 0.000000 0.338946
Si Si4 0.961061 0.203071 0.112671
Si Si5 0.994021 0.057452 0.000000
Si Si6 0.366941 0.544011 0.389283
Si Si7 0.021926 0.106468 0.795085
Si Si8 0.570292 0.054411 0.000000
O O1 0.991261 0.648092 0.796169
O O2 0.747039 0.689553 0.892175
O O3 0.025757 0.740818 0.859323
O O4 0.022498 0.676096 0.000000
O O5 0.951795 0.548674 0.278127
O O6 0.692932 0.598821 0.216085
O O7 0.983634 0.576916 0.102776
O O8 0.675411 0.981575 0.393358
O O9 0.051368 0.163397 0.183397
O O10 0.034025 0.198477 0.000000
O O11 0.070446 0.079229 0.898322
O O12 0.781925 0.065803 0.000000
O O13 0.000000 0.000000 0.000000
O O14 0.500000 0.500000 0.364679
O O15 0.410333 0.563208 0.500000
O O16 0.384411 0.582871 0.300423
O O17 0.500000 0.000000 0.000000
#
# Coordination Sequence:
#
# PCOD9424886 Si02
#       8
#     8   8   4   8   4   8   8   4
#     4   9  17  30  47  72 113 154 192 229 274 331
#     4  10  19  31  50  78 114 153 188 232 277 336
#     4  12  23  37  58  86 114 143 198 242 287 340
#     4   9  17  31  50  76 109 152 191 230 277 332
#     4  10  20  28  49  74 110 146 179 221 270 334
#     4  11  24  42  61  83 113 148 190 238 285 340
#     4  10  19  36  54  80 110 152 191 226 286 342
#     4  10  18  28  41  68 110 152 181 214 269 324
#
# _framework density 18.639887000000002
#
# number of rings (size 3 to 8) (size 9 to 14) (size 15 to 20)
#    0.000    2.000    3.846    0.692    2.154    1.231 
#    0.000    0.000    0.000    0.000    0.000   10.769 
#    0.000    0.000    0.000    0.000    0.000    0.000 
#
# Total GULP energy -289538.589084 kJ/mol
# GULP energy per Si atom -5568.049790 kJ/mol
# Density = 1.859746 g / cm^3
# Si number density = 18.639887 Si / 1000 Ang^3
#
#
#
# Elastic Constant Matrix: (Units=GPa)
#
#
# Indices 1 2 3 4 5 6 
#
# 1 48.1886 6.3707 1.4278 0.0000 0.0000 0.0000
# 2 6.3707 124.9305 53.1616 0.0000 0.0000 0.0000
# 3 1.4278 53.1616 83.2022 0.0000 0.0000 0.0000
# 4 0.0000 0.0000 0.0000 12.8236 0.0000 0.0000
# 5 0.0000 0.0000 0.0000 0.0000 19.1344 0.0000
# 6 0.0000 0.0000 0.0000 0.0000 0.0000 22.4244
#
#
#
# Elastic Compliance Matrix: (Units=1/GPa)
#
#
# Indices 1 2 3 4 5 6 
#
# 1 0.020905 -0.001254 0.000443 0.000000 0.000000 0.000000
# 2 -0.001254 0.011069 -0.007051 0.000000 0.000000 0.000000
# 3 0.000443 -0.007051 0.016516 0.000000 0.000000 0.000000
# 4 0.000000 0.000000 0.000000 0.077982 0.000000 0.000000
# 5 0.000000 0.000000 0.000000 0.000000 0.052262 0.000000
# 6 0.000000 0.000000 0.000000 0.000000 0.000000 0.044594
#
#
# Mechanical properties :
#
#
# Convention : Reuss Voigt Hill
#
# Bulk Modulus (GPa) = 30.52059 42.02683 36.27371
# Shear Modulus (GPa) = 20.00209 23.90055 21.95132
#
# Velocity S-wave (km/s) = 3.27934 3.58470 3.43542
# Velocity P-wave (km/s) = 5.54510 6.30310 5.93621
#
# Compressibility (1/GPa) = 0.03276477
#
# Stress axis : x y z
#
# Youngs Moduli (GPa) = 47.83658 90.34451 60.54592
#
# Poissons Ratio (x) = 0.11333 -0.02681
# Poissons Ratio (y) = 0.06001 0.42690
# Poissons Ratio (z) = -0.02118 0.63700
#
# Static dielectric constant tensor:
#      x y z
#    x 1.599010 0.000000 0.000000 
#    y 0.000000 1.769480 0.000000 
#    z 0.000000 0.000000 1.652340 
# 
# From -- ./inp_files/12426.got.cif
#   From: 2010.05.17/outbox.cif.g08.bks.cpg/sg55_7_cif.got.tgz:12426.got - 2010.06.03 13:27:54.
