data_PCOD9424356
_publ_section_title
;
Structure prediction by ZEFSAII (Michael W. Deem and Ramdas Pophale) SiO2 
 PCOD9424356
Probable space group: P C C A
;
_chemical_formula_sum "Si O2"
_cell_formula_units_Z 40
_cell_length_a 8.435413
_cell_length_b 9.106451
_cell_length_c 22.524636
_cell_angle_alpha 90.000000
_cell_angle_beta 90.000000
_cell_angle_gamma 90.000000
_cell_volume 1730.267646
_symmetry_space_group_name_H-M "P C C A"
_symmetry_group_IT_number 54
_symmetry_cell_setting 'orthorhombic'
loop_
_space_group_symop_operation_xyz
x,y,z
1/2-x,-y,z
1/2+x,-y,1/2-z
-x,y,1/2-z
-x,-y,-z
1/2+x,y,-z
1/2-x,y,1/2+z
x,-y,1/2+z
loop_
_atom_site_type_symbol
_atom_site_label
_atom_site_fract_x
_atom_site_fract_y
_atom_site_fract_z
Si Si1 0.500000 0.646951 0.750000
Si Si2 0.750000 0.500000 0.335731
Si Si3 0.250000 0.000000 0.664201
Si Si4 0.317493 0.742491 0.577280
Si Si5 0.500000 0.841627 0.250000
Si Si6 0.236831 0.678329 0.831813
Si Si7 0.323623 0.335345 0.458444
O O1 0.389238 0.552148 0.707000
O O2 0.388364 0.734474 0.794640
O O3 0.780592 0.367670 0.380462
O O4 0.169080 0.115875 0.618894
O O5 0.379580 0.068613 0.708593
O O6 0.218910 0.756566 0.516682
O O7 0.489288 0.672899 0.558851
O O8 0.592476 0.737872 0.204655
O O9 0.250000 0.500000 0.831859
O O10 0.238054 0.724710 0.899689
O O11 0.250000 0.500000 0.468172
#
# Coordination Sequence:
#
# PCOD9424356 Si02
#       7
#     4   4   4   8   4   8   8
#     4  12  23  37  72 120 149 193 252 336 405 449
#     4  12  26  44  78 108 162 196 278 342 388 472
#     4  12  34  52  82 114 164 230 252 328 404 496
#     4  12  28  50  77 114 160 212 274 323 404 473
#     4  12  31  55  78 114 173 207 272 328 411 495
#     4  11  25  44  81 118 149 203 261 337 402 454
#     4  11  26  47  81 117 157 203 271 343 397 456
#
# _framework density 23.117812000000001
#
# number of rings (size 3 to 8) (size 9 to 14) (size 15 to 20)
#    0.000    0.400    4.000    2.400    8.400    1.600 
#    0.000    0.000    0.000    0.000    0.000    0.000 
#    0.000    0.000    0.000    0.000    0.000    0.000 
#
# Total GULP energy -223841.571853 kJ/mol
# GULP energy per Si atom -5596.039296 kJ/mol
# Density = 2.306519 g / cm^3
# Si number density = 23.117812 Si / 1000 Ang^3
#
#
#
# Elastic Constant Matrix: (Units=GPa)
#
#
# Indices 1 2 3 4 5 6 
#
# 1 106.7708 29.5325 66.0985 0.0000 0.0000 0.0000
# 2 29.5325 67.6575 49.5125 0.0000 0.0000 0.0000
# 3 66.0985 49.5125 240.1438 0.0000 0.0000 0.0000
# 4 0.0000 0.0000 0.0000 27.6636 0.0000 0.0000
# 5 0.0000 0.0000 0.0000 0.0000 38.9401 0.0000
# 6 0.0000 0.0000 0.0000 0.0000 0.0000 24.6776
#
#
#
# Elastic Compliance Matrix: (Units=1/GPa)
#
#
# Indices 1 2 3 4 5 6 
#
# 1 0.011880 -0.003289 -0.002592 0.000000 0.000000 0.000000
# 2 -0.003289 0.018317 -0.002871 0.000000 0.000000 0.000000
# 3 -0.002592 -0.002871 0.005470 0.000000 0.000000 0.000000
# 4 0.000000 0.000000 0.000000 0.036149 0.000000 0.000000
# 5 0.000000 0.000000 0.000000 0.000000 0.025680 0.000000
# 6 0.000000 0.000000 0.000000 0.000000 0.000000 0.040523
#
#
# Mechanical properties :
#
#
# Convention : Reuss Voigt Hill
#
# Bulk Modulus (GPa) = 55.05801 78.31768 66.68785
# Shear Modulus (GPa) = 30.94499 36.21816 33.58158
#
# Velocity S-wave (km/s) = 3.66263 3.96242 3.81547
# Velocity P-wave (km/s) = 6.46177 7.40848 6.95126
#
# Compressibility (1/GPa) = 0.01816266
#
# Stress axis : x y z
#
# Youngs Moduli (GPa) = 84.17444 54.59338 182.82961
#
# Poissons Ratio (x) = 0.17955 0.47386
# Poissons Ratio (y) = 0.27684 0.52497
# Poissons Ratio (z) = 0.21817 0.15676
#
# Static dielectric constant tensor:
#      x y z
#    x 1.913060 0.000000 0.000000 
#    y 0.000000 1.920790 0.000000 
#    z 0.000000 0.000000 1.826990 
# 
# From -- ./inp_files/23352.got.cif
#   From: 2010.05.17/outbox.cif.g08.bks.cpg/sg54_12_cif.got.tgz:23352.got - 2010.06.03 13:09:01.
