data_PCOD9424917
_publ_section_title
;
Structure prediction by ZEFSAII (Michael W. Deem and Ramdas Pophale) SiO2 
 PCOD9424917
Probable space group: P B A M
;
_chemical_formula_sum "Si O2"
_cell_formula_units_Z 64
_cell_length_a 27.401976
_cell_length_b 18.967208
_cell_length_c 8.598328
_cell_angle_alpha 90.000000
_cell_angle_beta 90.000000
_cell_angle_gamma 90.000000
_cell_volume 4468.886211
_symmetry_space_group_name_H-M "P B A M"
_symmetry_group_IT_number 55
_symmetry_cell_setting 'orthorhombic'
loop_
_space_group_symop_operation_xyz
x,y,z
-x,-y,z
1/2+x,1/2-y,-z
1/2-x,1/2+y,-z
-x,-y,-z
x,y,-z
1/2-x,1/2+y,z
1/2+x,1/2-y,z
loop_
_atom_site_type_symbol
_atom_site_label
_atom_site_fract_x
_atom_site_fract_y
_atom_site_fract_z
Si Si1 0.853981 0.169635 0.689648
Si Si2 0.652278 0.345889 0.815420
Si Si3 0.744295 0.432053 0.312198
Si Si4 0.057903 0.079900 0.688308
Si Si5 0.240649 0.911269 0.815020
Si Si6 0.296852 0.784952 0.320865
Si Si7 0.552938 0.583004 0.688850
Si Si8 0.695862 0.804798 0.679431
O O1 0.852352 0.170592 0.500000
O O2 0.809743 0.120188 0.745869
O O3 0.905192 0.136469 0.740623
O O4 0.842996 0.249408 0.746719
O O5 0.693324 0.397240 0.741492
O O6 0.599666 0.372441 0.760762
O O7 0.664540 0.266856 0.758606
O O8 0.656692 0.349475 0.000000
O O9 0.744838 0.431660 0.500000
O O10 0.748645 0.510761 0.250420
O O11 0.787610 0.379879 0.253510
O O12 0.060933 0.083790 0.500000
O O13 0.002588 0.099203 0.736176
O O14 0.065089 0.997662 0.733308
O O15 0.283243 0.857406 0.763355
O O16 0.237044 0.912760 0.000000
O O17 0.309857 0.797903 0.500000
O O18 0.246237 0.740128 0.320435
O O19 0.552898 0.583666 0.500000
O O20 0.681694 0.817488 0.500000
#
# Coordination Sequence:
#
# PCOD9424917 Si02
#       8
#     8   8   8   8   8   8   8   8
#     4   9  15  27  44  60  79 110 145 175 207 247
#     4  11  20  29  42  63  86 110 140 178 216 249
#     4  10  18  29  42  57  80 114 146 171 202 251
#     4   9  16  28  42  59  82 112 145 176 210 251
#     4  11  20  28  40  63  88 109 136 175 212 246
#     4   9  17  31  46  59  78 110 142 169 203 250
#     4   8  15  26  43  61  79 107 148 185 207 237
#     4   7  13  24  40  58  75  98 135 171 199 233
#
# _framework density 14.321243000000001
#
# number of rings (size 3 to 8) (size 9 to 14) (size 15 to 20)
#    0.000    2.750    0.000    6.000    0.000    1.000 
#    0.000    2.500    0.000    0.000    0.000    0.000 
#    0.000    1.000    0.000   11.750    0.000    2.250 
#
# Total GULP energy -356384.292456 kJ/mol
# GULP energy per Si atom -5568.504570 kJ/mol
# Density = 1.428865 g / cm^3
# Si number density = 14.321243 Si / 1000 Ang^3
#
#
#
# Elastic Constant Matrix: (Units=GPa)
#
#
# Indices 1 2 3 4 5 6 
#
# 1 90.7808 62.0103 21.0667 0.0000 0.0000 0.0000
# 2 62.0103 116.2430 28.5326 0.0000 0.0000 0.0000
# 3 21.0667 28.5326 50.4940 0.0000 0.0000 0.0000
# 4 0.0000 0.0000 0.0000 12.5393 0.0000 0.0000
# 5 0.0000 0.0000 0.0000 0.0000 3.3278 0.0000
# 6 0.0000 0.0000 0.0000 0.0000 0.0000 27.5573
#
#
#
# Elastic Compliance Matrix: (Units=1/GPa)
#
#
# Indices 1 2 3 4 5 6 
#
# 1 0.017570 -0.008793 -0.002362 0.000000 0.000000 0.000000
# 2 -0.008793 0.014389 -0.004462 0.000000 0.000000 0.000000
# 3 -0.002362 -0.004462 0.023311 0.000000 0.000000 0.000000
# 4 0.000000 0.000000 0.000000 0.079749 0.000000 0.000000
# 5 0.000000 0.000000 0.000000 0.000000 0.300501 0.000000
# 6 0.000000 0.000000 0.000000 0.000000 0.000000 0.036288
#
#
# Mechanical properties :
#
#
# Convention : Reuss Voigt Hill
#
# Bulk Modulus (GPa) = 41.60419 53.41523 47.50971
# Shear Modulus (GPa) = 9.78372 18.41209 14.09790
#
# Velocity S-wave (km/s) = 2.61657 3.58948 3.14093
# Velocity P-wave (km/s) = 6.18404 7.38634 6.81177
#
# Compressibility (1/GPa) = 0.02403604
#
# Stress axis : x y z
#
# Youngs Moduli (GPa) = 56.91539 69.49945 42.89825
#
# Poissons Ratio (x) = 0.61111 0.10131
# Poissons Ratio (y) = 0.50046 0.19141
# Poissons Ratio (z) = 0.13442 0.31011
#
# Static dielectric constant tensor:
#      x y z
#    x 1.464150 0.000000 0.000000 
#    y 0.000000 1.482490 0.000000 
#    z 0.000000 0.000000 1.477600 
# 
# From -- ./inp_files/10298.got.cif
#   From: 2010.05.17/outbox.cif.g08.bks.cpg/sg55_6_cif.got.tgz:10298.got - 2010.06.03 13:27:54.
