data_PCOD9424541
_publ_section_title
;
Structure prediction by ZEFSAII (Michael W. Deem and Ramdas Pophale) SiO2 
 PCOD9424541
Probable space group: P C C A
;
_chemical_formula_sum "Si O2"
_cell_formula_units_Z 28
_cell_length_a 4.765488
_cell_length_b 7.652957
_cell_length_c 32.650604
_cell_angle_alpha 90.000000
_cell_angle_beta 90.000000
_cell_angle_gamma 90.000000
_cell_volume 1190.769968
_symmetry_space_group_name_H-M "P C C A"
_symmetry_group_IT_number 54
_symmetry_cell_setting 'orthorhombic'
loop_
_space_group_symop_operation_xyz
x,y,z
1/2-x,-y,z
1/2+x,-y,1/2-z
-x,y,1/2-z
-x,-y,-z
1/2+x,y,-z
1/2-x,y,1/2+z
x,-y,1/2+z
loop_
_atom_site_type_symbol
_atom_site_label
_atom_site_fract_x
_atom_site_fract_y
_atom_site_fract_z
Si Si1 0.667399 0.298464 0.901182
Si Si2 0.750000 0.500000 0.279925
Si Si3 0.357786 0.721920 0.842179
Si Si4 0.750000 0.000000 0.968115
Si Si5 0.750000 0.000000 0.720203
O O1 0.750000 0.500000 0.911068
O O2 0.378136 0.322647 0.875942
O O3 0.891544 0.209125 0.870360
O O4 0.684360 0.168972 0.939561
O O5 0.500000 0.576580 0.250000
O O6 0.543373 0.398480 0.311426
O O7 0.192664 0.844807 0.810903
O O8 0.500000 0.000000 0.000000
O O9 0.500000 0.949664 0.750000
#
# Coordination Sequence:
#
# PCOD9424541 Si02
#       5
#     8   4   8   4   4
#     4  12  26  48  79 114 151 199 259 312 391 479
#     4  12  26  44  70 110 152 202 266 334 384 438
#     4  12  25  47  71 108 147 202 261 318 381 468
#     4  12  28  52  82 120 158 196 246 324 404 484
#     4  12  26  46  66  98 150 202 258 328 400 440
#
# _framework density 23.514196999999999
#
# number of rings (size 3 to 8) (size 9 to 14) (size 15 to 20)
#    0.000    0.000    1.429    8.571    0.000    3.429 
#    0.000    0.000    0.000    0.000    0.000    0.000 
#    0.000    0.000    0.000    0.000    0.000    0.000 
#
# Total GULP energy -156045.959320 kJ/mol
# GULP energy per Si atom -5573.069976 kJ/mol
# Density = 2.346068 g / cm^3
# Si number density = 23.514197 Si / 1000 Ang^3
#
#
#
# Elastic Constant Matrix: (Units=GPa)
#
#
# Indices 1 2 3 4 5 6 
#
# 1 185.1250 46.0335 91.9892 0.0000 0.0000 0.0000
# 2 46.0335 120.0898 100.0588 0.0000 0.0000 0.0000
# 3 91.9892 100.0588 227.2474 0.0000 0.0000 0.0000
# 4 0.0000 0.0000 0.0000 38.6159 0.0000 0.0000
# 5 0.0000 0.0000 0.0000 0.0000 62.8984 0.0000
# 6 0.0000 0.0000 0.0000 0.0000 0.0000 22.7585
#
#
#
# Elastic Compliance Matrix: (Units=1/GPa)
#
#
# Indices 1 2 3 4 5 6 
#
# 1 0.006780 -0.000493 -0.002528 0.000000 0.000000 0.000000
# 2 -0.000493 0.013188 -0.005607 0.000000 0.000000 0.000000
# 3 -0.002528 -0.005607 0.007893 0.000000 0.000000 0.000000
# 4 0.000000 0.000000 0.000000 0.025896 0.000000 0.000000
# 5 0.000000 0.000000 0.000000 0.000000 0.015899 0.000000
# 6 0.000000 0.000000 0.000000 0.000000 0.000000 0.043940
#
#
# Mechanical properties :
#
#
# Convention : Reuss Voigt Hill
#
# Bulk Modulus (GPa) = 94.29346 112.06944 103.18145
# Shear Modulus (GPa) = 37.20627 44.47995 40.84311
#
# Velocity S-wave (km/s) = 3.98212 4.35400 4.17220
# Velocity P-wave (km/s) = 7.83139 8.54635 8.19667
#
# Compressibility (1/GPa) = 0.01060519
#
# Stress axis : x y z
#
# Youngs Moduli (GPa) = 147.48582 75.82635 126.70253
#
# Poissons Ratio (x) = 0.03739 0.32024
# Poissons Ratio (y) = 0.07273 0.71044
# Poissons Ratio (z) = 0.37277 0.42517
#
# Static dielectric constant tensor:
#      x y z
#    x 1.859390 0.000000 0.000000 
#    y 0.000000 1.975640 0.000000 
#    z 0.000000 0.000000 1.733480 
# 
# From -- ./inp_files/25069.got.cif
#   From: 2010.05.17/outbox.cif.g08.bks.cpg/sg54_13_cif.got.tgz:25069.got - 2010.06.03 13:09:01.
