data_PCOD9424555
_publ_section_title
;
Structure prediction by ZEFSAII (Michael W. Deem and Ramdas Pophale) SiO2 
 PCOD9424555
Probable space group: P C C A
;
_chemical_formula_sum "Si O2"
_cell_formula_units_Z 36
_cell_length_a 4.832497
_cell_length_b 26.748006
_cell_length_c 9.177885
_cell_angle_alpha 90.000000
_cell_angle_beta 90.000000
_cell_angle_gamma 90.000000
_cell_volume 1186.330283
_symmetry_space_group_name_H-M "P C C A"
_symmetry_group_IT_number 54
_symmetry_cell_setting 'orthorhombic'
loop_
_space_group_symop_operation_xyz
x,y,z
1/2-x,-y,z
1/2+x,-y,1/2-z
-x,y,1/2-z
-x,-y,-z
1/2+x,y,-z
1/2-x,y,1/2+z
x,-y,1/2+z
loop_
_atom_site_type_symbol
_atom_site_label
_atom_site_fract_x
_atom_site_fract_y
_atom_site_fract_z
Si Si1 0.750000 0.500000 0.607922
Si Si2 0.500000 0.031730 0.250000
Si Si3 0.000000 0.276370 0.750000
Si Si4 0.660322 0.876178 0.918633
Si Si5 0.000000 0.207297 0.250000
Si Si6 0.000000 0.404388 0.250000
Si Si7 0.505126 0.638382 0.532676
O O1 0.500000 0.500000 0.500000
O O2 0.719322 0.448905 0.693683
O O3 0.317853 0.068856 0.148112
O O4 0.750000 0.000000 0.177811
O O5 0.259167 0.243921 0.807453
O O6 0.097020 0.308930 0.608638
O O7 0.808768 0.829373 0.845905
O O8 0.329822 0.873923 0.931161
O O9 0.195038 0.360436 0.372124
O O10 0.721453 0.608393 0.409828
#
# Coordination Sequence:
#
# PCOD9424555 Si02
#       7
#     4   4   4   8   4   4   8
#     4  12  28  50  82 122 164 222 284 342 428 520
#     4  12  26  46  74 116 167 215 280 350 426 528
#     4  12  27  48  79 115 153 212 274 348 436 518
#     4  12  26  47  77 111 156 215 270 345 425 492
#     4  12  27  51  78 111 157 206 280 343 407 516
#     4  12  28  53  83 120 167 217 278 351 421 518
#     4  12  27  49  77 114 160 208 265 343 430 505
#
# _framework density 30.345679000000001
#
# number of rings (size 3 to 8) (size 9 to 14) (size 15 to 20)
#    0.000    0.000    0.000   10.000    0.000   11.556 
#    0.000    0.000    0.000    1.333    0.000    0.000 
#    0.000    0.000    0.000    0.000    0.000    0.000 
#
# Total GULP energy -200406.596308 kJ/mol
# GULP energy per Si atom -5566.849897 kJ/mol
# Density = 3.027661 g / cm^3
# Si number density = 30.345679 Si / 1000 Ang^3
#
#
#
# Elastic Constant Matrix: (Units=GPa)
#
#
# Indices 1 2 3 4 5 6 
#
# 1 326.2757 54.7840 45.4105 0.0000 0.0000 0.0000
# 2 54.7840 196.9766 75.8049 0.0000 0.0000 0.0000
# 3 45.4105 75.8049 199.9858 0.0000 0.0000 0.0000
# 4 0.0000 0.0000 0.0000 21.0066 0.0000 0.0000
# 5 0.0000 0.0000 0.0000 0.0000 51.6010 0.0000
# 6 0.0000 0.0000 0.0000 0.0000 0.0000 149.7395
#
#
#
# Elastic Compliance Matrix: (Units=1/GPa)
#
#
# Indices 1 2 3 4 5 6 
#
# 1 0.003251 -0.000726 -0.000463 0.000000 0.000000 0.000000
# 2 -0.000726 0.006106 -0.002150 0.000000 0.000000 0.000000
# 3 -0.000463 -0.002150 0.005920 0.000000 0.000000 0.000000
# 4 0.000000 0.000000 0.000000 0.047604 0.000000 0.000000
# 5 0.000000 0.000000 0.000000 0.000000 0.019379 0.000000
# 6 0.000000 0.000000 0.000000 0.000000 0.000000 0.006678
#
#
# Mechanical properties :
#
#
# Convention : Reuss Voigt Hill
#
# Bulk Modulus (GPa) = 116.27780 119.47078 117.87429
# Shear Modulus (GPa) = 50.77000 80.95201 65.86100
#
# Velocity S-wave (km/s) = 4.09474 5.17054 4.66376
# Velocity P-wave (km/s) = 7.79466 8.66611 8.24191
#
# Compressibility (1/GPa) = 0.00860009
#
# Stress axis : x y z
#
# Youngs Moduli (GPa) = 307.57418 163.77503 168.91016
#
# Poissons Ratio (x) = 0.11891 0.07821
# Poissons Ratio (y) = 0.22331 0.36309
# Poissons Ratio (z) = 0.14242 0.35205
#
# Static dielectric constant tensor:
#      x y z
#    x 2.851870 0.000000 0.000000 
#    y 0.000000 2.372050 0.000000 
#    z 0.000000 0.000000 2.854750 
# 
# From -- ./inp_files/6420.got.cif
#   From: 2010.05.17/outbox.cif.g08.bks.cpg/sg54_4_cif.got.tgz:6420.got - 2010.06.03 13:09:01.
