data_PCOD9424989
_publ_section_title
;
Structure prediction by ZEFSAII (Michael W. Deem and Ramdas Pophale) SiO2 
 PCOD9424989
Probable space group: P B A M
;
_chemical_formula_sum "Si O2"
_cell_formula_units_Z 64
_cell_length_a 9.198303
_cell_length_b 20.413355
_cell_length_c 17.669588
_cell_angle_alpha 90.000000
_cell_angle_beta 90.000000
_cell_angle_gamma 90.000000
_cell_volume 3317.787167
_symmetry_space_group_name_H-M "P B A M"
_symmetry_group_IT_number 55
_symmetry_cell_setting 'orthorhombic'
loop_
_space_group_symop_operation_xyz
x,y,z
-x,-y,z
1/2+x,1/2-y,-z
1/2-x,1/2+y,-z
-x,-y,-z
x,y,-z
1/2-x,1/2+y,z
1/2+x,1/2-y,z
loop_
_atom_site_type_symbol
_atom_site_label
_atom_site_fract_x
_atom_site_fract_y
_atom_site_fract_z
Si Si1 0.520542 0.128206 0.288652
Si Si2 0.348923 0.199018 0.913134
Si Si3 0.775105 0.936327 0.684275
Si Si4 0.097359 0.256657 0.817232
Si Si5 0.509427 0.610768 0.790038
Si Si6 0.847325 0.539810 0.414888
Si Si7 0.703923 0.442690 0.914496
Si Si8 0.308395 0.956867 0.190335
O O1 0.352058 0.119359 0.314350
O O2 0.572271 0.197830 0.256271
O O3 0.622483 0.098265 0.355205
O O4 0.547949 0.079692 0.217053
O O5 0.254405 0.238926 0.851309
O O6 0.512365 0.208732 0.886037
O O7 0.298957 0.123594 0.909171
O O8 0.327134 0.221001 0.000000
O O9 0.931175 0.911005 0.711786
O O10 0.766286 0.984025 0.612084
O O11 0.723921 0.986340 0.749338
O O12 0.026671 0.186210 0.801430
O O13 0.427795 0.570380 0.856509
O O14 0.677573 0.594495 0.797809
O O15 0.818582 0.562596 0.500000
O O16 0.000000 0.500000 0.413642
O O17 0.793251 0.506588 0.888865
O O18 0.651747 0.448900 0.000000
#
# Coordination Sequence:
#
# PCOD9424989 Si02
#       8
#     8   8   8   8   8   8   8   8
#     4  10  19  31  51  75  99 127 161 204 247 296
#     4  10  21  35  50  68  96 133 172 214 255 299
#     4   9  17  31  51  72  99 126 155 202 250 289
#     4  11  20  34  51  71  98 134 173 206 248 299
#     4  10  20  31  48  70  95 130 167 201 239 296
#     4   8  15  29  52  80 102 123 157 200 245 294
#     4   9  18  32  48  67  93 123 159 209 261 294
#     4  10  18  30  48  72  95 121 162 208 248 291
#
# _framework density 19.289966
#
# number of rings (size 3 to 8) (size 9 to 14) (size 15 to 20)
#    0.000    2.375    0.000    6.000    0.000    1.500 
#    0.000    2.500    0.000   15.750    0.000    9.625 
#    0.000    0.000    0.000    0.000    0.000    0.000 
#
# Total GULP energy -356686.576828 kJ/mol
# GULP energy per Si atom -5573.227763 kJ/mol
# Density = 1.924606 g / cm^3
# Si number density = 19.289966 Si / 1000 Ang^3
#
#
#
# Elastic Constant Matrix: (Units=GPa)
#
#
# Indices 1 2 3 4 5 6 
#
# 1 31.6259 2.8704 11.9314 0.0000 0.0000 0.0000
# 2 2.8704 73.7840 37.0407 0.0000 0.0000 0.0000
# 3 11.9314 37.0407 103.7450 0.0000 0.0000 0.0000
# 4 0.0000 0.0000 0.0000 25.3124 0.0000 0.0000
# 5 0.0000 0.0000 0.0000 0.0000 9.1719 0.0000
# 6 0.0000 0.0000 0.0000 0.0000 0.0000 23.9525
#
#
#
# Elastic Compliance Matrix: (Units=1/GPa)
#
#
# Indices 1 2 3 4 5 6 
#
# 1 0.033089 0.000759 -0.004076 0.000000 0.000000 0.000000
# 2 0.000759 0.016530 -0.005989 0.000000 0.000000 0.000000
# 3 -0.004076 -0.005989 0.012246 0.000000 0.000000 0.000000
# 4 0.000000 0.000000 0.000000 0.039506 0.000000 0.000000
# 5 0.000000 0.000000 0.000000 0.000000 0.109028 0.000000
# 6 0.000000 0.000000 0.000000 0.000000 0.000000 0.041749
#
#
# Mechanical properties :
#
#
# Convention : Reuss Voigt Hill
#
# Bulk Modulus (GPa) = 23.12025 34.75998 28.94011
# Shear Modulus (GPa) = 17.53283 22.17486 19.85384
#
# Velocity S-wave (km/s) = 3.01808 3.39419 3.21164
# Velocity P-wave (km/s) = 4.91495 5.78096 5.36546
#
# Compressibility (1/GPa) = 0.04325213
#
# Stress axis : x y z
#
# Youngs Moduli (GPa) = 30.22185 60.49526 81.65791
#
# Poissons Ratio (x) = -0.04593 0.33288
# Poissons Ratio (y) = -0.02295 0.48907
# Poissons Ratio (z) = 0.12320 0.36232
#
# Static dielectric constant tensor:
#      x y z
#    x 1.733760 0.000000 0.000000 
#    y 0.000000 1.701750 0.000000 
#    z 0.000000 0.000000 1.696060 
# 
# From -- ./inp_files/21097.got.cif
#   From: 2010.05.17/outbox.cif.g08.bks.cpg/sg55_11_cif.got.tgz:21097.got - 2010.06.03 13:27:54.
