data_PCOD9424203
_publ_section_title
;
Structure prediction by ZEFSAII (Michael W. Deem and Ramdas Pophale) SiO2 
 PCOD9424203
Probable space group: P C C A
;
_chemical_formula_sum "Si O2"
_cell_formula_units_Z 48
_cell_length_a 24.396221
_cell_length_b 6.694183
_cell_length_c 14.049074
_cell_angle_alpha 90.000000
_cell_angle_beta 90.000000
_cell_angle_gamma 90.000000
_cell_volume 2294.393161
_symmetry_space_group_name_H-M "P C C A"
_symmetry_group_IT_number 54
_symmetry_cell_setting 'orthorhombic'
loop_
_space_group_symop_operation_xyz
x,y,z
1/2-x,-y,z
1/2+x,-y,1/2-z
-x,y,1/2-z
-x,-y,-z
1/2+x,y,-z
1/2-x,y,1/2+z
x,-y,1/2+z
loop_
_atom_site_type_symbol
_atom_site_label
_atom_site_fract_x
_atom_site_fract_y
_atom_site_fract_z
Si Si1 0.372356 0.240339 0.842863
Si Si2 0.195958 0.136692 0.809649
Si Si3 0.460155 0.307493 0.492987
Si Si4 0.511187 0.061258 0.641538
Si Si5 0.834736 0.567195 0.028303
Si Si6 0.313322 0.509081 0.689562
O O1 0.436332 0.210244 0.862878
O O2 0.339199 0.346847 0.927486
O O3 0.354065 0.371803 0.751565
O O4 0.351198 0.018497 0.831763
O O5 0.198723 0.289786 0.899488
O O6 0.176164 0.261415 0.717448
O O7 0.250000 0.000000 0.795122
O O8 0.500000 0.500000 0.500000
O O9 0.463025 0.187031 0.592239
O O10 0.398036 0.363662 0.470444
O O11 0.480239 0.143570 0.416307
O O12 0.500000 0.014471 0.750000
O O13 0.815387 0.554118 0.919974
O O14 0.250000 0.500000 0.723037
#
# Coordination Sequence:
#
# PCOD9424203 Si02
#       6
#     8   8   8   8   8   8
#     4  11  23  45  66  95 133 170 216 270 326 387
#     4  11  24  45  67  92 135 169 213 277 324 387
#     4  11  23  44  64  99 135 166 222 274 317 405
#     4  11  24  42  69  96 128 174 219 267 333 387
#     4  11  25  43  68  96 133 174 215 268 337 387
#     4  11  25  42  66  98 127 167 223 266 319 396
#
# _framework density 20.920563000000001
#
# number of rings (size 3 to 8) (size 9 to 14) (size 15 to 20)
#    0.000    1.000    5.000    1.000    2.333    3.333 
#    0.000    0.000    0.000    0.000    0.000    0.000 
#    0.000    0.000    0.000    0.000    0.000    0.000 
#
# Total GULP energy -267939.368923 kJ/mol
# GULP energy per Si atom -5582.070186 kJ/mol
# Density = 2.087295 g / cm^3
# Si number density = 20.920563 Si / 1000 Ang^3
#
#
#
# Elastic Constant Matrix: (Units=GPa)
#
#
# Indices 1 2 3 4 5 6 
#
# 1 45.8598 15.8887 -13.3629 0.0000 0.0000 0.0000
# 2 15.8887 111.7843 30.5408 0.0000 0.0000 0.0000
# 3 -13.3629 30.5408 96.1459 0.0000 0.0000 0.0000
# 4 0.0000 0.0000 0.0000 20.2149 0.0000 0.0000
# 5 0.0000 0.0000 0.0000 0.0000 13.0160 0.0000
# 6 0.0000 0.0000 0.0000 0.0000 0.0000 35.9678
#
#
#
# Elastic Compliance Matrix: (Units=1/GPa)
#
#
# Indices 1 2 3 4 5 6 
#
# 1 0.024980 -0.004927 0.005037 0.000000 0.000000 0.000000
# 2 -0.004927 0.010768 -0.004105 0.000000 0.000000 0.000000
# 3 0.005037 -0.004105 0.012405 0.000000 0.000000 0.000000
# 4 0.000000 0.000000 0.000000 0.049469 0.000000 0.000000
# 5 0.000000 0.000000 0.000000 0.000000 0.076828 0.000000
# 6 0.000000 0.000000 0.000000 0.000000 0.000000 0.027803
#
#
# Mechanical properties :
#
#
# Convention : Reuss Voigt Hill
#
# Bulk Modulus (GPa) = 24.89867 35.54703 30.22285
# Shear Modulus (GPa) = 22.35839 28.55463 25.45651
#
# Velocity S-wave (km/s) = 3.27269 3.69847 3.49208
# Velocity P-wave (km/s) = 5.11938 5.93857 5.54412
#
# Compressibility (1/GPa) = 0.04016279
#
# Stress axis : x y z
#
# Youngs Moduli (GPa) = 40.03169 92.87091 80.61337
#
# Poissons Ratio (x) = 0.45755 -0.40604
# Poissons Ratio (y) = 0.19723 0.33093
# Poissons Ratio (z) = -0.20163 0.38124
#
# Static dielectric constant tensor:
#      x y z
#    x 1.847720 0.000000 0.000000 
#    y 0.000000 1.772070 0.000000 
#    z 0.000000 0.000000 1.750030 
# 
# From -- ./inp_files/15155.got.cif
#   From: 2010.05.17/outbox.cif.g08.bks.cpg/sg54_8_cif.got.tgz:15155.got - 2010.06.03 13:09:01.
