data_PCOD9424035
_publ_section_title
;
Structure prediction by ZEFSAII (Michael W. Deem and Ramdas Pophale) SiO2 
 PCOD9424035
Probable space group: P C C A
;
_chemical_formula_sum "Si O2"
_cell_formula_units_Z 64
_cell_length_a 16.369158
_cell_length_b 10.420236
_cell_length_c 19.068068
_cell_angle_alpha 90.000000
_cell_angle_beta 90.000000
_cell_angle_gamma 90.000000
_cell_volume 3252.449692
_symmetry_space_group_name_H-M "P C C A"
_symmetry_group_IT_number 54
_symmetry_cell_setting 'orthorhombic'
loop_
_space_group_symop_operation_xyz
x,y,z
1/2-x,-y,z
1/2+x,-y,1/2-z
-x,y,1/2-z
-x,-y,-z
1/2+x,y,-z
1/2-x,y,1/2+z
x,-y,1/2+z
loop_
_atom_site_type_symbol
_atom_site_label
_atom_site_fract_x
_atom_site_fract_y
_atom_site_fract_z
Si Si1 0.486420 0.468241 0.173458
Si Si2 0.221004 0.859984 0.298109
Si Si3 0.213420 0.141368 0.446659
Si Si4 0.036720 0.812729 0.328150
Si Si5 0.719230 0.637227 0.463227
Si Si6 0.040833 0.129941 0.526237
Si Si7 0.471016 0.380394 0.545380
Si Si8 0.299520 0.371093 0.186252
O O1 0.500000 0.519799 0.250000
O O2 0.541572 0.341777 0.161630
O O3 0.505028 0.582356 0.120849
O O4 0.393998 0.411039 0.174037
O O5 0.282862 0.831006 0.362932
O O6 0.128397 0.869321 0.329956
O O7 0.214023 0.746070 0.240543
O O8 0.250000 0.000000 0.269951
O O9 0.267957 0.250247 0.482258
O O10 0.130596 0.139718 0.492288
O O11 0.250000 0.000000 0.453663
O O12 0.000000 0.834136 0.250000
O O13 0.976704 0.861621 0.390028
O O14 0.750000 0.500000 0.490974
O O15 0.625288 0.620539 0.446273
O O16 0.766039 0.665228 0.390682
O O17 0.996813 0.251626 0.491808
O O18 0.000000 0.000000 0.500000
O O19 0.500000 0.500000 0.500000
O O20 0.250000 0.500000 0.208159
#
# Coordination Sequence:
#
# PCOD9424035 Si02
#       8
#     8   8   8   8   8   8   8   8
#     4  11  21  40  69  99 128 181 233 280 347 425
#     4  11  24  44  67  99 135 178 230 286 339 425
#     4  11  25  44  66  95 136 179 231 279 344 422
#     4  11  22  44  74  97 131 188 241 273 347 443
#     4  11  22  40  65  97 132 168 222 285 335 403
#     4  12  25  45  68 100 141 182 232 294 359 413
#     4  12  23  40  68  99 131 173 230 286 336 416
#     4  11  22  42  67  97 139 172 223 287 343 412
#
# _framework density 19.677475999999999
#
# number of rings (size 3 to 8) (size 9 to 14) (size 15 to 20)
#    0.000    0.750    6.250    4.500    0.000    2.000 
#    2.250    0.625    0.000    0.000    0.000    0.000 
#    0.000    0.000    0.000    0.000    0.000    0.000 
#
# Total GULP energy -357167.944370 kJ/mol
# GULP energy per Si atom -5580.749131 kJ/mol
# Density = 1.963269 g / cm^3
# Si number density = 19.677476 Si / 1000 Ang^3
#
#
#
# Elastic Constant Matrix: (Units=GPa)
#
#
# Indices 1 2 3 4 5 6 
#
# 1 52.1277 -0.8901 -2.0326 0.0000 0.0000 0.0000
# 2 -0.8901 117.7368 53.8594 0.0000 0.0000 0.0000
# 3 -2.0326 53.8594 116.3136 0.0000 0.0000 0.0000
# 4 0.0000 0.0000 0.0000 43.2037 0.0000 0.0000
# 5 0.0000 0.0000 0.0000 0.0000 30.6610 0.0000
# 6 0.0000 0.0000 0.0000 0.0000 0.0000 29.2495
#
#
#
# Elastic Compliance Matrix: (Units=1/GPa)
#
#
# Indices 1 2 3 4 5 6 
#
# 1 0.019197 -0.000011 0.000340 0.000000 0.000000 0.000000
# 2 -0.000011 0.010776 -0.004990 0.000000 0.000000 0.000000
# 3 0.000340 -0.004990 0.010914 0.000000 0.000000 0.000000
# 4 0.000000 0.000000 0.000000 0.023146 0.000000 0.000000
# 5 0.000000 0.000000 0.000000 0.000000 0.032615 0.000000
# 6 0.000000 0.000000 0.000000 0.000000 0.000000 0.034189
#
#
# Mechanical properties :
#
#
# Convention : Reuss Voigt Hill
#
# Bulk Modulus (GPa) = 31.67931 43.11684 37.39808
# Shear Modulus (GPa) = 33.18304 36.30560 34.74432
#
# Velocity S-wave (km/s) = 4.11097 4.30005 4.20657
# Velocity P-wave (km/s) = 6.21833 6.82739 6.52996
#
# Compressibility (1/GPa) = 0.03156634
#
# Stress axis : x y z
#
# Youngs Moduli (GPa) = 52.09215 92.79694 91.62456
#
# Poissons Ratio (x) = 0.00098 -0.03118
# Poissons Ratio (y) = 0.00055 0.45722
# Poissons Ratio (z) = -0.01773 0.46307
#
# Static dielectric constant tensor:
#      x y z
#    x 1.724920 0.000000 0.000000 
#    y 0.000000 1.642900 0.000000 
#    z 0.000000 0.000000 1.729510 
# 
# From -- ./inp_files/18246.got.cif
#   From: 2010.05.17/outbox.cif.g08.bks.cpg/sg54_10_cif.got.tgz:18246.got - 2010.06.03 13:09:01.
