data_PCOD9424160
_publ_section_title
;
Structure prediction by ZEFSAII (Michael W. Deem and Ramdas Pophale) SiO2 
 PCOD9424160
Probable space group: P C C A
;
_chemical_formula_sum "Si O2"
_cell_formula_units_Z 40
_cell_length_a 8.877043
_cell_length_b 11.658232
_cell_length_c 17.839002
_cell_angle_alpha 90.000000
_cell_angle_beta 90.000000
_cell_angle_gamma 90.000000
_cell_volume 1846.169498
_symmetry_space_group_name_H-M "P C C A"
_symmetry_group_IT_number 54
_symmetry_cell_setting 'orthorhombic'
loop_
_space_group_symop_operation_xyz
x,y,z
1/2-x,-y,z
1/2+x,-y,1/2-z
-x,y,1/2-z
-x,-y,-z
1/2+x,y,-z
1/2-x,y,1/2+z
x,-y,1/2+z
loop_
_atom_site_type_symbol
_atom_site_label
_atom_site_fract_x
_atom_site_fract_y
_atom_site_fract_z
Si Si1 0.980299 0.264693 0.004010
Si Si2 0.166890 0.730317 0.226362
Si Si3 0.407501 0.459975 0.102794
Si Si4 0.661877 0.619386 0.135098
Si Si5 0.750295 0.864253 0.909698
O O1 0.851863 0.296068 0.064993
O O2 0.117504 0.203679 0.046314
O O3 0.000584 0.383894 0.957441
O O4 0.906796 0.180335 0.943978
O O5 0.133675 0.623033 0.171390
O O6 0.264816 0.685011 0.295645
O O7 0.252135 0.823895 0.176459
O O8 0.000000 0.771604 0.250000
O O9 0.250000 0.500000 0.067682
O O10 0.492007 0.569229 0.137384
O O11 0.750000 0.500000 0.125643
O O12 0.750000 0.000000 0.917889
#
# Coordination Sequence:
#
# PCOD9424160 Si02
#       5
#     8   8   8   8   8
#     4  11  24  43  70 103 133 172 232 279 339 419
#     4  11  25  43  64  98 141 178 229 275 327 415
#     4  11  23  40  66 102 148 179 212 267 344 418
#     4  12  22  39  67 100 140 179 212 262 346 416
#     4  11  26  49  70  93 129 178 234 298 347 388
#
# _framework density 21.666481999999998
#
# number of rings (size 3 to 8) (size 9 to 14) (size 15 to 20)
#    0.000    0.800    2.000    6.000    2.800    4.000 
#    3.600    0.000    0.000    0.000    0.000    0.000 
#    0.000    0.000    0.000    0.000    0.000    0.000 
#
# Total GULP energy -223604.699635 kJ/mol
# GULP energy per Si atom -5590.117491 kJ/mol
# Density = 2.161717 g / cm^3
# Si number density = 21.666482 Si / 1000 Ang^3
#
#
#
# Elastic Constant Matrix: (Units=GPa)
#
#
# Indices 1 2 3 4 5 6 
#
# 1 108.6022 31.2009 39.4722 0.0000 0.0000 0.0000
# 2 31.2009 90.8033 31.8887 0.0000 0.0000 0.0000
# 3 39.4722 31.8887 124.4165 0.0000 0.0000 0.0000
# 4 0.0000 0.0000 0.0000 20.1363 0.0000 0.0000
# 5 0.0000 0.0000 0.0000 0.0000 44.3661 0.0000
# 6 0.0000 0.0000 0.0000 0.0000 0.0000 27.5827
#
#
#
# Elastic Compliance Matrix: (Units=1/GPa)
#
#
# Indices 1 2 3 4 5 6 
#
# 1 0.011025 -0.002813 -0.002777 0.000000 0.000000 0.000000
# 2 -0.002813 0.012820 -0.002393 0.000000 0.000000 0.000000
# 3 -0.002777 -0.002393 0.009532 0.000000 0.000000 0.000000
# 4 0.000000 0.000000 0.000000 0.049662 0.000000 0.000000
# 5 0.000000 0.000000 0.000000 0.000000 0.022540 0.000000
# 6 0.000000 0.000000 0.000000 0.000000 0.000000 0.036255
#
#
# Mechanical properties :
#
#
# Convention : Reuss Voigt Hill
#
# Bulk Modulus (GPa) = 57.43668 58.77174 58.10421
# Shear Modulus (GPa) = 30.56168 33.16769 31.86468
#
# Velocity S-wave (km/s) = 3.75980 3.91683 3.83912
# Velocity P-wave (km/s) = 6.73908 6.90217 6.82111
#
# Compressibility (1/GPa) = 0.01741048
#
# Stress axis : x y z
#
# Youngs Moduli (GPa) = 90.69948 78.00328 104.91062
#
# Poissons Ratio (x) = 0.21944 0.29132
# Poissons Ratio (y) = 0.25516 0.25108
# Poissons Ratio (z) = 0.25186 0.18669
#
# Static dielectric constant tensor:
#      x y z
#    x 1.894190 0.000000 0.000000 
#    y 0.000000 1.770130 0.000000 
#    z 0.000000 0.000000 1.819180 
# 
# From -- ./inp_files/16308.got.cif
#   From: 2010.05.17/outbox.cif.g08.bks.cpg/sg54_9_cif.got.tgz:16308.got - 2010.06.03 13:09:01.
