data_PCOD9424258
_publ_section_title
;
Structure prediction by ZEFSAII (Michael W. Deem and Ramdas Pophale) SiO2 
 PCOD9424258
Probable space group: P C C A
;
_chemical_formula_sum "Si O2"
_cell_formula_units_Z 48
_cell_length_a 9.510814
_cell_length_b 24.189853
_cell_length_c 9.679751
_cell_angle_alpha 90.000000
_cell_angle_beta 90.000000
_cell_angle_gamma 90.000000
_cell_volume 2226.973778
_symmetry_space_group_name_H-M "P C C A"
_symmetry_group_IT_number 54
_symmetry_cell_setting 'orthorhombic'
loop_
_space_group_symop_operation_xyz
x,y,z
1/2-x,-y,z
1/2+x,-y,1/2-z
-x,y,1/2-z
-x,-y,-z
1/2+x,y,-z
1/2-x,y,1/2+z
x,-y,1/2+z
loop_
_atom_site_type_symbol
_atom_site_label
_atom_site_fract_x
_atom_site_fract_y
_atom_site_fract_z
Si Si1 0.661461 0.233500 0.789764
Si Si2 0.506682 0.354069 0.101719
Si Si3 0.865663 0.107384 0.354532
Si Si4 0.858792 0.950531 0.158640
Si Si5 0.269751 0.300881 0.958701
Si Si6 0.591792 0.522114 0.876904
O O1 0.500000 0.239981 0.750000
O O2 0.669743 0.172641 0.855491
O O3 0.741398 0.250805 0.649636
O O4 0.715608 0.277352 0.898273
O O5 0.500000 0.324538 0.250000
O O6 0.672397 0.353805 0.074404
O O7 0.425133 0.411536 0.119235
O O8 0.427479 0.320758 0.983439
O O9 0.733741 0.082279 0.271740
O O10 0.887182 0.081284 0.510110
O O11 0.000000 0.100208 0.250000
O O12 0.000000 0.965503 0.250000
O O13 0.750000 0.000000 0.120618
O O14 0.750000 0.500000 0.875720
O O15 0.500000 0.501262 0.750000
O O16 0.500000 0.500000 0.000000
#
# Coordination Sequence:
#
# PCOD9424258 Si02
#       6
#     8   8   8   8   8   8
#     4  11  24  42  67  99 138 180 228 280 342 413
#     4  11  24  41  66  99 135 173 231 280 350 416
#     4  11  25  46  69 104 144 187 240 290 356 431
#     4  12  26  47  75 107 141 186 236 299 361 426
#     4  12  22  42  65  97 135 179 224 284 340 410
#     4  11  24  45  68 100 137 182 233 296 360 432
#
# _framework density 21.553913999999999
#
# number of rings (size 3 to 8) (size 9 to 14) (size 15 to 20)
#    0.000    0.667    3.333    4.500    0.000    4.667 
#    6.000    0.833    0.000    0.000    0.000    0.000 
#    0.000    0.000    0.000    0.000    0.000    0.000 
#
# Total GULP energy -267428.616983 kJ/mol
# GULP energy per Si atom -5571.429520 kJ/mol
# Density = 2.150486 g / cm^3
# Si number density = 21.553914 Si / 1000 Ang^3
#
#
#
# Elastic Constant Matrix: (Units=GPa)
#
#
# Indices 1 2 3 4 5 6 
#
# 1 138.7305 37.6832 41.3657 0.0000 0.0000 0.0000
# 2 37.6832 65.3889 29.3433 0.0000 0.0000 0.0000
# 3 41.3657 29.3433 145.6825 0.0000 0.0000 0.0000
# 4 0.0000 0.0000 0.0000 32.1517 0.0000 0.0000
# 5 0.0000 0.0000 0.0000 0.0000 30.8598 0.0000
# 6 0.0000 0.0000 0.0000 0.0000 0.0000 23.6224
#
#
#
# Elastic Compliance Matrix: (Units=1/GPa)
#
#
# Indices 1 2 3 4 5 6 
#
# 1 0.008889 -0.004386 -0.001640 0.000000 0.000000 0.000000
# 2 -0.004386 0.018977 -0.002577 0.000000 0.000000 0.000000
# 3 -0.001640 -0.002577 0.007849 0.000000 0.000000 0.000000
# 4 0.000000 0.000000 0.000000 0.031103 0.000000 0.000000
# 5 0.000000 0.000000 0.000000 0.000000 0.032405 0.000000
# 6 0.000000 0.000000 0.000000 0.000000 0.000000 0.042333
#
#
# Mechanical properties :
#
#
# Convention : Reuss Voigt Hill
#
# Bulk Modulus (GPa) = 54.03144 62.95404 58.49274
# Shear Modulus (GPa) = 30.31552 33.42075 31.86814
#
# Velocity S-wave (km/s) = 3.75440 3.94199 3.84934
# Velocity P-wave (km/s) = 6.62695 7.07037 6.85225
#
# Compressibility (1/GPa) = 0.01850774
#
# Stress axis : x y z
#
# Youngs Moduli (GPa) = 112.50067 52.69428 127.40367
#
# Poissons Ratio (x) = 0.23114 0.20899
# Poissons Ratio (y) = 0.49348 0.32831
# Poissons Ratio (z) = 0.18455 0.13579
#
# Static dielectric constant tensor:
#      x y z
#    x 1.791960 0.000000 0.000000 
#    y 0.000000 1.730430 0.000000 
#    z 0.000000 0.000000 1.782030 
# 
# From -- ./inp_files/2554.got.cif
#   From: 2010.05.17/outbox.cif.g08.bks.cpg/sg54_2_cif.got.tgz:2554.got - 2010.06.03 13:09:01.
