data_PCOD9424320
_publ_section_title
;
Structure prediction by ZEFSAII (Michael W. Deem and Ramdas Pophale) SiO2 
 PCOD9424320
Probable space group: P C C A
;
_chemical_formula_sum "Si O2"
_cell_formula_units_Z 40
_cell_length_a 8.425259
_cell_length_b 21.275173
_cell_length_c 9.682147
_cell_angle_alpha 90.000000
_cell_angle_beta 90.000000
_cell_angle_gamma 90.000000
_cell_volume 1735.513646
_symmetry_space_group_name_H-M "P C C A"
_symmetry_group_IT_number 54
_symmetry_cell_setting 'orthorhombic'
loop_
_space_group_symop_operation_xyz
x,y,z
1/2-x,-y,z
1/2+x,-y,1/2-z
-x,y,1/2-z
-x,-y,-z
1/2+x,y,-z
1/2-x,y,1/2+z
x,-y,1/2+z
loop_
_atom_site_type_symbol
_atom_site_label
_atom_site_fract_x
_atom_site_fract_y
_atom_site_fract_z
Si Si1 0.925598 0.267198 0.904722
Si Si2 0.184804 0.570524 0.304680
Si Si3 0.116568 0.054725 0.120645
Si Si4 0.420945 0.124879 0.102107
Si Si5 0.356005 0.650544 0.077465
O O1 0.949548 0.195566 0.949497
O O2 0.743841 0.286044 0.895975
O O3 0.000000 0.275439 0.750000
O O4 0.985882 0.317890 0.016450
O O5 0.250000 0.500000 0.311732
O O6 0.308735 0.609414 0.209977
O O7 0.186607 0.603229 0.453069
O O8 0.000000 0.572053 0.250000
O O9 0.234603 0.114275 0.125559
O O10 0.000000 0.045881 0.250000
O O11 0.250000 0.000000 0.112966
O O12 0.002211 0.072197 0.993743
O O13 0.500000 0.119146 0.250000
#
# Coordination Sequence:
#
# PCOD9424320 Si02
#       5
#     8   8   8   8   8
#     4  11  24  46  69 104 143 181 238 298 348 430
#     4  12  28  46  68 103 138 181 241 298 358 431
#     4  12  26  48  74 112 150 196 244 299 364 427
#     4  11  25  46  74 107 149 192 248 304 358 432
#     4  12  22  47  69  98 141 182 234 297 360 424
#
# _framework density 23.047933
#
# number of rings (size 3 to 8) (size 9 to 14) (size 15 to 20)
#    0.000    0.400    4.000    4.200    2.800    4.800 
#    3.600    0.000    0.000    0.000    0.000    0.000 
#    0.000    0.000    0.000    0.000    0.000    0.000 
#
# Total GULP energy -223265.988065 kJ/mol
# GULP energy per Si atom -5581.649702 kJ/mol
# Density = 2.299547 g / cm^3
# Si number density = 23.047933 Si / 1000 Ang^3
#
#
#
# Elastic Constant Matrix: (Units=GPa)
#
#
# Indices 1 2 3 4 5 6 
#
# 1 103.8015 34.1768 9.0456 0.0000 0.0000 0.0000
# 2 34.1768 156.4984 40.3826 0.0000 0.0000 0.0000
# 3 9.0456 40.3826 51.5064 0.0000 0.0000 0.0000
# 4 0.0000 0.0000 0.0000 5.5715 0.0000 0.0000
# 5 0.0000 0.0000 0.0000 0.0000 35.7647 0.0000
# 6 0.0000 0.0000 0.0000 0.0000 0.0000 36.4008
#
#
#
# Elastic Compliance Matrix: (Units=1/GPa)
#
#
# Indices 1 2 3 4 5 6 
#
# 1 0.010380 -0.002252 -0.000057 0.000000 0.000000 0.000000
# 2 -0.002252 0.008499 -0.006268 0.000000 0.000000 0.000000
# 3 -0.000057 -0.006268 0.024339 0.000000 0.000000 0.000000
# 4 0.000000 0.000000 0.000000 0.179484 0.000000 0.000000
# 5 0.000000 0.000000 0.000000 0.000000 0.027961 0.000000
# 6 0.000000 0.000000 0.000000 0.000000 0.000000 0.027472
#
#
# Mechanical properties :
#
#
# Convention : Reuss Voigt Hill
#
# Bulk Modulus (GPa) = 38.36710 53.22404 45.79557
# Shear Modulus (GPa) = 16.44857 30.76082 23.60470
#
# Velocity S-wave (km/s) = 2.67435 3.65724 3.20372
# Velocity P-wave (km/s) = 5.12045 6.40131 5.79637
#
# Compressibility (1/GPa) = 0.02606400
#
# Stress axis : x y z
#
# Youngs Moduli (GPa) = 96.33656 117.66017 41.08555
#
# Poissons Ratio (x) = 0.26498 0.00235
# Poissons Ratio (y) = 0.21696 0.25752
# Poissons Ratio (z) = 0.00552 0.73749
#
# Static dielectric constant tensor:
#      x y z
#    x 2.141150 0.000000 0.000000 
#    y 0.000000 1.866350 0.000000 
#    z 0.000000 0.000000 1.911870 
# 
# From -- ./inp_files/2539.got.cif
#   From: 2010.05.17/outbox.cif.g08.bks.cpg/sg54_2_cif.got.tgz:2539.got - 2010.06.03 13:09:01.
