data_PCOD9424472
_publ_section_title
;
Structure prediction by ZEFSAII (Michael W. Deem and Ramdas Pophale) SiO2 
 PCOD9424472
Probable space group: P C C A
;
_chemical_formula_sum "Si O2"
_cell_formula_units_Z 36
_cell_length_a 11.870753
_cell_length_b 5.931102
_cell_length_c 20.927642
_cell_angle_alpha 90.000000
_cell_angle_beta 90.000000
_cell_angle_gamma 90.000000
_cell_volume 1473.445100
_symmetry_space_group_name_H-M "P C C A"
_symmetry_group_IT_number 54
_symmetry_cell_setting 'orthorhombic'
loop_
_space_group_symop_operation_xyz
x,y,z
1/2-x,-y,z
1/2+x,-y,1/2-z
-x,y,1/2-z
-x,-y,-z
1/2+x,y,-z
1/2-x,y,1/2+z
x,-y,1/2+z
loop_
_atom_site_type_symbol
_atom_site_label
_atom_site_fract_x
_atom_site_fract_y
_atom_site_fract_z
Si Si1 0.000000 0.970621 0.250000
Si Si2 0.481966 0.616378 0.863658
Si Si3 0.250000 0.500000 0.428675
Si Si4 0.250000 0.000000 0.119501
Si Si5 0.338388 0.667016 0.213996
Si Si6 0.092893 0.184181 0.520197
O O1 0.996305 0.826569 0.184977
O O2 0.889094 0.125351 0.247679
O O3 0.351653 0.586969 0.883441
O O4 0.551872 0.434357 0.821797
O O5 0.538929 0.626583 0.933706
O O6 0.184042 0.306903 0.472668
O O7 0.259757 0.777419 0.160597
O O8 0.149577 0.974180 0.072444
O O9 0.250000 0.500000 0.247386
O O10 0.000000 0.000000 0.500000
#
# Coordination Sequence:
#
# PCOD9424472 Si02
#       6
#     4   8   4   4   8   8
#     4  12  28  54  80 116 158 214 266 338 404 484
#     4  12  27  54  77 120 162 211 269 331 411 477
#     4  12  28  50  80 122 164 208 272 338 398 494
#     4  12  22  44  80 110 152 202 262 316 398 478
#     4  12  24  51  79 112 153 208 268 332 403 486
#     4  12  24  48  80 116 161 211 260 330 405 482
#
# _framework density 24.432537
#
# number of rings (size 3 to 8) (size 9 to 14) (size 15 to 20)
#    0.000    0.000    4.444    5.333    0.000    0.000 
#   20.000    0.000    0.000    0.000    0.000    0.000 
#    0.000    0.000    0.000    0.000    0.000    0.000 
#
# Total GULP energy -200734.285990 kJ/mol
# GULP energy per Si atom -5575.952389 kJ/mol
# Density = 2.437693 g / cm^3
# Si number density = 24.432537 Si / 1000 Ang^3
#
#
#
# Elastic Constant Matrix: (Units=GPa)
#
#
# Indices 1 2 3 4 5 6 
#
# 1 143.9978 38.3423 66.0921 0.0000 0.0000 0.0000
# 2 38.3423 90.7173 52.6155 0.0000 0.0000 0.0000
# 3 66.0921 52.6155 125.8772 0.0000 0.0000 0.0000
# 4 0.0000 0.0000 0.0000 18.7013 0.0000 0.0000
# 5 0.0000 0.0000 0.0000 0.0000 8.1776 0.0000
# 6 0.0000 0.0000 0.0000 0.0000 0.0000 64.9776
#
#
#
# Elastic Compliance Matrix: (Units=1/GPa)
#
#
# Indices 1 2 3 4 5 6 
#
# 1 0.009292 -0.001449 -0.004273 0.000000 0.000000 0.000000
# 2 -0.001449 0.014777 -0.005416 0.000000 0.000000 0.000000
# 3 -0.004273 -0.005416 0.012452 0.000000 0.000000 0.000000
# 4 0.000000 0.000000 0.000000 0.053472 0.000000 0.000000
# 5 0.000000 0.000000 0.000000 0.000000 0.122286 0.000000
# 6 0.000000 0.000000 0.000000 0.000000 0.000000 0.015390
#
#
# Mechanical properties :
#
#
# Convention : Reuss Voigt Hill
#
# Bulk Modulus (GPa) = 70.20206 74.96581 72.58393
# Shear Modulus (GPa) = 19.63162 31.94079 25.78620
#
# Velocity S-wave (km/s) = 2.83769 3.61959 3.25222
# Velocity P-wave (km/s) = 6.28745 6.94392 6.62382
#
# Compressibility (1/GPa) = 0.01424460
#
# Stress axis : x y z
#
# Youngs Moduli (GPa) = 107.62496 67.67384 80.31150
#
# Poissons Ratio (x) = 0.09805 0.34317
# Poissons Ratio (y) = 0.15593 0.43495
# Poissons Ratio (z) = 0.45987 0.36651
#
# Static dielectric constant tensor:
#      x y z
#    x 1.827850 0.000000 0.000000 
#    y 0.000000 1.975530 0.000000 
#    z 0.000000 0.000000 1.914150 
# 
# From -- ./inp_files/23899.got.cif
#   From: 2010.05.17/outbox.cif.g08.bks.cpg/sg54_12_cif.got.tgz:23899.got - 2010.06.03 13:09:01.
