data_PCOD9424059
_publ_section_title
;
Structure prediction by ZEFSAII (Michael W. Deem and Ramdas Pophale) SiO2 
 PCOD9424059
Probable space group: P C C A
;
_chemical_formula_sum "Si O2"
_cell_formula_units_Z 32
_cell_length_a 8.559737
_cell_length_b 6.276539
_cell_length_c 28.944203
_cell_angle_alpha 90.000000
_cell_angle_beta 90.000000
_cell_angle_gamma 90.000000
_cell_volume 1555.042447
_symmetry_space_group_name_H-M "P C C A"
_symmetry_group_IT_number 54
_symmetry_cell_setting 'orthorhombic'
loop_
_space_group_symop_operation_xyz
x,y,z
1/2-x,-y,z
1/2+x,-y,1/2-z
-x,y,1/2-z
-x,-y,-z
1/2+x,y,-z
1/2-x,y,1/2+z
x,-y,1/2+z
loop_
_atom_site_type_symbol
_atom_site_label
_atom_site_fract_x
_atom_site_fract_y
_atom_site_fract_z
Si Si1 0.102879 0.834210 0.633576
Si Si2 0.929758 0.416757 0.618378
Si Si3 0.068739 0.054631 0.950342
Si Si4 0.423266 0.915049 0.796847
O O1 0.071918 0.580772 0.628118
O O2 0.250000 0.000000 0.632216
O O3 0.005743 0.908801 0.589019
O O4 0.022754 0.890208 0.682265
O O5 0.750000 0.500000 0.616189
O O6 0.957873 0.290723 0.570354
O O7 0.926207 0.254114 0.661551
O O8 0.250000 0.000000 0.951542
O O9 0.000000 0.000000 0.000000
O O10 0.500000 0.832952 0.750000
O O11 0.250000 0.000000 0.788539
#
# Coordination Sequence:
#
# PCOD9424059 Si02
#       4
#     8   8   8   8
#     4  11  23  43  67  96 136 176 229 291 350 420
#     4  11  21  45  70  93 137 189 227 287 364 432
#     4  11  23  41  66  99 136 176 230 292 354 425
#     4  11  23  41  65  98 136 181 228 286 350 426
#
# _framework density 20.578216000000001
#
# number of rings (size 3 to 8) (size 9 to 14) (size 15 to 20)
#    0.000    1.000    5.000    3.000    0.000    6.000 
#    4.500    0.000    0.000    0.000    0.000    0.000 
#    0.000    0.000    0.000    0.000    0.000    0.000 
#
# Total GULP energy -178255.795019 kJ/mol
# GULP energy per Si atom -5570.493594 kJ/mol
# Density = 2.053138 g / cm^3
# Si number density = 20.578216 Si / 1000 Ang^3
#
#
#
# Elastic Constant Matrix: (Units=GPa)
#
#
# Indices 1 2 3 4 5 6 
#
# 1 133.8150 38.2469 43.2027 0.0000 0.0000 0.0000
# 2 38.2469 107.2153 28.2934 0.0000 0.0000 0.0000
# 3 43.2027 28.2934 137.4142 0.0000 0.0000 0.0000
# 4 0.0000 0.0000 0.0000 28.7288 0.0000 0.0000
# 5 0.0000 0.0000 0.0000 0.0000 9.1833 0.0000
# 6 0.0000 0.0000 0.0000 0.0000 0.0000 30.4785
#
#
#
# Elastic Compliance Matrix: (Units=1/GPa)
#
#
# Indices 1 2 3 4 5 6 
#
# 1 0.008950 -0.002591 -0.002280 0.000000 0.000000 0.000000
# 2 -0.002591 0.010613 -0.001371 0.000000 0.000000 0.000000
# 3 -0.002280 -0.001371 0.008276 0.000000 0.000000 0.000000
# 4 0.000000 0.000000 0.000000 0.034808 0.000000 0.000000
# 5 0.000000 0.000000 0.000000 0.000000 0.108894 0.000000
# 6 0.000000 0.000000 0.000000 0.000000 0.000000 0.032810
#
#
# Mechanical properties :
#
#
# Convention : Reuss Voigt Hill
#
# Bulk Modulus (GPa) = 65.12342 66.43672 65.78007
# Shear Modulus (GPa) = 22.52729 31.59155 27.05942
#
# Velocity S-wave (km/s) = 3.31224 3.92241 3.63016
# Velocity P-wave (km/s) = 6.80760 7.27109 7.04316
#
# Compressibility (1/GPa) = 0.01535546
#
# Stress axis : x y z
#
# Youngs Moduli (GPa) = 111.73511 94.22434 120.82538
#
# Poissons Ratio (x) = 0.24412 0.27552
# Poissons Ratio (y) = 0.28949 0.16561
# Poissons Ratio (z) = 0.25479 0.12915
#
# Static dielectric constant tensor:
#      x y z
#    x 1.784960 0.000000 0.000000 
#    y 0.000000 1.711820 0.000000 
#    z 0.000000 0.000000 1.667430 
# 
# From -- ./inp_files/27367.got.cif
#   From: 2010.05.17/outbox.cif.g08.bks.cpg/sg54_14_cif.got.tgz:27367.got - 2010.06.03 13:09:01.
