data_PCOD9424534
_publ_section_title
;
Structure prediction by ZEFSAII (Michael W. Deem and Ramdas Pophale) SiO2 
 PCOD9424534
Probable space group: P C C A
;
_chemical_formula_sum "Si O2"
_cell_formula_units_Z 24
_cell_length_a 8.106705
_cell_length_b 9.005893
_cell_length_c 13.999586
_cell_angle_alpha 90.000000
_cell_angle_beta 90.000000
_cell_angle_gamma 90.000000
_cell_volume 1022.083424
_symmetry_space_group_name_H-M "P C C A"
_symmetry_group_IT_number 54
_symmetry_cell_setting 'orthorhombic'
loop_
_space_group_symop_operation_xyz
x,y,z
1/2-x,-y,z
1/2+x,-y,1/2-z
-x,y,1/2-z
-x,-y,-z
1/2+x,y,-z
1/2-x,y,1/2+z
x,-y,1/2+z
loop_
_atom_site_type_symbol
_atom_site_label
_atom_site_fract_x
_atom_site_fract_y
_atom_site_fract_z
Si Si1 0.706622 0.169518 0.381927
Si Si2 0.091089 0.344918 0.969852
Si Si3 0.309591 0.341253 0.782611
O O1 0.839688 0.272994 0.434668
O O2 0.537219 0.230746 0.423553
O O3 0.718050 0.207637 0.270540
O O4 0.750000 0.000000 0.401195
O O5 0.241135 0.347178 0.891513
O O6 0.000000 0.500000 0.000000
O O7 0.250000 0.500000 0.741650
O O8 0.500000 0.329325 0.750000
#
# Coordination Sequence:
#
# PCOD9424534 Si02
#       3
#     8   8   8
#     4  12  26  43  68 105 147 191 243 316 393 463
#     4  12  25  47  75 105 145 201 261 317 383 469
#     4  12  25  44  71 104 141 192 256 321 383 460
#
# _framework density 23.481449999999999
#
# number of rings (size 3 to 8) (size 9 to 14) (size 15 to 20)
#    0.000    0.000    0.000   13.000    0.000    4.000 
#    0.000    0.000    0.000    0.000    0.000    0.000 
#    0.000    0.000    0.000    0.000    0.000    0.000 
#
# Total GULP energy -134103.270408 kJ/mol
# GULP energy per Si atom -5587.636267 kJ/mol
# Density = 2.342801 g / cm^3
# Si number density = 23.481450 Si / 1000 Ang^3
#
#
#
# Elastic Constant Matrix: (Units=GPa)
#
#
# Indices 1 2 3 4 5 6 
#
# 1 124.9766 30.8095 55.5848 0.0000 0.0000 0.0000
# 2 30.8095 124.0016 48.9329 0.0000 0.0000 0.0000
# 3 55.5848 48.9329 152.0727 0.0000 0.0000 0.0000
# 4 0.0000 0.0000 0.0000 -11.9871 0.0000 0.0000
# 5 0.0000 0.0000 0.0000 0.0000 5.3899 0.0000
# 6 0.0000 0.0000 0.0000 0.0000 0.0000 33.2607
#
#
#
# Elastic Compliance Matrix: (Units=1/GPa)
#
#
# Indices 1 2 3 4 5 6 
#
# 1 0.009698 -0.001158 -0.003172 0.000000 0.000000 0.000000
# 2 -0.001158 0.009376 -0.002594 0.000000 0.000000 0.000000
# 3 -0.003172 -0.002594 0.008570 0.000000 0.000000 0.000000
# 4 0.000000 0.000000 0.000000 -0.083423 0.000000 0.000000
# 5 0.000000 0.000000 0.000000 0.000000 0.185532 0.000000
# 6 0.000000 0.000000 0.000000 0.000000 0.000000 0.030066
#
#
# Mechanical properties :
#
#
# Convention : Reuss Voigt Hill
#
# Bulk Modulus (GPa) = 72.48419 74.63393 73.55906
# Shear Modulus (GPa) = 28.04835 23.04761 25.54798
#
# Velocity S-wave (km/s) = 3.45989 3.13633 3.30207
# Velocity P-wave (km/s) = 6.84813 6.70586 6.77737
#
# Compressibility (1/GPa) = 0.01379611
#
# Stress axis : x y z
#
# Youngs Moduli (GPa) = 103.11665 106.66046 116.68844
#
# Poissons Ratio (x) = 0.12348 0.37015
# Poissons Ratio (y) = 0.11938 0.30265
# Poissons Ratio (z) = 0.32710 0.27664
#
# Static dielectric constant tensor:
#      x y z
#    x 1.975090 0.000000 0.000000 
#    y 0.000000 1.806860 0.000000 
#    z 0.000000 0.000000 1.891670 
# 
# From -- ./inp_files/11118.got.cif
#   From: 2010.05.17/outbox.cif.g08.bks.cpg/sg54_6_cif.got.tgz:11118.got - 2010.06.03 13:09:01.
