data_PCOD9424468
_publ_section_title
;
Structure prediction by ZEFSAII (Michael W. Deem and Ramdas Pophale) SiO2 
 PCOD9424468
Probable space group: P C C A
;
_chemical_formula_sum "Si O2"
_cell_formula_units_Z 40
_cell_length_a 8.607978
_cell_length_b 12.400272
_cell_length_c 17.483844
_cell_angle_alpha 90.000000
_cell_angle_beta 90.000000
_cell_angle_gamma 90.000000
_cell_volume 1866.247688
_symmetry_space_group_name_H-M "P C C A"
_symmetry_group_IT_number 54
_symmetry_cell_setting 'orthorhombic'
loop_
_space_group_symop_operation_xyz
x,y,z
1/2-x,-y,z
1/2+x,-y,1/2-z
-x,y,1/2-z
-x,-y,-z
1/2+x,y,-z
1/2-x,y,1/2+z
x,-y,1/2+z
loop_
_atom_site_type_symbol
_atom_site_label
_atom_site_fract_x
_atom_site_fract_y
_atom_site_fract_z
Si Si1 0.028637 0.901274 0.444335
Si Si2 0.332115 0.896964 0.785826
Si Si3 0.779217 0.229358 0.435763
Si Si4 0.051052 0.265999 0.329370
Si Si5 0.631396 0.582427 0.028428
O O1 0.111225 0.938702 0.368348
O O2 0.129820 0.813080 0.489688
O O3 0.867669 0.845822 0.423909
O O4 0.000000 0.000000 0.500000
O O5 0.500000 0.860624 0.750000
O O6 0.198049 0.808752 0.805957
O O7 0.250000 0.000000 0.745651
O O8 0.710668 0.347225 0.459900
O O9 0.893348 0.213178 0.363754
O O10 0.086994 0.337927 0.403458
O O11 0.000000 0.321983 0.250000
O O12 0.750000 0.500000 0.065021
O O13 0.500000 0.500000 0.000000
#
# Coordination Sequence:
#
# PCOD9424468 Si02
#       5
#     8   8   8   8   8
#     4  12  23  39  69 106 141 192 248 299 360 449
#     4  12  26  46  69 105 153 202 241 297 375 453
#     4  12  22  44  72 103 145 187 243 304 367 438
#     4  12  26  48  72 108 149 190 246 310 375 444
#     4  12  24  47  76 100 141 192 245 308 378 442
#
# _framework density 21.433382000000002
#
# number of rings (size 3 to 8) (size 9 to 14) (size 15 to 20)
#    0.000    0.000    6.000    4.800    0.000    1.600 
#    3.600    0.000    0.000    0.000    0.000    0.000 
#    0.000    0.000    0.000    0.000    0.000    0.000 
#
# Total GULP energy -223141.003346 kJ/mol
# GULP energy per Si atom -5578.525084 kJ/mol
# Density = 2.138460 g / cm^3
# Si number density = 21.433382 Si / 1000 Ang^3
#
#
#
# Elastic Constant Matrix: (Units=GPa)
#
#
# Indices 1 2 3 4 5 6 
#
# 1 169.0991 62.7594 37.0828 0.0000 0.0000 0.0000
# 2 62.7594 101.4563 17.5941 0.0000 0.0000 0.0000
# 3 37.0828 17.5941 92.4664 0.0000 0.0000 0.0000
# 4 0.0000 0.0000 0.0000 19.9709 0.0000 0.0000
# 5 0.0000 0.0000 0.0000 0.0000 47.6977 0.0000
# 6 0.0000 0.0000 0.0000 0.0000 0.0000 53.2695
#
#
#
# Elastic Compliance Matrix: (Units=1/GPa)
#
#
# Indices 1 2 3 4 5 6 
#
# 1 0.008157 -0.004631 -0.002390 0.000000 0.000000 0.000000
# 2 -0.004631 0.012822 -0.000582 0.000000 0.000000 0.000000
# 3 -0.002390 -0.000582 0.011884 0.000000 0.000000 0.000000
# 4 0.000000 0.000000 0.000000 0.050073 0.000000 0.000000
# 5 0.000000 0.000000 0.000000 0.000000 0.020965 0.000000
# 6 0.000000 0.000000 0.000000 0.000000 0.000000 0.018772
#
#
# Mechanical properties :
#
#
# Convention : Reuss Voigt Hill
#
# Bulk Modulus (GPa) = 56.63873 66.43272 61.53572
# Shear Modulus (GPa) = 34.77877 40.55998 37.66938
#
# Velocity S-wave (km/s) = 4.03258 4.35486 4.19681
# Velocity P-wave (km/s) = 6.94011 7.50658 7.22889
#
# Compressibility (1/GPa) = 0.01765576
#
# Stress axis : x y z
#
# Youngs Moduli (GPa) = 122.60036 77.98972 84.14653
#
# Poissons Ratio (x) = 0.36118 0.20110
# Poissons Ratio (y) = 0.56777 0.04901
# Poissons Ratio (z) = 0.29301 0.04543
#
# Static dielectric constant tensor:
#      x y z
#    x 1.710540 0.000000 0.000000 
#    y 0.000000 1.836850 0.000000 
#    z 0.000000 0.000000 1.789070 
# 
# From -- ./inp_files/16300.got.cif
#   From: 2010.05.17/outbox.cif.g08.bks.cpg/sg54_9_cif.got.tgz:16300.got - 2010.06.03 13:09:01.
