data_PCOD9424224
_publ_section_title
;
Structure prediction by ZEFSAII (Michael W. Deem and Ramdas Pophale) SiO2 
 PCOD9424224
Probable space group: P C C A
;
_chemical_formula_sum "Si O2"
_cell_formula_units_Z 32
_cell_length_a 22.514235
_cell_length_b 5.932909
_cell_length_c 9.520930
_cell_angle_alpha 90.000000
_cell_angle_beta 90.000000
_cell_angle_gamma 90.000000
_cell_volume 1271.757344
_symmetry_space_group_name_H-M "P C C A"
_symmetry_group_IT_number 54
_symmetry_cell_setting 'orthorhombic'
loop_
_space_group_symop_operation_xyz
x,y,z
1/2-x,-y,z
1/2+x,-y,1/2-z
-x,y,1/2-z
-x,-y,-z
1/2+x,y,-z
1/2-x,y,1/2+z
x,-y,1/2+z
loop_
_atom_site_type_symbol
_atom_site_label
_atom_site_fract_x
_atom_site_fract_y
_atom_site_fract_z
Si Si1 0.669246 0.970767 0.748420
Si Si2 0.300201 0.690853 0.490058
Si Si3 0.054316 0.758939 0.674049
Si Si4 0.091707 0.404179 0.902469
O O1 0.701280 0.149742 0.646669
O O2 0.615656 0.105859 0.822412
O O3 0.703664 0.836365 0.869047
O O4 0.635903 0.787417 0.652741
O O5 0.250000 0.500000 0.485527
O O6 0.365096 0.575716 0.486313
O O7 0.044909 0.695897 0.512527
O O8 0.000000 0.885128 0.750000
O O9 0.064452 0.541788 0.773731
#
# Coordination Sequence:
#
# PCOD9424224 Si02
#       4
#     8   8   8   8
#     4  11  24  49  74 108 151 189 254 307 363 455
#     4  11  26  50  76 106 146 196 247 310 379 436
#     4  11  24  43  74 108 150 198 243 307 370 436
#     4  11  23  46  69 110 147 188 255 305 354 452
#
# _framework density 25.162032
#
# number of rings (size 3 to 8) (size 9 to 14) (size 15 to 20)
#    0.000    1.000    5.000    0.750    0.000    4.000 
#    4.500    1.250    0.000    0.000    0.000    0.000 
#    0.000    0.000    0.000    0.000    0.000    0.000 
#
# Total GULP energy -179436.405022 kJ/mol
# GULP energy per Si atom -5607.387657 kJ/mol
# Density = 2.510476 g / cm^3
# Si number density = 25.162032 Si / 1000 Ang^3
#
#
#
# Elastic Constant Matrix: (Units=GPa)
#
#
# Indices 1 2 3 4 5 6 
#
# 1 67.9144 25.1562 22.6711 0.0000 0.0000 0.0000
# 2 25.1562 106.3343 58.1852 0.0000 0.0000 0.0000
# 3 22.6711 58.1852 147.8312 0.0000 0.0000 0.0000
# 4 0.0000 0.0000 0.0000 39.1672 0.0000 0.0000
# 5 0.0000 0.0000 0.0000 0.0000 38.9350 0.0000
# 6 0.0000 0.0000 0.0000 0.0000 0.0000 35.8681
#
#
#
# Elastic Compliance Matrix: (Units=1/GPa)
#
#
# Indices 1 2 3 4 5 6 
#
# 1 0.016319 -0.003175 -0.001253 0.000000 0.000000 0.000000
# 2 -0.003175 0.012603 -0.004474 0.000000 0.000000 0.000000
# 3 -0.001253 -0.004474 0.008717 0.000000 0.000000 0.000000
# 4 0.000000 0.000000 0.000000 0.025532 0.000000 0.000000
# 5 0.000000 0.000000 0.000000 0.000000 0.025684 0.000000
# 6 0.000000 0.000000 0.000000 0.000000 0.000000 0.027880
#
#
# Mechanical properties :
#
#
# Convention : Reuss Voigt Hill
#
# Bulk Modulus (GPa) = 50.41274 59.34498 54.87886
# Shear Modulus (GPa) = 35.42323 37.19855 36.31089
#
# Velocity S-wave (km/s) = 3.75614 3.84912 3.80291
# Velocity P-wave (km/s) = 6.23620 6.58715 6.41408
#
# Compressibility (1/GPa) = 0.01983626
#
# Stress axis : x y z
#
# Youngs Moduli (GPa) = 61.27925 79.34362 114.71269
#
# Poissons Ratio (x) = 0.25192 0.14373
# Poissons Ratio (y) = 0.19456 0.51319
# Poissons Ratio (z) = 0.07678 0.35496
#
# Static dielectric constant tensor:
#      x y z
#    x 2.126830 0.000000 0.000000 
#    y 0.000000 1.987050 0.000000 
#    z 0.000000 0.000000 1.972680 
# 
# From -- ./inp_files/5692.got.cif
#   From: 2010.05.17/outbox.cif.g08.bks.cpg/sg54_3_cif.got.tgz:5692.got - 2010.06.03 13:09:01.
