data_PCOD9424508
_publ_section_title
;
Structure prediction by ZEFSAII (Michael W. Deem and Ramdas Pophale) SiO2 
 PCOD9424508
Probable space group: P C C A
;
_chemical_formula_sum "Si O2"
_cell_formula_units_Z 40
_cell_length_a 22.935690
_cell_length_b 7.113612
_cell_length_c 11.631809
_cell_angle_alpha 90.000000
_cell_angle_beta 90.000000
_cell_angle_gamma 90.000000
_cell_volume 1897.794772
_symmetry_space_group_name_H-M "P C C A"
_symmetry_group_IT_number 54
_symmetry_cell_setting 'orthorhombic'
loop_
_space_group_symop_operation_xyz
x,y,z
1/2-x,-y,z
1/2+x,-y,1/2-z
-x,y,1/2-z
-x,-y,-z
1/2+x,y,-z
1/2-x,y,1/2+z
x,-y,1/2+z
loop_
_atom_site_type_symbol
_atom_site_label
_atom_site_fract_x
_atom_site_fract_y
_atom_site_fract_z
Si Si1 0.557615 0.896179 0.550781
Si Si2 0.000000 0.327040 0.750000
Si Si3 0.250000 0.000000 0.191520
Si Si4 0.802252 0.644443 0.441029
Si Si5 0.147151 0.180093 0.342741
Si Si6 0.089807 0.593380 0.641995
O O1 0.541188 0.801721 0.672177
O O2 0.578917 0.736289 0.462534
O O3 0.500000 0.000000 0.500000
O O4 0.609276 0.041789 0.577243
O O5 0.034709 0.462028 0.664171
O O6 0.221040 0.837285 0.114239
O O7 0.302259 0.920785 0.270109
O O8 0.750000 0.500000 0.434369
O O9 0.821690 0.676648 0.571563
O O10 0.856635 0.547854 0.378287
O O11 0.104294 0.283971 0.254444
#
# Coordination Sequence:
#
# PCOD9424508 Si02
#       6
#     8   4   4   8   8   8
#     4  12  25  46  72 109 147 191 246 305 369 445
#     4  12  24  44  74 102 146 192 240 298 376 426
#     4  12  26  48  68 104 142 192 242 306 364 446
#     4  12  27  46  69 105 142 189 243 303 359 438
#     4  12  26  43  74  99 145 190 241 296 375 422
#     4  12  25  46  71 107 145 191 246 303 363 446
#
# _framework density 21.077093000000001
#
# number of rings (size 3 to 8) (size 9 to 14) (size 15 to 20)
#    0.000    0.000    2.000    8.400    5.600    0.000 
#    0.000    0.000    0.000    0.000    0.000    0.000 
#    0.000    0.000    0.000    0.000    0.000    0.000 
#
# Total GULP energy -224072.353982 kJ/mol
# GULP energy per Si atom -5601.808850 kJ/mol
# Density = 2.102912 g / cm^3
# Si number density = 21.077093 Si / 1000 Ang^3
#
#
#
# Elastic Constant Matrix: (Units=GPa)
#
#
# Indices 1 2 3 4 5 6 
#
# 1 68.9831 14.9756 -7.1641 0.0000 0.0000 0.0000
# 2 14.9756 81.3778 13.3969 0.0000 0.0000 0.0000
# 3 -7.1641 13.3969 63.2489 0.0000 0.0000 0.0000
# 4 0.0000 0.0000 0.0000 354.8317 0.0000 0.0000
# 5 0.0000 0.0000 0.0000 0.0000 145.6577 0.0000
# 6 0.0000 0.0000 0.0000 0.0000 0.0000 -0.7667
#
#
#
# Elastic Compliance Matrix: (Units=1/GPa)
#
#
# Indices 1 2 3 4 5 6 
#
# 1 0.015454 -0.003245 0.002438 0.000000 0.000000 0.000000
# 2 -0.003245 0.013414 -0.003209 0.000000 0.000000 0.000000
# 3 0.002438 -0.003209 0.016766 0.000000 0.000000 0.000000
# 4 0.000000 0.000000 0.000000 0.002818 0.000000 0.000000
# 5 0.000000 0.000000 0.000000 0.000000 0.006865 0.000000
# 6 0.000000 0.000000 0.000000 0.000000 0.000000 -1.304318
#
#
# Mechanical properties :
#
#
# Convention : Reuss Voigt Hill
#
# Bulk Modulus (GPa) = 26.59454 28.44741 27.52098
# Shear Modulus (GPa) = -4.07022 112.77131 54.35054
#
# Velocity S-wave (km/s) = -1.39115 7.32259 5.08355
# Velocity P-wave (km/s) = 3.17250 9.22063 6.89510
#
# Compressibility (1/GPa) = 0.03760170
#
# Stress axis : x y z
#
# Youngs Moduli (GPa) = 64.70822 74.55000 59.64328
#
# Poissons Ratio (x) = 0.24193 -0.14540
# Poissons Ratio (y) = 0.20999 0.19138
# Poissons Ratio (z) = -0.15775 0.23922
#
# Static dielectric constant tensor:
#      x y z
#    x 1.746420 0.000000 0.000000 
#    y 0.000000 1.834510 0.000000 
#    z 0.000000 0.000000 1.724600 
# 
# From -- ./inp_files/10172.got.cif
#   From: 2010.05.17/outbox.cif.g08.bks.cpg/sg54_6_cif.got.tgz:10172.got - 2010.06.03 13:09:01.
