data_PCOD9424828
_publ_section_title
;
Structure prediction by ZEFSAII (Michael W. Deem and Ramdas Pophale) SiO2 
 PCOD9424828
Probable space group: P B A M
;
_chemical_formula_sum "Si O2"
_cell_formula_units_Z 64
_cell_length_a 12.293824
_cell_length_b 30.952740
_cell_length_c 7.521947
_cell_angle_alpha 90.000000
_cell_angle_beta 90.000000
_cell_angle_gamma 90.000000
_cell_volume 2862.307972
_symmetry_space_group_name_H-M "P B A M"
_symmetry_group_IT_number 55
_symmetry_cell_setting 'orthorhombic'
loop_
_space_group_symop_operation_xyz
x,y,z
-x,-y,z
1/2+x,1/2-y,-z
1/2-x,1/2+y,-z
-x,-y,-z
x,y,-z
1/2-x,1/2+y,z
1/2+x,1/2-y,z
loop_
_atom_site_type_symbol
_atom_site_label
_atom_site_fract_x
_atom_site_fract_y
_atom_site_fract_z
Si Si1 0.567490 0.614663 0.296448
Si Si2 0.327782 0.635279 0.281872
Si Si3 0.231723 0.956395 0.717799
Si Si4 0.734367 0.686224 0.203580
Si Si5 0.471951 0.933369 0.706040
Si Si6 0.523365 0.165835 0.785923
Si Si7 0.794762 0.451317 0.283197
Si Si8 0.808001 0.283085 0.707219
O O1 0.543080 0.601979 0.500000
O O2 0.451147 0.628009 0.219875
O O3 0.636418 0.574975 0.217476
O O4 0.647297 0.655764 0.297349
O O5 0.325341 0.636763 0.500000
O O6 0.257091 0.593825 0.226307
O O7 0.273226 0.679953 0.221436
O O8 0.231083 0.953261 0.500000
O O9 0.351384 0.940812 0.780042
O O10 0.225420 0.006685 0.766170
O O11 0.856576 0.680109 0.273938
O O12 0.703446 0.736306 0.208174
O O13 0.734929 0.671087 0.000000
O O14 0.464681 0.946898 0.500000
O O15 0.496322 0.882385 0.716425
O O16 0.580373 0.955740 0.780149
O O17 0.428702 0.197671 0.725065
O O18 0.520989 0.164817 0.000000
O O19 0.798619 0.450316 0.500000
O O20 0.783195 0.276752 0.500000
#
# Coordination Sequence:
#
# PCOD9424828 Si02
#       8
#     8   8   8   8   8   8   8   8
#     4  10  20  36  57  85 115 149 195 239 280 339
#     4   9  19  34  54  84 117 146 184 235 287 334
#     4   9  17  28  51  85 116 147 188 237 290 339
#     4  11  25  42  59  84 116 152 189 234 289 345
#     4  10  17  31  55  83 114 149 193 237 286 339
#     4  11  23  39  60  86 117 150 189 236 289 342
#     4   9  16  29  51  83 118 147 182 238 293 339
#     4  11  23  40  62  87 114 149 190 237 287 340
#
# _framework density 22.359579
#
# number of rings (size 3 to 8) (size 9 to 14) (size 15 to 20)
#    0.000    2.000    2.500    1.500    1.750    3.500 
#    0.000    3.125    0.000    2.250    0.000    0.875 
#    0.000    0.000    0.000    0.000    0.000    0.000 
#
# Total GULP energy -357619.427787 kJ/mol
# GULP energy per Si atom -5587.803559 kJ/mol
# Density = 2.230869 g / cm^3
# Si number density = 22.359579 Si / 1000 Ang^3
#
#
#
# Elastic Constant Matrix: (Units=GPa)
#
#
# Indices 1 2 3 4 5 6 
#
# 1 69.8512 -23.2201 -8.6252 0.0000 0.0000 0.0000
# 2 -23.2201 56.8573 -13.3907 0.0000 0.0000 0.0000
# 3 -8.6252 -13.3907 60.5227 0.0000 0.0000 0.0000
# 4 0.0000 0.0000 0.0000 -335.3941 0.0000 0.0000
# 5 0.0000 0.0000 0.0000 0.0000 -0.0441 0.0000
# 6 0.0000 0.0000 0.0000 0.0000 0.0000 19.7257
#
#
#
# Elastic Compliance Matrix: (Units=1/GPa)
#
#
# Indices 1 2 3 4 5 6 
#
# 1 0.017573 0.008193 0.004317 0.000000 0.000000 0.000000
# 2 0.008193 0.022375 0.006118 0.000000 0.000000 0.000000
# 3 0.004317 0.006118 0.018492 0.000000 0.000000 0.000000
# 4 0.000000 0.000000 0.000000 -0.002982 0.000000 0.000000
# 5 0.000000 0.000000 0.000000 0.000000-22.700457 0.000000
# 6 0.000000 0.000000 0.000000 0.000000 0.000000 0.050695
#
#
# Mechanical properties :
#
#
# Convention : Reuss Voigt Hill
#
# Bulk Modulus (GPa) = 10.44967 10.75101 10.60034
# Shear Modulus (GPa) = -0.22124 -47.64467 -23.93296
#
# Velocity S-wave (km/s) = -0.31490 -4.62111 -3.27520
# Velocity P-wave (km/s) = 2.13340 4.86356 3.09053
#
# Compressibility (1/GPa) = 0.09569681
#
# Stress axis : x y z
#
# Youngs Moduli (GPa) = 56.90579 44.69288 54.07857
#
# Poissons Ratio (x) = -0.36619 -0.23347
# Poissons Ratio (y) = -0.46625 -0.33086
# Poissons Ratio (z) = -0.24567 -0.27344
#
# Static dielectric constant tensor:
#      x y z
#    x 1.807880 0.000000 0.000000 
#    y 0.000000 1.785790 0.000000 
#    z 0.000000 0.000000 1.867060 
# 
# From -- ./inp_files/4526.got.cif
#   From: 2010.05.17/outbox.cif.g08.bks.cpg/sg55_3_cif.got.tgz:4526.got - 2010.06.03 13:27:54.
