data_PCOD9424691
_publ_section_title
;
Structure prediction by ZEFSAII (Michael W. Deem and Ramdas Pophale) SiO2 
 PCOD9424691
Probable space group: P B A M
;
_chemical_formula_sum "Si O2"
_cell_formula_units_Z 56
_cell_length_a 16.879630
_cell_length_b 5.498895
_cell_length_c 27.875462
_cell_angle_alpha 90.000000
_cell_angle_beta 90.000000
_cell_angle_gamma 90.000000
_cell_volume 2587.381233
_symmetry_space_group_name_H-M "P B A M"
_symmetry_group_IT_number 55
_symmetry_cell_setting 'orthorhombic'
loop_
_space_group_symop_operation_xyz
x,y,z
-x,-y,z
1/2+x,1/2-y,-z
1/2-x,1/2+y,-z
-x,-y,-z
x,y,-z
1/2-x,1/2+y,z
1/2+x,1/2-y,z
loop_
_atom_site_type_symbol
_atom_site_label
_atom_site_fract_x
_atom_site_fract_y
_atom_site_fract_z
Si Si1 0.333271 0.750000 0.056725
Si Si2 0.151576 0.750000 0.094919
Si Si3 0.800031 0.250000 0.307568
Si Si4 0.524053 0.750000 0.677452
Si Si5 0.461303 0.750000 0.429471
Si Si6 0.300008 0.250000 0.803165
Si Si7 0.722174 0.250000 0.555084
O O1 0.247147 0.750000 0.083128
O O2 0.376349 0.502131 0.071990
O O3 0.376349 0.997869 0.071990
O O4 0.318113 0.750000 0.000000
O O5 0.140923 0.750000 0.152047
O O6 0.750000 0.500000 0.314187
O O7 0.882990 0.250000 0.335894
O O8 0.828493 0.250000 0.251721
O O9 0.500000 0.500000 0.702982
O O10 0.472673 0.750000 0.628271
O O11 0.500000 0.000000 0.702982
O O12 0.500000 0.500000 0.446417
O O13 0.371187 0.750000 0.444209
O O14 0.500000 0.000000 0.446417
O O15 0.250000 0.500000 0.808315
O O16 0.753648 0.250000 0.500000
O O17 0.750000 0.500000 0.578213
#
# Coordination Sequence:
#
# PCOD9424691 Si02
#       7
#     8   8   8   8   8   8   8
#     4  10  16  20  29  45  72 112 159 190 226 292
#     4  10  14  22  31  45  72 105 149 198 230 284
#     4  10  21  35  57  81 105 134 181 231 273 330
#     4  10  21  40  58  80 114 147 183 226 282 342
#     4  10  21  38  58  85 116 153 192 228 277 339
#     4  10  16  27  41  61  85 116 154 210 255 302
#     4  10  21  38  60  87 120 153 192 239 281 323
#
# _framework density 21.643505000000001
#
# number of rings (size 3 to 8) (size 9 to 14) (size 15 to 20)
#    0.000    2.000    2.857    3.857    0.000    0.571 
#    0.000   17.143    0.000    0.000    0.000    0.000 
#    0.000    0.000    0.000    0.000    0.000   24.286 
#
# Total GULP energy -312466.628905 kJ/mol
# GULP energy per Si atom -5579.761230 kJ/mol
# Density = 2.159424 g / cm^3
# Si number density = 21.643505 Si / 1000 Ang^3
#
#
#
# Elastic Constant Matrix: (Units=GPa)
#
#
# Indices 1 2 3 4 5 6 
#
# 1 64.5328 46.5959 -15.3192 0.0000 0.0000 0.0000
# 2 46.5959 257.7123 1.1248 0.0000 0.0000 0.0000
# 3 -15.3192 1.1248 104.7947 0.0000 0.0000 0.0000
# 4 0.0000 0.0000 0.0000 -0.2953 0.0000 0.0000
# 5 0.0000 0.0000 0.0000 0.0000 -0.4274 0.0000
# 6 0.0000 0.0000 0.0000 0.0000 0.0000 28.0061
#
#
#
# Elastic Compliance Matrix: (Units=1/GPa)
#
#
# Indices 1 2 3 4 5 6 
#
# 1 0.018584 -0.003372 0.002753 0.000000 0.000000 0.000000
# 2 -0.003372 0.004492 -0.000541 0.000000 0.000000 0.000000
# 3 0.002753 -0.000541 0.009951 0.000000 0.000000 0.000000
# 4 0.000000 0.000000 0.000000 -3.386735 0.000000 0.000000
# 5 0.000000 0.000000 0.000000 0.000000 -2.339638 0.000000
# 6 0.000000 0.000000 0.000000 0.000000 0.000000 0.035706
#
#
# Mechanical properties :
#
#
# Convention : Reuss Voigt Hill
#
# Bulk Modulus (GPa) = 32.56630 54.64918 43.60774
# Shear Modulus (GPa) = -0.88573 31.76592 15.44010
#
# Velocity S-wave (km/s) = -0.64041 3.83520 2.67382
# Velocity P-wave (km/s) = 3.81215 6.70195 5.45200
#
# Compressibility (1/GPa) = 0.03070659
#
# Stress axis : x y z
#
# Youngs Moduli (GPa) = 53.80862 222.59981 100.49541
#
# Poissons Ratio (x) = 0.75065 -0.27666
# Poissons Ratio (y) = 0.18145 0.05439
# Poissons Ratio (z) = -0.14813 0.12046
#
# Static dielectric constant tensor:
#      x y z
#    x 1.744480 0.000000 0.000000 
#    y 0.000000 1.882720 0.000000 
#    z 0.000000 0.000000 1.805620 
# 
# From -- ./inp_files/24177.got.cif
#   From: 2010.05.17/outbox.cif.g08.bks.cpg/sg55_13_cif.got.tgz:24177.got - 2010.06.03 13:27:54.
