data_PCOD9424530
_publ_section_title
;
Structure prediction by ZEFSAII (Michael W. Deem and Ramdas Pophale) SiO2 
 PCOD9424530
Probable space group: P C C A
;
_chemical_formula_sum "Si O2"
_cell_formula_units_Z 40
_cell_length_a 5.288232
_cell_length_b 10.500096
_cell_length_c 30.769225
_cell_angle_alpha 90.000000
_cell_angle_beta 90.000000
_cell_angle_gamma 90.000000
_cell_volume 1708.521023
_symmetry_space_group_name_H-M "P C C A"
_symmetry_group_IT_number 54
_symmetry_cell_setting 'orthorhombic'
loop_
_space_group_symop_operation_xyz
x,y,z
1/2-x,-y,z
1/2+x,-y,1/2-z
-x,y,1/2-z
-x,-y,-z
1/2+x,y,-z
1/2-x,y,1/2+z
x,-y,1/2+z
loop_
_atom_site_type_symbol
_atom_site_label
_atom_site_fract_x
_atom_site_fract_y
_atom_site_fract_z
Si Si1 0.888557 0.175721 0.594785
Si Si2 0.440071 0.635375 0.530068
Si Si3 0.750000 0.500000 0.394212
Si Si4 0.250000 0.000000 0.146588
Si Si5 0.011759 0.272132 0.160708
Si Si6 0.250000 0.000000 0.972208
Si Si7 0.500000 0.584783 0.250000
O O1 0.735216 0.254512 0.630455
O O2 0.081388 0.244097 0.562038
O O3 0.027984 0.061335 0.618589
O O4 0.702146 0.119575 0.559144
O O5 0.690423 0.632733 0.500276
O O6 0.462097 0.531136 0.569259
O O7 0.682635 0.621636 0.364383
O O8 0.136178 0.131056 0.167406
O O9 0.952183 0.330478 0.207441
O O10 0.500000 0.000000 0.000000
O O11 0.750000 0.500000 0.257316
#
# Coordination Sequence:
#
# PCOD9424530 Si02
#       7
#     8   8   4   4   8   4   4
#     4  12  26  46  78 113 164 221 279 338 420 488
#     4  12  27  47  72 115 163 220 290 353 404 481
#     4  12  26  50  82 114 160 226 276 346 428 496
#     4  12  25  54  77 122 162 220 276 331 418 505
#     4  12  28  54  87 122 165 219 273 349 431 517
#     4  12  25  42  69 112 164 220 278 339 392 475
#     4  12  32  60  94 136 164 204 278 348 426 520
#
# _framework density 23.412061000000001
#
# number of rings (size 3 to 8) (size 9 to 14) (size 15 to 20)
#    0.000    0.000    5.000    3.600    5.600    1.600 
#    3.600    0.000    0.000    0.000    0.000    0.000 
#    0.000    0.000    0.000    0.000    0.000    0.000 
#
# Total GULP energy -223220.415382 kJ/mol
# GULP energy per Si atom -5580.510385 kJ/mol
# Density = 2.335877 g / cm^3
# Si number density = 23.412061 Si / 1000 Ang^3
#
#
#
# Elastic Constant Matrix: (Units=GPa)
#
#
# Indices 1 2 3 4 5 6 
#
# 1 136.8082 32.0002 63.0812 0.0000 0.0000 0.0000
# 2 32.0002 130.6175 64.8442 0.0000 0.0000 0.0000
# 3 63.0812 64.8442 182.5802 0.0000 0.0000 0.0000
# 4 0.0000 0.0000 0.0000 9.7548 0.0000 0.0000
# 5 0.0000 0.0000 0.0000 0.0000 28.0897 0.0000
# 6 0.0000 0.0000 0.0000 0.0000 0.0000 40.6288
#
#
#
# Elastic Compliance Matrix: (Units=1/GPa)
#
#
# Indices 1 2 3 4 5 6 
#
# 1 0.008760 -0.000781 -0.002749 0.000000 0.000000 0.000000
# 2 -0.000781 0.009364 -0.003056 0.000000 0.000000 0.000000
# 3 -0.002749 -0.003056 0.007512 0.000000 0.000000 0.000000
# 4 0.000000 0.000000 0.000000 0.102514 0.000000 0.000000
# 5 0.000000 0.000000 0.000000 0.000000 0.035600 0.000000
# 6 0.000000 0.000000 0.000000 0.000000 0.000000 0.024613
#
#
# Mechanical properties :
#
#
# Convention : Reuss Voigt Hill
#
# Bulk Modulus (GPa) = 80.23155 85.53969 82.88562
# Shear Modulus (GPa) = 24.30837 35.03334 29.67085
#
# Velocity S-wave (km/s) = 3.22574 3.87250 3.56382
# Velocity P-wave (km/s) = 6.94389 7.52403 7.23977
#
# Compressibility (1/GPa) = 0.01246392
#
# Stress axis : x y z
#
# Youngs Moduli (GPa) = 114.15771 106.78698 133.11809
#
# Poissons Ratio (x) = 0.08344 0.36594
# Poissons Ratio (y) = 0.08920 0.40679
# Poissons Ratio (z) = 0.31382 0.32633
#
# Static dielectric constant tensor:
#      x y z
#    x 1.907640 0.000000 0.000000 
#    y 0.000000 2.194600 0.000000 
#    z 0.000000 0.000000 1.814480 
# 
# From -- ./inp_files/25234.got.cif
#   From: 2010.05.17/outbox.cif.g08.bks.cpg/sg54_13_cif.got.tgz:25234.got - 2010.06.03 13:09:01.
