data_PCOD9424394
_publ_section_title
;
Structure prediction by ZEFSAII (Michael W. Deem and Ramdas Pophale) SiO2 
 PCOD9424394
Probable space group: P C C A
;
_chemical_formula_sum "Si O2"
_cell_formula_units_Z 40
_cell_length_a 17.145345
_cell_length_b 7.656051
_cell_length_c 12.382862
_cell_angle_alpha 90.000000
_cell_angle_beta 90.000000
_cell_angle_gamma 90.000000
_cell_volume 1625.444253
_symmetry_space_group_name_H-M "P C C A"
_symmetry_group_IT_number 54
_symmetry_cell_setting 'orthorhombic'
loop_
_space_group_symop_operation_xyz
x,y,z
1/2-x,-y,z
1/2+x,-y,1/2-z
-x,y,1/2-z
-x,-y,-z
1/2+x,y,-z
1/2-x,y,1/2+z
x,-y,1/2+z
loop_
_atom_site_type_symbol
_atom_site_label
_atom_site_fract_x
_atom_site_fract_y
_atom_site_fract_z
Si Si1 0.146562 0.184713 0.419294
Si Si2 0.415895 0.697192 0.205344
Si Si3 0.794898 0.320587 0.473259
Si Si4 0.936570 0.695412 0.375036
Si Si5 0.886523 0.203665 0.659572
O O1 0.138563 0.296715 0.310415
O O2 0.225503 0.200096 0.485998
O O3 0.084081 0.259218 0.503404
O O4 0.134158 0.987769 0.381129
O O5 0.500000 0.773378 0.250000
O O6 0.357262 0.762203 0.110351
O O7 0.436868 0.507934 0.156635
O O8 0.750000 0.500000 0.437295
O O9 0.843140 0.343949 0.584572
O O10 0.876348 0.777323 0.288048
O O11 0.022227 0.768373 0.357773
#
# Coordination Sequence:
#
# PCOD9424394 Si02
#       5
#     8   8   8   8   8
#     4  12  28  47  80 111 158 205 259 338 404 474
#     4  12  27  49  80 115 155 212 272 329 401 491
#     4  12  27  48  76 109 156 209 268 332 404 478
#     4  11  25  49  78 113 157 202 271 315 399 491
#     4  11  26  48  75 113 158 199 263 324 405 484
#
# _framework density 24.608657999999998
#
# number of rings (size 3 to 8) (size 9 to 14) (size 15 to 20)
#    0.000    0.400    4.000    3.600    8.400    2.400 
#    0.000    0.000    0.000    0.000    0.000    0.000 
#    0.000    0.000    0.000    0.000    0.000    0.000 
#
# Total GULP energy -223522.958953 kJ/mol
# GULP energy per Si atom -5588.073974 kJ/mol
# Density = 2.455265 g / cm^3
# Si number density = 24.608658 Si / 1000 Ang^3
#
#
#
# Elastic Constant Matrix: (Units=GPa)
#
#
# Indices 1 2 3 4 5 6 
#
# 1 105.5151 15.4218 16.0111 0.0000 0.0000 0.0000
# 2 15.4218 47.5303 6.2509 0.0000 0.0000 0.0000
# 3 16.0111 6.2509 107.5485 0.0000 0.0000 0.0000
# 4 0.0000 0.0000 0.0000 17.4686 0.0000 0.0000
# 5 0.0000 0.0000 0.0000 0.0000 53.6472 0.0000
# 6 0.0000 0.0000 0.0000 0.0000 0.0000 41.2379
#
#
#
# Elastic Compliance Matrix: (Units=1/GPa)
#
#
# Indices 1 2 3 4 5 6 
#
# 1 0.010134 -0.003113 -0.001328 0.000000 0.000000 0.000000
# 2 -0.003113 0.022158 -0.000824 0.000000 0.000000 0.000000
# 3 -0.001328 -0.000824 0.009544 0.000000 0.000000 0.000000
# 4 0.000000 0.000000 0.000000 0.057246 0.000000 0.000000
# 5 0.000000 0.000000 0.000000 0.000000 0.018640 0.000000
# 6 0.000000 0.000000 0.000000 0.000000 0.000000 0.024250
#
#
# Mechanical properties :
#
#
# Convention : Reuss Voigt Hill
#
# Bulk Modulus (GPa) = 31.94441 37.32906 34.63674
# Shear Modulus (GPa) = 30.68676 37.33139 34.00908
#
# Velocity S-wave (km/s) = 3.53511 3.89910 3.72155
# Velocity P-wave (km/s) = 5.44718 5.95589 5.70721
#
# Compressibility (1/GPa) = 0.03130438
#
# Stress axis : x y z
#
# Youngs Moduli (GPa) = 98.67929 45.13080 104.78118
#
# Poissons Ratio (x) = 0.14051 0.13912
# Poissons Ratio (y) = 0.30723 0.08638
# Poissons Ratio (z) = 0.13102 0.03720
#
# Static dielectric constant tensor:
#      x y z
#    x 1.836500 0.000000 0.000000 
#    y 0.000000 1.983420 0.000000 
#    z 0.000000 0.000000 2.027710 
# 
# From -- ./inp_files/8732.got.cif
#   From: 2010.05.17/outbox.cif.g08.bks.cpg/sg54_5_cif.got.tgz:8732.got - 2010.06.03 13:09:01.
