data_PCOD9424153
_publ_section_title
;
Structure prediction by ZEFSAII (Michael W. Deem and Ramdas Pophale) SiO2 
 PCOD9424153
Probable space group: P C C A
;
_chemical_formula_sum "Si O2"
_cell_formula_units_Z 60
_cell_length_a 27.263874
_cell_length_b 11.661554
_cell_length_c 8.277860
_cell_angle_alpha 90.000000
_cell_angle_beta 90.000000
_cell_angle_gamma 90.000000
_cell_volume 2631.855680
_symmetry_space_group_name_H-M "P C C A"
_symmetry_group_IT_number 54
_symmetry_cell_setting 'orthorhombic'
loop_
_space_group_symop_operation_xyz
x,y,z
1/2-x,-y,z
1/2+x,-y,1/2-z
-x,y,1/2-z
-x,-y,-z
1/2+x,y,-z
1/2-x,y,1/2+z
x,-y,1/2+z
loop_
_atom_site_type_symbol
_atom_site_label
_atom_site_fract_x
_atom_site_fract_y
_atom_site_fract_z
Si Si1 0.500000 0.172446 0.250000
Si Si2 0.424549 0.020754 0.818679
Si Si3 0.803830 0.844127 0.555019
Si Si4 0.145430 0.942422 0.557665
Si Si5 0.808134 0.519320 0.765441
Si Si6 0.704223 0.250226 0.917177
Si Si7 0.029437 0.733283 0.909836
Si Si8 0.367237 0.353994 0.018235
O O1 0.544909 0.083087 0.255239
O O2 0.500707 0.241947 0.420367
O O3 0.370793 0.043095 0.742887
O O4 0.451115 0.142192 0.844486
O O5 0.408058 0.970348 0.989430
O O6 0.798071 0.811852 0.742675
O O7 0.756583 0.780966 0.483699
O O8 0.850681 0.778011 0.482738
O O9 0.810621 0.972629 0.490734
O O10 0.160950 0.817749 0.495513
O O11 0.750000 0.500000 0.727149
O O12 0.804750 0.615886 0.906208
O O13 0.836838 0.584281 0.624295
O O14 0.842944 0.416018 0.826040
O O15 0.075575 0.653640 0.967241
O O16 0.000000 0.687684 0.750000
#
# Coordination Sequence:
#
# PCOD9424153 Si02
#       8
#     4   8   8   8   8   8   8   8
#     4  12  24  42  72 108 138 192 238 286 376 444
#     4  12  21  40  66  99 139 183 232 285 348 440
#     4  11  23  40  61  93 144 182 231 280 356 429
#     4  12  23  39  61  98 145 180 223 282 360 432
#     4  11  23  45  74 101 137 186 247 297 356 435
#     4  11  25  39  61  97 136 188 227 291 346 423
#     4  12  25  48  75 107 150 188 249 315 372 443
#     4  11  24  47  70 107 136 184 247 312 363 432
#
# _framework density 22.797602999999999
#
# number of rings (size 3 to 8) (size 9 to 14) (size 15 to 20)
#    0.000    0.533    6.000    2.800    3.733    1.067 
#    4.800    0.667    0.000    0.000    0.000    0.000 
#    0.000    0.000    0.000    0.000    0.000    0.000 
#
# Total GULP energy -334348.827520 kJ/mol
# GULP energy per Si atom -5572.480459 kJ/mol
# Density = 2.274571 g / cm^3
# Si number density = 22.797603 Si / 1000 Ang^3
#
#
#
# Elastic Constant Matrix: (Units=GPa)
#
#
# Indices 1 2 3 4 5 6 
#
# 1 105.4122 16.9370 30.1697 0.0000 0.0000 0.0000
# 2 16.9370 48.9754 4.6012 0.0000 0.0000 0.0000
# 3 30.1697 4.6012 57.7198 0.0000 0.0000 0.0000
# 4 0.0000 0.0000 0.0000 129.6672 0.0000 0.0000
# 5 0.0000 0.0000 0.0000 0.0000 17.7183 0.0000
# 6 0.0000 0.0000 0.0000 0.0000 0.0000 36.2145
#
#
#
# Elastic Compliance Matrix: (Units=1/GPa)
#
#
# Indices 1 2 3 4 5 6 
#
# 1 0.011724 -0.003505 -0.005848 0.000000 0.000000 0.000000
# 2 -0.003505 0.021620 0.000108 0.000000 0.000000 0.000000
# 3 -0.005848 0.000108 0.020373 0.000000 0.000000 0.000000
# 4 0.000000 0.000000 0.000000 0.007712 0.000000 0.000000
# 5 0.000000 0.000000 0.000000 0.000000 0.056439 0.000000
# 6 0.000000 0.000000 0.000000 0.000000 0.000000 0.027613
#
#
# Mechanical properties :
#
#
# Convention : Reuss Voigt Hill
#
# Bulk Modulus (GPa) = 28.38685 35.05815 31.72250
# Shear Modulus (GPa) = 28.45542 47.41332 37.93437
#
# Velocity S-wave (km/s) = 3.53679 4.56538 4.08360
# Velocity P-wave (km/s) = 5.39974 6.57279 6.01493
#
# Compressibility (1/GPa) = 0.03522758
#
# Stress axis : x y z
#
# Youngs Moduli (GPa) = 85.29828 46.25287 49.08369
#
# Poissons Ratio (x) = 0.16211 0.28706
# Poissons Ratio (y) = 0.29896 -0.00532
# Poissons Ratio (z) = 0.49886 -0.00502
#
# Static dielectric constant tensor:
#      x y z
#    x 1.886240 0.000000 0.000000 
#    y 0.000000 1.920750 0.000000 
#    z 0.000000 0.000000 2.040410 
# 
# From -- ./inp_files/5582.got.cif
#   From: 2010.05.17/outbox.cif.g08.bks.cpg/sg54_3_cif.got.tgz:5582.got - 2010.06.03 13:09:01.
