data_PCOD9424280
_publ_section_title
;
Structure prediction by ZEFSAII (Michael W. Deem and Ramdas Pophale) SiO2 
 PCOD9424280
Probable space group: P C C A
;
_chemical_formula_sum "Si O2"
_cell_formula_units_Z 32
_cell_length_a 10.826023
_cell_length_b 6.060469
_cell_length_c 20.042517
_cell_angle_alpha 90.000000
_cell_angle_beta 90.000000
_cell_angle_gamma 90.000000
_cell_volume 1315.005109
_symmetry_space_group_name_H-M "P C C A"
_symmetry_group_IT_number 54
_symmetry_cell_setting 'orthorhombic'
loop_
_space_group_symop_operation_xyz
x,y,z
1/2-x,-y,z
1/2+x,-y,1/2-z
-x,y,1/2-z
-x,-y,-z
1/2+x,y,-z
1/2-x,y,1/2+z
x,-y,1/2+z
loop_
_atom_site_type_symbol
_atom_site_label
_atom_site_fract_x
_atom_site_fract_y
_atom_site_fract_z
Si Si1 0.626969 0.585542 0.912233
Si Si2 0.349135 0.696767 0.926764
Si Si3 0.250000 0.000000 0.043048
Si Si4 0.868103 0.366547 0.271441
Si Si5 0.250000 0.000000 0.310028
O O1 0.750000 0.500000 0.950628
O O2 0.484780 0.590666 0.932410
O O3 0.663665 0.845275 0.911014
O O4 0.630954 0.417183 0.849919
O O5 0.250000 0.500000 0.919199
O O6 0.328507 0.845875 0.860525
O O7 0.331913 0.860412 0.990028
O O8 0.750000 0.500000 0.245995
O O9 0.843550 0.130081 0.238824
O O10 0.000000 0.454929 0.250000
#
# Coordination Sequence:
#
# PCOD9424280 Si02
#       5
#     8   8   4   8   4
#     4  11  26  45  69 105 142 179 231 294 356 417
#     4  11  25  48  74 101 140 188 240 292 349 424
#     4  11  26  45  74 104 138 186 240 296 354 415
#     4  11  25  44  69 102 144 185 232 288 349 426
#     4  11  24  43  72 104 138 188 236 282 354 427
#
# _framework density 24.334506000000001
#
# number of rings (size 3 to 8) (size 9 to 14) (size 15 to 20)
#    0.000    1.000    0.000    5.250    0.000   21.000 
#    0.000    0.000    0.000    0.000    0.000    0.000 
#    0.000    0.000    0.000    0.000    0.000    0.000 
#
# Total GULP energy -178291.601915 kJ/mol
# GULP energy per Si atom -5571.612560 kJ/mol
# Density = 2.427912 g / cm^3
# Si number density = 24.334506 Si / 1000 Ang^3
#
#
#
# Elastic Constant Matrix: (Units=GPa)
#
#
# Indices 1 2 3 4 5 6 
#
# 1 237.9416 55.3312 21.5769 0.0000 0.0000 0.0000
# 2 55.3312 105.9006 67.4520 0.0000 0.0000 0.0000
# 3 21.5769 67.4520 145.7629 0.0000 0.0000 0.0000
# 4 0.0000 0.0000 0.0000 91.2612 0.0000 0.0000
# 5 0.0000 0.0000 0.0000 0.0000 12.8911 0.0000
# 6 0.0000 0.0000 0.0000 0.0000 0.0000 44.8007
#
#
#
# Elastic Compliance Matrix: (Units=1/GPa)
#
#
# Indices 1 2 3 4 5 6 
#
# 1 0.004826 -0.002930 0.000642 0.000000 0.000000 0.000000
# 2 -0.002930 0.015168 -0.006585 0.000000 0.000000 0.000000
# 3 0.000642 -0.006585 0.009813 0.000000 0.000000 0.000000
# 4 0.000000 0.000000 0.000000 0.010958 0.000000 0.000000
# 5 0.000000 0.000000 0.000000 0.000000 0.077573 0.000000
# 6 0.000000 0.000000 0.000000 0.000000 0.000000 0.022321
#
#
# Mechanical properties :
#
#
# Convention : Reuss Voigt Hill
#
# Bulk Modulus (GPa) = 82.92455 86.48059 84.70257
# Shear Modulus (GPa) = 30.78329 52.80694 41.79511
#
# Velocity S-wave (km/s) = 3.56055 4.66343 4.14880
# Velocity P-wave (km/s) = 7.14523 8.03817 7.60481
#
# Compressibility (1/GPa) = 0.01205916
#
# Stress axis : x y z
#
# Youngs Moduli (GPa) = 207.21532 65.92742 101.90683
#
# Poissons Ratio (x) = 0.19317 -0.06538
# Poissons Ratio (y) = 0.60715 0.67109
# Poissons Ratio (z) = -0.13293 0.43416
#
# Static dielectric constant tensor:
#      x y z
#    x 1.931330 0.000000 0.000000 
#    y 0.000000 2.073480 0.000000 
#    z 0.000000 0.000000 2.075160 
# 
# From -- ./inp_files/20897.got.cif
#   From: 2010.05.17/outbox.cif.g08.bks.cpg/sg54_11_cif.got.tgz:20897.got - 2010.06.03 13:09:01.
