data_PCOD9424428
_publ_section_title
;
Structure prediction by ZEFSAII (Michael W. Deem and Ramdas Pophale) SiO2 
 PCOD9424428
Probable space group: P C C A
;
_chemical_formula_sum "Si O2"
_cell_formula_units_Z 40
_cell_length_a 8.881680
_cell_length_b 21.789920
_cell_length_c 8.880444
_cell_angle_alpha 90.000000
_cell_angle_beta 90.000000
_cell_angle_gamma 90.000000
_cell_volume 1718.642066
_symmetry_space_group_name_H-M "P C C A"
_symmetry_group_IT_number 54
_symmetry_cell_setting 'orthorhombic'
loop_
_space_group_symop_operation_xyz
x,y,z
1/2-x,-y,z
1/2+x,-y,1/2-z
-x,y,1/2-z
-x,-y,-z
1/2+x,y,-z
1/2-x,y,1/2+z
x,-y,1/2+z
loop_
_atom_site_type_symbol
_atom_site_label
_atom_site_fract_x
_atom_site_fract_y
_atom_site_fract_z
Si Si1 0.603958 0.960021 0.890681
Si Si2 0.857560 0.443703 0.338674
Si Si3 0.362075 0.632990 0.865628
Si Si4 0.911901 0.849448 0.607033
Si Si5 0.117535 0.226867 0.886814
O O1 0.500000 0.942355 0.750000
O O2 0.750000 0.000000 0.846766
O O3 0.642727 0.900342 0.988345
O O4 0.500000 0.000000 0.000000
O O5 0.750000 0.500000 0.376944
O O6 0.898320 0.407975 0.489809
O O7 0.775932 0.396653 0.224933
O O8 0.000000 0.469266 0.250000
O O9 0.500000 0.633295 0.750000
O O10 0.334853 0.702955 0.916622
O O11 0.764837 0.811887 0.654007
O O12 0.000000 0.877309 0.750000
O O13 0.029933 0.804305 0.525128
O O14 0.000000 0.226619 0.750000
#
# Coordination Sequence:
#
# PCOD9424428 Si02
#       5
#     8   8   8   8   8
#     4  12  27  49  77 110 151 201 252 311 376 449
#     4  12  27  48  76 107 153 200 254 321 389 462
#     4  11  27  46  74 110 147 200 255 315 392 466
#     4  12  27  48  77 109 153 200 249 316 379 450
#     4  11  27  46  73 110 150 197 255 311 383 460
#
# _framework density 23.274187999999999
#
# number of rings (size 3 to 8) (size 9 to 14) (size 15 to 20)
#    0.000    0.400    0.000    6.600   11.200    7.200 
#    0.000    5.000    0.000    0.000    0.000    0.000 
#    0.000    0.000    0.000    0.000    0.000    0.000 
#
# Total GULP energy -224474.948488 kJ/mol
# GULP energy per Si atom -5611.873712 kJ/mol
# Density = 2.322121 g / cm^3
# Si number density = 23.274188 Si / 1000 Ang^3
#
#
#
# Elastic Constant Matrix: (Units=GPa)
#
#
# Indices 1 2 3 4 5 6 
#
# 1 108.2297 36.1556 21.3941 0.0000 0.0000 0.0000
# 2 36.1556 142.2290 37.3074 0.0000 0.0000 0.0000
# 3 21.3941 37.3074 114.0755 0.0000 0.0000 0.0000
# 4 0.0000 0.0000 0.0000 44.1140 0.0000 0.0000
# 5 0.0000 0.0000 0.0000 0.0000 36.4662 0.0000
# 6 0.0000 0.0000 0.0000 0.0000 0.0000 53.2049
#
#
#
# Elastic Compliance Matrix: (Units=1/GPa)
#
#
# Indices 1 2 3 4 5 6 
#
# 1 0.010238 -0.002296 -0.001169 0.000000 0.000000 0.000000
# 2 -0.002296 0.008205 -0.002253 0.000000 0.000000 0.000000
# 3 -0.001169 -0.002253 0.009722 0.000000 0.000000 0.000000
# 4 0.000000 0.000000 0.000000 0.022669 0.000000 0.000000
# 5 0.000000 0.000000 0.000000 0.000000 0.027423 0.000000
# 6 0.000000 0.000000 0.000000 0.000000 0.000000 0.018795
#
#
# Mechanical properties :
#
#
# Convention : Reuss Voigt Hill
#
# Bulk Modulus (GPa) = 59.77484 61.58318 60.67901
# Shear Modulus (GPa) = 43.83495 44.73549 44.28522
#
# Velocity S-wave (km/s) = 4.34454 4.38894 4.36680
# Velocity P-wave (km/s) = 7.13480 7.22503 7.18006
#
# Compressibility (1/GPa) = 0.01672945
#
# Stress axis : x y z
#
# Youngs Moduli (GPa) = 97.67846 121.86961 102.85729
#
# Poissons Ratio (x) = 0.27979 0.12026
# Poissons Ratio (y) = 0.22425 0.23173
# Poissons Ratio (z) = 0.11420 0.27457
#
# Static dielectric constant tensor:
#      x y z
#    x 1.847660 0.000000 0.000000 
#    y 0.000000 1.866190 0.000000 
#    z 0.000000 0.000000 1.848480 
# 
# From -- ./inp_files/2528.got.cif
#   From: 2010.05.17/outbox.cif.g08.bks.cpg/sg54_2_cif.got.tgz:2528.got - 2010.06.03 13:09:01.
