data_PCOD9424005
_publ_section_title
;
Structure prediction by ZEFSAII (Michael W. Deem and Ramdas Pophale) SiO2 
 PCOD9424005
Probable space group: P C C A
;
_chemical_formula_sum "Si O2"
_cell_formula_units_Z 56
_cell_length_a 19.821186
_cell_length_b 10.450469
_cell_length_c 12.947170
_cell_angle_alpha 90.000000
_cell_angle_beta 90.000000
_cell_angle_gamma 90.000000
_cell_volume 2681.885725
_symmetry_space_group_name_H-M "P C C A"
_symmetry_group_IT_number 54
_symmetry_cell_setting 'orthorhombic'
loop_
_space_group_symop_operation_xyz
x,y,z
1/2-x,-y,z
1/2+x,-y,1/2-z
-x,y,1/2-z
-x,-y,-z
1/2+x,y,-z
1/2-x,y,1/2+z
x,-y,1/2+z
loop_
_atom_site_type_symbol
_atom_site_label
_atom_site_fract_x
_atom_site_fract_y
_atom_site_fract_z
Si Si1 0.162646 0.874832 0.720133
Si Si2 0.429463 0.692469 0.690169
Si Si3 0.497631 0.145766 0.027531
Si Si4 0.582161 0.505977 0.996673
Si Si5 0.310542 0.163811 0.291488
Si Si6 0.859409 0.225328 0.505964
Si Si7 0.943564 0.693628 0.665647
O O1 0.238130 0.823366 0.738599
O O2 0.147009 0.853085 0.599639
O O3 0.108323 0.789814 0.780747
O O4 0.163509 0.021068 0.761235
O O5 0.500000 0.660863 0.750000
O O6 0.447949 0.814461 0.618261
O O7 0.407591 0.584997 0.608164
O O8 0.364843 0.731552 0.755630
O O9 0.572353 0.180220 0.062073
O O10 0.480488 0.228391 0.926164
O O11 0.500000 0.000000 0.000000
O O12 0.595004 0.580387 0.104606
O O13 0.500000 0.500000 0.000000
O O14 0.624331 0.375271 0.989295
O O15 0.301608 0.186720 0.414082
O O16 0.000000 0.652909 0.750000
#
# Coordination Sequence:
#
# PCOD9424005 Si02
#       7
#     8   8   8   8   8   8   8
#     4  11  26  45  68  96 134 176 217 273 336 395
#     4  11  22  39  65  97 131 174 223 268 330 387
#     4  11  21  35  63  96 131 162 215 281 321 384
#     4  11  22  41  63 100 136 174 216 277 327 388
#     4  11  26  45  68  96 134 176 217 273 336 395
#     4  12  23  44  66  97 131 171 223 267 328 393
#     4  11  22  39  65  97 131 174 223 268 330 387
#
# _framework density 20.880832000000002
#
# number of rings (size 3 to 8) (size 9 to 14) (size 15 to 20)
#    0.000    0.857    5.714    1.714    0.000    9.714 
#    0.000    4.286    0.000    0.000    0.000    0.000 
#    0.000    0.000    0.000    0.000    0.000    0.000 
#
# Total GULP energy -312700.488371 kJ/mol
# GULP energy per Si atom -5583.937292 kJ/mol
# Density = 2.083331 g / cm^3
# Si number density = 20.880832 Si / 1000 Ang^3
#
#
#
# Elastic Constant Matrix: (Units=GPa)
#
#
# Indices 1 2 3 4 5 6 
#
# 1 64.2107 10.3961 14.2341 0.0000 0.0000 0.0000
# 2 10.3961 108.5360 26.5657 0.0000 0.0000 0.0000
# 3 14.2341 26.5657 96.8597 0.0000 0.0000 0.0000
# 4 0.0000 0.0000 0.0000 25.2176 0.0000 0.0000
# 5 0.0000 0.0000 0.0000 0.0000 19.5207 0.0000
# 6 0.0000 0.0000 0.0000 0.0000 0.0000 12.2600
#
#
#
# Elastic Compliance Matrix: (Units=1/GPa)
#
#
# Indices 1 2 3 4 5 6 
#
# 1 0.016207 -0.001039 -0.002097 0.000000 0.000000 0.000000
# 2 -0.001039 0.009943 -0.002574 0.000000 0.000000 0.000000
# 3 -0.002097 -0.002574 0.011338 0.000000 0.000000 0.000000
# 4 0.000000 0.000000 0.000000 0.039655 0.000000 0.000000
# 5 0.000000 0.000000 0.000000 0.000000 0.051228 0.000000
# 6 0.000000 0.000000 0.000000 0.000000 0.000000 0.081566
#
#
# Mechanical properties :
#
#
# Convention : Reuss Voigt Hill
#
# Bulk Modulus (GPa) = 38.36142 41.33315 39.84729
# Shear Modulus (GPa) = 21.73470 25.96036 23.84753
#
# Velocity S-wave (km/s) = 3.22979 3.52982 3.38313
# Velocity P-wave (km/s) = 5.68508 6.03743 5.86390
#
# Compressibility (1/GPa) = 0.02606786
#
# Stress axis : x y z
#
# Youngs Moduli (GPa) = 61.70267 100.57127 88.19580
#
# Poissons Ratio (x) = 0.10451 0.18492
# Poissons Ratio (y) = 0.06412 0.22705
# Poissons Ratio (z) = 0.12937 0.25891
#
# Static dielectric constant tensor:
#      x y z
#    x 1.729940 0.000000 0.000000 
#    y 0.000000 1.795940 0.000000 
#    z 0.000000 0.000000 1.786490 
# 
# From -- ./inp_files/9567.got.cif
#   From: 2010.05.17/outbox.cif.g08.bks.cpg/sg54_5_cif.got.tgz:9567.got - 2010.06.03 13:09:01.
