data_PCOD9424968
_publ_section_title
;
Structure prediction by ZEFSAII (Michael W. Deem and Ramdas Pophale) SiO2 
 PCOD9424968
Probable space group: P B A M
;
_chemical_formula_sum "Si O2"
_cell_formula_units_Z 64
_cell_length_a 26.840292
_cell_length_b 18.902635
_cell_length_c 8.871821
_cell_angle_alpha 90.000000
_cell_angle_beta 90.000000
_cell_angle_gamma 90.000000
_cell_volume 4501.138284
_symmetry_space_group_name_H-M "P B A M"
_symmetry_group_IT_number 55
_symmetry_cell_setting 'orthorhombic'
loop_
_space_group_symop_operation_xyz
x,y,z
-x,-y,z
1/2+x,1/2-y,-z
1/2-x,1/2+y,-z
-x,-y,-z
x,y,-z
1/2-x,1/2+y,z
1/2+x,1/2-y,z
loop_
_atom_site_type_symbol
_atom_site_label
_atom_site_fract_x
_atom_site_fract_y
_atom_site_fract_z
Si Si1 0.852609 0.670282 0.180656
Si Si2 0.801907 0.212549 0.325460
Si Si3 0.052341 0.422002 0.817854
Si Si4 0.854190 0.340595 0.180415
Si Si5 0.747644 0.086258 0.817961
Si Si6 0.554903 0.923385 0.319220
Si Si7 0.247411 0.576471 0.180983
Si Si8 0.697318 0.298880 0.673278
O O1 0.904343 0.633221 0.221896
O O2 0.806393 0.618963 0.223779
O O3 0.842443 0.747014 0.250376
O O4 0.851074 0.676811 0.000000
O O5 0.816556 0.206477 0.500000
O O6 0.839854 0.261853 0.234049
O O7 0.789308 0.137001 0.253096
O O8 0.749307 0.254959 0.319495
O O9 0.065573 0.499051 0.751009
O O10 0.999012 0.402589 0.747537
O O11 0.048799 0.427100 0.000000
O O12 0.902394 0.370724 0.263331
O O13 0.806574 0.390285 0.220593
O O14 0.860580 0.343106 0.000000
O O15 0.751089 0.004801 0.769772
O O16 0.751224 0.089284 0.000000
O O17 0.552899 0.927629 0.500000
O O18 0.289758 0.627556 0.246738
O O19 0.250514 0.578414 0.000000
O O20 0.684651 0.310788 0.500000
#
# Coordination Sequence:
#
# PCOD9424968 Si02
#       8
#     8   8   8   8   8   8   8   8
#     4   9  17  29  45  61  80 109 145 177 207 244
#     4   9  17  28  40  59  84 109 137 172 211 250
#     4  10  19  32  47  62  82 111 146 180 210 247
#     4  10  18  30  46  61  80 112 148 178 208 247
#     4   9  16  27  42  61  83 110 142 174 207 246
#     4  11  21  31  43  62  87 112 139 177 218 252
#     4   9  17  28  43  61  83 111 145 178 207 244
#     4   9  17  27  40  59  84 110 137 170 211 252
#
# _framework density 14.218624999999999
#
# number of rings (size 3 to 8) (size 9 to 14) (size 15 to 20)
#    0.000    2.500    0.000    4.125    0.000    7.000 
#    0.000    2.500    0.000    0.000    0.000    0.000 
#    0.000    1.000    0.000   10.500    0.000    5.000 
#
# Total GULP energy -356711.452840 kJ/mol
# GULP energy per Si atom -5573.616451 kJ/mol
# Density = 1.418626 g / cm^3
# Si number density = 14.218625 Si / 1000 Ang^3
#
#
#
# Elastic Constant Matrix: (Units=GPa)
#
#
# Indices 1 2 3 4 5 6 
#
# 1 77.7756 53.4513 37.9722 0.0000 0.0000 0.0000
# 2 53.4513 115.4577 40.2949 0.0000 0.0000 0.0000
# 3 37.9722 40.2949 57.1279 0.0000 0.0000 0.0000
# 4 0.0000 0.0000 0.0000 6.1111 0.0000 0.0000
# 5 0.0000 0.0000 0.0000 0.0000 16.0016 0.0000
# 6 0.0000 0.0000 0.0000 0.0000 0.0000 26.4115
#
#
#
# Elastic Compliance Matrix: (Units=1/GPa)
#
#
# Indices 1 2 3 4 5 6 
#
# 1 0.022540 -0.006906 -0.010111 0.000000 0.000000 0.000000
# 2 -0.006906 0.013606 -0.005006 0.000000 0.000000 0.000000
# 3 -0.010111 -0.005006 0.027756 0.000000 0.000000 0.000000
# 4 0.000000 0.000000 0.000000 0.163636 0.000000 0.000000
# 5 0.000000 0.000000 0.000000 0.000000 0.062494 0.000000
# 6 0.000000 0.000000 0.000000 0.000000 0.000000 0.037862
#
#
# Mechanical properties :
#
#
# Convention : Reuss Voigt Hill
#
# Bulk Modulus (GPa) = 50.36405 57.08868 53.72637
# Shear Modulus (GPa) = 13.20796 17.61437 15.41117
#
# Velocity S-wave (km/s) = 3.05113 3.52351 3.29579
# Velocity P-wave (km/s) = 6.92175 7.53600 7.23539
#
# Compressibility (1/GPa) = 0.01985543
#
# Stress axis : x y z
#
# Youngs Moduli (GPa) = 44.36492 73.49903 36.02795
#
# Poissons Ratio (x) = 0.50761 0.36428
# Poissons Ratio (y) = 0.30640 0.18036
# Poissons Ratio (z) = 0.44857 0.36794
#
# Static dielectric constant tensor:
#      x y z
#    x 1.451880 0.000000 0.000000 
#    y 0.000000 1.460780 0.000000 
#    z 0.000000 0.000000 1.475560 
# 
# From -- ./inp_files/8224.got.cif
#   From: 2010.05.17/outbox.cif.g08.bks.cpg/sg55_5_cif.got.tgz:8224.got - 2010.06.03 13:27:54.
