data_PCOD9424168
_publ_section_title
;
Structure prediction by ZEFSAII (Michael W. Deem and Ramdas Pophale) SiO2 
 PCOD9424168
Probable space group: P C C A
;
_chemical_formula_sum "Si O2"
_cell_formula_units_Z 40
_cell_length_a 22.119702
_cell_length_b 8.761164
_cell_length_c 8.744531
_cell_angle_alpha 90.000000
_cell_angle_beta 90.000000
_cell_angle_gamma 90.000000
_cell_volume 1694.640586
_symmetry_space_group_name_H-M "P C C A"
_symmetry_group_IT_number 54
_symmetry_cell_setting 'orthorhombic'
loop_
_space_group_symop_operation_xyz
x,y,z
1/2-x,-y,z
1/2+x,-y,1/2-z
-x,y,1/2-z
-x,-y,-z
1/2+x,y,-z
1/2-x,y,1/2+z
x,-y,1/2+z
loop_
_atom_site_type_symbol
_atom_site_label
_atom_site_fract_x
_atom_site_fract_y
_atom_site_fract_z
Si Si1 0.962747 0.875715 0.405170
Si Si2 0.611610 0.597066 0.888205
Si Si3 0.666906 0.037357 0.893723
Si Si4 0.299587 0.224427 0.302531
Si Si5 0.832180 0.330522 0.210656
O O1 0.949313 0.692515 0.430671
O O2 0.000000 0.875394 0.250000
O O3 0.896699 0.952160 0.416192
O O4 0.000000 0.000000 0.500000
O O5 0.640375 0.684235 0.741892
O O6 0.626281 0.425341 0.831114
O O7 0.650052 0.621634 0.041073
O O8 0.656583 0.154819 0.754283
O O9 0.707209 0.897746 0.833362
O O10 0.689567 0.132702 0.040549
O O11 0.241203 0.332129 0.289436
#
# Coordination Sequence:
#
# PCOD9424168 Si02
#       5
#     8   8   8   8   8
#     4  11  23  45  71  96 128 175 233 300 352 397
#     4  11  25  43  66  98 135 183 235 280 348 431
#     4  11  23  41  68 102 134 178 239 287 344 427
#     4  11  23  41  65  99 139 181 224 280 346 420
#     4  12  24  42  63  95 139 179 219 283 349 423
#
# _framework density 23.603826000000002
#
# number of rings (size 3 to 8) (size 9 to 14) (size 15 to 20)
#    0.000    0.800    0.000    9.600    0.000    4.800 
#    0.000    7.000    0.000    0.000    0.000    0.000 
#    0.000    0.000    0.000    0.000    0.000    0.000 
#
# Total GULP energy -222877.610317 kJ/mol
# GULP energy per Si atom -5571.940258 kJ/mol
# Density = 2.355010 g / cm^3
# Si number density = 23.603826 Si / 1000 Ang^3
#
#
#
# Elastic Constant Matrix: (Units=GPa)
#
#
# Indices 1 2 3 4 5 6 
#
# 1 80.5056 28.4209 23.5807 0.0000 0.0000 0.0000
# 2 28.4209 129.0164 29.5491 0.0000 0.0000 0.0000
# 3 23.5807 29.5491 94.1297 0.0000 0.0000 0.0000
# 4 0.0000 0.0000 0.0000 31.3432 0.0000 0.0000
# 5 0.0000 0.0000 0.0000 0.0000 37.4592 0.0000
# 6 0.0000 0.0000 0.0000 0.0000 0.0000 25.3087
#
#
#
# Elastic Compliance Matrix: (Units=1/GPa)
#
#
# Indices 1 2 3 4 5 6 
#
# 1 0.014103 -0.002475 -0.002756 0.000000 0.000000 0.000000
# 2 -0.002475 0.008786 -0.002138 0.000000 0.000000 0.000000
# 3 -0.002756 -0.002138 0.011985 0.000000 0.000000 0.000000
# 4 0.000000 0.000000 0.000000 0.031905 0.000000 0.000000
# 5 0.000000 0.000000 0.000000 0.000000 0.026696 0.000000
# 6 0.000000 0.000000 0.000000 0.000000 0.000000 0.039512
#
#
# Mechanical properties :
#
#
# Convention : Reuss Voigt Hill
#
# Bulk Modulus (GPa) = 49.66406 51.86144 50.76275
# Shear Modulus (GPa) = 32.37577 33.62895 33.00236
#
# Velocity S-wave (km/s) = 3.70757 3.77865 3.74328
# Velocity P-wave (km/s) = 6.27810 6.40756 6.34316
#
# Compressibility (1/GPa) = 0.02013529
#
# Stress axis : x y z
#
# Youngs Moduli (GPa) = 70.90893 113.81830 83.43670
#
# Poissons Ratio (x) = 0.28175 0.22993
# Poissons Ratio (y) = 0.17553 0.17838
# Poissons Ratio (z) = 0.19541 0.24334
#
# Static dielectric constant tensor:
#      x y z
#    x 1.980630 0.000000 0.000000 
#    y 0.000000 2.039880 0.000000 
#    z 0.000000 0.000000 1.887900 
# 
# From -- ./inp_files/5023.got.cif
#   From: 2010.05.17/outbox.cif.g08.bks.cpg/sg54_3_cif.got.tgz:5023.got - 2010.06.03 13:09:01.
