data_PCOD9424755
_publ_section_title
;
Structure prediction by ZEFSAII (Michael W. Deem and Ramdas Pophale) SiO2 
 PCOD9424755
Probable space group: P B A M
;
_chemical_formula_sum "Si O2"
_cell_formula_units_Z 32
_cell_length_a 22.226020
_cell_length_b 6.861406
_cell_length_c 8.191780
_cell_angle_alpha 90.000000
_cell_angle_beta 90.000000
_cell_angle_gamma 90.000000
_cell_volume 1249.260761
_symmetry_space_group_name_H-M "P B A M"
_symmetry_group_IT_number 55
_symmetry_cell_setting 'orthorhombic'
loop_
_space_group_symop_operation_xyz
x,y,z
-x,-y,z
1/2+x,1/2-y,-z
1/2-x,1/2+y,-z
-x,-y,-z
x,y,-z
1/2-x,1/2+y,z
1/2+x,1/2-y,z
loop_
_atom_site_type_symbol
_atom_site_label
_atom_site_fract_x
_atom_site_fract_y
_atom_site_fract_z
Si Si1 0.077244 0.809970 0.189455
Si Si2 0.298889 0.429385 0.313226
Si Si3 0.330964 0.883809 0.312307
Si Si4 0.049395 0.248601 0.304760
O O1 0.147222 0.796059 0.244892
O O2 0.020895 0.709354 0.279018
O O3 0.062475 0.040468 0.220377
O O4 0.073024 0.767287 0.000000
O O5 0.288402 0.365702 0.500000
O O6 0.322122 0.649259 0.317897
O O7 0.232681 0.443021 0.233302
O O8 0.333480 0.956587 0.500000
O O9 0.398418 0.895340 0.241390
O O10 0.058017 0.226720 0.500000
#
# Coordination Sequence:
#
# PCOD9424755 Si02
#       4
#     8   8   8   8
#     4  10  17  25  39  63  88 112 140 176 212 251
#     4   9  16  29  45  64  86 112 140 174 212 252
#     4   8  15  26  45  66  85 107 139 175 212 250
#     4   9  15  26  43  63  84 111 142 179 216 249
#
# _framework density 25.615148999999999
#
# number of rings (size 3 to 8) (size 9 to 14) (size 15 to 20)
#    0.000    3.000    0.000    6.000    0.000    0.000 
#    0.000    6.250    0.000    1.500    0.000   10.500 
#    0.000    0.000    0.000    0.000    0.000    0.000 
#
# Total GULP energy -178556.923454 kJ/mol
# GULP energy per Si atom -5579.903858 kJ/mol
# Density = 2.555685 g / cm^3
# Si number density = 25.615149 Si / 1000 Ang^3
#
#
#
# Elastic Constant Matrix: (Units=GPa)
#
#
# Indices 1 2 3 4 5 6 
#
# 1 271.9302 27.3445 13.9918 0.0000 0.0000 0.0000
# 2 27.3445 52.5855 -15.8799 0.0000 0.0000 0.0000
# 3 13.9918 -15.8799 70.7197 0.0000 0.0000 0.0000
# 4 0.0000 0.0000 0.0000 -15.0488 0.0000 0.0000
# 5 0.0000 0.0000 0.0000 0.0000 -5.2266 0.0000
# 6 0.0000 0.0000 0.0000 0.0000 0.0000 67.0645
#
#
#
# Elastic Compliance Matrix: (Units=1/GPa)
#
#
# Indices 1 2 3 4 5 6 
#
# 1 0.003997 -0.002486 -0.001349 0.000000 0.000000 0.000000
# 2 -0.002486 0.021946 0.005420 0.000000 0.000000 0.000000
# 3 -0.001349 0.005420 0.015624 0.000000 0.000000 0.000000
# 4 0.000000 0.000000 0.000000 -0.066450 0.000000 0.000000
# 5 0.000000 0.000000 0.000000 0.000000 -0.191328 0.000000
# 6 0.000000 0.000000 0.000000 0.000000 0.000000 0.014911
#
#
# Mechanical properties :
#
#
# Convention : Reuss Voigt Hill
#
# Bulk Modulus (GPa) = 22.35289 49.57203 35.96246
# Shear Modulus (GPa) = -26.37702 34.00974 3.81636
#
# Velocity S-wave (km/s) = -3.21244 3.64774 1.22193
# Velocity P-wave (km/s) = 2.23927 6.09393 4.00760
#
# Compressibility (1/GPa) = 0.04473694
#
# Stress axis : x y z
#
# Youngs Moduli (GPa) = 250.20181 45.56672 64.00336
#
# Poissons Ratio (x) = 0.11326 0.08633
# Poissons Ratio (y) = 0.62192 -0.34688
# Poissons Ratio (z) = 0.33750 -0.24696
#
# Static dielectric constant tensor:
#      x y z
#    x 2.215820 0.000000 0.000000 
#    y 0.000000 2.121950 0.000000 
#    z 0.000000 0.000000 1.875330 
# 
# From -- ./inp_files/2020.got.cif
#   From: 2010.05.17/outbox.cif.g08.bks.cpg/sg55_2_cif.got.tgz:2020.got - 2010.06.03 13:27:54.
