data_PCOD9424726
_publ_section_title
;
Structure prediction by ZEFSAII (Michael W. Deem and Ramdas Pophale) SiO2 
 PCOD9424726
Probable space group: P B A M
;
_chemical_formula_sum "Si O2"
_cell_formula_units_Z 32
_cell_length_a 5.085236
_cell_length_b 13.751703
_cell_length_c 19.413302
_cell_angle_alpha 90.000000
_cell_angle_beta 90.000000
_cell_angle_gamma 90.000000
_cell_volume 1357.584928
_symmetry_space_group_name_H-M "P B A M"
_symmetry_group_IT_number 55
_symmetry_cell_setting 'orthorhombic'
loop_
_space_group_symop_operation_xyz
x,y,z
-x,-y,z
1/2+x,1/2-y,-z
1/2-x,1/2+y,-z
-x,-y,-z
x,y,-z
1/2-x,1/2+y,z
1/2+x,1/2-y,z
loop_
_atom_site_type_symbol
_atom_site_label
_atom_site_fract_x
_atom_site_fract_y
_atom_site_fract_z
Si Si1 0.543910 0.113797 0.210678
Si Si2 0.266907 0.815682 0.354791
Si Si3 0.247243 0.071810 0.000000
Si Si4 0.112158 0.317552 0.500000
Si Si5 0.048715 0.117068 0.141625
O O1 0.664817 0.126997 0.285834
O O2 0.248336 0.151978 0.200912
O O3 0.753831 0.153058 0.154883
O O4 0.500000 0.000000 0.197413
O O5 0.971802 0.775043 0.354684
O O6 0.327323 0.868686 0.427396
O O7 0.200926 0.132282 0.930270
O O8 0.500000 0.000000 0.000000
O O9 0.000000 0.000000 0.000000
O O10 0.819092 0.273559 0.500000
O O11 0.000000 0.000000 0.146617
#
# Coordination Sequence:
#
# PCOD9424726 Si02
#       5
#     8   8   4   4   8
#     4  10  19  31  47  72 102 127 155 200 251 291
#     4  10  19  33  52  73  95 127 165 201 239 291
#     4  10  16  26  44  68  96 128 162 198 237 282
#     4   8  16  30  49  70  93 120 160 204 238 276
#     4   9  17  28  44  68  98 127 157 197 243 285
#
# _framework density 23.571269999999998
#
# number of rings (size 3 to 8) (size 9 to 14) (size 15 to 20)
#    0.000    2.500    0.000    5.250    0.000    0.000 
#    0.000    0.625    0.000    0.000    0.000   33.250 
#    0.000    0.000    0.000    0.000    0.000    0.000 
#
# Total GULP energy -178429.436339 kJ/mol
# GULP energy per Si atom -5575.919886 kJ/mol
# Density = 2.351762 g / cm^3
# Si number density = 23.571270 Si / 1000 Ang^3
#
#
#
# Elastic Constant Matrix: (Units=GPa)
#
#
# Indices 1 2 3 4 5 6 
#
# 1 138.9729 -1.2242 60.8878 0.0000 0.0000 0.0000
# 2 -1.2242 50.8033 -8.0459 0.0000 0.0000 0.0000
# 3 60.8878 -8.0459 147.3733 0.0000 0.0000 0.0000
# 4 0.0000 0.0000 0.0000 13.3715 0.0000 0.0000
# 5 0.0000 0.0000 0.0000 0.0000 39.2922 0.0000
# 6 0.0000 0.0000 0.0000 0.0000 0.0000 3.5730
#
#
#
# Elastic Compliance Matrix: (Units=1/GPa)
#
#
# Indices 1 2 3 4 5 6 
#
# 1 0.008793 -0.000367 -0.003653 0.000000 0.000000 0.000000
# 2 -0.000367 0.019871 0.001236 0.000000 0.000000 0.000000
# 3 -0.003653 0.001236 0.008362 0.000000 0.000000 0.000000
# 4 0.000000 0.000000 0.000000 0.074786 0.000000 0.000000
# 5 0.000000 0.000000 0.000000 0.000000 0.025450 0.000000
# 6 0.000000 0.000000 0.000000 0.000000 0.000000 0.279875
#
#
# Mechanical properties :
#
#
# Convention : Reuss Voigt Hill
#
# Bulk Modulus (GPa) = 31.78691 48.93164 40.35927
# Shear Modulus (GPa) = 11.54229 30.28279 20.91254
#
# Velocity S-wave (km/s) = 2.21526 3.58821 2.98183
# Velocity P-wave (km/s) = 4.47861 6.16207 5.38651
#
# Compressibility (1/GPa) = 0.03145950
#
# Stress axis : x y z
#
# Youngs Moduli (GPa) = 113.72929 50.32529 119.58642
#
# Poissons Ratio (x) = 0.01845 0.43682
# Poissons Ratio (y) = 0.04170 -0.14785
# Poissons Ratio (z) = 0.41543 -0.06222
#
# Static dielectric constant tensor:
#      x y z
#    x 1.870000 0.000000 0.000000 
#    y 0.000000 1.914930 0.000000 
#    z 0.000000 0.000000 2.044060 
# 
# From -- ./inp_files/20316.got.cif
#   From: 2010.05.17/outbox.cif.g08.bks.cpg/sg55_11_cif.got.tgz:20316.got - 2010.06.03 13:27:54.
