data_PCOD9424860
_publ_section_title
;
Structure prediction by ZEFSAII (Michael W. Deem and Ramdas Pophale) SiO2 
 PCOD9424860
Probable space group: P B A M
;
_chemical_formula_sum "Si O2"
_cell_formula_units_Z 58
_cell_length_a 8.891229
_cell_length_b 20.967231
_cell_length_c 17.788861
_cell_angle_alpha 90.000000
_cell_angle_beta 90.000000
_cell_angle_gamma 90.000000
_cell_volume 3316.278669
_symmetry_space_group_name_H-M "P B A M"
_symmetry_group_IT_number 55
_symmetry_cell_setting 'orthorhombic'
loop_
_space_group_symop_operation_xyz
x,y,z
-x,-y,z
1/2+x,1/2-y,-z
1/2-x,1/2+y,-z
-x,-y,-z
x,y,-z
1/2-x,1/2+y,z
1/2+x,1/2-y,z
loop_
_atom_site_type_symbol
_atom_site_label
_atom_site_fract_x
_atom_site_fract_y
_atom_site_fract_z
Si Si1 0.334294 0.470910 0.415210
Si Si2 0.628322 0.680562 0.412022
Si Si3 0.500000 0.500000 0.000000
Si Si4 0.618018 0.249825 0.684299
Si Si5 0.138168 0.669060 0.234692
Si Si6 0.543823 0.893603 0.085539
Si Si7 0.239060 0.479201 0.883076
Si Si8 0.670646 0.977675 0.727395
O O1 0.500000 0.500000 0.405157
O O2 0.283443 0.486340 0.500000
O O3 0.347573 0.394987 0.407957
O O4 0.226122 0.498853 0.352526
O O5 0.613583 0.698429 0.500000
O O6 0.769322 0.714768 0.372783
O O7 0.483343 0.701822 0.364346
O O8 0.615849 0.526521 0.065767
O O9 0.505178 0.200300 0.724057
O O10 0.720138 0.286459 0.745521
O O11 0.172535 0.598504 0.266296
O O12 0.098670 0.656752 0.147452
O O13 0.653193 0.955527 0.091548
O O14 0.379024 0.921735 0.104967
O O15 0.547051 0.870354 0.000000
O O16 0.266458 0.490331 0.794606
O O17 0.500000 0.000000 0.741819
#
# Coordination Sequence:
#
# PCOD9424860 Si02
#       8
#     8   8   2   8   8   8   8   8
#     4  10  22  37  53  83 124 154 182 238 308 356
#     4  10  20  36  58  81 111 150 191 243 290 338
#     4  12  20  30  48  92 122 142 172 228 280 334
#     4  10  21  38  56  81 109 147 203 242 276 336
#     4  10  21  37  59  82 108 151 192 240 283 335
#     4  10  17  37  58  77 111 155 182 220 286 344
#     4  10  19  32  54  85 121 144 181 227 283 351
#     4  11  20  36  59  86 111 152 192 226 289 359
#
# _framework density 17.489484000000001
#
# number of rings (size 3 to 8) (size 9 to 14) (size 15 to 20)
#    0.000    1.793    4.138    2.483    0.966    0.276 
#    0.000    4.138    0.000    0.000    0.000    0.000 
#    0.000    0.000    0.000    0.000    0.000    0.000 
#
# Total GULP energy -323082.385933 kJ/mol
# GULP energy per Si atom -5570.385964 kJ/mol
# Density = 1.744968 g / cm^3
# Si number density = 17.489484 Si / 1000 Ang^3
#
#
#
# Elastic Constant Matrix: (Units=GPa)
#
#
# Indices 1 2 3 4 5 6 
#
# 1 57.9765 15.4632 51.2820 0.0000 0.0000 0.0000
# 2 15.4632 51.2246 49.1744 0.0000 0.0000 0.0000
# 3 51.2820 49.1744 159.4502 0.0000 0.0000 0.0000
# 4 0.0000 0.0000 0.0000 21.2480 0.0000 0.0000
# 5 0.0000 0.0000 0.0000 0.0000 31.4161 0.0000
# 6 0.0000 0.0000 0.0000 0.0000 0.0000 15.8912
#
#
#
# Elastic Compliance Matrix: (Units=1/GPa)
#
#
# Indices 1 2 3 4 5 6 
#
# 1 0.024108 0.000235 -0.007826 0.000000 0.000000 0.000000
# 2 0.000235 0.027734 -0.008629 0.000000 0.000000 0.000000
# 3 -0.007826 -0.008629 0.011450 0.000000 0.000000 0.000000
# 4 0.000000 0.000000 0.000000 0.047063 0.000000 0.000000
# 5 0.000000 0.000000 0.000000 0.000000 0.031831 0.000000
# 6 0.000000 0.000000 0.000000 0.000000 0.000000 0.062928
#
#
# Mechanical properties :
#
#
# Convention : Reuss Voigt Hill
#
# Bulk Modulus (GPa) = 32.41201 55.61007 44.01104
# Shear Modulus (GPa) = 20.17445 23.89317 22.03381
#
# Velocity S-wave (km/s) = 3.40003 3.70015 3.55326
# Velocity P-wave (km/s) = 5.82976 7.07956 6.48484
#
# Compressibility (1/GPa) = 0.03085277
#
# Stress axis : x y z
#
# Youngs Moduli (GPa) = 41.47987 36.05621 87.33786
#
# Poissons Ratio (x) = -0.00849 0.68352
# Poissons Ratio (y) = -0.00977 0.75364
# Poissons Ratio (z) = 0.32463 0.31113
#
# Static dielectric constant tensor:
#      x y z
#    x 1.590800 0.000000 0.000000 
#    y 0.000000 1.570170 0.000000 
#    z 0.000000 0.000000 1.607340 
# 
# From -- ./inp_files/21007.got.cif
#   From: 2010.05.17/outbox.cif.g08.bks.cpg/sg55_11_cif.got.tgz:21007.got - 2010.06.03 13:27:54.
