data_PCOD9424037
_publ_section_title
;
Structure prediction by ZEFSAII (Michael W. Deem and Ramdas Pophale) SiO2 
 PCOD9424037
Probable space group: P C C A
;
_chemical_formula_sum "Si O2"
_cell_formula_units_Z 64
_cell_length_a 10.567357
_cell_length_b 15.964767
_cell_length_c 18.000382
_cell_angle_alpha 90.000000
_cell_angle_beta 90.000000
_cell_angle_gamma 90.000000
_cell_volume 3036.761507
_symmetry_space_group_name_H-M "P C C A"
_symmetry_group_IT_number 54
_symmetry_cell_setting 'orthorhombic'
loop_
_space_group_symop_operation_xyz
x,y,z
1/2-x,-y,z
1/2+x,-y,1/2-z
-x,y,1/2-z
-x,-y,-z
1/2+x,y,-z
1/2-x,y,1/2+z
x,-y,1/2+z
loop_
_atom_site_type_symbol
_atom_site_label
_atom_site_fract_x
_atom_site_fract_y
_atom_site_fract_z
Si Si1 0.565409 0.096151 0.569709
Si Si2 0.440447 0.590214 0.509292
Si Si3 0.319521 0.218564 0.163655
Si Si4 0.129592 0.203245 0.295797
Si Si5 0.121573 0.250572 0.031471
Si Si6 0.744168 0.672928 0.097183
Si Si7 0.005417 0.624930 0.169983
Si Si8 0.370589 0.050868 0.086593
O O1 0.628260 0.129229 0.644364
O O2 0.467311 0.169750 0.543489
O O3 0.652243 0.077479 0.499022
O O4 0.487728 0.011970 0.586879
O O5 0.500000 0.500000 0.500000
O O6 0.533377 0.666996 0.482954
O O7 0.318668 0.606477 0.458394
O O8 0.419091 0.592581 0.597914
O O9 0.241657 0.197857 0.237182
O O10 0.218155 0.251146 0.101234
O O11 0.424012 0.287162 0.181520
O O12 0.384619 0.135980 0.131321
O O13 0.147232 0.287590 0.344239
O O14 0.000000 0.203486 0.250000
O O15 0.205500 0.252615 0.956648
O O16 0.862939 0.636220 0.140997
O O17 0.000000 0.580289 0.250000
O O18 0.250000 0.000000 0.115209
#
# Coordination Sequence:
#
# PCOD9424037 Si02
#       8
#     8   8   8   8   8   8   8   8
#     4  11  23  39  65  95 125 175 238 283 341 427
#     4  11  24  43  72 104 139 177 232 290 347 420
#     4  12  22  43  67  95 137 178 229 291 348 425
#     4  12  22  39  67  97 131 174 232 277 351 419
#     4  11  21  40  71  91 123 180 230 275 336 413
#     4  11  22  40  71  98 130 178 233 279 337 427
#     4  11  24  44  69 103 136 183 228 287 358 414
#     4  11  22  40  63  90 133 173 226 289 346 404
#
# _framework density 21.075082999999999
#
# number of rings (size 3 to 8) (size 9 to 14) (size 15 to 20)
#    0.000    0.750    6.250    2.250    0.000    2.000 
#    0.000    5.625    2.750    0.000    0.000    0.000 
#    0.000    0.000    0.000    0.000    0.000    0.000 
#
# Total GULP energy -357568.470514 kJ/mol
# GULP energy per Si atom -5587.007352 kJ/mol
# Density = 2.102712 g / cm^3
# Si number density = 21.075083 Si / 1000 Ang^3
#
#
#
# Elastic Constant Matrix: (Units=GPa)
#
#
# Indices 1 2 3 4 5 6 
#
# 1 52.4968 23.7436 29.7445 0.0000 0.0000 0.0000
# 2 23.7436 58.6701 34.2720 0.0000 0.0000 0.0000
# 3 29.7445 34.2720 157.5738 0.0000 0.0000 0.0000
# 4 0.0000 0.0000 0.0000 6.7227 0.0000 0.0000
# 5 0.0000 0.0000 0.0000 0.0000 46.3994 0.0000
# 6 0.0000 0.0000 0.0000 0.0000 0.0000 8.6740
#
#
#
# Elastic Compliance Matrix: (Units=1/GPa)
#
#
# Indices 1 2 3 4 5 6 
#
# 1 0.024357 -0.008215 -0.002811 0.000000 0.000000 0.000000
# 2 -0.008215 0.022296 -0.003299 0.000000 0.000000 0.000000
# 3 -0.002811 -0.003299 0.007594 0.000000 0.000000 0.000000
# 4 0.000000 0.000000 0.000000 0.148749 0.000000 0.000000
# 5 0.000000 0.000000 0.000000 0.000000 0.021552 0.000000
# 6 0.000000 0.000000 0.000000 0.000000 0.000000 0.115287
#
#
# Mechanical properties :
#
#
# Convention : Reuss Voigt Hill
#
# Bulk Modulus (GPa) = 39.06583 49.36231 44.21407
# Shear Modulus (GPa) = 13.26197 24.42459 18.84328
#
# Velocity S-wave (km/s) = 2.51125 3.40800 2.99340
# Velocity P-wave (km/s) = 5.19473 6.24171 5.74213
#
# Compressibility (1/GPa) = 0.02559782
#
# Stress axis : x y z
#
# Youngs Moduli (GPa) = 41.05583 44.85118 131.67789
#
# Poissons Ratio (x) = 0.36846 0.37015
# Poissons Ratio (y) = 0.33728 0.43435
# Poissons Ratio (z) = 0.11541 0.14795
#
# Static dielectric constant tensor:
#      x y z
#    x 1.782880 0.000000 0.000000 
#    y 0.000000 1.763580 0.000000 
#    z 0.000000 0.000000 1.780920 
# 
# From -- ./inp_files/17469.got.cif
#   From: 2010.05.17/outbox.cif.g08.bks.cpg/sg54_9_cif.got.tgz:17469.got - 2010.06.03 13:09:01.
