data_PCOD9424252
_publ_section_title
;
Structure prediction by ZEFSAII (Michael W. Deem and Ramdas Pophale) SiO2 
 PCOD9424252
Probable space group: P C C A
;
_chemical_formula_sum "Si O2"
_cell_formula_units_Z 64
_cell_length_a 8.739966
_cell_length_b 24.322112
_cell_length_c 14.867585
_cell_angle_alpha 90.000000
_cell_angle_beta 90.000000
_cell_angle_gamma 90.000000
_cell_volume 3160.468436
_symmetry_space_group_name_H-M "P C C A"
_symmetry_group_IT_number 54
_symmetry_cell_setting 'orthorhombic'
loop_
_space_group_symop_operation_xyz
x,y,z
1/2-x,-y,z
1/2+x,-y,1/2-z
-x,y,1/2-z
-x,-y,-z
1/2+x,y,-z
1/2-x,y,1/2+z
x,-y,1/2+z
loop_
_atom_site_type_symbol
_atom_site_label
_atom_site_fract_x
_atom_site_fract_y
_atom_site_fract_z
Si Si1 0.165915 0.754750 0.132471
Si Si2 0.692728 0.748765 0.656230
Si Si3 0.670128 0.864085 0.113339
Si Si4 0.181730 0.060477 0.734496
Si Si5 0.285844 0.335224 0.493216
Si Si6 0.934398 0.501284 0.350881
Si Si7 0.536751 0.413255 0.504874
Si Si8 0.189054 0.128382 0.077184
O O1 0.195095 0.741655 0.237002
O O2 0.247448 0.811542 0.105484
O O3 0.982046 0.762056 0.125351
O O4 0.229961 0.706107 0.070280
O O5 0.799891 0.799725 0.631034
O O6 0.737612 0.695036 0.601098
O O7 0.734068 0.898161 0.197090
O O8 0.491568 0.874306 0.095837
O O9 0.769047 0.879730 0.026360
O O10 0.223388 0.083494 0.636577
O O11 0.000000 0.061263 0.750000
O O12 0.250000 0.000000 0.747117
O O13 0.461195 0.352844 0.505672
O O14 0.213363 0.395910 0.493907
O O15 0.750000 0.500000 0.347185
O O16 0.986671 0.552792 0.412960
O O17 0.000000 0.502897 0.250000
O O18 0.992591 0.449140 0.408888
#
# Coordination Sequence:
#
# PCOD9424252 Si02
#       8
#     8   8   8   8   8   8   8   8
#     4  11  24  41  64  97 136 181 229 275 343 411
#     4  11  24  41  65  95 136 185 224 279 341 409
#     4  12  25  43  69 100 138 184 232 283 345 413
#     4  12  26  48  74 104 140 180 234 296 350 409
#     4  12  24  43  66  98 139 180 229 282 340 403
#     4  11  26  46  74 101 133 179 227 276 348 405
#     4  11  26  46  68  98 141 176 224 287 337 408
#     4  12  25  43  69 100 139 182 235 281 345 414
#
# _framework density 20.250163000000001
#
# number of rings (size 3 to 8) (size 9 to 14) (size 15 to 20)
#    0.000    0.500    5.000    3.375    3.500    2.500 
#    0.000    2.500    0.000    0.000    0.000    0.000 
#    0.000    0.000    0.000    0.000    0.000    0.000 
#
# Total GULP energy -357866.833188 kJ/mol
# GULP energy per Si atom -5591.669269 kJ/mol
# Density = 2.020407 g / cm^3
# Si number density = 20.250163 Si / 1000 Ang^3
#
#
#
# Elastic Constant Matrix: (Units=GPa)
#
#
# Indices 1 2 3 4 5 6 
#
# 1 61.0131 -4.3948 -17.7898 0.0000 0.0000 0.0000
# 2 -4.3948 55.2867 -8.6567 0.0000 0.0000 0.0000
# 3 -17.7898 -8.6567 62.0502 0.0000 0.0000 0.0000
# 4 0.0000 0.0000 0.0000 26.5159 0.0000 0.0000
# 5 0.0000 0.0000 0.0000 0.0000 29.6591 0.0000
# 6 0.0000 0.0000 0.0000 0.0000 0.0000 36.3518
#
#
#
# Elastic Compliance Matrix: (Units=1/GPa)
#
#
# Indices 1 2 3 4 5 6 
#
# 1 0.018169 0.002310 0.005531 0.000000 0.000000 0.000000
# 2 0.002310 0.018785 0.003283 0.000000 0.000000 0.000000
# 3 0.005531 0.003283 0.018160 0.000000 0.000000 0.000000
# 4 0.000000 0.000000 0.000000 0.037713 0.000000 0.000000
# 5 0.000000 0.000000 0.000000 0.000000 0.033717 0.000000
# 6 0.000000 0.000000 0.000000 0.000000 0.000000 0.027509
#
#
# Mechanical properties :
#
#
# Convention : Reuss Voigt Hill
#
# Bulk Modulus (GPa) = 12.92588 12.96305 12.94447
# Shear Modulus (GPa) = 31.72767 32.45143 32.08955
#
# Velocity S-wave (km/s) = 3.96256 4.00750 3.98509
# Velocity P-wave (km/s) = 5.22808 5.27530 5.25174
#
# Compressibility (1/GPa) = 0.07736416
#
# Stress axis : x y z
#
# Youngs Moduli (GPa) = 55.03831 53.23323 55.06646
#
# Poissons Ratio (x) = -0.12299 -0.30460
# Poissons Ratio (y) = -0.12716 -0.18079
# Poissons Ratio (z) = -0.30444 -0.17477
#
# Static dielectric constant tensor:
#      x y z
#    x 1.707470 0.000000 0.000000 
#    y 0.000000 1.678560 0.000000 
#    z 0.000000 0.000000 1.675850 
# 
# From -- ./inp_files/11935.got.cif
#   From: 2010.05.17/outbox.cif.g08.bks.cpg/sg54_6_cif.got.tgz:11935.got - 2010.06.03 13:09:01.
