data_PCOD9424609
_publ_section_title
;
Structure prediction by ZEFSAII (Michael W. Deem and Ramdas Pophale) SiO2 
 PCOD9424609
Probable space group: P C C A
;
_chemical_formula_sum "Si O2"
_cell_formula_units_Z 64
_cell_length_a 21.000000
_cell_length_b 9.000000
_cell_length_c 18.000000
_cell_angle_alpha 90.000000
_cell_angle_beta 90.000000
_cell_angle_gamma 90.000000
_cell_volume 3402.000000
_symmetry_space_group_name_H-M "P C C A"
_symmetry_group_IT_number 54
_symmetry_cell_setting 'orthorhombic'
loop_
_space_group_symop_operation_xyz
x,y,z
1/2-x,-y,z
1/2+x,-y,1/2-z
-x,y,1/2-z
-x,-y,-z
1/2+x,y,-z
1/2-x,y,1/2+z
x,-y,1/2+z
loop_
_atom_site_type_symbol
_atom_site_label
_atom_site_fract_x
_atom_site_fract_y
_atom_site_fract_z
Si Si1 0.095870 0.067998 0.032976
Si Si2 0.806448 0.373427 0.941151
Si Si3 0.357924 0.731820 0.908055
Si Si4 0.775188 0.160213 0.079961
Si Si5 0.816144 0.911079 0.348376
Si Si6 0.376168 0.002701 0.809205
Si Si7 0.536680 0.850905 0.093298
Si Si8 0.428042 0.460383 0.973463
O O1 0.038214 0.139798 0.078765
O O2 0.138592 0.972941 0.087157
O O3 0.135350 0.192643 0.989458
O O4 0.067005 0.962682 0.968510
O O5 0.750000 0.500000 0.939871
O O6 0.805988 0.263582 0.869359
O O7 0.797495 0.262794 0.012186
O O8 0.876629 0.441686 0.959185
O O9 0.283505 0.743320 0.887567
O O10 0.395140 0.579761 0.918488
O O11 0.388514 0.845511 0.850129
O O12 0.824020 0.101217 0.143395
O O13 0.750000 0.000000 0.050562
O O14 0.750000 0.000000 0.350657
O O15 0.849624 0.958134 0.270825
O O16 0.439973 0.095871 0.825914
O O17 0.563337 0.691669 0.071296
O O18 0.500000 0.500000 0.000000
#
# Coordination Sequence:
#
# PCOD9424609 Si02
#       8
#     8   8   8   8   8   8   8   8
#     4  10  20  36  61  92 116 153 209 269 304 360
#     4  12  23  38  63  98 124 163 208 264 323 384
#     4  10  19  34  60  89 121 156 201 255 310 364
#     4  10  18  35  62  90 120 153 213 262 305 365
#     4  12  24  40  63  90 128 168 206 258 322 375
#     4  10  22  39  61  89 123 166 208 256 306 382
#     4  10  20  38  61  90 119 153 214 263 308 367
#     4  12  22  36  62  94 123 155 200 265 323 369
#
# _framework density 18.812463000000001
#
# number of rings (size 3 to 8) (size 9 to 14) (size 15 to 20)
#    0.000    1.250    5.000    3.750    0.000    0.500 
#    0.000    1.250    0.000    0.000    0.000    0.000 
#    0.000    0.000    0.000    0.000    0.000    0.000 
#
# Total GULP energy -356630.888813 kJ/mol
# GULP energy per Si atom -5572.357638 kJ/mol
# Density = 1.876965 g / cm^3
# Si number density = 18.812463 Si / 1000 Ang^3
#
#
#
# Elastic Constant Matrix: (Units=GPa)
#
#
# Indices 1 2 3 4 5 6 
#
# 1 84.5614 26.6350 17.5363 0.0000 0.0000 0.0000
# 2 26.6350 87.8373 18.3473 0.0000 0.0000 0.0000
# 3 17.5363 18.3473 69.5453 0.0000 0.0000 0.0000
# 4 0.0000 0.0000 0.0000 21.0245 0.0000 0.0000
# 5 0.0000 0.0000 0.0000 0.0000 24.7179 0.0000
# 6 0.0000 0.0000 0.0000 0.0000 0.0000 38.2365
#
#
#
# Elastic Compliance Matrix: (Units=1/GPa)
#
#
# Indices 1 2 3 4 5 6 
#
# 1 0.013458 -0.003569 -0.002452 0.000000 0.000000 0.000000
# 2 -0.003569 0.012995 -0.002528 0.000000 0.000000 0.000000
# 3 -0.002452 -0.002528 0.015664 0.000000 0.000000 0.000000
# 4 0.000000 0.000000 0.000000 0.047563 0.000000 0.000000
# 5 0.000000 0.000000 0.000000 0.000000 0.040457 0.000000
# 6 0.000000 0.000000 0.000000 0.000000 0.000000 0.026153
#
#
# Mechanical properties :
#
#
# Convention : Reuss Voigt Hill
#
# Bulk Modulus (GPa) = 39.96932 40.77567 40.37249
# Shear Modulus (GPa) = 27.51347 28.75747 28.13547
#
# Velocity S-wave (km/s) = 3.82843 3.91402 3.87146
# Velocity P-wave (km/s) = 6.39021 6.49215 6.44138
#
# Compressibility (1/GPa) = 0.02501919
#
# Stress axis : x y z
#
# Youngs Moduli (GPa) = 74.30345 76.95274 63.83873
#
# Poissons Ratio (x) = 0.27463 0.15654
# Poissons Ratio (y) = 0.26517 0.16141
# Poissons Ratio (z) = 0.18220 0.19457
#
# Static dielectric constant tensor:
#      x y z
#    x 1.745400 0.000000 0.000000 
#    y 0.000000 1.677310 0.000000 
#    z 0.000000 0.000000 1.649230 
# 
# From -- ./inp_files/18946.got.cif
#   From: 2010.05.17/outbox.ucp.g08.bks.cvg/sg54_10_cif.got.tgz:18946.got - 2010.06.11 16:34:40.
