data_PCOD9424353
_publ_section_title
;
Structure prediction by ZEFSAII (Michael W. Deem and Ramdas Pophale) SiO2 
 PCOD9424353
Probable space group: P C C A
;
_chemical_formula_sum "Si O2"
_cell_formula_units_Z 40
_cell_length_a 9.356540
_cell_length_b 22.536883
_cell_length_c 9.011589
_cell_angle_alpha 90.000000
_cell_angle_beta 90.000000
_cell_angle_gamma 90.000000
_cell_volume 1900.248966
_symmetry_space_group_name_H-M "P C C A"
_symmetry_group_IT_number 54
_symmetry_cell_setting 'orthorhombic'
loop_
_space_group_symop_operation_xyz
x,y,z
1/2-x,-y,z
1/2+x,-y,1/2-z
-x,y,1/2-z
-x,-y,-z
1/2+x,y,-z
1/2-x,y,1/2+z
x,-y,1/2+z
loop_
_atom_site_type_symbol
_atom_site_label
_atom_site_fract_x
_atom_site_fract_y
_atom_site_fract_z
Si Si1 0.135245 0.669885 0.856925
Si Si2 0.603766 0.535547 0.110922
Si Si3 0.638816 0.123310 0.357236
Si Si4 0.141035 0.947922 0.840593
Si Si5 0.357387 0.740715 0.655896
O O1 0.152600 0.603138 0.920948
O O2 0.257560 0.697869 0.753729
O O3 0.000000 0.669678 0.750000
O O4 0.115458 0.711496 0.997714
O O5 0.750000 0.500000 0.136825
O O6 0.500000 0.540059 0.250000
O O7 0.500000 0.500000 0.000000
O O8 0.500000 0.121105 0.250000
O O9 0.605662 0.091703 0.514536
O O10 0.766969 0.089802 0.275871
O O11 0.689684 0.191588 0.373056
O O12 0.000000 0.968804 0.750000
O O13 0.250000 0.000000 0.888362
O O14 0.500000 0.745501 0.750000
#
# Coordination Sequence:
#
# PCOD9424353 Si02
#       5
#     8   8   8   8   8
#     4  11  26  43  68 101 133 182 229 284 355 417
#     4  11  27  44  70 101 139 184 235 294 358 431
#     4  11  25  45  69 102 136 183 232 286 351 415
#     4  12  26  45  71 101 141 184 232 288 349 417
#     4  11  25  44  71  99 140 180 230 291 348 421
#
# _framework density 21.049873000000002
#
# number of rings (size 3 to 8) (size 9 to 14) (size 15 to 20)
#    0.000    0.800    0.000    5.400   11.200    8.800 
#    0.000    1.000    0.000    0.000    0.000    0.000 
#    0.000    0.000    0.000    0.000    0.000    0.000 
#
# Total GULP energy -223567.366472 kJ/mol
# GULP energy per Si atom -5589.184162 kJ/mol
# Density = 2.100196 g / cm^3
# Si number density = 21.049873 Si / 1000 Ang^3
#
#
#
# Elastic Constant Matrix: (Units=GPa)
#
#
# Indices 1 2 3 4 5 6 
#
# 1 96.0201 37.9753 9.6226 0.0000 0.0000 0.0000
# 2 37.9753 154.7238 39.0794 0.0000 0.0000 0.0000
# 3 9.6226 39.0794 115.7701 0.0000 0.0000 0.0000
# 4 0.0000 0.0000 0.0000 33.5290 0.0000 0.0000
# 5 0.0000 0.0000 0.0000 0.0000 38.9396 0.0000
# 6 0.0000 0.0000 0.0000 0.0000 0.0000 31.7577
#
#
#
# Elastic Compliance Matrix: (Units=1/GPa)
#
#
# Indices 1 2 3 4 5 6 
#
# 1 0.011534 -0.002830 -0.000003 0.000000 0.000000 0.000000
# 2 -0.002830 0.007760 -0.002384 0.000000 0.000000 0.000000
# 3 -0.000003 -0.002384 0.009443 0.000000 0.000000 0.000000
# 4 0.000000 0.000000 0.000000 0.029825 0.000000 0.000000
# 5 0.000000 0.000000 0.000000 0.000000 0.025681 0.000000
# 6 0.000000 0.000000 0.000000 0.000000 0.000000 0.031488
#
#
# Mechanical properties :
#
#
# Convention : Reuss Voigt Hill
#
# Bulk Modulus (GPa) = 54.63998 59.98541 57.31269
# Shear Modulus (GPa) = 37.80234 39.50104 38.65169
#
# Velocity S-wave (km/s) = 4.24234 4.33661 4.28973
# Velocity P-wave (km/s) = 7.07180 7.32350 7.19875
#
# Compressibility (1/GPa) = 0.01830162
#
# Stress axis : x y z
#
# Youngs Moduli (GPa) = 86.69943 128.86708 105.89964
#
# Poissons Ratio (x) = 0.36470 0.00036
# Poissons Ratio (y) = 0.24537 0.25249
# Poissons Ratio (z) = 0.00029 0.30725
#
# Static dielectric constant tensor:
#      x y z
#    x 1.763450 0.000000 0.000000 
#    y 0.000000 1.885170 0.000000 
#    z 0.000000 0.000000 1.757320 
# 
# From -- ./inp_files/2520.got.cif
#   From: 2010.05.17/outbox.cif.g08.bks.cpg/sg54_2_cif.got.tgz:2520.got - 2010.06.03 13:09:01.
