data_PCOD9424493
_publ_section_title
;
Structure prediction by ZEFSAII (Michael W. Deem and Ramdas Pophale) SiO2 
 PCOD9424493
Probable space group: P C C A
;
_chemical_formula_sum "Si O2"
_cell_formula_units_Z 40
_cell_length_a 9.625624
_cell_length_b 7.554796
_cell_length_c 26.345782
_cell_angle_alpha 90.000000
_cell_angle_beta 90.000000
_cell_angle_gamma 90.000000
_cell_volume 1915.855406
_symmetry_space_group_name_H-M "P C C A"
_symmetry_group_IT_number 54
_symmetry_cell_setting 'orthorhombic'
loop_
_space_group_symop_operation_xyz
x,y,z
1/2-x,-y,z
1/2+x,-y,1/2-z
-x,y,1/2-z
-x,-y,-z
1/2+x,y,-z
1/2-x,y,1/2+z
x,-y,1/2+z
loop_
_atom_site_type_symbol
_atom_site_label
_atom_site_fract_x
_atom_site_fract_y
_atom_site_fract_z
Si Si1 0.250000 0.500000 0.257054
Si Si2 0.925641 0.351129 0.654517
Si Si3 0.198518 0.192936 0.421851
Si Si4 0.750000 0.500000 0.497676
Si Si5 0.079492 0.657842 0.592492
Si Si6 0.714585 0.797928 0.824024
O O1 0.126747 0.549890 0.295272
O O2 0.232708 0.331566 0.220579
O O3 0.797524 0.261743 0.624220
O O4 0.998062 0.497491 0.619308
O O5 0.049222 0.220385 0.669568
O O6 0.206875 0.339022 0.466034
O O7 0.035524 0.188323 0.408934
O O8 0.250000 0.000000 0.437514
O O9 0.866356 0.417700 0.460693
O O10 0.209017 0.724978 0.625544
O O11 0.750000 0.000000 0.814378
#
# Coordination Sequence:
#
# PCOD9424493 Si02
#       6
#     4   8   8   4   8   8
#     4  12  24  46  74  98 142 182 232 286 350 414
#     4  12  23  49  71  97 144 188 223 286 357 408
#     4  12  27  44  71 106 139 182 235 289 347 417
#     4  12  24  44  74  98 140 184 238 284 352 408
#     4  12  23  48  73  96 144 187 225 287 351 419
#     4  12  27  46  73 108 139 182 236 287 347 418
#
# _framework density 20.878399999999999
#
# number of rings (size 3 to 8) (size 9 to 14) (size 15 to 20)
#    0.000    0.000    8.000    2.400    0.000    2.400 
#    7.200    0.000    0.000    0.000    0.000    0.000 
#    0.000    0.000    0.000    0.000    0.000    0.000 
#
# Total GULP energy -223741.999754 kJ/mol
# GULP energy per Si atom -5593.549994 kJ/mol
# Density = 2.083088 g / cm^3
# Si number density = 20.878400 Si / 1000 Ang^3
#
#
#
# Elastic Constant Matrix: (Units=GPa)
#
#
# Indices 1 2 3 4 5 6 
#
# 1 141.8579 36.1851 52.0131 0.0000 0.0000 0.0000
# 2 36.1851 118.4520 45.1531 0.0000 0.0000 0.0000
# 3 52.0131 45.1531 122.8103 0.0000 0.0000 0.0000
# 4 0.0000 0.0000 0.0000 0.2053 0.0000 0.0000
# 5 0.0000 0.0000 0.0000 0.0000 -4.5873 0.0000
# 6 0.0000 0.0000 0.0000 0.0000 0.0000 42.4199
#
#
#
# Elastic Compliance Matrix: (Units=1/GPa)
#
#
# Indices 1 2 3 4 5 6 
#
# 1 0.008549 -0.001432 -0.003094 0.000000 0.000000 0.000000
# 2 -0.001432 0.010058 -0.003092 0.000000 0.000000 0.000000
# 3 -0.003094 -0.003092 0.010590 0.000000 0.000000 0.000000
# 4 0.000000 0.000000 0.000000 4.871704 0.000000 0.000000
# 5 0.000000 0.000000 0.000000 0.000000 -0.217992 0.000000
# 6 0.000000 0.000000 0.000000 0.000000 0.000000 0.023574
#
#
# Mechanical properties :
#
#
# Convention : Reuss Voigt Hill
#
# Bulk Modulus (GPa) = 71.62618 72.20253 71.91436
# Shear Modulus (GPa) = 1.05789 24.25882 12.65836
#
# Velocity S-wave (km/s) = 0.71260 3.41238 2.46497
# Velocity P-wave (km/s) = 5.92097 7.08401 6.52844
#
# Compressibility (1/GPa) = 0.01396138
#
# Stress axis : x y z
#
# Youngs Moduli (GPa) = 116.97094 99.42144 94.43087
#
# Poissons Ratio (x) = 0.14238 0.29219
# Poissons Ratio (y) = 0.16752 0.29193
# Poissons Ratio (z) = 0.36193 0.30736
#
# Static dielectric constant tensor:
#      x y z
#    x 1.808830 0.000000 0.000000 
#    y 0.000000 1.727100 0.000000 
#    z 0.000000 0.000000 1.757530 
# 
# From -- ./inp_files/23312.got.cif
#   From: 2010.05.17/outbox.cif.g08.bks.cpg/sg54_12_cif.got.tgz:23312.got - 2010.06.03 13:09:01.
