data_PCOD9424328
_publ_section_title
;
Structure prediction by ZEFSAII (Michael W. Deem and Ramdas Pophale) SiO2 
 PCOD9424328
Probable space group: P C C A
;
_chemical_formula_sum "Si O2"
_cell_formula_units_Z 40
_cell_length_a 8.056854
_cell_length_b 10.902011
_cell_length_c 18.702316
_cell_angle_alpha 90.000000
_cell_angle_beta 90.000000
_cell_angle_gamma 90.000000
_cell_volume 1642.734962
_symmetry_space_group_name_H-M "P C C A"
_symmetry_group_IT_number 54
_symmetry_cell_setting 'orthorhombic'
loop_
_space_group_symop_operation_xyz
x,y,z
1/2-x,-y,z
1/2+x,-y,1/2-z
-x,y,1/2-z
-x,-y,-z
1/2+x,y,-z
1/2-x,y,1/2+z
x,-y,1/2+z
loop_
_atom_site_type_symbol
_atom_site_label
_atom_site_fract_x
_atom_site_fract_y
_atom_site_fract_z
Si Si1 0.742388 0.861364 0.512355
Si Si2 0.040393 0.236714 0.107305
Si Si3 0.060706 0.765503 0.357986
Si Si4 0.752462 0.143084 0.267716
Si Si5 0.948797 0.494810 0.916705
O O1 0.700291 0.771758 0.446827
O O2 0.598435 0.842646 0.571164
O O3 0.902589 0.829539 0.559468
O O4 0.750000 0.000000 0.485625
O O5 0.093082 0.174572 0.181189
O O6 0.991147 0.377572 0.117076
O O7 0.216157 0.779556 0.303751
O O8 0.906040 0.824092 0.317000
O O9 0.023508 0.625970 0.380185
O O10 0.750000 0.000000 0.248913
O O11 0.750000 0.500000 0.909758
O O12 0.000000 0.500000 0.000000
#
# Coordination Sequence:
#
# PCOD9424328 Si02
#       5
#     8   8   8   8   8
#     4  12  24  42  70 110 150 196 261 314 378 453
#     4  12  24  42  73 107 148 198 252 312 385 444
#     4  11  25  45  72 107 150 199 251 315 380 456
#     4  11  24  47  74 103 149 198 248 314 384 458
#     4  12  24  46  76 107 151 196 256 316 380 458
#
# _framework density 24.349634999999999
#
# number of rings (size 3 to 8) (size 9 to 14) (size 15 to 20)
#    0.000    0.400    4.000    5.400    0.000    2.400 
#    0.000    8.000    0.000    0.000    0.000    0.000 
#    0.000    0.000    0.000    0.000    0.000    0.000 
#
# Total GULP energy -224219.758043 kJ/mol
# GULP energy per Si atom -5605.493951 kJ/mol
# Density = 2.429421 g / cm^3
# Si number density = 24.349635 Si / 1000 Ang^3
#
#
#
# Elastic Constant Matrix: (Units=GPa)
#
#
# Indices 1 2 3 4 5 6 
#
# 1 89.4113 36.3464 32.6523 0.0000 0.0000 0.0000
# 2 36.3464 205.6297 45.3723 0.0000 0.0000 0.0000
# 3 32.6523 45.3723 142.9654 0.0000 0.0000 0.0000
# 4 0.0000 0.0000 0.0000 46.9122 0.0000 0.0000
# 5 0.0000 0.0000 0.0000 0.0000 51.6190 0.0000
# 6 0.0000 0.0000 0.0000 0.0000 0.0000 37.8244
#
#
#
# Elastic Compliance Matrix: (Units=1/GPa)
#
#
# Indices 1 2 3 4 5 6 
#
# 1 0.012751 -0.001733 -0.002362 0.000000 0.000000 0.000000
# 2 -0.001733 0.005465 -0.001339 0.000000 0.000000 0.000000
# 3 -0.002362 -0.001339 0.007959 0.000000 0.000000 0.000000
# 4 0.000000 0.000000 0.000000 0.021316 0.000000 0.000000
# 5 0.000000 0.000000 0.000000 0.000000 0.019373 0.000000
# 6 0.000000 0.000000 0.000000 0.000000 0.000000 0.026438
#
#
# Mechanical properties :
#
#
# Convention : Reuss Voigt Hill
#
# Bulk Modulus (GPa) = 65.32599 74.08316 69.70457
# Shear Modulus (GPa) = 45.75731 48.84682 47.30206
#
# Velocity S-wave (km/s) = 4.33965 4.48376 4.41230
# Velocity P-wave (km/s) = 7.21087 7.56943 7.39233
#
# Compressibility (1/GPa) = 0.01530784
#
# Stress axis : x y z
#
# Youngs Moduli (GPa) = 78.42310 182.99190 125.64246
#
# Poissons Ratio (x) = 0.31705 0.29682
# Poissons Ratio (y) = 0.13588 0.16818
# Poissons Ratio (z) = 0.18527 0.24495
#
# Static dielectric constant tensor:
#      x y z
#    x 2.128400 0.000000 0.000000 
#    y 0.000000 1.857720 0.000000 
#    z 0.000000 0.000000 1.965640 
# 
# From -- ./inp_files/16290.got.cif
#   From: 2010.05.17/outbox.cif.g08.bks.cpg/sg54_9_cif.got.tgz:16290.got - 2010.06.03 13:09:01.
