data_PCOD9424107
_publ_section_title
;
Structure prediction by ZEFSAII (Michael W. Deem and Ramdas Pophale) SiO2 
 PCOD9424107
Probable space group: P C C A
;
_chemical_formula_sum "Si O2"
_cell_formula_units_Z 40
_cell_length_a 12.199678
_cell_length_b 16.637263
_cell_length_c 9.058162
_cell_angle_alpha 90.000000
_cell_angle_beta 90.000000
_cell_angle_gamma 90.000000
_cell_volume 1838.528360
_symmetry_space_group_name_H-M "P C C A"
_symmetry_group_IT_number 54
_symmetry_cell_setting 'orthorhombic'
loop_
_space_group_symop_operation_xyz
x,y,z
1/2-x,-y,z
1/2+x,-y,1/2-z
-x,y,1/2-z
-x,-y,-z
1/2+x,y,-z
1/2-x,y,1/2+z
x,-y,1/2+z
loop_
_atom_site_type_symbol
_atom_site_label
_atom_site_fract_x
_atom_site_fract_y
_atom_site_fract_z
Si Si1 0.829097 0.899656 0.399906
Si Si2 0.121960 0.062561 0.262644
Si Si3 0.778890 0.633988 0.606776
Si Si4 0.917471 0.514103 0.129374
Si Si5 0.120234 0.721195 0.178302
O O1 0.703048 0.893401 0.349606
O O2 0.840709 0.927478 0.568708
O O3 0.881003 0.813703 0.372430
O O4 0.875011 0.970129 0.293660
O O5 0.000000 0.094269 0.250000
O O6 0.675800 0.575182 0.575891
O O7 0.861790 0.569669 0.681798
O O8 0.842705 0.669005 0.465227
O O9 0.719539 0.701970 0.705762
O O10 0.000000 0.547264 0.250000
O O11 0.000000 0.500000 0.000000
O O12 0.000000 0.708059 0.250000
#
# Coordination Sequence:
#
# PCOD9424107 Si02
#       5
#     8   8   8   8   8
#     4  11  24  42  67 100 135 177 232 280 339 410
#     4  11  23  43  69  97 132 178 230 287 336 398
#     4  11  24  41  66  97 132 175 224 267 329 405
#     4  11  22  41  67  96 129 172 220 271 321 385
#     4  12  26  45  66  98 141 179 218 281 346 403
#
# _framework density 21.756533000000001
#
# number of rings (size 3 to 8) (size 9 to 14) (size 15 to 20)
#    0.000    0.800    0.000    9.000    0.000    6.400 
#    0.000    4.000    0.000    0.000    0.000    0.000 
#    0.000    0.000    0.000    0.000    0.000    0.000 
#
# Total GULP energy -223275.843828 kJ/mol
# GULP energy per Si atom -5581.896096 kJ/mol
# Density = 2.170701 g / cm^3
# Si number density = 21.756533 Si / 1000 Ang^3
#
#
#
# Elastic Constant Matrix: (Units=GPa)
#
#
# Indices 1 2 3 4 5 6 
#
# 1 134.2051 33.1501 60.1027 0.0000 0.0000 0.0000
# 2 33.1501 106.5663 64.7277 0.0000 0.0000 0.0000
# 3 60.1027 64.7277 156.2834 0.0000 0.0000 0.0000
# 4 0.0000 0.0000 0.0000 24.8306 0.0000 0.0000
# 5 0.0000 0.0000 0.0000 0.0000 33.7899 0.0000
# 6 0.0000 0.0000 0.0000 0.0000 0.0000 21.2866
#
#
#
# Elastic Compliance Matrix: (Units=1/GPa)
#
#
# Indices 1 2 3 4 5 6 
#
# 1 0.009071 -0.000939 -0.003100 0.000000 0.000000 0.000000
# 2 -0.000939 0.012635 -0.004872 0.000000 0.000000 0.000000
# 3 -0.003100 -0.004872 0.009608 0.000000 0.000000 0.000000
# 4 0.000000 0.000000 0.000000 0.040273 0.000000 0.000000
# 5 0.000000 0.000000 0.000000 0.000000 0.029595 0.000000
# 6 0.000000 0.000000 0.000000 0.000000 0.000000 0.046978
#
#
# Mechanical properties :
#
#
# Convention : Reuss Voigt Hill
#
# Bulk Modulus (GPa) = 74.10937 79.22396 76.66666
# Shear Modulus (GPa) = 29.32898 31.91971 30.62435
#
# Velocity S-wave (km/s) = 3.67557 3.83447 3.75586
# Velocity P-wave (km/s) = 7.22150 7.48980 7.35687
#
# Compressibility (1/GPa) = 0.01349357
#
# Stress axis : x y z
#
# Youngs Moduli (GPa) = 110.23622 79.14434 104.07483
#
# Poissons Ratio (x) = 0.07433 0.32260
# Poissons Ratio (y) = 0.10353 0.50704
# Poissons Ratio (z) = 0.34170 0.38558
#
# Static dielectric constant tensor:
#      x y z
#    x 1.528670 0.000000 0.000000 
#    y 0.000000 1.829330 0.000000 
#    z 0.000000 0.000000 1.739860 
# 
# From -- ./inp_files/2928.got.cif
#   From: 2010.05.17/outbox.cif.g08.bks.cpg/sg54_2_cif.got.tgz:2928.got - 2010.06.03 13:09:01.
