data_PCOD9424324
_publ_section_title
;
Structure prediction by ZEFSAII (Michael W. Deem and Ramdas Pophale) SiO2 
 PCOD9424324
Probable space group: P C C A
;
_chemical_formula_sum "Si O2"
_cell_formula_units_Z 44
_cell_length_a 8.568752
_cell_length_b 12.583293
_cell_length_c 18.238693
_cell_angle_alpha 90.000000
_cell_angle_beta 90.000000
_cell_angle_gamma 90.000000
_cell_volume 1966.552730
_symmetry_space_group_name_H-M "P C C A"
_symmetry_group_IT_number 54
_symmetry_cell_setting 'orthorhombic'
loop_
_space_group_symop_operation_xyz
x,y,z
1/2-x,-y,z
1/2+x,-y,1/2-z
-x,y,1/2-z
-x,-y,-z
1/2+x,y,-z
1/2-x,y,1/2+z
x,-y,1/2+z
loop_
_atom_site_type_symbol
_atom_site_label
_atom_site_fract_x
_atom_site_fract_y
_atom_site_fract_z
Si Si1 0.011635 0.232635 0.950937
Si Si2 0.368263 0.312177 0.297799
Si Si3 0.592861 0.573664 0.435899
Si Si4 0.750000 0.500000 0.613982
Si Si5 0.808929 0.118039 0.438382
Si Si6 0.371468 0.743385 0.188569
O O1 0.067629 0.252022 0.868730
O O2 0.830755 0.203678 0.948088
O O3 0.055972 0.332564 0.003877
O O4 0.091190 0.131524 0.988657
O O5 0.500000 0.370719 0.250000
O O6 0.257070 0.397722 0.334629
O O7 0.284757 0.242095 0.236283
O O8 0.750000 0.500000 0.447895
O O9 0.423362 0.514223 0.424636
O O10 0.631133 0.637429 0.360961
O O11 0.900245 0.160647 0.367542
O O12 0.750000 0.000000 0.428057
O O13 0.500000 0.735575 0.250000
#
# Coordination Sequence:
#
# PCOD9424324 Si02
#       6
#     8   8   8   4   8   8
#     4  11  26  48  72 106 147 185 248 312 372 455
#     4  12  25  44  68 100 145 192 241 303 367 439
#     4  11  26  46  72 110 153 202 253 302 363 452
#     4  12  26  40  72 102 146 210 254 286 364 454
#     4  11  25  50  77 106 138 190 248 315 391 455
#     4  11  24  47  69 102 149 187 242 311 366 440
#
# _framework density 22.374175999999999
#
# number of rings (size 3 to 8) (size 9 to 14) (size 15 to 20)
#    0.000    0.727    3.636    2.727   10.182    0.727 
#    3.273    0.909    0.000    0.000    0.000    0.000 
#    0.000    0.000    0.000    0.000    0.000    0.000 
#
# Total GULP energy -245621.351659 kJ/mol
# GULP energy per Si atom -5582.303447 kJ/mol
# Density = 2.232325 g / cm^3
# Si number density = 22.374176 Si / 1000 Ang^3
#
#
#
# Elastic Constant Matrix: (Units=GPa)
#
#
# Indices 1 2 3 4 5 6 
#
# 1 99.0099 23.7333 57.0963 0.0000 0.0000 0.0000
# 2 23.7333 83.1212 36.6938 0.0000 0.0000 0.0000
# 3 57.0963 36.6938 143.7937 0.0000 0.0000 0.0000
# 4 0.0000 0.0000 0.0000 11.7670 0.0000 0.0000
# 5 0.0000 0.0000 0.0000 0.0000 22.7626 0.0000
# 6 0.0000 0.0000 0.0000 0.0000 0.0000 25.9424
#
#
#
# Elastic Compliance Matrix: (Units=1/GPa)
#
#
# Indices 1 2 3 4 5 6 
#
# 1 0.013298 -0.001652 -0.004859 0.000000 0.000000 0.000000
# 2 -0.001652 0.013763 -0.002856 0.000000 0.000000 0.000000
# 3 -0.004859 -0.002856 0.009612 0.000000 0.000000 0.000000
# 4 0.000000 0.000000 0.000000 0.084983 0.000000 0.000000
# 5 0.000000 0.000000 0.000000 0.000000 0.043932 0.000000
# 6 0.000000 0.000000 0.000000 0.000000 0.000000 0.038547
#
#
# Mechanical properties :
#
#
# Convention : Reuss Voigt Hill
#
# Bulk Modulus (GPa) = 55.74184 62.33016 59.03600
# Shear Modulus (GPa) = 21.84848 25.98784 23.91816
#
# Velocity S-wave (km/s) = 3.12830 3.41179 3.27311
# Velocity P-wave (km/s) = 6.16570 6.59083 6.38180
#
# Compressibility (1/GPa) = 0.01793984
#
# Stress axis : x y z
#
# Youngs Moduli (GPa) = 75.20022 72.65769 104.03161
#
# Poissons Ratio (x) = 0.12003 0.50545
# Poissons Ratio (y) = 0.12423 0.29713
# Poissons Ratio (z) = 0.36537 0.20752
#
# Static dielectric constant tensor:
#      x y z
#    x 1.971350 0.000000 0.000000 
#    y 0.000000 1.817150 0.000000 
#    z 0.000000 0.000000 1.832300 
# 
# From -- ./inp_files/16528.got.cif
#   From: 2010.05.17/outbox.cif.g08.bks.cpg/sg54_9_cif.got.tgz:16528.got - 2010.06.03 13:09:01.
