data_PCOD9424369
_publ_section_title
;
Structure prediction by ZEFSAII (Michael W. Deem and Ramdas Pophale) SiO2 
 PCOD9424369
Probable space group: P C C A
;
_chemical_formula_sum "Si O2"
_cell_formula_units_Z 36
_cell_length_a 4.872954
_cell_length_b 26.439030
_cell_length_c 11.641073
_cell_angle_alpha 90.000000
_cell_angle_beta 90.000000
_cell_angle_gamma 90.000000
_cell_volume 1499.791341
_symmetry_space_group_name_H-M "P C C A"
_symmetry_group_IT_number 54
_symmetry_cell_setting 'orthorhombic'
loop_
_space_group_symop_operation_xyz
x,y,z
1/2-x,-y,z
1/2+x,-y,1/2-z
-x,y,1/2-z
-x,-y,-z
1/2+x,y,-z
1/2-x,y,1/2+z
x,-y,1/2+z
loop_
_atom_site_type_symbol
_atom_site_label
_atom_site_fract_x
_atom_site_fract_y
_atom_site_fract_z
Si Si1 0.000000 0.315747 0.250000
Si Si2 0.037752 0.397389 0.068072
Si Si3 0.000000 0.918004 0.250000
Si Si4 0.500000 0.752370 0.750000
Si Si5 0.231036 0.164259 0.578754
Si Si6 0.750000 0.000000 0.088526
Si Si7 0.250000 0.500000 0.675814
O O1 0.119352 0.353468 0.154564
O O2 0.248824 0.281484 0.295497
O O3 0.115167 0.453493 0.109187
O O4 0.216242 0.391952 0.953649
O O5 0.163792 0.882929 0.160586
O O6 0.800475 0.953005 0.173718
O O7 0.362220 0.787178 0.652119
O O8 0.542343 0.163281 0.535501
O O9 0.500000 0.000000 0.000000
O O10 0.500000 0.521695 0.750000
#
# Coordination Sequence:
#
# PCOD9424369 Si02
#       7
#     4   8   4   4   8   4   4
#     4  12  26  46  68 102 140 176 226 290 352 420
#     4  12  26  44  69 100 135 180 226 278 342 414
#     4  11  26  46  71 108 147 192 248 295 354 422
#     4  11  26  44  71 100 135 178 230 291 358 426
#     4  11  25  46  73 102 137 184 239 298 355 419
#     4  12  26  44  70 104 150 198 238 292 356 420
#     4  12  24  44  72  96 138 184 226 280 340 406
#
# _framework density 24.003337999999999
#
# number of rings (size 3 to 8) (size 9 to 14) (size 15 to 20)
#    0.000    0.444    1.111    6.667    1.556   11.556 
#    0.000    0.000    0.000    0.000    0.000    0.000 
#    0.000    0.000    0.000    0.000    0.000    0.000 
#
# Total GULP energy -201770.552011 kJ/mol
# GULP energy per Si atom -5604.737556 kJ/mol
# Density = 2.394871 g / cm^3
# Si number density = 24.003338 Si / 1000 Ang^3
#
#
#
# Elastic Constant Matrix: (Units=GPa)
#
#
# Indices 1 2 3 4 5 6 
#
# 1 111.2659 26.8682 16.4902 0.0000 0.0000 0.0000
# 2 26.8682 144.0964 45.8864 0.0000 0.0000 0.0000
# 3 16.4902 45.8864 79.7397 0.0000 0.0000 0.0000
# 4 0.0000 0.0000 0.0000 45.2580 0.0000 0.0000
# 5 0.0000 0.0000 0.0000 0.0000 45.6626 0.0000
# 6 0.0000 0.0000 0.0000 0.0000 0.0000 39.0204
#
#
#
# Elastic Compliance Matrix: (Units=1/GPa)
#
#
# Indices 1 2 3 4 5 6 
#
# 1 0.009498 -0.001402 -0.001157 0.000000 0.000000 0.000000
# 2 -0.001402 0.008704 -0.004719 0.000000 0.000000 0.000000
# 3 -0.001157 -0.004719 0.015495 0.000000 0.000000 0.000000
# 4 0.000000 0.000000 0.000000 0.022096 0.000000 0.000000
# 5 0.000000 0.000000 0.000000 0.000000 0.021900 0.000000
# 6 0.000000 0.000000 0.000000 0.000000 0.000000 0.025628
#
#
# Mechanical properties :
#
#
# Convention : Reuss Voigt Hill
#
# Bulk Modulus (GPa) = 52.24492 57.06573 54.65532
# Shear Modulus (GPa) = 40.23933 42.37867 41.30900
#
# Velocity S-wave (km/s) = 4.09884 4.20638 4.15296
# Velocity P-wave (km/s) = 6.64933 6.88602 6.76871
#
# Compressibility (1/GPa) = 0.01914062
#
# Stress axis : x y z
#
# Youngs Moduli (GPa) = 105.28950 114.89071 64.53505
#
# Poissons Ratio (x) = 0.16113 0.07467
# Poissons Ratio (y) = 0.14766 0.30452
# Poissons Ratio (z) = 0.12183 0.54213
#
# Static dielectric constant tensor:
#      x y z
#    x 1.864720 0.000000 0.000000 
#    y 0.000000 1.933560 0.000000 
#    z 0.000000 0.000000 1.907600 
# 
# From -- ./inp_files/6418.got.cif
#   From: 2010.05.17/outbox.cif.g08.bks.cpg/sg54_4_cif.got.tgz:6418.got - 2010.06.03 13:09:01.
