data_PCOD9424841
_publ_section_title
;
Structure prediction by ZEFSAII (Michael W. Deem and Ramdas Pophale) SiO2 
 PCOD9424841
Probable space group: P B A M
;
_chemical_formula_sum "Si O2"
_cell_formula_units_Z 56
_cell_length_a 16.654267
_cell_length_b 9.300047
_cell_length_c 18.258583
_cell_angle_alpha 90.000000
_cell_angle_beta 90.000000
_cell_angle_gamma 90.000000
_cell_volume 2827.989134
_symmetry_space_group_name_H-M "P B A M"
_symmetry_group_IT_number 55
_symmetry_cell_setting 'orthorhombic'
loop_
_space_group_symop_operation_xyz
x,y,z
-x,-y,z
1/2+x,1/2-y,-z
1/2-x,1/2+y,-z
-x,-y,-z
x,y,-z
1/2-x,1/2+y,z
1/2+x,1/2-y,z
loop_
_atom_site_type_symbol
_atom_site_label
_atom_site_fract_x
_atom_site_fract_y
_atom_site_fract_z
Si Si1 0.814696 0.463587 0.663692
Si Si2 0.443202 0.621588 0.679544
Si Si3 0.799856 0.752064 0.585647
Si Si4 0.321024 0.446872 0.775046
Si Si5 0.012966 0.754064 0.916772
Si Si6 0.568067 0.821396 0.762936
Si Si7 0.868922 0.966076 0.919012
O O1 0.812708 0.583742 0.601030
O O2 0.777148 0.319217 0.628049
O O3 0.753107 0.526090 0.723340
O O4 0.896746 0.442097 0.708864
O O5 0.500000 0.500000 0.645116
O O6 0.377818 0.675804 0.622499
O O7 0.394445 0.542481 0.744179
O O8 0.498938 0.739946 0.717479
O O9 0.793343 0.781732 0.500000
O O10 0.355284 0.286043 0.772728
O O11 0.305388 0.505357 0.855973
O O12 0.036380 0.658729 0.846169
O O13 0.072208 0.894074 0.915413
O O14 0.925108 0.826573 0.907412
O O15 0.018462 0.693760 0.000000
O O16 0.834243 0.958005 0.000000
#
# Coordination Sequence:
#
# PCOD9424841 Si02
#       7
#     8   8   8   8   8   8   8
#     4  11  22  38  59  85 113 155 190 228 294 357
#     4   9  19  35  60  87 113 145 189 237 285 339
#     4  11  24  43  62  85 115 146 188 238 293 355
#     4   9  16  31  51  79 114 148 193 235 276 342
#     4   8  13  22  43  79 113 145 185 236 285 319
#     4  10  17  32  55  81 111 151 192 236 281 334
#     4   8  12  21  43  75 110 145 188 238 279 318
#
# _framework density 19.802057000000001
#
# number of rings (size 3 to 8) (size 9 to 14) (size 15 to 20)
#    0.000    2.571    2.857    1.286    0.000    0.857 
#    0.000    2.857    0.000    0.000    0.000    4.000 
#    0.000    0.000    0.000    0.000    0.000    0.000 
#
# Total GULP energy -312087.887675 kJ/mol
# GULP energy per Si atom -5572.997994 kJ/mol
# Density = 1.975699 g / cm^3
# Si number density = 19.802057 Si / 1000 Ang^3
#
#
#
# Elastic Constant Matrix: (Units=GPa)
#
#
# Indices 1 2 3 4 5 6 
#
# 1 27.1732 5.5202 13.5652 0.0000 0.0000 0.0000
# 2 5.5202 53.6315 15.9421 0.0000 0.0000 0.0000
# 3 13.5652 15.9421 141.3563 0.0000 0.0000 0.0000
# 4 0.0000 0.0000 0.0000 -2.5928 0.0000 0.0000
# 5 0.0000 0.0000 0.0000 0.0000 14.6038 0.0000
# 6 0.0000 0.0000 0.0000 0.0000 0.0000 12.3235
#
#
#
# Elastic Compliance Matrix: (Units=1/GPa)
#
#
# Indices 1 2 3 4 5 6 
#
# 1 0.039117 -0.003011 -0.003414 0.000000 0.000000 0.000000
# 2 -0.003011 0.019524 -0.001913 0.000000 0.000000 0.000000
# 3 -0.003414 -0.001913 0.007618 0.000000 0.000000 0.000000
# 4 0.000000 0.000000 0.000000 -0.385682 0.000000 0.000000
# 5 0.000000 0.000000 0.000000 0.000000 0.068476 0.000000
# 6 0.000000 0.000000 0.000000 0.000000 0.000000 0.081145
#
#
# Mechanical properties :
#
#
# Convention : Reuss Voigt Hill
#
# Bulk Modulus (GPa) = 20.16859 32.46846 26.31853
# Shear Modulus (GPa) = -36.60398 17.34247 -9.63076
#
# Velocity S-wave (km/s) = -4.30408 2.96259 -2.20773
# Velocity P-wave (km/s) = 3.80695 5.30421 2.61168
#
# Compressibility (1/GPa) = 0.04958204
#
# Stress axis : x y z
#
# Youngs Moduli (GPa) = 25.56426 51.21812 131.27299
#
# Poissons Ratio (x) = 0.15424 0.44820
# Poissons Ratio (y) = 0.07698 0.25112
# Poissons Ratio (z) = 0.08728 0.09798
#
# Static dielectric constant tensor:
#      x y z
#    x 1.671630 0.000000 0.000000 
#    y 0.000000 1.760250 0.000000 
#    z 0.000000 0.000000 1.698250 
# 
# From -- ./inp_files/21826.got.cif
#   From: 2010.05.17/outbox.cif.g08.bks.cpg/sg55_11_cif.got.tgz:21826.got - 2010.06.03 13:27:54.
