data_PCOD9424807
_publ_section_title
;
Structure prediction by ZEFSAII (Michael W. Deem and Ramdas Pophale) SiO2 
 PCOD9424807
Probable space group: P B A M
;
_chemical_formula_sum "Si O2"
_cell_formula_units_Z 48
_cell_length_a 18.312117
_cell_length_b 10.832270
_cell_length_c 10.378673
_cell_angle_alpha 90.000000
_cell_angle_beta 90.000000
_cell_angle_gamma 90.000000
_cell_volume 2058.732212
_symmetry_space_group_name_H-M "P B A M"
_symmetry_group_IT_number 55
_symmetry_cell_setting 'orthorhombic'
loop_
_space_group_symop_operation_xyz
x,y,z
-x,-y,z
1/2+x,1/2-y,-z
1/2-x,1/2+y,-z
-x,-y,-z
x,y,-z
1/2-x,1/2+y,z
1/2+x,1/2-y,z
loop_
_atom_site_type_symbol
_atom_site_label
_atom_site_fract_x
_atom_site_fract_y
_atom_site_fract_z
Si Si1 0.286760 0.136786 0.757205
Si Si2 0.360188 0.569632 0.360745
Si Si3 0.723823 0.124406 0.142333
Si Si4 0.614187 0.050988 0.350898
Si Si5 0.569841 0.591755 0.852666
Si Si6 0.999436 0.745872 0.644442
O O1 0.219968 0.127028 0.656247
O O2 0.265841 0.024442 0.854965
O O3 0.361492 0.086682 0.692525
O O4 0.283467 0.271598 0.819838
O O5 0.362245 0.504667 0.500000
O O6 0.375378 0.480219 0.241449
O O7 0.427611 0.664734 0.361132
O O8 0.663353 0.132050 0.253840
O O9 0.697377 0.158169 0.000000
O O10 0.635594 0.065138 0.500000
O O11 0.534765 0.110695 0.339892
O O12 0.500000 0.500000 0.862254
O O13 0.543020 0.707327 0.768206
O O14 0.594240 0.615446 0.000000
O O15 0.033125 0.754828 0.500000
#
# Coordination Sequence:
#
# PCOD9424807 Si02
#       6
#     8   8   8   8   8   8
#     4  10  20  34  52  76 105 137 177 207 258 304
#     4  10  17  29  48  69  97 134 168 210 257 306
#     4  10  21  34  50  72 104 140 174 209 254 307
#     4   9  19  32  50  73 100 132 171 210 250 300
#     4   9  18  28  41  67  97 130 168 210 255 304
#     4   9  16  30  46  67  96 132 170 207 252 303
#
# _framework density 23.315318999999999
#
# number of rings (size 3 to 8) (size 9 to 14) (size 15 to 20)
#    1.000    1.500    1.667    1.500    0.000    4.667 
#    0.000    0.000    0.000    0.000    0.000    1.167 
#    0.000    6.667    0.000    0.000    0.000    0.000 
#
# Total GULP energy -267276.607116 kJ/mol
# GULP energy per Si atom -5568.262648 kJ/mol
# Density = 2.326225 g / cm^3
# Si number density = 23.315319 Si / 1000 Ang^3
#
#
#
# Elastic Constant Matrix: (Units=GPa)
#
#
# Indices 1 2 3 4 5 6 
#
# 1 39.3676 35.0160 36.9994 0.0000 0.0000 0.0000
# 2 35.0160 130.2020 75.9491 0.0000 0.0000 0.0000
# 3 36.9994 75.9491 204.5451 0.0000 0.0000 0.0000
# 4 0.0000 0.0000 0.0000 13.3945 0.0000 0.0000
# 5 0.0000 0.0000 0.0000 0.0000 32.8511 0.0000
# 6 0.0000 0.0000 0.0000 0.0000 0.0000 40.2130
#
#
#
# Elastic Compliance Matrix: (Units=1/GPa)
#
#
# Indices 1 2 3 4 5 6 
#
# 1 0.035415 -0.007388 -0.003663 0.000000 0.000000 0.000000
# 2 -0.007388 0.011345 -0.002876 0.000000 0.000000 0.000000
# 3 -0.003663 -0.002876 0.006619 0.000000 0.000000 0.000000
# 4 0.000000 0.000000 0.000000 0.074657 0.000000 0.000000
# 5 0.000000 0.000000 0.000000 0.000000 0.030440 0.000000
# 6 0.000000 0.000000 0.000000 0.000000 0.000000 0.024868
#
#
# Mechanical properties :
#
#
# Convention : Reuss Voigt Hill
#
# Bulk Modulus (GPa) = 39.17583 74.44930 56.81256
# Shear Modulus (GPa) = 22.75754 32.36840 27.56297
#
# Velocity S-wave (km/s) = 3.12761 3.73002 3.44202
# Velocity P-wave (km/s) = 5.46642 7.10996 6.34166
#
# Compressibility (1/GPa) = 0.02552594
#
# Stress axis : x y z
#
# Youngs Moduli (GPa) = 28.23627 88.14548 151.07094
#
# Poissons Ratio (x) = 0.65120 0.55338
# Poissons Ratio (y) = 0.20860 0.43449
# Poissons Ratio (z) = 0.10343 0.25351
#
# Static dielectric constant tensor:
#      x y z
#    x 1.938850 0.000000 0.000000 
#    y 0.000000 1.911400 0.000000 
#    z 0.000000 0.000000 1.824260 
# 
# From -- ./inp_files/9498.got.cif
#   From: 2010.05.17/outbox.cif.g08.bks.cpg/sg55_5_cif.got.tgz:9498.got - 2010.06.03 13:27:54.
