data_PCOD9424834
_publ_section_title
;
Structure prediction by ZEFSAII (Michael W. Deem and Ramdas Pophale) SiO2 
 PCOD9424834
Probable space group: P B A M
;
_chemical_formula_sum "Si O2"
_cell_formula_units_Z 48
_cell_length_a 29.963840
_cell_length_b 5.301031
_cell_length_c 16.037242
_cell_angle_alpha 90.000000
_cell_angle_beta 90.000000
_cell_angle_gamma 90.000000
_cell_volume 2547.343407
_symmetry_space_group_name_H-M "P B A M"
_symmetry_group_IT_number 55
_symmetry_cell_setting 'orthorhombic'
loop_
_space_group_symop_operation_xyz
x,y,z
-x,-y,z
1/2+x,1/2-y,-z
1/2-x,1/2+y,-z
-x,-y,-z
x,y,-z
1/2-x,1/2+y,z
1/2+x,1/2-y,z
loop_
_atom_site_type_symbol
_atom_site_label
_atom_site_fract_x
_atom_site_fract_y
_atom_site_fract_z
Si Si1 0.778957 0.360912 0.902373
Si Si2 0.434147 0.840042 0.590730
Si Si3 0.500000 0.500000 0.331060
Si Si4 0.849180 0.923365 0.654029
Si Si5 0.451077 0.126179 0.756057
Si Si6 0.144357 0.574938 0.767987
Si Si7 0.219561 0.067697 0.500000
O O1 0.745228 0.593747 0.887347
O O2 0.820352 0.393153 0.841368
O O3 0.791854 0.370968 0.000000
O O4 0.429922 0.953695 0.500000
O O5 0.481306 0.708627 0.607712
O O6 0.395271 0.636005 0.604974
O O7 0.433348 0.029136 0.666767
O O8 0.537992 0.586129 0.266265
O O9 0.845385 0.683611 0.717110
O O10 0.810992 0.929479 0.583411
O O11 0.850856 0.182669 0.706267
O O12 0.406279 0.077017 0.806884
O O13 0.500000 0.000000 0.775609
O O14 0.250440 0.316102 0.500000
#
# Coordination Sequence:
#
# PCOD9424834 Si02
#       7
#     8   8   4   8   8   8   4
#     4  10  22  41  66  97 124 144 180 242 304 359
#     4  10  19  32  48  71 105 145 194 245 294 322
#     4  10  17  32  48  74 101 144 192 242 287 336
#     4  11  23  39  56  82 113 154 199 244 281 340
#     4   9  20  33  50  78 114 150 198 241 286 342
#     4  11  22  39  63  87 115 157 195 234 299 355
#     4  12  26  42  56  77 110 156 201 250 292 332
#
# _framework density 18.843159
#
# number of rings (size 3 to 8) (size 9 to 14) (size 15 to 20)
#    0.000    1.667    2.500    2.250    0.000    7.667 
#    1.500    0.000    0.000    0.500    0.000    0.583 
#    0.000    0.000    0.000    0.000    0.000    0.000 
#
# Total GULP energy -267375.883569 kJ/mol
# GULP energy per Si atom -5570.330908 kJ/mol
# Density = 1.880027 g / cm^3
# Si number density = 18.843159 Si / 1000 Ang^3
#
#
#
# Elastic Constant Matrix: (Units=GPa)
#
#
# Indices 1 2 3 4 5 6 
#
# 1 116.3783 20.6768 43.2671 0.0000 0.0000 0.0000
# 2 20.6768 91.5664 6.2235 0.0000 0.0000 0.0000
# 3 43.2671 6.2235 38.4915 0.0000 0.0000 0.0000
# 4 0.0000 0.0000 0.0000 12.4314 0.0000 0.0000
# 5 0.0000 0.0000 0.0000 0.0000 13.8518 0.0000
# 6 0.0000 0.0000 0.0000 0.0000 0.0000 28.0421
#
#
#
# Elastic Compliance Matrix: (Units=1/GPa)
#
#
# Indices 1 2 3 4 5 6 
#
# 1 0.015226 -0.002300 -0.016743 0.000000 0.000000 0.000000
# 2 -0.002300 0.011390 0.000744 0.000000 0.000000 0.000000
# 3 -0.016743 0.000744 0.044680 0.000000 0.000000 0.000000
# 4 0.000000 0.000000 0.000000 0.080441 0.000000 0.000000
# 5 0.000000 0.000000 0.000000 0.000000 0.072193 0.000000
# 6 0.000000 0.000000 0.000000 0.000000 0.000000 0.035661
#
#
# Mechanical properties :
#
#
# Convention : Reuss Voigt Hill
#
# Bulk Modulus (GPa) = 28.82079 42.97455 35.89767
# Shear Modulus (GPa) = 16.24664 22.61632 19.43148
#
# Velocity S-wave (km/s) = 2.93952 3.46821 3.21475
# Velocity P-wave (km/s) = 5.18163 6.23650 5.73338
#
# Compressibility (1/GPa) = 0.03469717
#
# Stress axis : x y z
#
# Youngs Moduli (GPa) = 65.67623 87.79716 22.38126
#
# Poissons Ratio (x) = 0.20196 0.37474
# Poissons Ratio (y) = 0.15107 -0.01665
# Poissons Ratio (z) = 1.09964 -0.06533
#
# Static dielectric constant tensor:
#      x y z
#    x 1.751050 0.000000 0.000000 
#    y 0.000000 1.710690 0.000000 
#    z 0.000000 0.000000 1.634730 
# 
# From -- ./inp_files/20063.got.cif
#   From: 2010.05.17/outbox.cif.g08.bks.cpg/sg55_11_cif.got.tgz:20063.got - 2010.06.03 13:27:54.
