data_PCOD9424345
_publ_section_title
;
Structure prediction by ZEFSAII (Michael W. Deem and Ramdas Pophale) SiO2 
 PCOD9424345
Probable space group: P C C A
;
_chemical_formula_sum "Si O2"
_cell_formula_units_Z 48
_cell_length_a 8.818974
_cell_length_b 9.253086
_cell_length_c 26.909026
_cell_angle_alpha 90.000000
_cell_angle_beta 90.000000
_cell_angle_gamma 90.000000
_cell_volume 2195.849845
_symmetry_space_group_name_H-M "P C C A"
_symmetry_group_IT_number 54
_symmetry_cell_setting 'orthorhombic'
loop_
_space_group_symop_operation_xyz
x,y,z
1/2-x,-y,z
1/2+x,-y,1/2-z
-x,y,1/2-z
-x,-y,-z
1/2+x,y,-z
1/2-x,y,1/2+z
x,-y,1/2+z
loop_
_atom_site_type_symbol
_atom_site_label
_atom_site_fract_x
_atom_site_fract_y
_atom_site_fract_z
Si Si1 0.583297 0.065098 0.547423
Si Si2 0.618295 0.093814 0.369708
Si Si3 0.184587 0.350015 0.122784
Si Si4 0.317087 0.839674 0.824772
Si Si5 0.820340 0.347005 0.259388
Si Si6 0.340035 0.648955 0.409995
O O1 0.616403 0.237033 0.546539
O O2 0.750000 0.000000 0.552021
O O3 0.500000 0.000000 0.500000
O O4 0.479715 0.009605 0.593585
O O5 0.712540 0.219073 0.398226
O O6 0.497114 0.154718 0.331307
O O7 0.750000 0.000000 0.344962
O O8 0.250000 0.500000 0.104312
O O9 0.206498 0.333419 0.181998
O O10 0.005773 0.366416 0.114300
O O11 0.259288 0.773614 0.773638
O O12 0.257766 0.738316 0.869653
O O13 0.250000 0.000000 0.830007
O O14 0.750000 0.500000 0.242890
O O15 0.000000 0.344399 0.250000
O O16 0.250000 0.500000 0.421513
#
# Coordination Sequence:
#
# PCOD9424345 Si02
#       6
#     8   8   8   8   8   8
#     4  12  26  49  77 107 141 183 226 295 371 444
#     4  12  23  44  71 101 138 183 242 284 362 433
#     4  11  25  41  68 102 141 189 243 296 344 417
#     4  12  23  44  69  98 143 192 239 298 352 421
#     4  11  26  43  63  98 142 193 240 293 354 404
#     4  12  23  46  75 105 139 191 237 289 359 434
#
# _framework density 21.859418000000002
#
# number of rings (size 3 to 8) (size 9 to 14) (size 15 to 20)
#    0.000    0.333    6.667    2.000    4.667    0.667 
#    0.000    1.667    0.000    0.000    0.000    0.000 
#    0.000    0.000    0.000    0.000    0.000    0.000 
#
# Total GULP energy -268193.148721 kJ/mol
# GULP energy per Si atom -5587.357265 kJ/mol
# Density = 2.180966 g / cm^3
# Si number density = 21.859418 Si / 1000 Ang^3
#
#
#
# Elastic Constant Matrix: (Units=GPa)
#
#
# Indices 1 2 3 4 5 6 
#
# 1 210.5934 77.2039 28.5181 0.0000 0.0000 0.0000
# 2 77.2039 171.8632 24.4431 0.0000 0.0000 0.0000
# 3 28.5181 24.4431 51.4989 0.0000 0.0000 0.0000
# 4 0.0000 0.0000 0.0000 13.8557 0.0000 0.0000
# 5 0.0000 0.0000 0.0000 0.0000 41.3942 0.0000
# 6 0.0000 0.0000 0.0000 0.0000 0.0000 58.9931
#
#
#
# Elastic Compliance Matrix: (Units=1/GPa)
#
#
# Indices 1 2 3 4 5 6 
#
# 1 0.005899 -0.002344 -0.002154 0.000000 0.000000 0.000000
# 2 -0.002344 0.007171 -0.002106 0.000000 0.000000 0.000000
# 3 -0.002154 -0.002106 0.021610 0.000000 0.000000 0.000000
# 4 0.000000 0.000000 0.000000 0.072172 0.000000 0.000000
# 5 0.000000 0.000000 0.000000 0.000000 0.024158 0.000000
# 6 0.000000 0.000000 0.000000 0.000000 0.000000 0.016951
#
#
# Mechanical properties :
#
#
# Convention : Reuss Voigt Hill
#
# Bulk Modulus (GPa) = 46.57019 77.14287 61.85653
# Shear Modulus (GPa) = 29.70397 43.10130 36.40263
#
# Velocity S-wave (km/s) = 3.69028 4.44526 4.08524
# Velocity P-wave (km/s) = 6.28555 7.85583 7.11415
#
# Compressibility (1/GPa) = 0.02147297
#
# Stress axis : x y z
#
# Youngs Moduli (GPa) = 169.50723 139.45258 46.27402
#
# Poissons Ratio (x) = 0.32684 0.09970
# Poissons Ratio (y) = 0.39728 0.09744
# Poissons Ratio (z) = 0.36520 0.29364
#
# Static dielectric constant tensor:
#      x y z
#    x 1.825330 0.000000 0.000000 
#    y 0.000000 1.867030 0.000000 
#    z 0.000000 0.000000 1.811380 
# 
# From -- ./inp_files/27724.got.cif
#   From: 2010.05.17/outbox.cif.g08.bks.cpg/sg54_14_cif.got.tgz:27724.got - 2010.06.03 13:09:01.
