data_PCOD9424727
_publ_section_title
;
Structure prediction by ZEFSAII (Michael W. Deem and Ramdas Pophale) SiO2 
 PCOD9424727
Probable space group: P B A M
;
_chemical_formula_sum "Si O2"
_cell_formula_units_Z 24
_cell_length_a 13.940616
_cell_length_b 5.089999
_cell_length_c 13.831356
_cell_angle_alpha 90.000000
_cell_angle_beta 90.000000
_cell_angle_gamma 90.000000
_cell_volume 981.441507
_symmetry_space_group_name_H-M "P B A M"
_symmetry_group_IT_number 55
_symmetry_cell_setting 'orthorhombic'
loop_
_space_group_symop_operation_xyz
x,y,z
-x,-y,z
1/2+x,1/2-y,-z
1/2-x,1/2+y,-z
-x,-y,-z
x,y,-z
1/2-x,1/2+y,z
1/2+x,1/2-y,z
loop_
_atom_site_type_symbol
_atom_site_label
_atom_site_fract_x
_atom_site_fract_y
_atom_site_fract_z
Si Si1 0.384275 0.045116 0.698720
Si Si2 0.311064 0.732207 0.000000
Si Si3 0.070961 0.746549 0.500000
Si Si4 0.386390 0.540307 0.798096
O O1 0.369328 0.197708 0.597742
O O2 0.349184 0.245892 0.781026
O O3 0.500000 0.000000 0.705847
O O4 0.349720 0.750148 0.718474
O O5 0.367339 0.658175 0.902892
O O6 0.279673 0.034051 0.000000
O O7 0.000000 0.500000 0.500000
O O8 0.000000 0.000000 0.500000
O O9 0.500000 0.500000 0.785176
#
# Coordination Sequence:
#
# PCOD9424727 Si02
#       4
#     8   4   4   8
#     4   9  17  29  50  80 112 142 174 216 268 320
#     4  12  25  40  57  80 106 142 186 234 285 330
#     4  10  16  26  46  80 118 144 168 214 269 318
#     4  10  20  36  56  80 109 143 182 224 271 328
#
# _framework density 24.453824999999998
#
# number of rings (size 3 to 8) (size 9 to 14) (size 15 to 20)
#    0.000    2.000    0.000    7.500    0.000    0.000 
#    0.000    6.667    0.000    0.000    0.000   23.333 
#    0.000    0.000    0.000    0.000    0.000    0.000 
#
# Total GULP energy -133987.882353 kJ/mol
# GULP energy per Si atom -5582.828431 kJ/mol
# Density = 2.439817 g / cm^3
# Si number density = 24.453825 Si / 1000 Ang^3
#
#
#
# Elastic Constant Matrix: (Units=GPa)
#
#
# Indices 1 2 3 4 5 6 
#
# 1 71.4238 -0.2123 -5.5040 0.0000 0.0000 0.0000
# 2 -0.2123 148.3419 72.3364 0.0000 0.0000 0.0000
# 3 -5.5040 72.3364 127.7777 0.0000 0.0000 0.0000
# 4 0.0000 0.0000 0.0000 39.0227 0.0000 0.0000
# 5 0.0000 0.0000 0.0000 0.0000 23.0654 0.0000
# 6 0.0000 0.0000 0.0000 0.0000 0.0000 11.3355
#
#
#
# Elastic Compliance Matrix: (Units=1/GPa)
#
#
# Indices 1 2 3 4 5 6 
#
# 1 0.014063 -0.000380 0.000821 0.000000 0.000000 0.000000
# 2 -0.000380 0.009322 -0.005294 0.000000 0.000000 0.000000
# 3 0.000821 -0.005294 0.010858 0.000000 0.000000 0.000000
# 4 0.000000 0.000000 0.000000 0.025626 0.000000 0.000000
# 5 0.000000 0.000000 0.000000 0.000000 0.043355 0.000000
# 6 0.000000 0.000000 0.000000 0.000000 0.000000 0.088219
#
#
# Mechanical properties :
#
#
# Convention : Reuss Voigt Hill
#
# Bulk Modulus (GPa) = 40.75382 53.42039 47.08710
# Shear Modulus (GPa) = 23.88595 33.41293 28.64944
#
# Velocity S-wave (km/s) = 3.12874 3.70045 3.42654
# Velocity P-wave (km/s) = 5.45470 6.33645 5.91204
#
# Compressibility (1/GPa) = 0.02453758
#
# Stress axis : x y z
#
# Youngs Moduli (GPa) = 71.10821 107.27306 92.09576
#
# Poissons Ratio (x) = 0.04079 -0.07561
# Poissons Ratio (y) = 0.02704 0.48752
# Poissons Ratio (z) = -0.05838 0.56787
#
# Static dielectric constant tensor:
#      x y z
#    x 1.933110 0.000000 0.000000 
#    y 0.000000 1.898790 0.000000 
#    z 0.000000 0.000000 2.048640 
# 
# From -- ./inp_files/11034.got.cif
#   From: 2010.05.17/outbox.cif.g08.bks.cpg/sg55_6_cif.got.tgz:11034.got - 2010.06.03 13:27:54.
