data_PCOD9424497
_publ_section_title
;
Structure prediction by ZEFSAII (Michael W. Deem and Ramdas Pophale) SiO2 
 PCOD9424497
Probable space group: P C C A
;
_chemical_formula_sum "Si O2"
_cell_formula_units_Z 40
_cell_length_a 8.970543
_cell_length_b 7.088425
_cell_length_c 24.999351
_cell_angle_alpha 90.000000
_cell_angle_beta 90.000000
_cell_angle_gamma 90.000000
_cell_volume 1589.634264
_symmetry_space_group_name_H-M "P C C A"
_symmetry_group_IT_number 54
_symmetry_cell_setting 'orthorhombic'
loop_
_space_group_symop_operation_xyz
x,y,z
1/2-x,-y,z
1/2+x,-y,1/2-z
-x,y,1/2-z
-x,-y,-z
1/2+x,y,-z
1/2-x,y,1/2+z
x,-y,1/2+z
loop_
_atom_site_type_symbol
_atom_site_label
_atom_site_fract_x
_atom_site_fract_y
_atom_site_fract_z
Si Si1 0.331204 0.806379 0.064311
Si Si2 0.575036 0.758577 0.328574
Si Si3 0.264895 0.227960 0.775981
Si Si4 0.467371 0.291630 0.020377
Si Si5 0.596828 0.123572 0.130200
O O1 0.374280 0.681068 0.114813
O O2 0.208493 0.718683 0.026503
O O3 0.250000 0.000000 0.080211
O O4 0.476076 0.835792 0.028870
O O5 0.706857 0.725452 0.285996
O O6 0.418517 0.700465 0.302695
O O7 0.525049 0.975028 0.345788
O O8 0.137872 0.263818 0.820216
O O9 0.250000 0.000000 0.772391
O O10 0.541573 0.230155 0.077071
O O11 0.500000 0.500000 0.000000
O O12 0.750000 0.000000 0.118830
#
# Coordination Sequence:
#
# PCOD9424497 Si02
#       5
#     8   8   8   8   8
#     4  12  24  40  67  92 127 168 229 285 329 393
#     4   9  17  33  57  99 125 162 211 278 326 387
#     4   8  16  29  57  94 135 157 201 278 337 392
#     4  12  27  43  59  93 132 183 218 272 340 406
#     4   9  19  36  62  93 137 173 218 277 335 398
#
# _framework density 25.163022000000002
#
# number of rings (size 3 to 8) (size 9 to 14) (size 15 to 20)
#    0.000    2.400    2.000    2.400    5.600    0.000 
#    0.000    0.000    0.000    0.000   20.800    0.000 
#    0.000    0.000    0.000    0.000    0.000    0.000 
#
# Total GULP energy -222886.978527 kJ/mol
# GULP energy per Si atom -5572.174463 kJ/mol
# Density = 2.510575 g / cm^3
# Si number density = 25.163022 Si / 1000 Ang^3
#
#
#
# Elastic Constant Matrix: (Units=GPa)
#
#
# Indices 1 2 3 4 5 6 
#
# 1 68.8873 15.1062 34.3267 0.0000 0.0000 0.0000
# 2 15.1062 68.8606 12.6712 0.0000 0.0000 0.0000
# 3 34.3267 12.6712 187.0029 0.0000 0.0000 0.0000
# 4 0.0000 0.0000 0.0000 -7.7139 0.0000 0.0000
# 5 0.0000 0.0000 0.0000 0.0000 53.3240 0.0000
# 6 0.0000 0.0000 0.0000 0.0000 0.0000 16.0180
#
#
#
# Elastic Compliance Matrix: (Units=1/GPa)
#
#
# Indices 1 2 3 4 5 6 
#
# 1 0.016616 -0.003123 -0.002838 0.000000 0.000000 0.000000
# 2 -0.003123 0.015292 -0.000463 0.000000 0.000000 0.000000
# 3 -0.002838 -0.000463 0.005900 0.000000 0.000000 0.000000
# 4 0.000000 0.000000 0.000000 -0.129636 0.000000 0.000000
# 5 0.000000 0.000000 0.000000 0.000000 0.018753 0.000000
# 6 0.000000 0.000000 0.000000 0.000000 0.000000 0.062430
#
#
# Mechanical properties :
#
#
# Convention : Reuss Voigt Hill
#
# Bulk Modulus (GPa) = 40.06471 49.88434 44.97453
# Shear Modulus (GPa) = 475.15504 29.83541 252.49522
#
# Velocity S-wave (km/s) = 13.75648 3.44711 10.02804
# Velocity P-wave (km/s) = 16.37918 5.97586 12.32859
#
# Compressibility (1/GPa) = 0.02495962
#
# Stress axis : x y z
#
# Youngs Moduli (GPa) = 60.18432 65.39230 169.49424
#
# Poissons Ratio (x) = 0.20420 0.48109
# Poissons Ratio (y) = 0.18794 0.07847
# Poissons Ratio (z) = 0.17083 0.03028
#
# Static dielectric constant tensor:
#      x y z
#    x 2.008540 0.000000 0.000000 
#    y 0.000000 2.139770 0.000000 
#    z 0.000000 0.000000 2.091050 
# 
# From -- ./inp_files/23192.got.cif
#   From: 2010.05.17/outbox.cif.g08.bks.cpg/sg54_12_cif.got.tgz:23192.got - 2010.06.03 13:09:01.
