data_PCOD9424579
_publ_section_title
;
Structure prediction by ZEFSAII (Michael W. Deem and Ramdas Pophale) SiO2 
 PCOD9424579
Probable space group: P C C A
;
_chemical_formula_sum "Si O2"
_cell_formula_units_Z 28
_cell_length_a 19.120668
_cell_length_b 10.103699
_cell_length_c 5.515447
_cell_angle_alpha 90.000000
_cell_angle_beta 90.000000
_cell_angle_gamma 90.000000
_cell_volume 1065.526306
_symmetry_space_group_name_H-M "P C C A"
_symmetry_group_IT_number 54
_symmetry_cell_setting 'orthorhombic'
loop_
_space_group_symop_operation_xyz
x,y,z
1/2-x,-y,z
1/2+x,-y,1/2-z
-x,y,1/2-z
-x,-y,-z
1/2+x,y,-z
1/2-x,y,1/2+z
x,-y,1/2+z
loop_
_atom_site_type_symbol
_atom_site_label
_atom_site_fract_x
_atom_site_fract_y
_atom_site_fract_z
Si Si1 0.500000 0.785889 0.250000
Si Si2 0.589342 0.452360 0.877181
Si Si3 0.792921 0.331929 0.903350
Si Si4 0.395419 0.081791 0.045050
O O1 0.567808 0.698321 0.324487
O O2 0.526491 0.864443 0.015673
O O3 0.560250 0.477902 0.140215
O O4 0.663712 0.529878 0.902692
O O5 0.751387 0.321643 0.650846
O O6 0.846788 0.209899 0.915193
O O7 0.382642 0.005925 0.786537
#
# Coordination Sequence:
#
# PCOD9424579 Si02
#       4
#     4   8   8   8
#     4  12  28  54  80 124 166 206 266 346 402 496
#     4  12  27  48  81 116 162 208 256 332 422 470
#     4  12  28  52  80 116 160 208 269 330 395 481
#     4  12  29  52  82 116 155 219 272 326 397 468
#
# _framework density 26.278091
#
# number of rings (size 3 to 8) (size 9 to 14) (size 15 to 20)
#    0.000    0.000    2.857    5.143    4.000    9.143 
#    0.000    0.000    0.000    0.000    0.000    0.000 
#    0.000    0.000    0.000    0.000    0.000    0.000 
#
# Total GULP energy -156431.106170 kJ/mol
# GULP energy per Si atom -5586.825220 kJ/mol
# Density = 2.621828 g / cm^3
# Si number density = 26.278091 Si / 1000 Ang^3
#
#
#
# Elastic Constant Matrix: (Units=GPa)
#
#
# Indices 1 2 3 4 5 6 
#
# 1 110.5605 72.4619 78.8364 0.0000 0.0000 0.0000
# 2 72.4619 138.7179 61.5510 0.0000 0.0000 0.0000
# 3 78.8364 61.5510 273.7430 0.0000 0.0000 0.0000
# 4 0.0000 0.0000 0.0000 290.2748 0.0000 0.0000
# 5 0.0000 0.0000 0.0000 0.0000 62.5565 0.0000
# 6 0.0000 0.0000 0.0000 0.0000 0.0000 103.8827
#
#
#
# Elastic Compliance Matrix: (Units=1/GPa)
#
#
# Indices 1 2 3 4 5 6 
#
# 1 0.015658 -0.006863 -0.002966 0.000000 0.000000 0.000000
# 2 -0.006863 0.011016 -0.000500 0.000000 0.000000 0.000000
# 3 -0.002966 -0.000500 0.004620 0.000000 0.000000 0.000000
# 4 0.000000 0.000000 0.000000 0.003445 0.000000 0.000000
# 5 0.000000 0.000000 0.000000 0.000000 0.015986 0.000000
# 6 0.000000 0.000000 0.000000 0.000000 0.000000 0.009626
#
#
# Mechanical properties :
#
#
# Convention : Reuss Voigt Hill
#
# Bulk Modulus (GPa) = 94.03502 105.41333 99.72418
# Shear Modulus (GPa) = 59.13308 112.02095 85.57701
#
# Velocity S-wave (km/s) = 4.74886 6.53617 5.71285
# Velocity P-wave (km/s) = 8.11980 9.85717 9.03036
#
# Compressibility (1/GPa) = 0.01063434
#
# Stress axis : x y z
#
# Youngs Moduli (GPa) = 63.86480 90.77718 216.45754
#
# Poissons Ratio (x) = 0.62301 0.64207
# Poissons Ratio (y) = 0.43831 0.10832
# Poissons Ratio (z) = 0.18944 0.04542
#
# Static dielectric constant tensor:
#      x y z
#    x 1.999350 0.000000 0.000000 
#    y 0.000000 2.107280 0.000000 
#    z 0.000000 0.000000 2.001180 
# 
# From -- ./inp_files/1131.got.cif
#   From: 2010.05.17/outbox.cif.g08.bks.cpg/sg54_1_cif.got.tgz:1131.got - 2010.06.03 13:09:01.
