data_PCOD9424432
_publ_section_title
;
Structure prediction by ZEFSAII (Michael W. Deem and Ramdas Pophale) SiO2 
 PCOD9424432
Probable space group: P C C A
;
_chemical_formula_sum "Si O2"
_cell_formula_units_Z 32
_cell_length_a 9.669054
_cell_length_b 14.782967
_cell_length_c 9.919469
_cell_angle_alpha 90.000000
_cell_angle_beta 90.000000
_cell_angle_gamma 90.000000
_cell_volume 1417.862178
_symmetry_space_group_name_H-M "P C C A"
_symmetry_group_IT_number 54
_symmetry_cell_setting 'orthorhombic'
loop_
_space_group_symop_operation_xyz
x,y,z
1/2-x,-y,z
1/2+x,-y,1/2-z
-x,y,1/2-z
-x,-y,-z
1/2+x,y,-z
1/2-x,y,1/2+z
x,-y,1/2+z
loop_
_atom_site_type_symbol
_atom_site_label
_atom_site_fract_x
_atom_site_fract_y
_atom_site_fract_z
Si Si1 0.908199 0.968456 0.126514
Si Si2 0.634845 0.245441 0.173493
Si Si3 0.803294 0.342701 0.399438
Si Si4 0.000000 0.478444 0.250000
Si Si5 0.750000 0.500000 0.066568
O O1 0.887614 0.861593 0.154357
O O2 0.000000 0.005563 0.250000
O O3 0.750000 0.000000 0.115265
O O4 0.000000 0.000000 0.000000
O O5 0.500000 0.280861 0.250000
O O6 0.753730 0.281425 0.274627
O O7 0.652541 0.281041 0.023264
O O8 0.702817 0.416159 0.473048
O O9 0.920788 0.410370 0.349465
O O10 0.121983 0.526671 0.335460
#
# Coordination Sequence:
#
# PCOD9424432 Si02
#       5
#     8   8   8   4   4
#     4  11  27  49  80 114 156 201 256 324 407 497
#     4  11  28  47  74 111 148 200 258 327 396 479
#     4  12  26  47  74 105 153 199 264 322 395 459
#     4  12  26  46  74 108 140 214 258 334 388 468
#     4  12  26  48  74 106 154 204 270 326 392 464
#
# _framework density 22.569189000000001
#
# number of rings (size 3 to 8) (size 9 to 14) (size 15 to 20)
#    0.000    0.500    2.500    3.750   12.250    0.000 
#    0.000    0.000    0.000    0.000    0.000    0.000 
#    0.000    0.000    0.000    0.000    0.000    0.000 
#
# Total GULP energy -178706.445011 kJ/mol
# GULP energy per Si atom -5584.576407 kJ/mol
# Density = 2.251782 g / cm^3
# Si number density = 22.569189 Si / 1000 Ang^3
#
#
#
# Elastic Constant Matrix: (Units=GPa)
#
#
# Indices 1 2 3 4 5 6 
#
# 1 128.1107 36.9833 60.1135 0.0000 0.0000 0.0000
# 2 36.9833 96.5292 45.7789 0.0000 0.0000 0.0000
# 3 60.1135 45.7789 184.8250 0.0000 0.0000 0.0000
# 4 0.0000 0.0000 0.0000 35.2626 0.0000 0.0000
# 5 0.0000 0.0000 0.0000 0.0000 36.4703 0.0000
# 6 0.0000 0.0000 0.0000 0.0000 0.0000 24.5369
#
#
#
# Elastic Compliance Matrix: (Units=1/GPa)
#
#
# Indices 1 2 3 4 5 6 
#
# 1 0.009725 -0.002522 -0.002538 0.000000 0.000000 0.000000
# 2 -0.002522 0.012393 -0.002249 0.000000 0.000000 0.000000
# 3 -0.002538 -0.002249 0.006793 0.000000 0.000000 0.000000
# 4 0.000000 0.000000 0.000000 0.028359 0.000000 0.000000
# 5 0.000000 0.000000 0.000000 0.000000 0.027420 0.000000
# 6 0.000000 0.000000 0.000000 0.000000 0.000000 0.040755
#
#
# Mechanical properties :
#
#
# Convention : Reuss Voigt Hill
#
# Bulk Modulus (GPa) = 69.97188 77.24625 73.60907
# Shear Modulus (GPa) = 34.52401 37.02656 35.77529
#
# Velocity S-wave (km/s) = 3.91538 4.05480 3.98570
# Velocity P-wave (km/s) = 7.17710 7.49817 7.33939
#
# Compressibility (1/GPa) = 0.01429145
#
# Stress axis : x y z
#
# Youngs Moduli (GPa) = 102.82907 80.69376 147.20647
#
# Poissons Ratio (x) = 0.20352 0.37365
# Poissons Ratio (y) = 0.25935 0.33109
# Poissons Ratio (z) = 0.26101 0.18149
#
# Static dielectric constant tensor:
#      x y z
#    x 1.923190 0.000000 0.000000 
#    y 0.000000 1.903560 0.000000 
#    z 0.000000 0.000000 1.818650 
# 
# From -- ./inp_files/2879.got.cif
#   From: 2010.05.17/outbox.cif.g08.bks.cpg/sg54_2_cif.got.tgz:2879.got - 2010.06.03 13:09:01.
