data_PCOD9424971
_publ_section_title
;
Structure prediction by ZEFSAII (Michael W. Deem and Ramdas Pophale) SiO2 
 PCOD9424971
Probable space group: P B A M
;
_chemical_formula_sum "Si O2"
_cell_formula_units_Z 64
_cell_length_a 24.024624
_cell_length_b 19.682221
_cell_length_c 8.630221
_cell_angle_alpha 90.000000
_cell_angle_beta 90.000000
_cell_angle_gamma 90.000000
_cell_volume 4080.868688
_symmetry_space_group_name_H-M "P B A M"
_symmetry_group_IT_number 55
_symmetry_cell_setting 'orthorhombic'
loop_
_space_group_symop_operation_xyz
x,y,z
-x,-y,z
1/2+x,1/2-y,-z
1/2-x,1/2+y,-z
-x,-y,-z
x,y,-z
1/2-x,1/2+y,z
1/2+x,1/2-y,z
loop_
_atom_site_type_symbol
_atom_site_label
_atom_site_fract_x
_atom_site_fract_y
_atom_site_fract_z
Si Si1 0.159874 0.762869 0.814585
Si Si2 0.223341 0.639004 0.685392
Si Si3 0.833353 0.776583 0.686649
Si Si4 0.246233 0.997434 0.814245
Si Si5 0.730139 0.153436 0.813474
Si Si6 0.064041 0.853312 0.312727
Si Si7 0.937208 0.863925 0.311072
Si Si8 0.879058 0.004179 0.687452
O O1 0.176320 0.689192 0.750109
O O2 0.210658 0.813121 0.765232
O O3 0.102992 0.794110 0.751945
O O4 0.159032 0.761043 0.000000
O O5 0.221395 0.638391 0.500000
O O6 0.282649 0.673092 0.732856
O O7 0.222464 0.562922 0.748480
O O8 0.833642 0.774327 0.500000
O O9 0.817398 0.702721 0.749270
O O10 0.891512 0.808719 0.739585
O O11 0.182446 0.999822 0.757025
O O12 0.271107 0.924766 0.763243
O O13 0.246836 0.999679 0.000000
O O14 0.728358 0.155284 0.000000
O O15 0.064743 0.850399 0.500000
O O16 0.000075 0.850475 0.259772
O O17 0.090951 0.925797 0.267465
O O18 0.937722 0.863334 0.500000
O O19 0.915047 0.938491 0.265965
O O20 0.874205 0.002903 0.500000
#
# Coordination Sequence:
#
# PCOD9424971 Si02
#       8
#     8   8   8   8   8   8   8   8
#     4  10  19  33  48  67  97 129 160 199 242 284
#     4  10  19  32  50  72  94 121 161 202 240 288
#     4   9  17  30  48  68  92 121 157 201 240 277
#     4  11  20  31  47  70  98 130 158 193 244 290
#     4   9  19  32  46  65  94 126 157 193 237 288
#     4  10  19  30  49  70  94 131 170 203 237 278
#     4   9  17  31  47  69  97 127 165 206 241 275
#     4  10  18  30  46  67  96 132 170 202 230 273
#
# _framework density 15.682936
#
# number of rings (size 3 to 8) (size 9 to 14) (size 15 to 20)
#    0.000    2.250    2.500    1.500    0.000    3.500 
#    0.000    1.250    0.000    1.500    0.000    0.875 
#    0.000    7.000    0.000    0.000    0.000    0.000 
#
# Total GULP energy -356984.035528 kJ/mol
# GULP energy per Si atom -5577.875555 kJ/mol
# Density = 1.564724 g / cm^3
# Si number density = 15.682936 Si / 1000 Ang^3
#
#
#
# Elastic Constant Matrix: (Units=GPa)
#
#
# Indices 1 2 3 4 5 6 
#
# 1 85.2017 59.2890 15.1168 0.0000 0.0000 0.0000
# 2 59.2890 132.4736 23.0368 0.0000 0.0000 0.0000
# 3 15.1168 23.0368 13.3018 0.0000 0.0000 0.0000
# 4 0.0000 0.0000 0.0000 22.7374 0.0000 0.0000
# 5 0.0000 0.0000 0.0000 0.0000 10.6483 0.0000
# 6 0.0000 0.0000 0.0000 0.0000 0.0000 20.6463
#
#
#
# Elastic Compliance Matrix: (Units=1/GPa)
#
#
# Indices 1 2 3 4 5 6 
#
# 1 0.017799 -0.006366 -0.009204 0.000000 0.000000 0.000000
# 2 -0.006366 0.013078 -0.015416 0.000000 0.000000 0.000000
# 3 -0.009204 -0.015416 0.112334 0.000000 0.000000 0.000000
# 4 0.000000 0.000000 0.000000 0.043980 0.000000 0.000000
# 5 0.000000 0.000000 0.000000 0.000000 0.093912 0.000000
# 6 0.000000 0.000000 0.000000 0.000000 0.000000 0.048435
#
#
# Mechanical properties :
#
#
# Convention : Reuss Voigt Hill
#
# Bulk Modulus (GPa) = 12.30883 47.31805 29.81344
# Shear Modulus (GPa) = 11.94486 19.70870 15.82678
#
# Velocity S-wave (km/s) = 2.76279 3.54884 3.18019
# Velocity P-wave (km/s) = 4.24770 6.85781 5.70405
#
# Compressibility (1/GPa) = 0.08124250
#
# Stress axis : x y z
#
# Youngs Moduli (GPa) = 56.18141 76.46181 8.90200
#
# Poissons Ratio (x) = 0.48674 0.08193
# Poissons Ratio (y) = 0.35764 0.13723
# Poissons Ratio (z) = 0.51707 1.17871
#
# Static dielectric constant tensor:
#      x y z
#    x 1.504080 0.000000 0.000000 
#    y 0.000000 1.521840 0.000000 
#    z 0.000000 0.000000 1.530000 
# 
# From -- ./inp_files/8083.got.cif
#   From: 2010.05.17/outbox.cif.g08.bks.cpg/sg55_5_cif.got.tgz:8083.got - 2010.06.03 13:27:54.
