data_PCOD9424109
_publ_section_title
;
Structure prediction by ZEFSAII (Michael W. Deem and Ramdas Pophale) SiO2 
 PCOD9424109
Probable space group: P C C A
;
_chemical_formula_sum "Si O2"
_cell_formula_units_Z 24
_cell_length_a 9.086672
_cell_length_b 8.730020
_cell_length_c 13.582156
_cell_angle_alpha 90.000000
_cell_angle_beta 90.000000
_cell_angle_gamma 90.000000
_cell_volume 1077.429357
_symmetry_space_group_name_H-M "P C C A"
_symmetry_group_IT_number 54
_symmetry_cell_setting 'orthorhombic'
loop_
_space_group_symop_operation_xyz
x,y,z
1/2-x,-y,z
1/2+x,-y,1/2-z
-x,y,1/2-z
-x,-y,-z
1/2+x,y,-z
1/2-x,y,1/2+z
x,-y,1/2+z
loop_
_atom_site_type_symbol
_atom_site_label
_atom_site_fract_x
_atom_site_fract_y
_atom_site_fract_z
Si Si1 0.637380 0.622269 0.183426
Si Si2 0.341462 0.157370 0.195314
Si Si3 0.624982 0.118752 0.527230
O O1 0.750000 0.500000 0.135249
O O2 0.500000 0.565002 0.250000
O O3 0.747396 0.711543 0.254871
O O4 0.586498 0.750400 0.104959
O O5 0.500000 0.143174 0.250000
O O6 0.250000 0.000000 0.204095
O O7 0.344359 0.192570 0.078949
O O8 0.750000 0.000000 0.563918
O O9 0.500000 0.000000 0.500000
#
# Coordination Sequence:
#
# PCOD9424109 Si02
#       3
#     8   8   8
#     4  12  26  44  65  95 135 177 221 278 347 412
#     4  11  22  41  68  98 131 172 223 278 333 401
#     4  11  23  41  69  99 128 173 229 280 332 401
#
# _framework density 22.275245000000002
#
# number of rings (size 3 to 8) (size 9 to 14) (size 15 to 20)
#    0.000    0.667    0.000   11.000    0.000    1.333 
#    0.000   10.000    0.000    0.000    0.000    0.000 
#    0.000    0.000    0.000    0.000    0.000    0.000 
#
# Total GULP energy -134092.709847 kJ/mol
# GULP energy per Si atom -5587.196244 kJ/mol
# Density = 2.222455 g / cm^3
# Si number density = 22.275245 Si / 1000 Ang^3
#
#
#
# Elastic Constant Matrix: (Units=GPa)
#
#
# Indices 1 2 3 4 5 6 
#
# 1 126.9233 25.6879 6.2970 0.0000 0.0000 0.0000
# 2 25.6879 60.3965 11.1599 0.0000 0.0000 0.0000
# 3 6.2970 11.1599 117.5066 0.0000 0.0000 0.0000
# 4 0.0000 0.0000 0.0000 99.2631 0.0000 0.0000
# 5 0.0000 0.0000 0.0000 0.0000 27.0423 0.0000
# 6 0.0000 0.0000 0.0000 0.0000 0.0000 34.0564
#
#
#
# Elastic Compliance Matrix: (Units=1/GPa)
#
#
# Indices 1 2 3 4 5 6 
#
# 1 0.008622 -0.003646 -0.000116 0.000000 0.000000 0.000000
# 2 -0.003646 0.018395 -0.001552 0.000000 0.000000 0.000000
# 3 -0.000116 -0.001552 0.008664 0.000000 0.000000 0.000000
# 4 0.000000 0.000000 0.000000 0.010074 0.000000 0.000000
# 5 0.000000 0.000000 0.000000 0.000000 0.036979 0.000000
# 6 0.000000 0.000000 0.000000 0.000000 0.000000 0.029363
#
#
# Mechanical properties :
#
#
# Convention : Reuss Voigt Hill
#
# Bulk Modulus (GPa) = 39.91354 43.45733 41.68543
# Shear Modulus (GPa) = 38.14606 49.51780 43.83193
#
# Velocity S-wave (km/s) = 4.14271 4.71998 4.44074
# Velocity P-wave (km/s) = 6.39062 7.01826 6.71178
#
# Compressibility (1/GPa) = 0.02505416
#
# Stress axis : x y z
#
# Youngs Moduli (GPa) = 115.97682 54.36369 115.42382
#
# Poissons Ratio (x) = 0.19820 0.01337
# Poissons Ratio (y) = 0.42284 0.17909
# Poissons Ratio (z) = 0.01343 0.08435
#
# Static dielectric constant tensor:
#      x y z
#    x 1.844520 0.000000 0.000000 
#    y 0.000000 1.866130 0.000000 
#    z 0.000000 0.000000 1.766880 
# 
# From -- ./inp_files/11093.got.cif
#   From: 2010.05.17/outbox.cif.g08.bks.cpg/sg54_6_cif.got.tgz:11093.got - 2010.06.03 13:09:01.
