data_PCOD9424550
_publ_section_title
;
Structure prediction by ZEFSAII (Michael W. Deem and Ramdas Pophale) SiO2 
 PCOD9424550
Probable space group: P C C A
;
_chemical_formula_sum "Si O2"
_cell_formula_units_Z 40
_cell_length_a 9.406129
_cell_length_b 17.158422
_cell_length_c 10.665325
_cell_angle_alpha 90.000000
_cell_angle_beta 90.000000
_cell_angle_gamma 90.000000
_cell_volume 1721.322991
_symmetry_space_group_name_H-M "P C C A"
_symmetry_group_IT_number 54
_symmetry_cell_setting 'orthorhombic'
loop_
_space_group_symop_operation_xyz
x,y,z
1/2-x,-y,z
1/2+x,-y,1/2-z
-x,y,1/2-z
-x,-y,-z
1/2+x,y,-z
1/2-x,y,1/2+z
x,-y,1/2+z
loop_
_atom_site_type_symbol
_atom_site_label
_atom_site_fract_x
_atom_site_fract_y
_atom_site_fract_z
Si Si1 0.500000 0.200000 0.750000
Si Si2 0.127231 0.556294 0.460443
Si Si3 0.230103 0.297709 0.100378
Si Si4 0.500000 0.667194 0.750000
Si Si5 0.217778 0.157202 0.447238
Si Si6 0.007084 0.067048 0.604968
O O1 0.597444 0.254787 0.836549
O O2 0.604287 0.149595 0.663812
O O3 0.250000 0.500000 0.411447
O O4 0.191898 0.613042 0.568073
O O5 0.067718 0.613589 0.356430
O O6 0.000000 0.500000 0.500000
O O7 0.369406 0.288721 0.186063
O O8 0.263972 0.248709 0.975472
O O9 0.368681 0.120649 0.416026
O O10 0.148545 0.115682 0.568853
O O11 0.000000 0.041414 0.750000
O O12 0.000000 0.000000 0.500000
#
# Coordination Sequence:
#
# PCOD9424550 Si02
#       6
#     4   8   8   4   8   8
#     4  12  26  45  84 111 154 200 262 322 398 453
#     4  12  28  48  67 104 149 196 257 319 401 477
#     4  12  27  49  74 114 145 204 261 328 393 479
#     4  12  28  45  78 101 150 196 262 326 402 471
#     4  12  27  52  80 117 159 206 268 327 391 474
#     4  12  30  51  84 120 168 212 265 322 399 477
#
# _framework density 23.237939999999998
#
# number of rings (size 3 to 8) (size 9 to 14) (size 15 to 20)
#    0.000    0.000    4.000    4.200   11.200    1.600 
#    0.000    0.000    0.000    0.000    0.000    0.000 
#    0.000    0.000    0.000    0.000    0.000    0.000 
#
# Total GULP energy -224171.241054 kJ/mol
# GULP energy per Si atom -5604.281026 kJ/mol
# Density = 2.318505 g / cm^3
# Si number density = 23.237940 Si / 1000 Ang^3
#
#
#
# Elastic Constant Matrix: (Units=GPa)
#
#
# Indices 1 2 3 4 5 6 
#
# 1 122.8659 13.8070 20.2595 0.0000 0.0000 0.0000
# 2 13.8070 82.1470 16.1930 0.0000 0.0000 0.0000
# 3 20.2595 16.1930 97.3820 0.0000 0.0000 0.0000
# 4 0.0000 0.0000 0.0000 5.6582 0.0000 0.0000
# 5 0.0000 0.0000 0.0000 0.0000 52.6335 0.0000
# 6 0.0000 0.0000 0.0000 0.0000 0.0000 28.2915
#
#
#
# Elastic Compliance Matrix: (Units=1/GPa)
#
#
# Indices 1 2 3 4 5 6 
#
# 1 0.008527 -0.001120 -0.001588 0.000000 0.000000 0.000000
# 2 -0.001120 0.012733 -0.001884 0.000000 0.000000 0.000000
# 3 -0.001588 -0.001884 0.010912 0.000000 0.000000 0.000000
# 4 0.000000 0.000000 0.000000 0.176736 0.000000 0.000000
# 5 0.000000 0.000000 0.000000 0.000000 0.018999 0.000000
# 6 0.000000 0.000000 0.000000 0.000000 0.000000 0.035346
#
#
# Mechanical properties :
#
#
# Convention : Reuss Voigt Hill
#
# Bulk Modulus (GPa) = 43.50096 44.76820 44.13458
# Shear Modulus (GPa) = 17.85074 34.12565 25.98820
#
# Velocity S-wave (km/s) = 2.77460 3.83630 3.34780
# Velocity P-wave (km/s) = 5.38748 6.23938 5.82902
#
# Compressibility (1/GPa) = 0.02298800
#
# Stress axis : x y z
#
# Youngs Moduli (GPa) = 117.27971 78.53609 91.63842
#
# Poissons Ratio (x) = 0.08797 0.14549
# Poissons Ratio (y) = 0.13137 0.17267
# Poissons Ratio (z) = 0.18620 0.14798
#
# Static dielectric constant tensor:
#      x y z
#    x 1.869060 0.000000 0.000000 
#    y 0.000000 1.859840 0.000000 
#    z 0.000000 0.000000 1.906070 
# 
# From -- ./inp_files/6890.got.cif
#   From: 2010.05.17/outbox.cif.g08.bks.cpg/sg54_4_cif.got.tgz:6890.got - 2010.06.03 13:09:01.
