data_PCOD9424000
_publ_section_title
;
Structure prediction by ZEFSAII (Michael W. Deem and Ramdas Pophale) SiO2 
 PCOD9424000
Probable space group: P C C A
;
_chemical_formula_sum "Si O2"
_cell_formula_units_Z 32
_cell_length_a 10.559688
_cell_length_b 8.484392
_cell_length_c 14.620716
_cell_angle_alpha 90.000000
_cell_angle_beta 90.000000
_cell_angle_gamma 90.000000
_cell_volume 1309.906972
_symmetry_space_group_name_H-M "P C C A"
_symmetry_group_IT_number 54
_symmetry_cell_setting 'orthorhombic'
loop_
_space_group_symop_operation_xyz
x,y,z
1/2-x,-y,z
1/2+x,-y,1/2-z
-x,y,1/2-z
-x,-y,-z
1/2+x,y,-z
1/2-x,y,1/2+z
x,-y,1/2+z
loop_
_atom_site_type_symbol
_atom_site_label
_atom_site_fract_x
_atom_site_fract_y
_atom_site_fract_z
Si Si1 0.206075 0.317922 0.658910
Si Si2 0.131219 0.616783 0.358801
Si Si3 0.200690 0.175121 0.479647
Si Si4 0.485112 0.691918 0.142354
O O1 0.250000 0.500000 0.649357
O O2 0.139111 0.300337 0.757790
O O3 0.137097 0.244433 0.571908
O O4 0.343806 0.239968 0.639070
O O5 0.250000 0.500000 0.348745
O O6 0.178135 0.725770 0.441168
O O7 0.018231 0.493280 0.381566
O O8 0.090369 0.200860 0.404674
O O9 0.250000 0.000000 0.488414
O O10 0.500000 0.683691 0.250000
#
# Coordination Sequence:
#
# PCOD9424000 Si02
#       4
#     8   8   8   8
#     4  11  21  39  69  96 121 168 225 283 324 384
#     4   9  19  39  65  92 122 164 221 279 318 376
#     4  11  25  40  60  97 142 171 213 266 331 415
#     4  11  20  44  70  92 127 172 225 278 337 371
#
# _framework density 24.429213000000001
#
# number of rings (size 3 to 8) (size 9 to 14) (size 15 to 20)
#    0.000    1.500    7.500    2.250    0.000    6.000 
#    0.000    1.250    0.000    0.000    0.000    0.000 
#    0.000    0.000    0.000    0.000    0.000    0.000 
#
# Total GULP energy -178334.418184 kJ/mol
# GULP energy per Si atom -5572.950568 kJ/mol
# Density = 2.437361 g / cm^3
# Si number density = 24.429213 Si / 1000 Ang^3
#
#
#
# Elastic Constant Matrix: (Units=GPa)
#
#
# Indices 1 2 3 4 5 6 
#
# 1 90.4957 -13.0691 -34.1648 0.0000 0.0000 0.0000
# 2 -13.0691 75.2665 45.8525 0.0000 0.0000 0.0000
# 3 -34.1648 45.8525 99.4902 0.0000 0.0000 0.0000
# 4 0.0000 0.0000 0.0000 -33.2993 0.0000 0.0000
# 5 0.0000 0.0000 0.0000 0.0000 16.9929 0.0000
# 6 0.0000 0.0000 0.0000 0.0000 0.0000 24.7095
#
#
#
# Elastic Compliance Matrix: (Units=1/GPa)
#
#
# Indices 1 2 3 4 5 6 
#
# 1 0.012718 -0.000629 0.004657 0.000000 0.000000 0.000000
# 2 -0.000629 0.018504 -0.008744 0.000000 0.000000 0.000000
# 3 0.004657 -0.008744 0.015680 0.000000 0.000000 0.000000
# 4 0.000000 0.000000 0.000000 -0.030031 0.000000 0.000000
# 5 0.000000 0.000000 0.000000 0.000000 0.058848 0.000000
# 6 0.000000 0.000000 0.000000 0.000000 0.000000 0.040470
#
#
# Mechanical properties :
#
#
# Convention : Reuss Voigt Hill
#
# Bulk Modulus (GPa) = 26.68779 29.16550 27.92665
# Shear Modulus (GPa) = 36.20293 19.45622 27.82958
#
# Velocity S-wave (km/s) = 3.85379 2.82518 3.37885
# Velocity P-wave (km/s) = 5.54531 4.75467 5.16514
#
# Compressibility (1/GPa) = 0.03747032
#
# Stress axis : x y z
#
# Youngs Moduli (GPa) = 78.63128 54.04332 63.77455
#
# Poissons Ratio (x) = 0.03398 -0.29700
# Poissons Ratio (y) = 0.04944 0.55763
# Poissons Ratio (z) = -0.36619 0.47254
#
# Static dielectric constant tensor:
#      x y z
#    x 2.306480 0.000000 0.000000 
#    y 0.000000 1.925510 0.000000 
#    z 0.000000 0.000000 2.105550 
# 
# From -- ./inp_files/12212.got.cif
#   From: 2010.05.17/outbox.cif.g08.bks.cpg/sg54_7_cif.got.tgz:12212.got - 2010.06.03 13:09:01.
