data_PCOD9424791
_publ_section_title
;
Structure prediction by ZEFSAII (Michael W. Deem and Ramdas Pophale) SiO2 
 PCOD9424791
Probable space group: P B A M
;
_chemical_formula_sum "Si O2"
_cell_formula_units_Z 26
_cell_length_a 19.786975
_cell_length_b 8.839051
_cell_length_c 5.565241
_cell_angle_alpha 90.000000
_cell_angle_beta 90.000000
_cell_angle_gamma 90.000000
_cell_volume 973.349972
_symmetry_space_group_name_H-M "P B A M"
_symmetry_group_IT_number 55
_symmetry_cell_setting 'orthorhombic'
loop_
_space_group_symop_operation_xyz
x,y,z
-x,-y,z
1/2+x,1/2-y,-z
1/2-x,1/2+y,-z
-x,-y,-z
x,y,-z
1/2-x,1/2+y,z
1/2+x,1/2-y,z
loop_
_atom_site_type_symbol
_atom_site_label
_atom_site_fract_x
_atom_site_fract_y
_atom_site_fract_z
Si Si1 0.102583 0.242609 0.500000
Si Si2 0.923719 0.326513 0.000000
Si Si3 0.500000 0.500000 0.000000
Si Si4 0.628010 0.262974 0.000000
Si Si5 0.222476 0.790666 0.000000
Si Si6 0.322066 0.424216 0.500000
Si Si7 0.546306 0.790791 0.500000
O O1 0.115984 0.322630 0.750834
O O2 0.023505 0.196515 0.500000
O O3 0.150620 0.095268 0.500000
O O4 0.948992 0.382774 0.255526
O O5 0.955506 0.155464 0.000000
O O6 0.843022 0.316833 0.000000
O O7 0.573095 0.398430 0.000000
O O8 0.707218 0.297733 0.000000
O O9 0.216309 0.882806 0.747572
O O10 0.389943 0.321727 0.500000
#
# Coordination Sequence:
#
# PCOD9424791 Si02
#       7
#     4   4   2   4   4   4   4
#     4  12  20  33  54  84 106 144 193 239 263 348
#     4  10  20  30  52  72 110 142 180 220 276 336
#     4  12  20  34  56  86 100 150 180 234 260 342
#     4  12  24  32  52  80 126 146 192 230 282 336
#     4  10  22  36  44  74 118 164 168 226 294 342
#     4  10  20  33  54  68 109 153 188 217 288 349
#     4  10  17  28  46  79  99 130 178 225 262 324
#
# _framework density 26.711870000000001
#
# number of rings (size 3 to 8) (size 9 to 14) (size 15 to 20)
#    0.000    1.231    3.077    6.000    0.000    0.000 
#    0.000    0.000    0.000    0.000    0.000    0.000 
#    0.000   13.538    0.000    0.000    0.000    0.000 
#
# Total GULP energy -144966.192158 kJ/mol
# GULP energy per Si atom -5575.622775 kJ/mol
# Density = 2.665107 g / cm^3
# Si number density = 26.711870 Si / 1000 Ang^3
#
#
#
# Elastic Constant Matrix: (Units=GPa)
#
#
# Indices 1 2 3 4 5 6 
#
# 1 227.1927 49.7649 46.1270 0.0000 0.0000 0.0000
# 2 49.7649 104.6768 21.4468 0.0000 0.0000 0.0000
# 3 46.1270 21.4468 324.8138 0.0000 0.0000 0.0000
# 4 0.0000 0.0000 0.0000 104.8664 0.0000 0.0000
# 5 0.0000 0.0000 0.0000 0.0000 38.0638 0.0000
# 6 0.0000 0.0000 0.0000 0.0000 0.0000 34.8287
#
#
#
# Elastic Compliance Matrix: (Units=1/GPa)
#
#
# Indices 1 2 3 4 5 6 
#
# 1 0.005012 -0.002268 -0.000562 0.000000 0.000000 0.000000
# 2 -0.002268 0.010710 -0.000385 0.000000 0.000000 0.000000
# 3 -0.000562 -0.000385 0.003184 0.000000 0.000000 0.000000
# 4 0.000000 0.000000 0.000000 0.009536 0.000000 0.000000
# 5 0.000000 0.000000 0.000000 0.000000 0.026272 0.000000
# 6 0.000000 0.000000 0.000000 0.000000 0.000000 0.028712
#
#
# Mechanical properties :
#
#
# Convention : Reuss Voigt Hill
#
# Bulk Modulus (GPa) = 80.15005 99.04006 89.59506
# Shear Modulus (GPa) = 53.18296 71.50810 62.34553
#
# Velocity S-wave (km/s) = 4.46689 5.17960 4.83639
# Velocity P-wave (km/s) = 7.52826 8.53983 8.04995
#
# Compressibility (1/GPa) = 0.01247660
#
# Stress axis : x y z
#
# Youngs Moduli (GPa) = 199.50461 93.36832 314.07658
#
# Poissons Ratio (x) = 0.21174 0.17654
# Poissons Ratio (y) = 0.45244 0.12096
# Poissons Ratio (z) = 0.11214 0.03596
#
# Static dielectric constant tensor:
#      x y z
#    x 2.026910 0.000000 0.000000 
#    y 0.000000 1.995670 0.000000 
#    z 0.000000 0.000000 2.236250 
# 
# From -- ./inp_files/432.got.cif
#   From: 2010.05.17/outbox.cif.g08.bks.cpg/sg55_1_cif.got.tgz:432.got - 2010.06.03 13:27:54.
