data_PCOD9424854
_publ_section_title
;
Structure prediction by ZEFSAII (Michael W. Deem and Ramdas Pophale) SiO2 
 PCOD9424854
Probable space group: P B A M
;
_chemical_formula_sum "Si O2"
_cell_formula_units_Z 52
_cell_length_a 7.356412
_cell_length_b 24.736299
_cell_length_c 15.255225
_cell_angle_alpha 90.000000
_cell_angle_beta 90.000000
_cell_angle_gamma 90.000000
_cell_volume 2775.999499
_symmetry_space_group_name_H-M "P B A M"
_symmetry_group_IT_number 55
_symmetry_cell_setting 'orthorhombic'
loop_
_space_group_symop_operation_xyz
x,y,z
-x,-y,z
1/2+x,1/2-y,-z
1/2-x,1/2+y,-z
-x,-y,-z
x,y,-z
1/2-x,1/2+y,z
1/2+x,1/2-y,z
loop_
_atom_site_type_symbol
_atom_site_label
_atom_site_fract_x
_atom_site_fract_y
_atom_site_fract_z
Si Si1 0.484422 0.799621 0.599859
Si Si2 0.133297 0.450207 0.900944
Si Si3 0.500000 0.500000 0.846038
Si Si4 0.662595 0.423140 0.700691
Si Si5 0.087202 0.392825 0.726635
Si Si6 0.789864 0.519338 0.595728
Si Si7 0.587181 0.323647 0.598585
O O1 0.408534 0.806035 0.500000
O O2 0.391445 0.836523 0.674035
O O3 0.482581 0.736070 0.620792
O O4 0.693599 0.817889 0.595143
O O5 0.334217 0.475150 0.899225
O O6 0.127925 0.402667 0.828815
O O7 0.000000 0.500000 0.873526
O O8 0.083099 0.433953 0.000000
O O9 0.580263 0.453121 0.783731
O O10 0.674317 0.467307 0.623047
O O11 0.555508 0.370660 0.668051
O O12 0.872693 0.407644 0.718603
O O13 0.203505 0.437086 0.672789
O O14 0.740050 0.540734 0.500000
O O15 0.000000 0.500000 0.590671
O O16 0.525607 0.337569 0.500000
#
# Coordination Sequence:
#
# PCOD9424854 Si02
#       7
#     8   8   4   8   8   8   8
#     4   9  18  31  52  76 106 149 189 227 269 312
#     4  11  22  38  58  82 111 142 178 228 279 337
#     4  12  21  36  55  84 112 146 181 224 275 342
#     4  10  19  31  51  76 113 145 179 224 272 321
#     4  10  17  34  53  77 105 141 187 225 270 333
#     4   9  15  26  47  71 102 142 175 208 261 318
#     4   9  18  33  49  74 110 148 192 230 263 313
#
# _framework density 18.731991000000001
#
# number of rings (size 3 to 8) (size 9 to 14) (size 15 to 20)
#    0.000    2.154    3.077    1.615    0.000    4.923 
#    0.000    1.538    0.000    0.000    0.000   10.769 
#    0.000    0.000    0.000    0.000    0.000    0.000 
#
# Total GULP energy -290267.646794 kJ/mol
# GULP energy per Si atom -5582.070131 kJ/mol
# Density = 1.868936 g / cm^3
# Si number density = 18.731991 Si / 1000 Ang^3
#
#
#
# Elastic Constant Matrix: (Units=GPa)
#
#
# Indices 1 2 3 4 5 6 
#
# 1 55.3951 10.2096 3.1033 0.0000 0.0000 0.0000
# 2 10.2096 93.5899 52.6919 0.0000 0.0000 0.0000
# 3 3.1033 52.6919 107.7685 0.0000 0.0000 0.0000
# 4 0.0000 0.0000 0.0000 15.4972 0.0000 0.0000
# 5 0.0000 0.0000 0.0000 0.0000 8.1628 0.0000
# 6 0.0000 0.0000 0.0000 0.0000 0.0000 26.5463
#
#
#
# Elastic Compliance Matrix: (Units=1/GPa)
#
#
# Indices 1 2 3 4 5 6 
#
# 1 0.018453 -0.002365 0.000625 0.000000 0.000000 0.000000
# 2 -0.002365 0.015046 -0.007289 0.000000 0.000000 0.000000
# 3 0.000625 -0.007289 0.012825 0.000000 0.000000 0.000000
# 4 0.000000 0.000000 0.000000 0.064528 0.000000 0.000000
# 5 0.000000 0.000000 0.000000 0.000000 0.122506 0.000000
# 6 0.000000 0.000000 0.000000 0.000000 0.000000 0.037670
#
#
# Mechanical properties :
#
#
# Convention : Reuss Voigt Hill
#
# Bulk Modulus (GPa) = 35.37684 43.19589 39.28637
# Shear Modulus (GPa) = 16.74996 22.75785 19.75390
#
# Velocity S-wave (km/s) = 2.99355 3.48935 3.25091
# Velocity P-wave (km/s) = 5.55655 6.27249 5.92534
#
# Compressibility (1/GPa) = 0.02826708
#
# Stress axis : x y z
#
# Youngs Moduli (GPa) = 54.19176 66.46082 77.97371
#
# Poissons Ratio (x) = 0.15717 -0.04872
# Poissons Ratio (y) = 0.12815 0.56832
# Poissons Ratio (z) = -0.03386 0.48441
#
# Static dielectric constant tensor:
#      x y z
#    x 1.728660 0.000000 0.000000 
#    y 0.000000 1.645340 0.000000 
#    z 0.000000 0.000000 1.639230 
# 
# From -- ./inp_files/17744.got.cif
#   From: 2010.05.17/outbox.cif.g08.bks.cpg/sg55_9_cif.got.tgz:17744.got - 2010.06.03 13:27:54.
