data_PCOD9424944
_publ_section_title
;
Structure prediction by ZEFSAII (Michael W. Deem and Ramdas Pophale) SiO2 
 PCOD9424944
Probable space group: P B A M
;
_chemical_formula_sum "Si O2"
_cell_formula_units_Z 64
_cell_length_a 21.127647
_cell_length_b 20.016366
_cell_length_c 8.436738
_cell_angle_alpha 90.000000
_cell_angle_beta 90.000000
_cell_angle_gamma 90.000000
_cell_volume 3567.885660
_symmetry_space_group_name_H-M "P B A M"
_symmetry_group_IT_number 55
_symmetry_cell_setting 'orthorhombic'
loop_
_space_group_symop_operation_xyz
x,y,z
-x,-y,z
1/2+x,1/2-y,-z
1/2-x,1/2+y,-z
-x,-y,-z
x,y,-z
1/2-x,1/2+y,z
1/2+x,1/2-y,z
loop_
_atom_site_type_symbol
_atom_site_label
_atom_site_fract_x
_atom_site_fract_y
_atom_site_fract_z
Si Si1 0.560004 0.541837 0.690806
Si Si2 0.348914 0.845714 0.189616
Si Si3 0.076598 0.807497 0.809659
Si Si4 0.518646 0.197038 0.685550
Si Si5 0.664095 0.002866 0.312016
Si Si6 0.542698 0.936136 0.187147
Si Si7 0.699041 0.532700 0.309800
Si Si8 0.285848 0.318625 0.186498
O O1 0.500000 0.500000 0.748938
O O2 0.555131 0.547535 0.500000
O O3 0.562339 0.616516 0.759044
O O4 0.628288 0.507760 0.724932
O O5 0.413707 0.808838 0.229220
O O6 0.349592 0.919697 0.266546
O O7 0.285478 0.806923 0.247231
O O8 0.344078 0.855091 0.000000
O O9 0.148041 0.789486 0.749151
O O10 0.024278 0.757787 0.744196
O O11 0.077222 0.803902 0.000000
O O12 0.530159 0.202909 0.500000
O O13 0.480971 0.128829 0.722481
O O14 0.654924 0.995094 0.500000
O O15 0.738175 0.990566 0.273313
O O16 0.614656 0.956187 0.222849
O O17 0.500000 0.000000 0.233452
O O18 0.533442 0.924663 0.000000
O O19 0.701949 0.547207 0.500000
O O20 0.706208 0.601930 0.215429
O O21 0.285040 0.303401 0.000000
#
# Coordination Sequence:
#
# PCOD9424944 Si02
#       8
#     8   8   8   8   8   8   8   8
#     4   9  17  32  56  83 110 139 173 214 261 312
#     4  10  18  31  51  77 104 133 171 214 259 306
#     4  10  20  36  56  79 107 138 174 217 264 316
#     4  12  24  36  53  77 106 140 178 217 264 316
#     4  10  18  29  48  74 104 135 172 216 259 304
#     4  11  22  35  52  74 103 140 179 219 263 307
#     4   8  15  27  46  75 105 133 166 208 254 301
#     4   8  16  30  51  75  99 129 167 211 255 304
#
# _framework density 17.937794
#
# number of rings (size 3 to 8) (size 9 to 14) (size 15 to 20)
#    0.000    2.250    1.250    2.625    0.000    2.250 
#    0.000    0.000    2.750    0.000    0.000    0.000 
#    0.000    0.000    0.000    0.000    0.000    0.000 
#
# Total GULP energy -356640.539546 kJ/mol
# GULP energy per Si atom -5572.508430 kJ/mol
# Density = 1.789697 g / cm^3
# Si number density = 17.937794 Si / 1000 Ang^3
#
#
#
# Elastic Constant Matrix: (Units=GPa)
#
#
# Indices 1 2 3 4 5 6 
#
# 1 153.0203 38.3525 4.1322 0.0000 0.0000 0.0000
# 2 38.3525 34.8650 5.0731 0.0000 0.0000 0.0000
# 3 4.1322 5.0731 18.0812 0.0000 0.0000 0.0000
# 4 0.0000 0.0000 0.0000 25.9068 0.0000 0.0000
# 5 0.0000 0.0000 0.0000 0.0000 -11.4147 0.0000
# 6 0.0000 0.0000 0.0000 0.0000 0.0000 25.1311
#
#
#
# Elastic Compliance Matrix: (Units=1/GPa)
#
#
# Indices 1 2 3 4 5 6 
#
# 1 0.009033 -0.010046 0.000754 0.000000 0.000000 0.000000
# 2 -0.010046 0.041076 -0.009229 0.000000 0.000000 0.000000
# 3 0.000754 -0.009229 0.057723 0.000000 0.000000 0.000000
# 4 0.000000 0.000000 0.000000 0.038600 0.000000 0.000000
# 5 0.000000 0.000000 0.000000 0.000000 -0.087606 0.000000
# 6 0.000000 0.000000 0.000000 0.000000 0.000000 0.039791
#
#
# Mechanical properties :
#
#
# Convention : Reuss Voigt Hill
#
# Bulk Modulus (GPa) = 14.12617 33.45356 23.78986
# Shear Modulus (GPa) = 31.39645 18.48522 24.94083
#
# Velocity S-wave (km/s) = 4.18819 3.21365 3.73286
# Velocity P-wave (km/s) = 5.59286 5.69740 5.64537
#
# Compressibility (1/GPa) = 0.07079060
#
# Stress axis : x y z
#
# Youngs Moduli (GPa) = 110.71054 24.34538 17.32409
#
# Poissons Ratio (x) = 0.24457 -0.01307
# Poissons Ratio (y) = 1.11218 0.15988
# Poissons Ratio (z) = -0.08351 0.22468
#
# Static dielectric constant tensor:
#      x y z
#    x 1.681340 0.000000 0.000000 
#    y 0.000000 1.566090 0.000000 
#    z 0.000000 0.000000 1.612090 
# 
# From -- ./inp_files/9025.got.cif
#   From: 2010.05.17/outbox.cif.g08.bks.cpg/sg55_5_cif.got.tgz:9025.got - 2010.06.03 13:27:54.
