data_PCOD9424219
_publ_section_title
;
Structure prediction by ZEFSAII (Michael W. Deem and Ramdas Pophale) SiO2 
 PCOD9424219
Probable space group: P C C A
;
_chemical_formula_sum "Si O2"
_cell_formula_units_Z 60
_cell_length_a 13.643098
_cell_length_b 18.954166
_cell_length_c 9.994242
_cell_angle_alpha 90.000000
_cell_angle_beta 90.000000
_cell_angle_gamma 90.000000
_cell_volume 2584.446461
_symmetry_space_group_name_H-M "P C C A"
_symmetry_group_IT_number 54
_symmetry_cell_setting 'orthorhombic'
loop_
_space_group_symop_operation_xyz
x,y,z
1/2-x,-y,z
1/2+x,-y,1/2-z
-x,y,1/2-z
-x,-y,-z
1/2+x,y,-z
1/2-x,y,1/2+z
x,-y,1/2+z
loop_
_atom_site_type_symbol
_atom_site_label
_atom_site_fract_x
_atom_site_fract_y
_atom_site_fract_z
Si Si1 0.390774 0.690029 0.299620
Si Si2 0.905109 0.232952 0.920868
Si Si3 0.609202 0.846183 0.583645
Si Si4 0.769250 0.417180 0.049358
Si Si5 0.500000 0.039644 0.250000
Si Si6 0.734606 0.813045 0.264835
Si Si7 0.386368 0.377312 0.231957
Si Si8 0.162384 0.055353 0.154208
O O1 0.500000 0.681617 0.250000
O O2 0.388564 0.734520 0.435352
O O3 0.346901 0.615269 0.344473
O O4 0.330161 0.743798 0.204580
O O5 0.819733 0.180117 0.876661
O O6 0.901911 0.297113 0.816173
O O7 0.009407 0.196229 0.926125
O O8 0.579127 0.911383 0.678668
O O9 0.695712 0.798395 0.638098
O O10 0.645574 0.883813 0.452618
O O11 0.750000 0.500000 0.056810
O O12 0.670149 0.384991 0.124133
O O13 0.816529 0.404071 0.897272
O O14 0.436718 0.988497 0.158135
O O15 0.685202 0.888631 0.226963
O O16 0.500000 0.406153 0.250000
O O17 0.250000 0.000000 0.136219
#
# Coordination Sequence:
#
# PCOD9424219 Si02
#       8
#     8   8   8   8   4   8   8   8
#     4  11  26  44  73 113 150 192 253 314 375 462
#     4  11  23  45  73 107 140 192 245 314 385 451
#     4  12  24  44  71  92 137 181 240 304 381 450
#     4  11  26  49  78 117 163 212 261 316 390 466
#     4  12  26  44  62  94 136 178 240 300 372 454
#     4  12  23  44  68 102 138 188 241 306 377 452
#     4  11  25  47  80 117 163 209 264 325 386 465
#     4  12  27  42  65  97 133 185 238 304 373 451
#
# _framework density 23.215803999999999
#
# number of rings (size 3 to 8) (size 9 to 14) (size 15 to 20)
#    0.000    0.533    4.000    3.200    4.667    3.200 
#    0.000    0.000    0.000    0.000    0.000    0.000 
#    0.000    0.000    0.000    0.000    0.000    0.000 
#
# Total GULP energy -334263.781460 kJ/mol
# GULP energy per Si atom -5571.063024 kJ/mol
# Density = 2.316296 g / cm^3
# Si number density = 23.215804 Si / 1000 Ang^3
#
#
#
# Elastic Constant Matrix: (Units=GPa)
#
#
# Indices 1 2 3 4 5 6 
#
# 1 151.4605 51.9283 36.5794 0.0000 0.0000 0.0000
# 2 51.9283 125.8306 14.7008 0.0000 0.0000 0.0000
# 3 36.5794 14.7008 46.9825 0.0000 0.0000 0.0000
# 4 0.0000 0.0000 0.0000 14.6786 0.0000 0.0000
# 5 0.0000 0.0000 0.0000 0.0000 27.8971 0.0000
# 6 0.0000 0.0000 0.0000 0.0000 0.0000 141.8061
#
#
#
# Elastic Compliance Matrix: (Units=1/GPa)
#
#
# Indices 1 2 3 4 5 6 
#
# 1 0.009136 -0.003051 -0.006158 0.000000 0.000000 0.000000
# 2 -0.003051 0.009267 -0.000525 0.000000 0.000000 0.000000
# 3 -0.006158 -0.000525 0.026243 0.000000 0.000000 0.000000
# 4 0.000000 0.000000 0.000000 0.068126 0.000000 0.000000
# 5 0.000000 0.000000 0.000000 0.000000 0.035846 0.000000
# 6 0.000000 0.000000 0.000000 0.000000 0.000000 0.007052
#
#
# Mechanical properties :
#
#
# Convention : Reuss Voigt Hill
#
# Bulk Modulus (GPa) = 39.71500 58.96561 49.34031
# Shear Modulus (GPa) = 27.24344 51.61405 39.42875
#
# Velocity S-wave (km/s) = 3.42934 4.72023 4.12558
# Velocity P-wave (km/s) = 5.72927 7.42708 6.63272
#
# Compressibility (1/GPa) = 0.02517940
#
# Stress axis : x y z
#
# Youngs Moduli (GPa) = 109.46237 107.90475 38.10500
#
# Poissons Ratio (x) = 0.32918 0.23466
# Poissons Ratio (y) = 0.33393 0.01999
# Poissons Ratio (z) = 0.67409 0.05661
#
# Static dielectric constant tensor:
#      x y z
#    x 1.902550 0.000000 0.000000 
#    y 0.000000 2.033550 0.000000 
#    z 0.000000 0.000000 1.713980 
# 
# From -- ./inp_files/7637.got.cif
#   From: 2010.05.17/outbox.cif.g08.bks.cpg/sg54_4_cif.got.tgz:7637.got - 2010.06.03 13:09:01.
