data_PCOD9424880
_publ_section_title
;
Structure prediction by ZEFSAII (Michael W. Deem and Ramdas Pophale) SiO2 
 PCOD9424880
Probable space group: P B A M
;
_chemical_formula_sum "Si O2"
_cell_formula_units_Z 64
_cell_length_a 21.488199
_cell_length_b 20.006083
_cell_length_c 7.498286
_cell_angle_alpha 90.000000
_cell_angle_beta 90.000000
_cell_angle_gamma 90.000000
_cell_volume 3223.473356
_symmetry_space_group_name_H-M "P B A M"
_symmetry_group_IT_number 55
_symmetry_cell_setting 'orthorhombic'
loop_
_space_group_symop_operation_xyz
x,y,z
-x,-y,z
1/2+x,1/2-y,-z
1/2-x,1/2+y,-z
-x,-y,-z
x,y,-z
1/2-x,1/2+y,z
1/2+x,1/2-y,z
loop_
_atom_site_type_symbol
_atom_site_label
_atom_site_fract_x
_atom_site_fract_y
_atom_site_fract_z
Si Si1 0.577817 0.310656 0.213336
Si Si2 0.303362 0.511235 0.294319
Si Si3 0.712126 0.332403 0.217809
Si Si4 0.015996 0.698403 0.780606
Si Si5 0.956146 0.559559 0.786209
Si Si6 0.830482 0.488594 0.288126
Si Si7 0.152043 0.666534 0.207697
Si Si8 0.063325 0.032539 0.714260
O O1 0.648787 0.295527 0.274109
O O2 0.524358 0.261520 0.280237
O O3 0.564268 0.388179 0.251803
O O4 0.578767 0.303184 0.000000
O O5 0.305605 0.488757 0.500000
O O6 0.295983 0.591774 0.285504
O O7 0.237116 0.488337 0.216540
O O8 0.372045 0.500447 0.215219
O O9 0.780671 0.310375 0.279898
O O10 0.713088 0.334986 0.000000
O O11 0.087430 0.694239 0.717394
O O12 0.980625 0.630911 0.723778
O O13 0.017585 0.698636 0.000000
O O14 0.885472 0.540207 0.746186
O O15 0.000000 0.500000 0.716721
O O16 0.962479 0.560244 0.000000
O O17 0.823877 0.479718 0.500000
O O18 0.848355 0.414774 0.216998
O O19 0.152277 0.685021 0.000000
O O20 0.064708 0.023900 0.500000
O O21 0.000000 0.000000 0.782922
#
# Coordination Sequence:
#
# PCOD9424880 Si02
#       8
#     8   8   8   8   8   8   8   8
#     4   9  17  30  47  69  93 116 145 189 236 269
#     4   8  15  27  43  65  90 115 142 178 224 267
#     4   8  14  24  43  66  84 106 145 189 220 257
#     4   9  17  29  46  64  88 122 153 183 224 270
#     4  10  18  30  46  63  87 124 162 188 216 266
#     4  10  18  27  42  66  93 116 145 192 234 259
#     4   9  15  27  45  64  84 116 155 184 217 268
#     4   9  17  31  52  73  91 117 152 185 222 276
#
# _framework density 19.85436
#
# number of rings (size 3 to 8) (size 9 to 14) (size 15 to 20)
#    0.000    3.000    1.250    0.375    0.000    1.000 
#    0.000    1.250    2.750    0.000    0.000    0.000 
#    0.000    0.000    0.000    0.000    0.000    0.000 
#
# Total GULP energy -356422.505185 kJ/mol
# GULP energy per Si atom -5569.101644 kJ/mol
# Density = 1.980917 g / cm^3
# Si number density = 19.854360 Si / 1000 Ang^3
#
#
#
# Elastic Constant Matrix: (Units=GPa)
#
#
# Indices 1 2 3 4 5 6 
#
# 1 253.7378 67.5604 2.7614 0.0000 0.0000 0.0000
# 2 67.5604 46.5318 -2.1709 0.0000 0.0000 0.0000
# 3 2.7614 -2.1709 55.6902 0.0000 0.0000 0.0000
# 4 0.0000 0.0000 0.0000 18.2676 0.0000 0.0000
# 5 0.0000 0.0000 0.0000 0.0000 4.2729 0.0000
# 6 0.0000 0.0000 0.0000 0.0000 0.0000 25.5447
#
#
#
# Elastic Compliance Matrix: (Units=1/GPa)
#
#
# Indices 1 2 3 4 5 6 
#
# 1 0.006451 -0.009398 -0.000686 0.000000 0.000000 0.000000
# 2 -0.009398 0.035222 0.001839 0.000000 0.000000 0.000000
# 3 -0.000686 0.001839 0.018062 0.000000 0.000000 0.000000
# 4 0.000000 0.000000 0.000000 0.054742 0.000000 0.000000
# 5 0.000000 0.000000 0.000000 0.000000 0.234031 0.000000
# 6 0.000000 0.000000 0.000000 0.000000 0.000000 0.039147
#
#
# Mechanical properties :
#
#
# Convention : Reuss Voigt Hill
#
# Bulk Modulus (GPa) = 23.12447 54.69573 38.91010
# Shear Modulus (GPa) = 11.94571 28.80431 20.37501
#
# Velocity S-wave (km/s) = 2.45555 3.81304 3.20695
# Velocity P-wave (km/s) = 4.43982 6.85522 5.77520
#
# Compressibility (1/GPa) = 0.04324423
#
# Stress axis : x y z
#
# Youngs Moduli (GPa) = 155.01638 28.39135 55.36422
#
# Poissons Ratio (x) = 0.26683 0.03799
# Poissons Ratio (y) = 1.45688 -0.10182
# Poissons Ratio (z) = 0.10638 -0.05221
#
# Static dielectric constant tensor:
#      x y z
#    x 1.785360 0.000000 0.000000 
#    y 0.000000 1.639170 0.000000 
#    z 0.000000 0.000000 1.752310 
# 
# From -- ./inp_files/9174.got.cif
#   From: 2010.05.17/outbox.cif.g08.bks.cpg/sg55_5_cif.got.tgz:9174.got - 2010.06.03 13:27:54.
