data_PCOD9424189
_publ_section_title
;
Structure prediction by ZEFSAII (Michael W. Deem and Ramdas Pophale) SiO2 
 PCOD9424189
Probable space group: P C C A
;
_chemical_formula_sum "Si O2"
_cell_formula_units_Z 40
_cell_length_a 18.000736
_cell_length_b 10.038771
_cell_length_c 8.863846
_cell_angle_alpha 90.000000
_cell_angle_beta 90.000000
_cell_angle_gamma 90.000000
_cell_volume 1601.743654
_symmetry_space_group_name_H-M "P C C A"
_symmetry_group_IT_number 54
_symmetry_cell_setting 'orthorhombic'
loop_
_space_group_symop_operation_xyz
x,y,z
1/2-x,-y,z
1/2+x,-y,1/2-z
-x,y,1/2-z
-x,-y,-z
1/2+x,y,-z
1/2-x,y,1/2+z
x,-y,1/2+z
loop_
_atom_site_type_symbol
_atom_site_label
_atom_site_fract_x
_atom_site_fract_y
_atom_site_fract_z
Si Si1 0.610087 0.084400 0.118871
Si Si2 0.242695 0.770297 0.881500
Si Si3 0.034444 0.303501 0.087880
Si Si4 0.595244 0.184740 0.452905
Si Si5 0.312851 0.392157 0.609804
O O1 0.699264 0.108299 0.123221
O O2 0.585634 0.128735 0.285204
O O3 0.577586 0.180819 0.990520
O O4 0.585532 0.937537 0.070797
O O5 0.201478 0.728596 0.728784
O O6 0.179848 0.777437 0.010339
O O7 0.294914 0.650780 0.938824
O O8 0.098533 0.414410 0.110429
O O9 0.000000 0.277150 0.250000
O O10 0.961087 0.305399 0.983500
O O11 0.250000 0.500000 0.646956
#
# Coordination Sequence:
#
# PCOD9424189 Si02
#       5
#     8   8   8   8   8
#     4  11  25  39  69 104 152 194 235 280 358 433
#     4  11  23  42  71  98 140 189 240 299 350 427
#     4  11  23  43  70 103 139 186 229 294 355 422
#     4  12  23  41  66 105 149 190 234 291 356 430
#     4  11  24  46  73  98 132 185 244 301 358 414
#
# _framework density 24.972784999999998
#
# number of rings (size 3 to 8) (size 9 to 14) (size 15 to 20)
#    0.000    0.800    4.000    3.600    2.800    1.600 
#    0.000    1.000    4.400    0.000    0.000    0.000 
#    0.000    0.000    0.000    0.000    0.000    0.000 
#
# Total GULP energy -223269.565697 kJ/mol
# GULP energy per Si atom -5581.739142 kJ/mol
# Density = 2.491595 g / cm^3
# Si number density = 24.972785 Si / 1000 Ang^3
#
#
#
# Elastic Constant Matrix: (Units=GPa)
#
#
# Indices 1 2 3 4 5 6 
#
# 1 200.0380 57.0224 56.1906 0.0000 0.0000 0.0000
# 2 57.0224 55.7393 32.9041 0.0000 0.0000 0.0000
# 3 56.1906 32.9041 139.6099 0.0000 0.0000 0.0000
# 4 0.0000 0.0000 0.0000 14.8309 0.0000 0.0000
# 5 0.0000 0.0000 0.0000 0.0000 37.0311 0.0000
# 6 0.0000 0.0000 0.0000 0.0000 0.0000 40.1777
#
#
#
# Elastic Compliance Matrix: (Units=1/GPa)
#
#
# Indices 1 2 3 4 5 6 
#
# 1 0.007274 -0.006636 -0.001363 0.000000 0.000000 0.000000
# 2 -0.006636 0.026895 -0.003668 0.000000 0.000000 0.000000
# 3 -0.001363 -0.003668 0.008576 0.000000 0.000000 0.000000
# 4 0.000000 0.000000 0.000000 0.067427 0.000000 0.000000
# 5 0.000000 0.000000 0.000000 0.000000 0.027004 0.000000
# 6 0.000000 0.000000 0.000000 0.000000 0.000000 0.024889
#
#
# Mechanical properties :
#
#
# Convention : Reuss Voigt Hill
#
# Bulk Modulus (GPa) = 51.52084 76.40235 63.96160
# Shear Modulus (GPa) = 26.05929 35.02595 30.54262
#
# Velocity S-wave (km/s) = 3.23384 3.74915 3.50099
# Velocity P-wave (km/s) = 5.88381 7.02866 6.48156
#
# Compressibility (1/GPa) = 0.01940962
#
# Stress axis : x y z
#
# Youngs Moduli (GPa) = 137.47988 37.18174 116.60406
#
# Poissons Ratio (x) = 0.24675 0.15899
# Poissons Ratio (y) = 0.91236 0.42767
# Poissons Ratio (z) = 0.18745 0.13637
#
# Static dielectric constant tensor:
#      x y z
#    x 2.060180 0.000000 0.000000 
#    y 0.000000 2.026740 0.000000 
#    z 0.000000 0.000000 1.901160 
# 
# From -- ./inp_files/3961.got.cif
#   From: 2010.05.17/outbox.cif.g08.bks.cpg/sg54_2_cif.got.tgz:3961.got - 2010.06.03 13:09:01.
