data_PCOD9424619
_publ_section_title
;
Structure prediction by ZEFSAII (Michael W. Deem and Ramdas Pophale) SiO2 
 PCOD9424619
Probable space group: P C C A
;
_chemical_formula_sum "Si O2"
_cell_formula_units_Z 48
_cell_length_a 9.000000
_cell_length_b 15.000000
_cell_length_c 18.000000
_cell_angle_alpha 90.000000
_cell_angle_beta 90.000000
_cell_angle_gamma 90.000000
_cell_volume 2430.000000
_symmetry_space_group_name_H-M "P C C A"
_symmetry_group_IT_number 54
_symmetry_cell_setting 'orthorhombic'
loop_
_space_group_symop_operation_xyz
x,y,z
1/2-x,-y,z
1/2+x,-y,1/2-z
-x,y,1/2-z
-x,-y,-z
1/2+x,y,-z
1/2-x,y,1/2+z
x,-y,1/2+z
loop_
_atom_site_type_symbol
_atom_site_label
_atom_site_fract_x
_atom_site_fract_y
_atom_site_fract_z
Si Si1 0.277877 0.732769 0.947984
Si Si2 0.834194 0.092899 0.777724
Si Si3 0.233211 0.394766 0.177884
Si Si4 0.606891 0.235116 0.403611
Si Si5 0.616910 0.434794 0.964181
Si Si6 0.652433 0.246754 0.706853
O O1 0.433508 0.773949 0.921834
O O2 0.163046 0.736011 0.880502
O O3 0.200364 0.771219 0.020960
O O4 0.328589 0.635124 0.975398
O O5 0.843330 0.156412 0.849654
O O6 0.752289 0.159184 0.720569
O O7 0.000000 0.074190 0.750000
O O8 0.750000 0.000000 0.788817
O O9 0.250000 0.500000 0.198732
O O10 0.357562 0.333002 0.134189
O O11 0.096819 0.391429 0.117543
O O12 0.210010 0.335614 0.251034
O O13 0.750000 0.500000 0.945323
O O14 0.500000 0.500000 0.000000
O O15 0.500000 0.227547 0.750000
#
# Coordination Sequence:
#
# PCOD9424619 Si02
#       6
#     8   8   8   8   8   8
#     4  11  22  40  64  92 133 179 217 279 328 389
#     4  11  23  48  73  98 128 168 209 268 335 408
#     4   9  20  39  57  89 135 175 227 281 316 380
#     4  10  23  41  67  94 133 172 221 267 330 388
#     4  10  20  34  57  86 125 176 230 267 321 376
#     4  11  25  40  65  97 132 172 225 275 337 395
#
# _framework density 19.753086
#
# number of rings (size 3 to 8) (size 9 to 14) (size 15 to 20)
#    0.000    1.667    1.667    3.500    9.333    0.667 
#    3.000    1.667    0.000    0.000    0.000    0.000 
#    0.000    0.000    0.000    0.000    0.000    0.000 
#
# Total GULP energy -267319.742265 kJ/mol
# GULP energy per Si atom -5569.161297 kJ/mol
# Density = 1.970813 g / cm^3
# Si number density = 19.753086 Si / 1000 Ang^3
#
#
#
# Elastic Constant Matrix: (Units=GPa)
#
#
# Indices 1 2 3 4 5 6 
#
# 1 78.0092 46.4538 13.5650 0.0000 0.0000 0.0000
# 2 46.4538 145.2887 49.0763 0.0000 0.0000 0.0000
# 3 13.5650 49.0763 98.2884 0.0000 0.0000 0.0000
# 4 0.0000 0.0000 0.0000 17.0345 0.0000 0.0000
# 5 0.0000 0.0000 0.0000 0.0000 7.0990 0.0000
# 6 0.0000 0.0000 0.0000 0.0000 0.0000 36.3258
#
#
#
# Elastic Compliance Matrix: (Units=1/GPa)
#
#
# Indices 1 2 3 4 5 6 
#
# 1 0.015848 -0.005206 0.000412 0.000000 0.000000 0.000000
# 2 -0.005206 0.009990 -0.004269 0.000000 0.000000 0.000000
# 3 0.000412 -0.004269 0.012249 0.000000 0.000000 0.000000
# 4 0.000000 0.000000 0.000000 0.058704 0.000000 0.000000
# 5 0.000000 0.000000 0.000000 0.000000 0.140866 0.000000
# 6 0.000000 0.000000 0.000000 0.000000 0.000000 0.027529
#
#
# Mechanical properties :
#
#
# Convention : Reuss Voigt Hill
#
# Bulk Modulus (GPa) = 50.10118 59.97515 55.03816
# Shear Modulus (GPa) = 17.24349 26.25794 21.75071
#
# Velocity S-wave (km/s) = 2.95778 3.64992 3.32193
# Velocity P-wave (km/s) = 6.08961 6.94197 6.52971
#
# Compressibility (1/GPa) = 0.01995961
#
# Stress axis : x y z
#
# Youngs Moduli (GPa) = 63.10100 100.10396 81.63959
#
# Poissons Ratio (x) = 0.52117 -0.03367
# Poissons Ratio (y) = 0.32852 0.34855
# Poissons Ratio (z) = -0.02602 0.42738
#
# Static dielectric constant tensor:
#      x y z
#    x 1.766610 0.000000 0.000000 
#    y 0.000000 1.666190 0.000000 
#    z 0.000000 0.000000 1.885530 
# 
# From -- ./inp_files/16599.got.cif
#   From: 2010.05.17/outbox.ucp.g08.bks.cvg/sg54_9_cif.got.tgz:16599.got - 2010.06.11 16:34:40.
