data_PCOD9424034
_publ_section_title
;
Structure prediction by ZEFSAII (Michael W. Deem and Ramdas Pophale) SiO2 
 PCOD9424034
Probable space group: P C C A
;
_chemical_formula_sum "Si O2"
_cell_formula_units_Z 64
_cell_length_a 22.267056
_cell_length_b 14.908457
_cell_length_c 8.902587
_cell_angle_alpha 90.000000
_cell_angle_beta 90.000000
_cell_angle_gamma 90.000000
_cell_volume 2955.369077
_symmetry_space_group_name_H-M "P C C A"
_symmetry_group_IT_number 54
_symmetry_cell_setting 'orthorhombic'
loop_
_space_group_symop_operation_xyz
x,y,z
1/2-x,-y,z
1/2+x,-y,1/2-z
-x,y,1/2-z
-x,-y,-z
1/2+x,y,-z
1/2-x,y,1/2+z
x,-y,1/2+z
loop_
_atom_site_type_symbol
_atom_site_label
_atom_site_fract_x
_atom_site_fract_y
_atom_site_fract_z
Si Si1 0.932809 0.467647 0.214918
Si Si2 0.951396 0.725716 0.860700
Si Si3 0.622086 0.595582 0.918886
Si Si4 0.784560 0.279947 0.077175
Si Si5 0.641904 0.882300 0.933318
Si Si6 0.038807 0.242632 0.614182
Si Si7 0.313537 0.046465 0.386857
Si Si8 0.181254 0.781191 0.586787
O O1 0.933045 0.367803 0.284667
O O2 0.878257 0.524746 0.284673
O O3 0.000000 0.504874 0.250000
O O4 0.920224 0.453886 0.040458
O O5 0.890377 0.775340 0.899233
O O6 0.000000 0.771501 0.750000
O O7 0.990899 0.710798 0.006609
O O8 0.588282 0.682200 0.851577
O O9 0.678664 0.634567 0.012542
O O10 0.794415 0.251699 0.250459
O O11 0.812585 0.195810 0.985729
O O12 0.714632 0.283322 0.033125
O O13 0.576689 0.838759 0.951448
O O14 0.657980 0.909800 0.762244
O O15 0.648114 0.966758 0.041710
O O16 0.000000 0.208227 0.750000
O O17 0.305696 0.120254 0.518903
O O18 0.250000 0.000000 0.347324
#
# Coordination Sequence:
#
# PCOD9424034 Si02
#       8
#     8   8   8   8   8   8   8   8
#     4  11  21  40  68 103 135 178 239 289 337 412
#     4  11  22  44  70  98 136 189 231 281 349 414
#     4  11  23  41  67 100 138 174 228 290 346 406
#     4  11  24  44  66 100 136 178 221 289 351 413
#     4  11  24  43  65 101 139 170 228 290 344 407
#     4  11  23  41  64 100 140 179 226 281 347 416
#     4  12  24  42  71 105 134 180 234 290 343 411
#     4  12  24  44  73 100 138 179 235 285 347 421
#
# _framework density 21.655501000000001
#
# number of rings (size 3 to 8) (size 9 to 14) (size 15 to 20)
#    0.000    0.750    5.000    4.125    1.750    1.000 
#    0.000    3.750    0.000    0.000    0.000    0.000 
#    0.000    0.000    0.000    0.000    0.000    0.000 
#
# Total GULP energy -357278.994381 kJ/mol
# GULP energy per Si atom -5582.484287 kJ/mol
# Density = 2.160621 g / cm^3
# Si number density = 21.655501 Si / 1000 Ang^3
#
#
#
# Elastic Constant Matrix: (Units=GPa)
#
#
# Indices 1 2 3 4 5 6 
#
# 1 73.2803 3.4562 11.5688 0.0000 0.0000 0.0000
# 2 3.4562 38.9354 24.4250 0.0000 0.0000 0.0000
# 3 11.5688 24.4250 56.1796 0.0000 0.0000 0.0000
# 4 0.0000 0.0000 0.0000 25.5634 0.0000 0.0000
# 5 0.0000 0.0000 0.0000 0.0000 26.4528 0.0000
# 6 0.0000 0.0000 0.0000 0.0000 0.0000 23.1590
#
#
#
# Elastic Compliance Matrix: (Units=1/GPa)
#
#
# Indices 1 2 3 4 5 6 
#
# 1 0.014122 0.000785 -0.003249 0.000000 0.000000 0.000000
# 2 0.000785 0.035359 -0.015535 0.000000 0.000000 0.000000
# 3 -0.003249 -0.015535 0.025223 0.000000 0.000000 0.000000
# 4 0.000000 0.000000 0.000000 0.039118 0.000000 0.000000
# 5 0.000000 0.000000 0.000000 0.000000 0.037803 0.000000
# 6 0.000000 0.000000 0.000000 0.000000 0.000000 0.043180
#
#
# Mechanical properties :
#
#
# Convention : Reuss Voigt Hill
#
# Bulk Modulus (GPa) = 25.83568 27.47725 26.65646
# Shear Modulus (GPa) = 20.51653 23.63139 22.07396
#
# Velocity S-wave (km/s) = 3.08133 3.30698 3.19615
# Velocity P-wave (km/s) = 4.96142 5.22469 5.09476
#
# Compressibility (1/GPa) = 0.03870617
#
# Stress axis : x y z
#
# Youngs Moduli (GPa) = 70.81055 28.28127 39.64625
#
# Poissons Ratio (x) = -0.02219 0.12882
# Poissons Ratio (y) = -0.05557 0.61589
# Poissons Ratio (z) = 0.23008 0.43934
#
# Static dielectric constant tensor:
#      x y z
#    x 1.867140 0.000000 0.000000 
#    y 0.000000 1.790410 0.000000 
#    z 0.000000 0.000000 1.897590 
# 
# From -- ./inp_files/5316.got.cif
#   From: 2010.05.17/outbox.cif.g08.bks.cpg/sg54_3_cif.got.tgz:5316.got - 2010.06.03 13:09:01.
