data_PCOD9424521
_publ_section_title
;
Structure prediction by ZEFSAII (Michael W. Deem and Ramdas Pophale) SiO2 
 PCOD9424521
Probable space group: P C C A
;
_chemical_formula_sum "Si O2"
_cell_formula_units_Z 36
_cell_length_a 9.006884
_cell_length_b 7.917104
_cell_length_c 22.521275
_cell_angle_alpha 90.000000
_cell_angle_beta 90.000000
_cell_angle_gamma 90.000000
_cell_volume 1605.956927
_symmetry_space_group_name_H-M "P C C A"
_symmetry_group_IT_number 54
_symmetry_cell_setting 'orthorhombic'
loop_
_space_group_symop_operation_xyz
x,y,z
1/2-x,-y,z
1/2+x,-y,1/2-z
-x,y,1/2-z
-x,-y,-z
1/2+x,y,-z
1/2-x,y,1/2+z
x,-y,1/2+z
loop_
_atom_site_type_symbol
_atom_site_label
_atom_site_fract_x
_atom_site_fract_y
_atom_site_fract_z
Si Si1 0.750314 0.187672 0.688577
Si Si2 0.024493 0.355235 0.131524
Si Si3 0.750000 0.500000 0.775355
Si Si4 0.584891 0.311964 0.076121
Si Si5 0.243971 0.798398 0.038613
O O1 0.588434 0.225813 0.661203
O O2 0.781167 0.337013 0.734909
O O3 0.863656 0.206575 0.633660
O O4 0.750000 0.000000 0.714484
O O5 0.112373 0.454738 0.182657
O O6 0.144375 0.267896 0.089245
O O7 0.930329 0.493841 0.095601
O O8 0.422165 0.257417 0.054012
O O9 0.698253 0.278519 0.022953
O O10 0.250000 0.000000 0.034453
#
# Coordination Sequence:
#
# PCOD9424521 Si02
#       5
#     8   8   4   8   8
#     4  12  27  49  79 110 151 200 255 316 381 449
#     4  12  25  49  73 107 150 202 251 310 386 453
#     4  12  26  52  74 108 152 196 260 316 376 456
#     4  12  24  47  73 111 154 198 252 307 386 454
#     4  12  25  43  74 113 155 197 253 310 380 463
#
# _framework density 22.416542
#
# number of rings (size 3 to 8) (size 9 to 14) (size 15 to 20)
#    0.000    0.000    4.444    5.333    0.000    2.667 
#    8.000    0.000    0.000    0.000    0.000    0.000 
#    0.000    0.000    0.000    0.000    0.000    0.000 
#
# Total GULP energy -202004.990468 kJ/mol
# GULP energy per Si atom -5611.249735 kJ/mol
# Density = 2.236552 g / cm^3
# Si number density = 22.416542 Si / 1000 Ang^3
#
#
#
# Elastic Constant Matrix: (Units=GPa)
#
#
# Indices 1 2 3 4 5 6 
#
# 1 104.3470 55.8286 50.8714 0.0000 0.0000 0.0000
# 2 55.8286 172.5945 80.6244 0.0000 0.0000 0.0000
# 3 50.8714 80.6244 146.8418 0.0000 0.0000 0.0000
# 4 0.0000 0.0000 0.0000 -43.4046 0.0000 0.0000
# 5 0.0000 0.0000 0.0000 0.0000 26.0905 0.0000
# 6 0.0000 0.0000 0.0000 0.0000 0.0000 29.3316
#
#
#
# Elastic Compliance Matrix: (Units=1/GPa)
#
#
# Indices 1 2 3 4 5 6 
#
# 1 0.012398 -0.002695 -0.002815 0.000000 0.000000 0.000000
# 2 -0.002695 0.008378 -0.003667 0.000000 0.000000 0.000000
# 3 -0.002815 -0.003667 0.009799 0.000000 0.000000 0.000000
# 4 0.000000 0.000000 0.000000 -0.023039 0.000000 0.000000
# 5 0.000000 0.000000 0.000000 0.000000 0.038328 0.000000
# 6 0.000000 0.000000 0.000000 0.000000 0.000000 0.034093
#
#
# Mechanical properties :
#
#
# Convention : Reuss Voigt Hill
#
# Bulk Modulus (GPa) = 81.82728 88.71468 85.27098
# Shear Modulus (GPa) = 48.83545 18.16743 33.50144
#
# Velocity S-wave (km/s) = 4.67255 2.84992 3.87007
# Velocity P-wave (km/s) = 8.10510 7.10569 7.62180
#
# Compressibility (1/GPa) = 0.01222086
#
# Stress axis : x y z
#
# Youngs Moduli (GPa) = 80.65866 119.35311 102.05637
#
# Poissons Ratio (x) = 0.32168 0.28732
# Poissons Ratio (y) = 0.21739 0.37419
# Poissons Ratio (z) = 0.22708 0.43761
#
# Static dielectric constant tensor:
#      x y z
#    x 1.824730 0.000000 0.000000 
#    y 0.000000 1.803970 0.000000 
#    z 0.000000 0.000000 1.811070 
# 
# From -- ./inp_files/20148.got.cif
#   From: 2010.05.17/outbox.cif.g08.bks.cpg/sg54_11_cif.got.tgz:20148.got - 2010.06.03 13:09:01.
