data_PCOD9424542
_publ_section_title
;
Structure prediction by ZEFSAII (Michael W. Deem and Ramdas Pophale) SiO2 
 PCOD9424542
Probable space group: P C C A
;
_chemical_formula_sum "Si O2"
_cell_formula_units_Z 32
_cell_length_a 32.369776
_cell_length_b 4.835605
_cell_length_c 8.338220
_cell_angle_alpha 90.000000
_cell_angle_beta 90.000000
_cell_angle_gamma 90.000000
_cell_volume 1305.160320
_symmetry_space_group_name_H-M "P C C A"
_symmetry_group_IT_number 54
_symmetry_cell_setting 'orthorhombic'
loop_
_space_group_symop_operation_xyz
x,y,z
1/2-x,-y,z
1/2+x,-y,1/2-z
-x,y,1/2-z
-x,-y,-z
1/2+x,y,-z
1/2-x,y,1/2+z
x,-y,1/2+z
loop_
_atom_site_type_symbol
_atom_site_label
_atom_site_fract_x
_atom_site_fract_y
_atom_site_fract_z
Si Si1 0.703107 0.902014 0.961965
Si Si2 0.171524 0.617072 0.721160
Si Si3 0.453213 0.098526 0.517326
Si Si4 0.421587 0.618363 0.334232
O O1 0.692662 0.664719 0.833557
O O2 0.750000 0.000000 0.948733
O O3 0.674196 0.165808 0.925864
O O4 0.695022 0.765981 0.133679
O O5 0.124912 0.570295 0.777226
O O6 0.442726 0.337144 0.389707
O O7 0.445290 0.232795 0.689488
O O8 0.500000 0.000000 0.500000
O O9 0.424074 0.835738 0.481170
#
# Coordination Sequence:
#
# PCOD9424542 Si02
#       4
#     8   8   8   8
#     4  12  26  45  71 106 141 182 233 291 353 421
#     4  12  25  47  74 105 143 187 235 293 356 426
#     4  12  26  45  71 106 144 187 239 296 356 425
#     4  12  25  47  73 105 142 188 237 292 357 426
#
# _framework density 24.518059999999998
#
# number of rings (size 3 to 8) (size 9 to 14) (size 15 to 20)
#    0.000    0.000    0.000   10.500    0.000    4.000 
#    0.000    1.250    0.000    0.000    0.000    0.000 
#    0.000    0.000    0.000    0.000    0.000    0.000 
#
# Total GULP energy -179866.937428 kJ/mol
# GULP energy per Si atom -5620.841795 kJ/mol
# Density = 2.446226 g / cm^3
# Si number density = 24.518060 Si / 1000 Ang^3
#
#
#
# Elastic Constant Matrix: (Units=GPa)
#
#
# Indices 1 2 3 4 5 6 
#
# 1 126.3264 68.1700 27.7682 0.0000 0.0000 0.0000
# 2 68.1700 173.9400 37.1661 0.0000 0.0000 0.0000
# 3 27.7682 37.1661 71.6590 0.0000 0.0000 0.0000
# 4 0.0000 0.0000 0.0000 55.8121 0.0000 0.0000
# 5 0.0000 0.0000 0.0000 0.0000 40.7631 0.0000
# 6 0.0000 0.0000 0.0000 0.0000 0.0000 50.6156
#
#
#
# Elastic Compliance Matrix: (Units=1/GPa)
#
#
# Indices 1 2 3 4 5 6 
#
# 1 0.010323 -0.003589 -0.002139 0.000000 0.000000 0.000000
# 2 -0.003589 0.007713 -0.002610 0.000000 0.000000 0.000000
# 3 -0.002139 -0.002610 0.016137 0.000000 0.000000 0.000000
# 4 0.000000 0.000000 0.000000 0.017917 0.000000 0.000000
# 5 0.000000 0.000000 0.000000 0.000000 0.024532 0.000000
# 6 0.000000 0.000000 0.000000 0.000000 0.000000 0.019757
#
#
# Mechanical properties :
#
#
# Convention : Reuss Voigt Hill
#
# Bulk Modulus (GPa) = 57.14730 70.90380 64.02555
# Shear Modulus (GPa) = 42.05679 45.35956 43.70818
#
# Velocity S-wave (km/s) = 4.14616 4.30588 4.22678
# Velocity P-wave (km/s) = 6.80292 7.32821 7.07044
#
# Compressibility (1/GPa) = 0.01749864
#
# Stress axis : x y z
#
# Youngs Moduli (GPa) = 96.87394 129.64776 61.96778
#
# Poissons Ratio (x) = 0.46526 0.13254
# Poissons Ratio (y) = 0.34764 0.16173
# Poissons Ratio (z) = 0.20720 0.33836
#
# Static dielectric constant tensor:
#      x y z
#    x 1.873090 0.000000 0.000000 
#    y 0.000000 1.911100 0.000000 
#    z 0.000000 0.000000 2.004670 
# 
# From -- ./inp_files/5691.got.cif
#   From: 2010.05.17/outbox.cif.g08.bks.cpg/sg54_3_cif.got.tgz:5691.got - 2010.06.03 13:09:01.
