data_PCOD9424528
_publ_section_title
;
Structure prediction by ZEFSAII (Michael W. Deem and Ramdas Pophale) SiO2 
 PCOD9424528
Probable space group: P C C A
;
_chemical_formula_sum "Si O2"
_cell_formula_units_Z 36
_cell_length_a 15.800965
_cell_length_b 5.301218
_cell_length_c 18.864248
_cell_angle_alpha 90.000000
_cell_angle_beta 90.000000
_cell_angle_gamma 90.000000
_cell_volume 1580.151662
_symmetry_space_group_name_H-M "P C C A"
_symmetry_group_IT_number 54
_symmetry_cell_setting 'orthorhombic'
loop_
_space_group_symop_operation_xyz
x,y,z
1/2-x,-y,z
1/2+x,-y,1/2-z
-x,y,1/2-z
-x,-y,-z
1/2+x,y,-z
1/2-x,y,1/2+z
x,-y,1/2+z
loop_
_atom_site_type_symbol
_atom_site_label
_atom_site_fract_x
_atom_site_fract_y
_atom_site_fract_z
Si Si1 0.351559 0.027531 0.504775
Si Si2 0.153065 0.461048 0.741854
Si Si3 0.000000 0.152822 0.250000
Si Si4 0.940502 0.809075 0.137580
Si Si5 0.593048 0.465582 0.413556
O O1 0.389353 0.075922 0.426969
O O2 0.380936 0.268983 0.551809
O O3 0.250000 0.000000 0.504187
O O4 0.388847 0.766389 0.534033
O O5 0.250000 0.500000 0.759588
O O6 0.119769 0.255099 0.796777
O O7 0.145677 0.413328 0.658111
O O8 0.085135 0.683516 0.753935
O O9 0.994453 0.993470 0.322439
O O10 0.994917 0.570909 0.109401
#
# Coordination Sequence:
#
# PCOD9424528 Si02
#       5
#     8   8   4   8   8
#     4  12  29  47  77 115 157 205 267 323 398 474
#     4  12  27  46  79 112 157 206 266 331 392 473
#     4  12  24  50  76 112 160 196 270 326 398 464
#     4  12  27  48  76 113 152 210 265 325 400 471
#     4  12  25  53  74 112 158 213 257 325 399 473
#
# _framework density 22.782623999999998
#
# number of rings (size 3 to 8) (size 9 to 14) (size 15 to 20)
#    0.000    0.000    4.444    4.667    6.222    0.000 
#    0.000    0.000    0.000    0.000    0.000    0.000 
#    0.000    0.000    0.000    0.000    0.000    0.000 
#
# Total GULP energy -201508.198054 kJ/mol
# GULP energy per Si atom -5597.449946 kJ/mol
# Density = 2.273077 g / cm^3
# Si number density = 22.782624 Si / 1000 Ang^3
#
#
#
# Elastic Constant Matrix: (Units=GPa)
#
#
# Indices 1 2 3 4 5 6 
#
# 1 122.4211 40.6781 39.3333 0.0000 0.0000 0.0000
# 2 40.6781 120.7882 62.7197 0.0000 0.0000 0.0000
# 3 39.3333 62.7197 162.9599 0.0000 0.0000 0.0000
# 4 0.0000 0.0000 0.0000 44.3855 0.0000 0.0000
# 5 0.0000 0.0000 0.0000 0.0000 22.7622 0.0000
# 6 0.0000 0.0000 0.0000 0.0000 0.0000 2.1808
#
#
#
# Elastic Compliance Matrix: (Units=1/GPa)
#
#
# Indices 1 2 3 4 5 6 
#
# 1 0.009418 -0.002489 -0.001315 0.000000 0.000000 0.000000
# 2 -0.002489 0.011004 -0.003635 0.000000 0.000000 0.000000
# 3 -0.001315 -0.003635 0.007853 0.000000 0.000000 0.000000
# 4 0.000000 0.000000 0.000000 0.022530 0.000000 0.000000
# 5 0.000000 0.000000 0.000000 0.000000 0.043932 0.000000
# 6 0.000000 0.000000 0.000000 0.000000 0.000000 0.458547
#
#
# Mechanical properties :
#
#
# Convention : Reuss Voigt Hill
#
# Bulk Modulus (GPa) = 74.63888 76.84796 75.74342
# Shear Modulus (GPa) = 8.73167 31.42824 20.07996
#
# Velocity S-wave (km/s) = 1.95983 3.71817 2.97201
# Velocity P-wave (km/s) = 6.16065 7.22753 6.71531
#
# Compressibility (1/GPa) = 0.01339784
#
# Stress axis : x y z
#
# Youngs Moduli (GPa) = 106.17836 90.87274 127.34208
#
# Poissons Ratio (x) = 0.22616 0.16750
# Poissons Ratio (y) = 0.26425 0.46284
# Poissons Ratio (z) = 0.13966 0.33029
#
# Static dielectric constant tensor:
#      x y z
#    x 1.725450 0.000000 0.000000 
#    y 0.000000 1.942630 0.000000 
#    z 0.000000 0.000000 1.836360 
# 
# From -- ./inp_files/21343.got.cif
#   From: 2010.05.17/outbox.cif.g08.bks.cpg/sg54_11_cif.got.tgz:21343.got - 2010.06.03 13:09:01.
