data_PCOD9424484
_publ_section_title
;
Structure prediction by ZEFSAII (Michael W. Deem and Ramdas Pophale) SiO2 
 PCOD9424484
Probable space group: P C C A
;
_chemical_formula_sum "Si O2"
_cell_formula_units_Z 40
_cell_length_a 9.167840
_cell_length_b 9.851594
_cell_length_c 21.234282
_cell_angle_alpha 90.000000
_cell_angle_beta 90.000000
_cell_angle_gamma 90.000000
_cell_volume 1917.834432
_symmetry_space_group_name_H-M "P C C A"
_symmetry_group_IT_number 54
_symmetry_cell_setting 'orthorhombic'
loop_
_space_group_symop_operation_xyz
x,y,z
1/2-x,-y,z
1/2+x,-y,1/2-z
-x,y,1/2-z
-x,-y,-z
1/2+x,y,-z
1/2-x,y,1/2+z
x,-y,1/2+z
loop_
_atom_site_type_symbol
_atom_site_label
_atom_site_fract_x
_atom_site_fract_y
_atom_site_fract_z
Si Si1 0.000000 0.175811 0.750000
Si Si2 0.750000 0.000000 0.319614
Si Si3 0.579002 0.509233 0.433096
Si Si4 0.200408 0.849163 0.952309
Si Si5 0.345960 0.360799 0.354566
Si Si6 0.880497 0.806453 0.923782
O O1 0.903324 0.273575 0.704543
O O2 0.121639 0.078489 0.717591
O O3 0.673267 0.892142 0.365516
O O4 0.750000 0.500000 0.444159
O O5 0.500000 0.500000 0.500000
O O6 0.495691 0.404587 0.389344
O O7 0.571163 0.657374 0.402808
O O8 0.257855 0.738467 0.902114
O O9 0.027321 0.860465 0.954911
O O10 0.250000 0.000000 0.934585
O O11 0.261094 0.808054 0.020861
O O12 0.250000 0.500000 0.343364
#
# Coordination Sequence:
#
# PCOD9424484 Si02
#       6
#     4   4   8   8   8   8
#     4  12  32  52  78 104 156 208 274 308 376 466
#     4  12  30  52  74 114 146 210 256 324 382 446
#     4  12  23  40  71 111 151 189 244 309 384 460
#     4  12  25  42  75 113 151 186 242 315 383 464
#     4  12  27  51  74 109 150 206 253 312 386 452
#     4  12  25  43  74 111 151 191 241 310 393 449
#
# _framework density 20.856857000000002
#
# number of rings (size 3 to 8) (size 9 to 14) (size 15 to 20)
#    0.000    0.000    5.000    4.800    7.000    2.400 
#    0.000    0.000    0.000    0.000    0.000    0.000 
#    0.000    0.000    0.000    0.000    0.000    0.000 
#
# Total GULP energy -223551.978593 kJ/mol
# GULP energy per Si atom -5588.799465 kJ/mol
# Density = 2.080939 g / cm^3
# Si number density = 20.856857 Si / 1000 Ang^3
#
#
#
# Elastic Constant Matrix: (Units=GPa)
#
#
# Indices 1 2 3 4 5 6 
#
# 1 154.8776 33.2761 59.6063 0.0000 0.0000 0.0000
# 2 33.2761 142.4217 64.6733 0.0000 0.0000 0.0000
# 3 59.6063 64.6733 133.2243 0.0000 0.0000 0.0000
# 4 0.0000 0.0000 0.0000 41.0091 0.0000 0.0000
# 5 0.0000 0.0000 0.0000 0.0000 -228.2845 0.0000
# 6 0.0000 0.0000 0.0000 0.0000 0.0000 39.8373
#
#
#
# Elastic Compliance Matrix: (Units=1/GPa)
#
#
# Indices 1 2 3 4 5 6 
#
# 1 0.007810 -0.000305 -0.003346 0.000000 0.000000 0.000000
# 2 -0.000305 0.009019 -0.004242 0.000000 0.000000 0.000000
# 3 -0.003346 -0.004242 0.011062 0.000000 0.000000 0.000000
# 4 0.000000 0.000000 0.000000 0.024385 0.000000 0.000000
# 5 0.000000 0.000000 0.000000 0.000000 -0.004380 0.000000
# 6 0.000000 0.000000 0.000000 0.000000 0.000000 0.025102
#
#
# Mechanical properties :
#
#
# Convention : Reuss Voigt Hill
#
# Bulk Modulus (GPa) = 82.60905 82.84831 82.72868
# Shear Modulus (GPa) = 53.86849 -11.28976 21.28937
#
# Velocity S-wave (km/s) = 5.08761 -2.32910 3.19836
# Velocity P-wave (km/s) = 8.61425 5.70750 7.30688
#
# Compressibility (1/GPa) = 0.01210521
#
# Stress axis : x y z
#
# Youngs Moduli (GPa) = 128.03928 110.87935 90.39733
#
# Poissons Ratio (x) = 0.03385 0.30248
# Poissons Ratio (y) = 0.03909 0.38342
# Poissons Ratio (z) = 0.42843 0.47030
#
# Static dielectric constant tensor:
#      x y z
#    x 1.702770 0.000000 0.000000 
#    y 0.000000 1.803290 0.000000 
#    z 0.000000 0.000000 1.724060 
# 
# From -- ./inp_files/23335.got.cif
#   From: 2010.05.17/outbox.cif.g08.bks.cpg/sg54_12_cif.got.tgz:23335.got - 2010.06.03 13:09:01.
