data_PCOD9424783
_publ_section_title
;
Structure prediction by ZEFSAII (Michael W. Deem and Ramdas Pophale) SiO2 
 PCOD9424783
Probable space group: P B A M
;
_chemical_formula_sum "Si O2"
_cell_formula_units_Z 64
_cell_length_a 22.785312
_cell_length_b 8.442284
_cell_length_c 19.445363
_cell_angle_alpha 90.000000
_cell_angle_beta 90.000000
_cell_angle_gamma 90.000000
_cell_volume 3740.511484
_symmetry_space_group_name_H-M "P B A M"
_symmetry_group_IT_number 55
_symmetry_cell_setting 'orthorhombic'
loop_
_space_group_symop_operation_xyz
x,y,z
-x,-y,z
1/2+x,1/2-y,-z
1/2-x,1/2+y,-z
-x,-y,-z
x,y,-z
1/2-x,1/2+y,z
1/2+x,1/2-y,z
loop_
_atom_site_type_symbol
_atom_site_label
_atom_site_fract_x
_atom_site_fract_y
_atom_site_fract_z
Si Si1 0.068199 0.057112 0.077387
Si Si2 0.913597 0.152984 0.796897
Si Si3 0.562736 0.077406 0.692667
Si Si4 0.565126 0.446026 0.659179
Si Si5 0.667089 0.878052 0.282054
Si Si6 0.260674 0.864360 0.658860
Si Si7 0.821291 0.908050 0.419402
Si Si8 0.529410 0.155939 0.158780
O O1 0.064758 0.234944 0.106662
O O2 0.098667 0.947650 0.134580
O O3 0.091484 0.046523 0.000000
O O4 0.000000 0.000000 0.075230
O O5 0.865505 0.286430 0.779725
O O6 0.976448 0.238228 0.809080
O O7 0.920511 0.034282 0.731763
O O8 0.564800 0.255640 0.665736
O O9 0.566487 0.098748 0.775705
O O10 0.500000 0.000000 0.677400
O O11 0.613470 0.952868 0.673646
O O12 0.500000 0.500000 0.638512
O O13 0.617795 0.482904 0.607003
O O14 0.707579 0.743528 0.314958
O O15 0.710701 0.029880 0.280279
O O16 0.308296 0.750454 0.624204
O O17 0.232536 0.978719 0.601862
O O18 0.822715 0.877891 0.500000
O O19 0.500000 0.000000 0.126503
#
# Coordination Sequence:
#
# PCOD9424783 Si02
#       8
#     8   8   8   8   8   8   8   8
#     4   9  18  30  45  74 119 157 182 216 271 334
#     4  11  18  31  54  79 110 145 185 228 271 326
#     4  11  19  31  55  83 109 144 182 228 280 332
#     4  12  20  34  57  82 111 145 188 231 279 336
#     4  11  20  36  56  85 109 136 184 238 279 337
#     4  10  23  38  57  80 109 139 182 232 293 331
#     4  11  23  39  58  79 108 146 183 230 286 351
#     4  10  17  27  48  80 109 151 185 218 275 323
#
# _framework density 17.109959
#
# number of rings (size 3 to 8) (size 9 to 14) (size 15 to 20)
#    0.000    1.375    7.500    0.750    0.000    0.500 
#    0.000    0.000    0.000    0.375    0.000    0.875 
#    0.000    0.000    0.000    0.000    0.000    0.000 
#
# Total GULP energy -356393.529958 kJ/mol
# GULP energy per Si atom -5568.648906 kJ/mol
# Density = 1.707102 g / cm^3
# Si number density = 17.109959 Si / 1000 Ang^3
#
#
#
# Elastic Constant Matrix: (Units=GPa)
#
#
# Indices 1 2 3 4 5 6 
#
# 1 82.9363 35.6065 25.9534 0.0000 0.0000 0.0000
# 2 35.6065 96.3735 21.5727 0.0000 0.0000 0.0000
# 3 25.9534 21.5727 56.2774 0.0000 0.0000 0.0000
# 4 0.0000 0.0000 0.0000 10.1142 0.0000 0.0000
# 5 0.0000 0.0000 0.0000 0.0000 15.5711 0.0000
# 6 0.0000 0.0000 0.0000 0.0000 0.0000 35.6943
#
#
#
# Elastic Compliance Matrix: (Units=1/GPa)
#
#
# Indices 1 2 3 4 5 6 
#
# 1 0.015749 -0.004587 -0.005505 0.000000 0.000000 0.000000
# 2 -0.004587 0.012686 -0.002748 0.000000 0.000000 0.000000
# 3 -0.005505 -0.002748 0.021361 0.000000 0.000000 0.000000
# 4 0.000000 0.000000 0.000000 0.098871 0.000000 0.000000
# 5 0.000000 0.000000 0.000000 0.000000 0.064222 0.000000
# 6 0.000000 0.000000 0.000000 0.000000 0.000000 0.028016
#
#
# Mechanical properties :
#
#
# Convention : Reuss Voigt Hill
#
# Bulk Modulus (GPa) = 41.46289 44.65025 43.05657
# Shear Modulus (GPa) = 18.20685 22.43955 20.32320
#
# Velocity S-wave (km/s) = 3.26561 3.62538 3.45019
# Velocity P-wave (km/s) = 6.20522 6.60887 6.41022
#
# Compressibility (1/GPa) = 0.02411795
#
# Stress axis : x y z
#
# Youngs Moduli (GPa) = 63.49531 78.82763 46.81413
#
# Poissons Ratio (x) = 0.36154 0.25771
# Poissons Ratio (y) = 0.29122 0.12863
# Poissons Ratio (z) = 0.34953 0.21660
#
# Static dielectric constant tensor:
#      x y z
#    x 1.604380 0.000000 0.000000 
#    y 0.000000 1.631620 0.000000 
#    z 0.000000 0.000000 1.563860 
# 
# From -- ./inp_files/23181.got.cif
#   From: 2010.05.17/outbox.cif.g08.bks.cpg/sg55_12_cif.got.tgz:23181.got - 2010.06.03 13:27:54.
