data_PCOD9424852
_publ_section_title
;
Structure prediction by ZEFSAII (Michael W. Deem and Ramdas Pophale) SiO2 
 PCOD9424852
Probable space group: P B A M
;
_chemical_formula_sum "Si O2"
_cell_formula_units_Z 56
_cell_length_a 14.228779
_cell_length_b 13.461744
_cell_length_c 14.752088
_cell_angle_alpha 90.000000
_cell_angle_beta 90.000000
_cell_angle_gamma 90.000000
_cell_volume 2825.676604
_symmetry_space_group_name_H-M "P B A M"
_symmetry_group_IT_number 55
_symmetry_cell_setting 'orthorhombic'
loop_
_space_group_symop_operation_xyz
x,y,z
-x,-y,z
1/2+x,1/2-y,-z
1/2-x,1/2+y,-z
-x,-y,-z
x,y,-z
1/2-x,1/2+y,z
1/2+x,1/2-y,z
loop_
_atom_site_type_symbol
_atom_site_label
_atom_site_fract_x
_atom_site_fract_y
_atom_site_fract_z
Si Si1 0.356926 0.691333 0.397715
Si Si2 0.710491 0.753395 0.901369
Si Si3 0.293451 0.499978 0.288977
Si Si4 0.002820 0.764994 0.843697
Si Si5 0.656796 0.148538 0.758266
Si Si6 0.852944 0.927567 0.901084
Si Si7 0.458015 0.390188 0.665849
O O1 0.321909 0.703656 0.500000
O O2 0.304279 0.603166 0.342183
O O3 0.350331 0.786489 0.333045
O O4 0.466778 0.657816 0.401667
O O5 0.598906 0.759687 0.893085
O O6 0.759217 0.692071 0.821124
O O7 0.758477 0.861527 0.898331
O O8 0.735742 0.709851 0.000000
O O9 0.189290 0.461575 0.267841
O O10 0.346199 0.509479 0.190882
O O11 0.349044 0.416592 0.348121
O O12 0.936843 0.672393 0.815733
O O13 0.936686 0.846809 0.892303
O O14 0.033350 0.819537 0.751710
O O15 0.861112 0.977746 0.000000
O O16 0.500000 0.500000 0.682293
#
# Coordination Sequence:
#
# PCOD9424852 Si02
#       7
#     8   8   8   8   8   8   8
#     4  10  21  38  57  81 115 147 187 244 293 345
#     4  10  19  33  56  81 114 156 190 224 276 339
#     4  11  19  35  58  84 113 151 183 233 291 341
#     4  10  17  34  52  81 114 154 184 235 272 334
#     4  10  21  36  58  82 117 150 190 232 287 344
#     4  10  20  34  52  82 120 154 190 235 279 336
#     4   9  16  30  52  78 111 137 176 224 291 337
#
# _framework density 19.818263000000002
#
# number of rings (size 3 to 8) (size 9 to 14) (size 15 to 20)
#    0.000    2.000    7.143    0.429    0.000    4.286 
#    0.000    1.429    0.000    1.714    0.000    1.000 
#    0.000    0.000    0.000    0.000    0.000    0.000 
#
# Total GULP energy -311872.405414 kJ/mol
# GULP energy per Si atom -5569.150097 kJ/mol
# Density = 1.977316 g / cm^3
# Si number density = 19.818263 Si / 1000 Ang^3
#
#
#
# Elastic Constant Matrix: (Units=GPa)
#
#
# Indices 1 2 3 4 5 6 
#
# 1 80.6669 8.9639 4.3873 0.0000 0.0000 0.0000
# 2 8.9639 11.7588 9.7750 0.0000 0.0000 0.0000
# 3 4.3873 9.7750 116.0351 0.0000 0.0000 0.0000
# 4 0.0000 0.0000 0.0000 -4.0315 0.0000 0.0000
# 5 0.0000 0.0000 0.0000 0.0000 15.4827 0.0000
# 6 0.0000 0.0000 0.0000 0.0000 0.0000 20.2492
#
#
#
# Elastic Compliance Matrix: (Units=1/GPa)
#
#
# Indices 1 2 3 4 5 6 
#
# 1 0.013560 -0.010657 0.000385 0.000000 0.000000 0.000000
# 2 -0.010657 0.099822 -0.008006 0.000000 0.000000 0.000000
# 3 0.000385 -0.008006 0.009278 0.000000 0.000000 0.000000
# 4 0.000000 0.000000 0.000000 -0.248045 0.000000 0.000000
# 5 0.000000 0.000000 0.000000 0.000000 0.064588 0.000000
# 6 0.000000 0.000000 0.000000 0.000000 0.000000 0.049385
#
#
# Mechanical properties :
#
#
# Convention : Reuss Voigt Hill
#
# Bulk Modulus (GPa) = 11.61391 28.30146 19.95768
# Shear Modulus (GPa) = 92.85817 18.69571 55.77694
#
# Velocity S-wave (km/s) = 6.85249 3.07474 5.31087
# Velocity P-wave (km/s) = 8.27537 5.18815 6.90647
#
# Compressibility (1/GPa) = 0.08610367
#
# Stress axis : x y z
#
# Youngs Moduli (GPa) = 73.74663 10.01783 107.78212
#
# Poissons Ratio (x) = 0.10676 -0.04150
# Poissons Ratio (y) = 0.78592 0.86293
# Poissons Ratio (z) = -0.02840 0.08021
#
# Static dielectric constant tensor:
#      x y z
#    x 1.765740 0.000000 0.000000 
#    y 0.000000 1.703000 0.000000 
#    z 0.000000 0.000000 1.720710 
# 
# From -- ./inp_files/19026.got.cif
#   From: 2010.05.17/outbox.cif.g08.bks.cpg/sg55_10_cif.got.tgz:19026.got - 2010.06.03 13:27:54.
