data_PCOD9424209
_publ_section_title
;
Structure prediction by ZEFSAII (Michael W. Deem and Ramdas Pophale) SiO2 
 PCOD9424209
Probable space group: P C C A
;
_chemical_formula_sum "Si O2"
_cell_formula_units_Z 56
_cell_length_a 14.155500
_cell_length_b 11.320816
_cell_length_c 16.395703
_cell_angle_alpha 90.000000
_cell_angle_beta 90.000000
_cell_angle_gamma 90.000000
_cell_volume 2627.441097
_symmetry_space_group_name_H-M "P C C A"
_symmetry_group_IT_number 54
_symmetry_cell_setting 'orthorhombic'
loop_
_space_group_symop_operation_xyz
x,y,z
1/2-x,-y,z
1/2+x,-y,1/2-z
-x,y,1/2-z
-x,-y,-z
1/2+x,y,-z
1/2-x,y,1/2+z
x,-y,1/2+z
loop_
_atom_site_type_symbol
_atom_site_label
_atom_site_fract_x
_atom_site_fract_y
_atom_site_fract_z
Si Si1 0.443485 0.978315 0.916482
Si Si2 0.900469 0.184463 0.209603
Si Si3 0.940341 0.773393 0.327330
Si Si4 0.738154 0.868453 0.348088
Si Si5 0.852558 0.773763 0.005577
Si Si6 0.285845 0.371209 0.887188
Si Si7 0.539351 0.631253 0.989343
O O1 0.505525 0.889569 0.861378
O O2 0.357105 0.899101 0.948145
O O3 0.418148 0.094571 0.865613
O O4 0.500000 0.000000 0.000000
O O5 0.841417 0.119688 0.279642
O O6 0.835304 0.293584 0.182366
O O7 0.000000 0.220309 0.250000
O O8 0.834057 0.815752 0.310995
O O9 0.000000 0.731859 0.250000
O O10 0.939294 0.674302 0.397638
O O11 0.704160 0.787104 0.422257
O O12 0.750000 0.000000 0.382298
O O13 0.804284 0.688239 0.070373
O O14 0.956656 0.723108 0.984526
O O15 0.250000 0.500000 0.861301
O O16 0.366623 0.368361 0.956878
O O17 0.500000 0.500000 0.000000
#
# Coordination Sequence:
#
# PCOD9424209 Si02
#       7
#     8   8   8   8   8   8   8
#     4  11  23  44  72 105 145 193 235 291 362 444
#     4  12  27  47  71 106 152 188 233 301 371 425
#     4  11  24  42  65 105 146 185 237 297 367 436
#     4  12  25  41  68 107 145 184 226 297 366 434
#     4  11  25  43  72 105 140 187 246 293 363 434
#     4  12  26  47  75 107 136 191 255 296 352 438
#     4  11  23  46  74  96 138 186 239 306 354 427
#
# _framework density 21.313513
#
# number of rings (size 3 to 8) (size 9 to 14) (size 15 to 20)
#    0.000    0.571    2.857    6.429    8.000    0.000 
#    0.000    5.714    0.000    0.000    0.000    0.000 
#    0.000    0.000    0.000    0.000    0.000    0.000 
#
# Total GULP energy -313171.277706 kJ/mol
# GULP energy per Si atom -5592.344245 kJ/mol
# Density = 2.126500 g / cm^3
# Si number density = 21.313513 Si / 1000 Ang^3
#
#
#
# Elastic Constant Matrix: (Units=GPa)
#
#
# Indices 1 2 3 4 5 6 
#
# 1 85.6626 20.6357 15.6680 0.0000 0.0000 0.0000
# 2 20.6357 116.3930 26.1882 0.0000 0.0000 0.0000
# 3 15.6680 26.1882 61.9434 0.0000 0.0000 0.0000
# 4 0.0000 0.0000 0.0000 11.6422 0.0000 0.0000
# 5 0.0000 0.0000 0.0000 0.0000 41.0561 0.0000
# 6 0.0000 0.0000 0.0000 0.0000 0.0000 34.8839
#
#
#
# Elastic Compliance Matrix: (Units=1/GPa)
#
#
# Indices 1 2 3 4 5 6 
#
# 1 0.012526 -0.001666 -0.002464 0.000000 0.000000 0.000000
# 2 -0.001666 0.009716 -0.003686 0.000000 0.000000 0.000000
# 3 -0.002464 -0.003686 0.018325 0.000000 0.000000 0.000000
# 4 0.000000 0.000000 0.000000 0.085894 0.000000 0.000000
# 5 0.000000 0.000000 0.000000 0.000000 0.024357 0.000000
# 6 0.000000 0.000000 0.000000 0.000000 0.000000 0.028667
#
#
# Mechanical properties :
#
#
# Convention : Reuss Voigt Hill
#
# Bulk Modulus (GPa) = 40.10490 43.22029 41.66259
# Shear Modulus (GPa) = 24.57851 30.95027 27.76439
#
# Velocity S-wave (km/s) = 3.39955 3.81483 3.61316
# Velocity P-wave (km/s) = 5.85378 6.30288 6.08248
#
# Compressibility (1/GPa) = 0.02493461
#
# Stress axis : x y z
#
# Youngs Moduli (GPa) = 79.83549 102.91823 54.56891
#
# Poissons Ratio (x) = 0.17150 0.13444
# Poissons Ratio (y) = 0.13304 0.20116
# Poissons Ratio (z) = 0.19669 0.37940
#
# Static dielectric constant tensor:
#      x y z
#    x 1.793080 0.000000 0.000000 
#    y 0.000000 1.764000 0.000000 
#    z 0.000000 0.000000 1.720180 
# 
# From -- ./inp_files/13480.got.cif
#   From: 2010.05.17/outbox.cif.g08.bks.cpg/sg54_7_cif.got.tgz:13480.got - 2010.06.03 13:09:01.
