data_PCOD9424182
_publ_section_title
;
Structure prediction by ZEFSAII (Michael W. Deem and Ramdas Pophale) SiO2 
 PCOD9424182
Probable space group: P C C A
;
_chemical_formula_sum "Si O2"
_cell_formula_units_Z 48
_cell_length_a 25.077254
_cell_length_b 9.293808
_cell_length_c 9.512537
_cell_angle_alpha 90.000000
_cell_angle_beta 90.000000
_cell_angle_gamma 90.000000
_cell_volume 2217.022160
_symmetry_space_group_name_H-M "P C C A"
_symmetry_group_IT_number 54
_symmetry_cell_setting 'orthorhombic'
loop_
_space_group_symop_operation_xyz
x,y,z
1/2-x,-y,z
1/2+x,-y,1/2-z
-x,y,1/2-z
-x,-y,-z
1/2+x,y,-z
1/2-x,y,1/2+z
x,-y,1/2+z
loop_
_atom_site_type_symbol
_atom_site_label
_atom_site_fract_x
_atom_site_fract_y
_atom_site_fract_z
Si Si1 0.104971 0.532342 0.547175
Si Si2 0.709654 0.380991 0.491981
Si Si3 0.352933 0.169294 0.669786
Si Si4 0.560520 0.683124 0.717632
Si Si5 0.133793 0.053917 0.876973
Si Si6 0.764592 0.797354 0.239375
O O1 0.154899 0.457514 0.468546
O O2 0.129043 0.670655 0.630177
O O3 0.080838 0.419664 0.656753
O O4 0.065881 0.593022 0.427903
O O5 0.750000 0.500000 0.433181
O O6 0.700748 0.275019 0.362165
O O7 0.740058 0.308067 0.621332
O O8 0.372133 0.067732 0.543102
O O9 0.288939 0.155965 0.679655
O O10 0.375289 0.103371 0.813623
O O11 0.500000 0.723787 0.750000
O O12 0.596615 0.824381 0.692576
O O13 0.195064 0.097073 0.840044
#
# Coordination Sequence:
#
# PCOD9424182 Si02
#       6
#     8   8   8   8   8   8
#     4  11  23  42  66  98 126 164 212 275 328 384
#     4  12  22  35  63  97 135 164 207 255 320 385
#     4  11  25  40  61  92 133 169 213 251 322 391
#     4  11  24  45  69  94 123 164 222 278 329 379
#     4  11  25  43  60  93 130 173 213 263 313 386
#     4  12  22  38  61  94 131 175 206 248 312 389
#
# _framework density 21.650663000000002
#
# number of rings (size 3 to 8) (size 9 to 14) (size 15 to 20)
#    0.000    0.667    5.000    3.500    2.333    2.667 
#    0.000    4.167    0.000    0.000    0.000    0.000 
#    0.000    0.000    0.000    0.000    0.000    0.000 
#
# Total GULP energy -268379.339927 kJ/mol
# GULP energy per Si atom -5591.236248 kJ/mol
# Density = 2.160138 g / cm^3
# Si number density = 21.650663 Si / 1000 Ang^3
#
#
#
# Elastic Constant Matrix: (Units=GPa)
#
#
# Indices 1 2 3 4 5 6 
#
# 1 78.2375 13.1385 4.1718 0.0000 0.0000 0.0000
# 2 13.1385 46.9771 9.5495 0.0000 0.0000 0.0000
# 3 4.1718 9.5495 57.1399 0.0000 0.0000 0.0000
# 4 0.0000 0.0000 0.0000 36.2398 0.0000 0.0000
# 5 0.0000 0.0000 0.0000 0.0000 23.7181 0.0000
# 6 0.0000 0.0000 0.0000 0.0000 0.0000 9.3722
#
#
#
# Elastic Compliance Matrix: (Units=1/GPa)
#
#
# Indices 1 2 3 4 5 6 
#
# 1 0.013419 -0.003679 -0.000365 0.000000 0.000000 0.000000
# 2 -0.003679 0.023044 -0.003583 0.000000 0.000000 0.000000
# 3 -0.000365 -0.003583 0.018126 0.000000 0.000000 0.000000
# 4 0.000000 0.000000 0.000000 0.027594 0.000000 0.000000
# 5 0.000000 0.000000 0.000000 0.000000 0.042162 0.000000
# 6 0.000000 0.000000 0.000000 0.000000 0.000000 0.106699
#
#
# Mechanical properties :
#
#
# Convention : Reuss Voigt Hill
#
# Bulk Modulus (GPa) = 25.42163 26.23045 25.82604
# Shear Modulus (GPa) = 19.27460 24.23232 21.75346
#
# Velocity S-wave (km/s) = 2.98695 3.34914 3.17321
# Velocity P-wave (km/s) = 4.86447 5.20550 5.03787
#
# Compressibility (1/GPa) = 0.03933659
#
# Stress axis : x y z
#
# Youngs Moduli (GPa) = 74.52211 43.39505 55.16844
#
# Poissons Ratio (x) = 0.15964 0.02013
# Poissons Ratio (y) = 0.27415 0.19765
# Poissons Ratio (z) = 0.02719 0.15547
#
# Static dielectric constant tensor:
#      x y z
#    x 1.758480 0.000000 0.000000 
#    y 0.000000 1.838990 0.000000 
#    z 0.000000 0.000000 1.802870 
# 
# From -- ./inp_files/5167.got.cif
#   From: 2010.05.17/outbox.cif.g08.bks.cpg/sg54_3_cif.got.tgz:5167.got - 2010.06.03 13:09:01.
