data_PCOD9424776
_publ_section_title
;
Structure prediction by ZEFSAII (Michael W. Deem and Ramdas Pophale) SiO2 
 PCOD9424776
Probable space group: P B A M
;
_chemical_formula_sum "Si O2"
_cell_formula_units_Z 56
_cell_length_a 18.255667
_cell_length_b 22.676939
_cell_length_c 9.096475
_cell_angle_alpha 90.000000
_cell_angle_beta 90.000000
_cell_angle_gamma 90.000000
_cell_volume 3765.782799
_symmetry_space_group_name_H-M "P B A M"
_symmetry_group_IT_number 55
_symmetry_cell_setting 'orthorhombic'
loop_
_space_group_symop_operation_xyz
x,y,z
-x,-y,z
1/2+x,1/2-y,-z
1/2-x,1/2+y,-z
-x,-y,-z
x,y,-z
1/2-x,1/2+y,z
1/2+x,1/2-y,z
loop_
_atom_site_type_symbol
_atom_site_label
_atom_site_fract_x
_atom_site_fract_y
_atom_site_fract_z
Si Si1 0.122789 0.848215 0.677488
Si Si2 0.719224 0.179182 0.669373
Si Si3 0.921599 0.714508 0.175357
Si Si4 0.006338 0.930665 0.175522
Si Si5 0.128536 0.152722 0.824130
Si Si6 0.727652 0.816144 0.329575
Si Si7 0.914070 0.277499 0.177119
O O1 0.119655 0.842058 0.500000
O O2 0.208518 0.855854 0.719577
O O3 0.095605 0.787560 0.752802
O O4 0.071457 0.900045 0.735218
O O5 0.704960 0.164799 0.500000
O O6 0.643761 0.176389 0.756791
O O7 0.745665 0.247638 0.676637
O O8 0.906108 0.783264 0.214239
O O9 0.004811 0.700153 0.218175
O O10 0.916783 0.710562 0.000000
O O11 0.930822 0.896917 0.212540
O O12 0.018764 0.921824 0.000000
O O13 0.000000 0.000000 0.203739
O O14 0.205946 0.147877 0.742469
O O15 0.140701 0.152370 0.000000
O O16 0.716653 0.831179 0.500000
O O17 0.651963 0.816672 0.240356
O O18 0.909313 0.272998 0.000000
#
# Coordination Sequence:
#
# PCOD9424776 Si02
#       7
#     8   8   8   8   8   8   8
#     4  10  19  30  43  60  84 114 147 182 220 259
#     4   8  16  27  38  56  81 109 140 172 209 254
#     4   9  16  25  40  61  83 110 143 173 208 253
#     4  10  20  33  48  65  85 113 152 191 224 260
#     4   9  16  29  43  58  81 112 145 179 218 255
#     4   9  17  27  39  60  83 110 144 175 212 257
#     4  10  17  27  42  62  87 115 145 176 212 257
#
# _framework density 14.870746
#
# number of rings (size 3 to 8) (size 9 to 14) (size 15 to 20)
#    0.000    2.714    1.429    2.143    0.000    6.000 
#    0.000    0.000    0.000    0.000    0.000    0.000 
#    0.000    1.143    0.000   12.857    0.000    6.429 
#
# Total GULP energy -311831.002634 kJ/mol
# GULP energy per Si atom -5568.410761 kJ/mol
# Density = 1.483690 g / cm^3
# Si number density = 14.870746 Si / 1000 Ang^3
#
#
#
# Elastic Constant Matrix: (Units=GPa)
#
#
# Indices 1 2 3 4 5 6 
#
# 1 169.2380 40.5233 66.2774 0.0000 0.0000 0.0000
# 2 40.5233 39.3761 22.9790 0.0000 0.0000 0.0000
# 3 66.2774 22.9790 51.6702 0.0000 0.0000 0.0000
# 4 0.0000 0.0000 0.0000 10.1115 0.0000 0.0000
# 5 0.0000 0.0000 0.0000 0.0000 10.3836 0.0000
# 6 0.0000 0.0000 0.0000 0.0000 0.0000 12.1591
#
#
#
# Elastic Compliance Matrix: (Units=1/GPa)
#
#
# Indices 1 2 3 4 5 6 
#
# 1 0.012494 -0.004734 -0.013921 0.000000 0.000000 0.000000
# 2 -0.004734 0.036091 -0.009978 0.000000 0.000000 0.000000
# 3 -0.013921 -0.009978 0.041647 0.000000 0.000000 0.000000
# 4 0.000000 0.000000 0.000000 0.098897 0.000000 0.000000
# 5 0.000000 0.000000 0.000000 0.000000 0.096306 0.000000
# 6 0.000000 0.000000 0.000000 0.000000 0.000000 0.082243
#
#
# Mechanical properties :
#
#
# Convention : Reuss Voigt Hill
#
# Bulk Modulus (GPa) = 30.33384 57.76041 44.04713
# Shear Modulus (GPa) = 11.46963 15.23113 13.35038
#
# Velocity S-wave (km/s) = 2.78022 3.20384 2.99952
# Velocity P-wave (km/s) = 5.54516 7.25342 6.45604
#
# Compressibility (1/GPa) = 0.03296648
#
# Stress axis : x y z
#
# Youngs Moduli (GPa) = 80.03747 27.70756 24.01122
#
# Poissons Ratio (x) = 0.13118 0.33426
# Poissons Ratio (y) = 0.37892 0.23958
# Poissons Ratio (z) = 1.11419 0.27646
#
# Static dielectric constant tensor:
#      x y z
#    x 1.516010 0.000000 0.000000 
#    y 0.000000 1.457710 0.000000 
#    z 0.000000 0.000000 1.502290 
# 
# From -- ./inp_files/7813.got.cif
#   From: 2010.05.17/outbox.cif.g08.bks.cpg/sg55_4_cif.got.tgz:7813.got - 2010.06.03 13:27:54.
