data_PCOD9424220
_publ_section_title
;
Structure prediction by ZEFSAII (Michael W. Deem and Ramdas Pophale) SiO2 
 PCOD9424220
Probable space group: P C C A
;
_chemical_formula_sum "Si O2"
_cell_formula_units_Z 40
_cell_length_a 9.123000
_cell_length_b 18.683671
_cell_length_c 10.793087
_cell_angle_alpha 90.000000
_cell_angle_beta 90.000000
_cell_angle_gamma 90.000000
_cell_volume 1839.693881
_symmetry_space_group_name_H-M "P C C A"
_symmetry_group_IT_number 54
_symmetry_cell_setting 'orthorhombic'
loop_
_space_group_symop_operation_xyz
x,y,z
1/2-x,-y,z
1/2+x,-y,1/2-z
-x,y,1/2-z
-x,-y,-z
1/2+x,y,-z
1/2-x,y,1/2+z
x,-y,1/2+z
loop_
_atom_site_type_symbol
_atom_site_label
_atom_site_fract_x
_atom_site_fract_y
_atom_site_fract_z
Si Si1 0.813627 0.364181 0.568766
Si Si2 0.970238 0.712939 0.610673
Si Si3 0.618687 0.131101 0.902920
Si Si4 0.000000 0.544954 0.250000
Si Si5 0.807513 0.080117 0.136190
Si Si6 0.250000 0.500000 0.083563
O O1 0.701773 0.299455 0.590832
O O2 0.735388 0.429049 0.497681
O O3 0.944973 0.335415 0.486331
O O4 0.882500 0.402343 0.687284
O O5 0.000000 0.688763 0.750000
O O6 0.038310 0.791891 0.596559
O O7 0.479377 0.078019 0.899600
O O8 0.700334 0.120236 0.770203
O O9 0.718926 0.116748 0.022626
O O10 0.900230 0.496805 0.338905
O O11 0.750000 0.000000 0.152685
#
# Coordination Sequence:
#
# PCOD9424220 Si02
#       6
#     8   8   8   4   8   4
#     4  12  27  47  71 105 137 193 235 301 364 433
#     4  12  26  47  72  99 148 189 244 293 363 445
#     4  11  25  47  70 110 149 197 244 309 365 446
#     4  12  26  46  74 104 140 178 236 306 370 424
#     4  11  23  45  75 110 149 192 248 304 375 435
#     4  12  26  48  70 110 140 180 244 298 372 426
#
# _framework density 21.742747999999999
#
# number of rings (size 3 to 8) (size 9 to 14) (size 15 to 20)
#    0.000    0.400    4.000    4.800    4.200    2.400 
#    0.000    0.000    0.000    0.000    0.000    0.000 
#    0.000    0.000    0.000    0.000    0.000    0.000 
#
# Total GULP energy -223689.318897 kJ/mol
# GULP energy per Si atom -5592.232972 kJ/mol
# Density = 2.169326 g / cm^3
# Si number density = 21.742748 Si / 1000 Ang^3
#
#
#
# Elastic Constant Matrix: (Units=GPa)
#
#
# Indices 1 2 3 4 5 6 
#
# 1 111.6381 18.8289 69.5185 0.0000 0.0000 0.0000
# 2 18.8289 73.9194 60.3241 0.0000 0.0000 0.0000
# 3 69.5185 60.3241 115.0493 0.0000 0.0000 0.0000
# 4 0.0000 0.0000 0.0000 7.8822 0.0000 0.0000
# 5 0.0000 0.0000 0.0000 0.0000 42.9105 0.0000
# 6 0.0000 0.0000 0.0000 0.0000 0.0000 42.8314
#
#
#
# Elastic Compliance Matrix: (Units=1/GPa)
#
#
# Indices 1 2 3 4 5 6 
#
# 1 0.016054 0.006690 -0.013208 0.000000 0.000000 0.000000
# 2 0.006690 0.026434 -0.017903 0.000000 0.000000 0.000000
# 3 -0.013208 -0.017903 0.026060 0.000000 0.000000 0.000000
# 4 0.000000 0.000000 0.000000 0.126868 0.000000 0.000000
# 5 0.000000 0.000000 0.000000 0.000000 0.023304 0.000000
# 6 0.000000 0.000000 0.000000 0.000000 0.000000 0.023347
#
#
# Mechanical properties :
#
#
# Convention : Reuss Voigt Hill
#
# Bulk Modulus (GPa) = 50.74613 66.43885 58.59249
# Shear Modulus (GPa) = 16.80788 28.85382 22.83085
#
# Velocity S-wave (km/s) = 2.78336 3.64683 3.24395
# Velocity P-wave (km/s) = 5.80685 6.95382 6.40606
#
# Compressibility (1/GPa) = 0.01970593
#
# Stress axis : x y z
#
# Youngs Moduli (GPa) = 62.28866 37.82989 38.37295
#
# Poissons Ratio (x) = -0.25307 0.50685
# Poissons Ratio (y) = -0.41670 0.68697
# Poissons Ratio (z) = 0.82274 0.67725
#
# Static dielectric constant tensor:
#      x y z
#    x 2.031580 0.000000 0.000000 
#    y 0.000000 1.807930 0.000000 
#    z 0.000000 0.000000 1.822520 
# 
# From -- ./inp_files/6902.got.cif
#   From: 2010.05.17/outbox.cif.g08.bks.cpg/sg54_4_cif.got.tgz:6902.got - 2010.06.03 13:09:01.
