data_PCOD9424810
_publ_section_title
;
Structure prediction by ZEFSAII (Michael W. Deem and Ramdas Pophale) SiO2 
 PCOD9424810
Probable space group: P B A M
;
_chemical_formula_sum "Si O2"
_cell_formula_units_Z 56
_cell_length_a 17.934747
_cell_length_b 19.619117
_cell_length_c 7.379211
_cell_angle_alpha 90.000000
_cell_angle_beta 90.000000
_cell_angle_gamma 90.000000
_cell_volume 2596.477960
_symmetry_space_group_name_H-M "P B A M"
_symmetry_group_IT_number 55
_symmetry_cell_setting 'orthorhombic'
loop_
_space_group_symop_operation_xyz
x,y,z
-x,-y,z
1/2+x,1/2-y,-z
1/2-x,1/2+y,-z
-x,-y,-z
x,y,-z
1/2-x,1/2+y,z
1/2+x,1/2-y,z
loop_
_atom_site_type_symbol
_atom_site_label
_atom_site_fract_x
_atom_site_fract_y
_atom_site_fract_z
Si Si1 0.303121 0.397944 0.221949
Si Si2 0.238976 0.045478 0.212337
Si Si3 0.438923 0.904363 0.719511
Si Si4 0.402941 0.058819 0.717145
Si Si5 0.527073 0.575719 0.220560
Si Si6 0.882129 0.847603 0.777675
Si Si7 0.184096 0.293592 0.207675
O O1 0.263312 0.468230 0.283153
O O2 0.389284 0.404981 0.276853
O O3 0.255719 0.332986 0.286563
O O4 0.300788 0.395446 0.000000
O O5 0.319865 0.079012 0.231608
O O6 0.173706 0.092902 0.284155
O O7 0.223122 0.038747 0.000000
O O8 0.435523 0.901694 0.500000
O O9 0.525479 0.897854 0.776822
O O10 0.382549 0.848564 0.790926
O O11 0.414937 0.980492 0.777301
O O12 0.406151 0.057649 0.500000
O O13 0.500000 0.500000 0.277365
O O14 0.465218 0.630817 0.276711
O O15 0.528397 0.573795 0.000000
O O16 0.849089 0.775850 0.713232
O O17 0.882922 0.846177 0.000000
O O18 0.203975 0.277000 0.000000
#
# Coordination Sequence:
#
# PCOD9424810 Si02
#       7
#     8   8   8   8   8   8   8
#     4   9  16  26  45  69  96 128 161 198 241 292
#     4  10  17  29  49  74 100 126 160 205 247 286
#     4   9  18  33  51  69  93 129 167 200 239 293
#     4   9  18  32  50  72  95 123 165 207 240 288
#     4   9  14  25  45  67  93 127 164 197 238 291
#     4   9  18  30  45  70 104 131 159 204 249 296
#     4  10  19  32  47  72 105 129 157 204 257 297
#
# _framework density 21.567678000000001
#
# number of rings (size 3 to 8) (size 9 to 14) (size 15 to 20)
#    0.000    2.714    2.857    0.857    0.000    0.571 
#    2.571    2.143    0.000    0.000    0.000    4.000 
#    0.000    0.000    0.000    0.000    0.000    0.000 
#
# Total GULP energy -312452.594242 kJ/mol
# GULP energy per Si atom -5579.510611 kJ/mol
# Density = 2.151859 g / cm^3
# Si number density = 21.567678 Si / 1000 Ang^3
#
#
#
# Elastic Constant Matrix: (Units=GPa)
#
#
# Indices 1 2 3 4 5 6 
#
# 1 181.9490 60.7460 -5.7505 0.0000 0.0000 0.0000
# 2 60.7460 96.3729 5.3026 0.0000 0.0000 0.0000
# 3 -5.7505 5.3026 73.0393 0.0000 0.0000 0.0000
# 4 0.0000 0.0000 0.0000 -108.2250 0.0000 0.0000
# 5 0.0000 0.0000 0.0000 0.0000 -83.8668 0.0000
# 6 0.0000 0.0000 0.0000 0.0000 0.0000 31.7344
#
#
#
# Elastic Compliance Matrix: (Units=1/GPa)
#
#
# Indices 1 2 3 4 5 6 
#
# 1 0.007016 -0.004471 0.000877 0.000000 0.000000 0.000000
# 2 -0.004471 0.013267 -0.001315 0.000000 0.000000 0.000000
# 3 0.000877 -0.001315 0.013856 0.000000 0.000000 0.000000
# 4 0.000000 0.000000 0.000000 -0.009240 0.000000 0.000000
# 5 0.000000 0.000000 0.000000 0.000000 -0.011924 0.000000
# 6 0.000000 0.000000 0.000000 0.000000 0.000000 0.031512
#
#
# Mechanical properties :
#
#
# Convention : Reuss Voigt Hill
#
# Bulk Modulus (GPa) = 41.11678 52.43971 46.77825
# Shear Modulus (GPa) = 80.11291 -12.66728 33.72282
#
# Velocity S-wave (km/s) = 6.10127 -2.42611 3.95850
# Velocity P-wave (km/s) = 8.29093 4.06433 6.52910
#
# Compressibility (1/GPa) = 0.02432097
#
# Stress axis : x y z
#
# Youngs Moduli (GPa) = 142.52283 75.37607 72.17205
#
# Poissons Ratio (x) = 0.33700 -0.06329
# Poissons Ratio (y) = 0.63720 0.09492
# Poissons Ratio (z) = -0.12499 0.09913
#
# Static dielectric constant tensor:
#      x y z
#    x 1.780940 0.000000 0.000000 
#    y 0.000000 1.751000 0.000000 
#    z 0.000000 0.000000 1.830470 
# 
# From -- ./inp_files/7847.got.cif
#   From: 2010.05.17/outbox.cif.g08.bks.cpg/sg55_4_cif.got.tgz:7847.got - 2010.06.03 13:27:54.
