data_PCOD9424341
_publ_section_title
;
Structure prediction by ZEFSAII (Michael W. Deem and Ramdas Pophale) SiO2 
 PCOD9424341
Probable space group: P C C A
;
_chemical_formula_sum "Si O2"
_cell_formula_units_Z 40
_cell_length_a 9.752579
_cell_length_b 11.943678
_cell_length_c 17.977985
_cell_angle_alpha 90.000000
_cell_angle_beta 90.000000
_cell_angle_gamma 90.000000
_cell_volume 2094.105595
_symmetry_space_group_name_H-M "P C C A"
_symmetry_group_IT_number 54
_symmetry_cell_setting 'orthorhombic'
loop_
_space_group_symop_operation_xyz
x,y,z
1/2-x,-y,z
1/2+x,-y,1/2-z
-x,y,1/2-z
-x,-y,-z
1/2+x,y,-z
1/2-x,y,1/2+z
x,-y,1/2+z
loop_
_atom_site_type_symbol
_atom_site_label
_atom_site_fract_x
_atom_site_fract_y
_atom_site_fract_z
Si Si1 0.969955 0.612227 0.954970
Si Si2 0.253468 0.259289 0.441276
Si Si3 0.104347 0.515616 0.187006
Si Si4 0.877490 0.071157 0.961081
Si Si5 0.494122 0.764399 0.836556
O O1 0.898532 0.570389 0.880548
O O2 0.117540 0.665541 0.937775
O O3 0.866853 0.690134 0.001632
O O4 0.000000 0.500000 0.000000
O O5 0.195619 0.144540 0.474829
O O6 0.337532 0.248802 0.364897
O O7 0.250000 0.500000 0.223710
O O8 0.000000 0.483877 0.250000
O O9 0.066356 0.641604 0.160646
O O10 0.937016 0.151460 0.896131
O O11 0.750000 0.000000 0.929454
O O12 0.000000 0.000000 0.000000
O O13 0.500000 0.800037 0.750000
#
# Coordination Sequence:
#
# PCOD9424341 Si02
#       5
#     8   8   8   8   8
#     4  12  22  37  66  95 133 172 226 254 322 396
#     4  12  23  42  68  98 130 176 218 280 324 400
#     4  11  25  40  63  95 138 178 215 265 330 397
#     4  12  23  45  73  94 123 167 225 281 338 400
#     4  11  25  44  67  97 139 169 219 280 340 396
#
# _framework density 19.101234999999999
#
# number of rings (size 3 to 8) (size 9 to 14) (size 15 to 20)
#    0.000    0.400    6.000    3.000    5.600    0.000 
#    3.600    0.000    0.000    0.000    0.000    0.000 
#    0.000    0.000    0.000    0.000    0.000    0.000 
#
# Total GULP energy -223375.569929 kJ/mol
# GULP energy per Si atom -5584.389248 kJ/mol
# Density = 1.905776 g / cm^3
# Si number density = 19.101235 Si / 1000 Ang^3
#
#
#
# Elastic Constant Matrix: (Units=GPa)
#
#
# Indices 1 2 3 4 5 6 
#
# 1 117.9863 6.9440 9.7245 0.0000 0.0000 0.0000
# 2 6.9440 34.0196 4.8854 0.0000 0.0000 0.0000
# 3 9.7245 4.8854 81.3185 0.0000 0.0000 0.0000
# 4 0.0000 0.0000 0.0000 -8.9790 0.0000 0.0000
# 5 0.0000 0.0000 0.0000 0.0000 36.6318 0.0000
# 6 0.0000 0.0000 0.0000 0.0000 0.0000 27.4112
#
#
#
# Elastic Compliance Matrix: (Units=1/GPa)
#
#
# Indices 1 2 3 4 5 6 
#
# 1 0.008649 -0.001631 -0.000936 0.000000 0.000000 0.000000
# 2 -0.001631 0.029958 -0.001605 0.000000 0.000000 0.000000
# 3 -0.000936 -0.001605 0.012506 0.000000 0.000000 0.000000
# 4 0.000000 0.000000 0.000000 -0.111371 0.000000 0.000000
# 5 0.000000 0.000000 0.000000 0.000000 0.027299 0.000000
# 6 0.000000 0.000000 0.000000 0.000000 0.000000 0.036481
#
#
# Mechanical properties :
#
#
# Convention : Reuss Voigt Hill
#
# Bulk Modulus (GPa) = 23.38160 30.71469 27.04815
# Shear Modulus (GPa) = 191.41052 25.13085 108.27068
#
# Velocity S-wave (km/s) = 10.02128 3.63115 7.53695
# Velocity P-wave (km/s) = 12.09003 5.80475 9.48325
#
# Compressibility (1/GPa) = 0.04276867
#
# Stress axis : x y z
#
# Youngs Moduli (GPa) = 115.62415 33.37991 79.96356
#
# Poissons Ratio (x) = 0.05444 0.07487
# Poissons Ratio (y) = 0.18857 0.12832
# Poissons Ratio (z) = 0.10826 0.05357
#
# Static dielectric constant tensor:
#      x y z
#    x 1.683030 0.000000 0.000000 
#    y 0.000000 1.704140 0.000000 
#    z 0.000000 0.000000 1.667120 
# 
# From -- ./inp_files/16280.got.cif
#   From: 2010.05.17/outbox.cif.g08.bks.cpg/sg54_9_cif.got.tgz:16280.got - 2010.06.03 13:09:01.
