data_PCOD9424254
_publ_section_title
;
Structure prediction by ZEFSAII (Michael W. Deem and Ramdas Pophale) SiO2 
 PCOD9424254
Probable space group: P C C A
;
_chemical_formula_sum "Si O2"
_cell_formula_units_Z 40
_cell_length_a 8.694516
_cell_length_b 12.394703
_cell_length_c 17.159289
_cell_angle_alpha 90.000000
_cell_angle_beta 90.000000
_cell_angle_gamma 90.000000
_cell_volume 1849.186970
_symmetry_space_group_name_H-M "P C C A"
_symmetry_group_IT_number 54
_symmetry_cell_setting 'orthorhombic'
loop_
_space_group_symop_operation_xyz
x,y,z
1/2-x,-y,z
1/2+x,-y,1/2-z
-x,y,1/2-z
-x,-y,-z
1/2+x,y,-z
1/2-x,y,1/2+z
x,-y,1/2+z
loop_
_atom_site_type_symbol
_atom_site_label
_atom_site_fract_x
_atom_site_fract_y
_atom_site_fract_z
Si Si1 0.103015 0.228067 0.821912
Si Si2 0.719933 0.626005 0.055369
Si Si3 0.383482 0.736317 0.069216
Si Si4 0.105057 0.073498 0.947092
Si Si5 0.837335 0.892206 0.785917
O O1 0.167815 0.316402 0.881329
O O2 0.025235 0.134885 0.875194
O O3 0.243420 0.165026 0.782670
O O4 0.000000 0.267191 0.750000
O O5 0.750000 0.500000 0.068159
O O6 0.550825 0.678866 0.067203
O O7 0.764791 0.649191 0.964900
O O8 0.360187 0.799754 0.149214
O O9 0.353676 0.829952 0.005271
O O10 0.250000 0.000000 0.922882
O O11 0.000000 0.000000 0.000000
O O12 0.000000 0.925836 0.750000
O O13 0.750000 0.000000 0.813263
#
# Coordination Sequence:
#
# PCOD9424254 Si02
#       5
#     8   8   8   8   8
#     4  11  26  45  68 104 147 184 243 299 356 440
#     4  11  25  51  75 103 140 187 252 314 371 423
#     4  11  25  44  72 103 140 184 241 299 353 443
#     4  11  24  41  65 100 140 186 229 276 348 430
#     4  12  26  44  69 105 153 195 233 290 368 442
#
# _framework density 21.631128
#
# number of rings (size 3 to 8) (size 9 to 14) (size 15 to 20)
#    0.000    0.800    2.000    4.800   14.000    0.000 
#    3.600    0.000    0.000    0.000    0.000    0.000 
#    0.000    0.000    0.000    0.000    0.000    0.000 
#
# Total GULP energy -223376.536416 kJ/mol
# GULP energy per Si atom -5584.413410 kJ/mol
# Density = 2.158189 g / cm^3
# Si number density = 21.631128 Si / 1000 Ang^3
#
#
#
# Elastic Constant Matrix: (Units=GPa)
#
#
# Indices 1 2 3 4 5 6 
#
# 1 87.5587 50.3928 26.8455 0.0000 0.0000 0.0000
# 2 50.3928 162.8685 58.8015 0.0000 0.0000 0.0000
# 3 26.8455 58.8015 116.4362 0.0000 0.0000 0.0000
# 4 0.0000 0.0000 0.0000 34.1600 0.0000 0.0000
# 5 0.0000 0.0000 0.0000 0.0000 44.7065 0.0000
# 6 0.0000 0.0000 0.0000 0.0000 0.0000 17.9896
#
#
#
# Elastic Compliance Matrix: (Units=1/GPa)
#
#
# Indices 1 2 3 4 5 6 
#
# 1 0.014049 -0.003886 -0.001277 0.000000 0.000000 0.000000
# 2 -0.003886 0.008584 -0.003439 0.000000 0.000000 0.000000
# 3 -0.001277 -0.003439 0.010619 0.000000 0.000000 0.000000
# 4 0.000000 0.000000 0.000000 0.029274 0.000000 0.000000
# 5 0.000000 0.000000 0.000000 0.000000 0.022368 0.000000
# 6 0.000000 0.000000 0.000000 0.000000 0.000000 0.055588
#
#
# Mechanical properties :
#
#
# Convention : Reuss Voigt Hill
#
# Bulk Modulus (GPa) = 62.30923 70.99367 66.65145
# Shear Modulus (GPa) = 30.66830 34.75945 32.71388
#
# Velocity S-wave (km/s) = 3.76943 4.01299 3.89312
# Velocity P-wave (km/s) = 6.91468 7.37316 7.14759
#
# Compressibility (1/GPa) = 0.01604899
#
# Stress axis : x y z
#
# Youngs Moduli (GPa) = 71.18058 116.49782 94.16654
#
# Poissons Ratio (x) = 0.45270 0.12022
# Poissons Ratio (y) = 0.27660 0.32384
# Poissons Ratio (z) = 0.09087 0.40064
#
# Static dielectric constant tensor:
#      x y z
#    x 1.728720 0.000000 0.000000 
#    y 0.000000 2.015990 0.000000 
#    z 0.000000 0.000000 1.770440 
# 
# From -- ./inp_files/16306.got.cif
#   From: 2010.05.17/outbox.cif.g08.bks.cpg/sg54_9_cif.got.tgz:16306.got - 2010.06.03 13:09:01.
