data_PCOD9424905
_publ_section_title
;
Structure prediction by ZEFSAII (Michael W. Deem and Ramdas Pophale) SiO2 
 PCOD9424905
Probable space group: P B A M
;
_chemical_formula_sum "Si O2"
_cell_formula_units_Z 64
_cell_length_a 19.223698
_cell_length_b 22.219817
_cell_length_c 9.014977
_cell_angle_alpha 90.000000
_cell_angle_beta 90.000000
_cell_angle_gamma 90.000000
_cell_volume 3850.720846
_symmetry_space_group_name_H-M "P B A M"
_symmetry_group_IT_number 55
_symmetry_cell_setting 'orthorhombic'
loop_
_space_group_symop_operation_xyz
x,y,z
-x,-y,z
1/2+x,1/2-y,-z
1/2-x,1/2+y,-z
-x,-y,-z
x,y,-z
1/2-x,1/2+y,z
1/2+x,1/2-y,z
loop_
_atom_site_type_symbol
_atom_site_label
_atom_site_fract_x
_atom_site_fract_y
_atom_site_fract_z
Si Si1 0.372287 0.230137 0.169723
Si Si2 0.325187 0.589142 0.321315
Si Si3 0.419763 0.487848 0.177627
Si Si4 0.978744 0.432220 0.320728
Si Si5 0.967160 0.684286 0.828999
Si Si6 0.426522 0.696277 0.322137
Si Si7 0.327627 0.114341 0.322346
Si Si8 0.568594 0.648427 0.820944
O O1 0.453159 0.209000 0.172180
O O2 0.332177 0.183394 0.270821
O O3 0.376531 0.299382 0.217646
O O4 0.347772 0.226004 0.000000
O O5 0.326302 0.584769 0.500000
O O6 0.369891 0.535148 0.254995
O O7 0.362376 0.652570 0.283217
O O8 0.245318 0.587490 0.269345
O O9 0.500000 0.500000 0.218599
O O10 0.406046 0.418250 0.214976
O O11 0.414158 0.495231 0.000000
O O12 0.982138 0.426992 0.500000
O O13 0.898922 0.418235 0.273195
O O14 0.000000 0.500000 0.279897
O O15 0.027140 0.380261 0.250699
O O16 0.924421 0.736870 0.747142
O O17 0.945603 0.678264 0.000000
O O18 0.431824 0.700835 0.500000
O O19 0.495930 0.663892 0.258537
O O20 0.327568 0.112225 0.500000
O O21 0.556900 0.651883 0.000000
#
# Coordination Sequence:
#
# PCOD9424905 Si02
#       8
#     8   8   8   8   8   8   8   8
#     4   8  15  28  47  69  91 117 151 194 238 282
#     4  10  21  33  47  69  99 133 165 205 249 292
#     4  10  19  31  49  72  99 134 171 203 240 289
#     4   9  17  31  54  79  99 127 165 206 251 299
#     4   9  17  29  47  72  99 122 150 195 245 288
#     4  10  18  28  45  69  95 125 161 199 241 286
#     4   9  18  33  50  70  98 126 161 204 248 298
#     4   9  17  30  47  70  98 124 158 203 244 281
#
# _framework density 16.620265
#
# number of rings (size 3 to 8) (size 9 to 14) (size 15 to 20)
#    0.000    2.750    1.250    1.500    0.000    5.000 
#    0.000    0.000    2.750    0.000    0.000    0.000 
#    0.000    0.000    0.000    0.000    0.000    0.000 
#
# Total GULP energy -356477.999794 kJ/mol
# GULP energy per Si atom -5569.968747 kJ/mol
# Density = 1.658244 g / cm^3
# Si number density = 16.620265 Si / 1000 Ang^3
#
#
#
# Elastic Constant Matrix: (Units=GPa)
#
#
# Indices 1 2 3 4 5 6 
#
# 1 69.3203 54.5698 22.5207 0.0000 0.0000 0.0000
# 2 54.5698 162.2238 39.7249 0.0000 0.0000 0.0000
# 3 22.5207 39.7249 25.6044 0.0000 0.0000 0.0000
# 4 0.0000 0.0000 0.0000 30.0552 0.0000 0.0000
# 5 0.0000 0.0000 0.0000 0.0000 11.6302 0.0000
# 6 0.0000 0.0000 0.0000 0.0000 0.0000 19.0104
#
#
#
# Elastic Compliance Matrix: (Units=1/GPa)
#
#
# Indices 1 2 3 4 5 6 
#
# 1 0.021891 -0.004272 -0.012627 0.000000 0.000000 0.000000
# 2 -0.004272 0.010775 -0.012960 0.000000 0.000000 0.000000
# 3 -0.012627 -0.012960 0.070269 0.000000 0.000000 0.000000
# 4 0.000000 0.000000 0.000000 0.033272 0.000000 0.000000
# 5 0.000000 0.000000 0.000000 0.000000 0.085983 0.000000
# 6 0.000000 0.000000 0.000000 0.000000 0.000000 0.052603
#
#
# Mechanical properties :
#
#
# Convention : Reuss Voigt Hill
#
# Bulk Modulus (GPa) = 23.13865 54.53104 38.83484
# Shear Modulus (GPa) = 14.33015 21.49469 17.91242
#
# Velocity S-wave (km/s) = 2.93953 3.60012 3.28647
# Velocity P-wave (km/s) = 5.04710 7.08254 6.14962
#
# Compressibility (1/GPa) = 0.04321774
#
# Stress axis : x y z
#
# Youngs Moduli (GPa) = 45.68146 92.80915 14.23110
#
# Poissons Ratio (x) = 0.39645 0.17969
# Poissons Ratio (y) = 0.19514 0.18443
# Poissons Ratio (z) = 0.57681 1.20278
#
# Static dielectric constant tensor:
#      x y z
#    x 1.549820 0.000000 0.000000 
#    y 0.000000 1.571450 0.000000 
#    z 0.000000 0.000000 1.560020 
# 
# From -- ./inp_files/9172.got.cif
#   From: 2010.05.17/outbox.cif.g08.bks.cpg/sg55_5_cif.got.tgz:9172.got - 2010.06.03 13:27:54.
