data_PCOD9424799
_publ_section_title
;
Structure prediction by ZEFSAII (Michael W. Deem and Ramdas Pophale) SiO2 
 PCOD9424799
Probable space group: P B A M
;
_chemical_formula_sum "Si O2"
_cell_formula_units_Z 64
_cell_length_a 20.022035
_cell_length_b 20.173739
_cell_length_c 7.408939
_cell_angle_alpha 90.000000
_cell_angle_beta 90.000000
_cell_angle_gamma 90.000000
_cell_volume 2992.613516
_symmetry_space_group_name_H-M "P B A M"
_symmetry_group_IT_number 55
_symmetry_cell_setting 'orthorhombic'
loop_
_space_group_symop_operation_xyz
x,y,z
-x,-y,z
1/2+x,1/2-y,-z
1/2-x,1/2+y,-z
-x,-y,-z
x,y,-z
1/2-x,1/2+y,z
1/2+x,1/2-y,z
loop_
_atom_site_type_symbol
_atom_site_label
_atom_site_fract_x
_atom_site_fract_y
_atom_site_fract_z
Si Si1 0.395058 0.519801 0.705655
Si Si2 0.600587 0.961926 0.780039
Si Si3 0.033257 0.398740 0.218209
Si Si4 0.456074 0.655310 0.278245
Si Si5 0.755048 0.484915 0.790244
Si Si6 0.899345 0.130258 0.720160
Si Si7 0.627124 0.222451 0.708103
Si Si8 0.751214 0.140458 0.719060
O O1 0.419071 0.514436 0.500000
O O2 0.432852 0.582691 0.783953
O O3 0.315562 0.532927 0.703851
O O4 0.403877 0.446396 0.783977
O O5 0.543513 0.910056 0.725104
O O6 0.676467 0.953600 0.717513
O O7 0.573360 0.034750 0.727635
O O8 0.602208 0.961864 0.000000
O O9 0.070703 0.334453 0.287436
O O10 0.034684 0.396205 0.000000
O O11 0.454210 0.655781 0.500000
O O12 0.533016 0.666741 0.225763
O O13 0.405572 0.711617 0.213240
O O14 0.763002 0.564691 0.775644
O O15 0.748793 0.467524 0.000000
O O16 0.897834 0.128878 0.500000
O O17 0.826920 0.156881 0.776178
O O18 0.643225 0.237830 0.500000
O O19 0.694015 0.189720 0.786774
O O20 0.749084 0.139895 0.500000
#
# Coordination Sequence:
#
# PCOD9424799 Si02
#       8
#     8   8   8   8   8   8   8   8
#     4   9  17  30  49  72  94 119 155 201 246 281
#     4   8  15  27  46  68  90 120 160 193 223 271
#     4   9  16  30  48  65  88 124 163 192 223 275
#     4   9  17  30  48  69  95 126 159 193 233 285
#     4  10  17  28  48  72  95 120 153 194 237 280
#     4   8  14  27  49  70  86 116 162 197 221 269
#     4  10  19  30  45  70 100 124 153 196 240 280
#     4   9  17  29  46  69  94 120 153 192 232 276
#
# _framework density 21.385988999999999
#
# number of rings (size 3 to 8) (size 9 to 14) (size 15 to 20)
#    0.000    3.000    1.250    2.250    0.000    1.500 
#    0.000    4.375    0.000   12.000    0.000    0.000 
#    0.000    0.000    0.000    0.000    0.000    0.000 
#
# Total GULP energy -356990.841017 kJ/mol
# GULP energy per Si atom -5577.981891 kJ/mol
# Density = 2.133731 g / cm^3
# Si number density = 21.385989 Si / 1000 Ang^3
#
#
#
# Elastic Constant Matrix: (Units=GPa)
#
#
# Indices 1 2 3 4 5 6 
#
# 1 171.7092 41.9200 -0.7488 0.0000 0.0000 0.0000
# 2 41.9200 44.3011 -1.5206 0.0000 0.0000 0.0000
# 3 -0.7488 -1.5206 72.2762 0.0000 0.0000 0.0000
# 4 0.0000 0.0000 0.0000 15.9774 0.0000 0.0000
# 5 0.0000 0.0000 0.0000 0.0000 15.8111 0.0000
# 6 0.0000 0.0000 0.0000 0.0000 0.0000 28.1208
#
#
#
# Elastic Compliance Matrix: (Units=1/GPa)
#
#
# Indices 1 2 3 4 5 6 
#
# 1 0.007574 -0.007169 -0.000072 0.000000 0.000000 0.000000
# 2 -0.007169 0.029375 0.000544 0.000000 0.000000 0.000000
# 3 -0.000072 0.000544 0.013847 0.000000 0.000000 0.000000
# 4 0.000000 0.000000 0.000000 0.062588 0.000000 0.000000
# 5 0.000000 0.000000 0.000000 0.000000 0.063247 0.000000
# 6 0.000000 0.000000 0.000000 0.000000 0.000000 0.035561
#
#
# Mechanical properties :
#
#
# Convention : Reuss Voigt Hill
#
# Bulk Modulus (GPa) = 26.73796 40.84307 33.79052
# Shear Modulus (GPa) = 21.00368 28.55759 24.78063
#
# Velocity S-wave (km/s) = 3.13728 3.65820 3.40771
# Velocity P-wave (km/s) = 5.06489 6.08134 5.59624
#
# Compressibility (1/GPa) = 0.03740001
#
# Stress axis : x y z
#
# Youngs Moduli (GPa) = 132.03573 34.04226 72.22040
#
# Poissons Ratio (x) = 0.24405 0.00523
# Poissons Ratio (y) = 0.94658 -0.03927
# Poissons Ratio (z) = 0.00956 -0.01851
#
# Static dielectric constant tensor:
#      x y z
#    x 1.797710 0.000000 0.000000 
#    y 0.000000 1.726930 0.000000 
#    z 0.000000 0.000000 1.825510 
# 
# From -- ./inp_files/9151.got.cif
#   From: 2010.05.17/outbox.cif.g08.bks.cpg/sg55_5_cif.got.tgz:9151.got - 2010.06.03 13:27:54.
