data_PCOD9424835
_publ_section_title
;
Structure prediction by ZEFSAII (Michael W. Deem and Ramdas Pophale) SiO2 
 PCOD9424835
Probable space group: P B A M
;
_chemical_formula_sum "Si O2"
_cell_formula_units_Z 64
_cell_length_a 9.574420
_cell_length_b 16.310324
_cell_length_c 19.711871
_cell_angle_alpha 90.000000
_cell_angle_beta 90.000000
_cell_angle_gamma 90.000000
_cell_volume 3078.243076
_symmetry_space_group_name_H-M "P B A M"
_symmetry_group_IT_number 55
_symmetry_cell_setting 'orthorhombic'
loop_
_space_group_symop_operation_xyz
x,y,z
-x,-y,z
1/2+x,1/2-y,-z
1/2-x,1/2+y,-z
-x,-y,-z
x,y,-z
1/2-x,1/2+y,z
1/2+x,1/2-y,z
loop_
_atom_site_type_symbol
_atom_site_label
_atom_site_fract_x
_atom_site_fract_y
_atom_site_fract_z
Si Si1 0.540038 0.343540 0.780485
Si Si2 0.156839 0.346392 0.630919
Si Si3 0.414271 0.260657 0.419870
Si Si4 0.207831 0.327344 0.778788
Si Si5 0.846457 0.486434 0.421959
Si Si6 0.919984 0.915829 0.363959
Si Si7 0.538066 0.341882 0.927422
Si Si8 0.704729 0.170207 0.073237
O O1 0.375935 0.320022 0.776533
O O2 0.632528 0.261175 0.775555
O O3 0.570906 0.399125 0.716158
O O4 0.566304 0.383043 0.854729
O O5 0.269286 0.274258 0.619132
O O6 0.162367 0.371568 0.709637
O O7 0.208922 0.420545 0.584262
O O8 0.007295 0.314110 0.607335
O O9 0.390978 0.252876 0.500000
O O10 0.506576 0.340929 0.402354
O O11 0.170475 0.366136 0.852364
O O12 0.860211 0.461384 0.500000
O O13 0.739118 0.427897 0.385633
O O14 0.000000 0.500000 0.391511
O O15 0.000000 0.000000 0.380079
O O16 0.372979 0.320256 0.927055
O O17 0.628100 0.258312 0.927054
O O18 0.566957 0.384520 0.000000
O O19 0.667982 0.130311 0.000000
#
# Coordination Sequence:
#
# PCOD9424835 Si02
#       8
#     8   8   8   8   8   8   8   8
#     4  10  19  32  53  81 111 147 186 229 278 330
#     4  12  23  41  59  86 113 145 187 232 287 336
#     4  12  25  39  60  84 112 146 187 234 284 341
#     4  10  17  32  51  78 111 142 182 232 276 328
#     4  11  26  44  61  81 111 146 188 239 287 341
#     4  12  23  40  60  82 111 150 190 228 280 343
#     4   8  14  25  43  70 106 143 179 219 267 323
#     4   8  14  23  41  69 104 141 174 214 270 324
#
# _framework density 20.791080999999998
#
# number of rings (size 3 to 8) (size 9 to 14) (size 15 to 20)
#    0.000    1.625    3.750    1.500    1.750    1.500 
#    0.000    0.000    0.000    0.375    0.000    0.875 
#    0.000    1.000    0.000    0.000    0.000    0.000 
#
# Total GULP energy -356947.608909 kJ/mol
# GULP energy per Si atom -5577.306389 kJ/mol
# Density = 2.074376 g / cm^3
# Si number density = 20.791081 Si / 1000 Ang^3
#
#
#
# Elastic Constant Matrix: (Units=GPa)
#
#
# Indices 1 2 3 4 5 6 
#
# 1 61.7252 3.0648 16.5160 0.0000 0.0000 0.0000
# 2 3.0648 32.1250 -5.8481 0.0000 0.0000 0.0000
# 3 16.5160 -5.8481 155.4964 0.0000 0.0000 0.0000
# 4 0.0000 0.0000 0.0000 14.1785 0.0000 0.0000
# 5 0.0000 0.0000 0.0000 0.0000 24.7594 0.0000
# 6 0.0000 0.0000 0.0000 0.0000 0.0000 25.1590
#
#
#
# Elastic Compliance Matrix: (Units=1/GPa)
#
#
# Indices 1 2 3 4 5 6 
#
# 1 0.016794 -0.001940 -0.001857 0.000000 0.000000 0.000000
# 2 -0.001940 0.031567 0.001393 0.000000 0.000000 0.000000
# 3 -0.001857 0.001393 0.006681 0.000000 0.000000 0.000000
# 4 0.000000 0.000000 0.000000 0.070529 0.000000 0.000000
# 5 0.000000 0.000000 0.000000 0.000000 0.040389 0.000000
# 6 0.000000 0.000000 0.000000 0.000000 0.000000 0.039747
#
#
# Mechanical properties :
#
#
# Convention : Reuss Voigt Hill
#
# Bulk Modulus (GPa) = 19.90665 30.75690 25.33178
# Shear Modulus (GPa) = 22.00131 28.52696 25.26413
#
# Velocity S-wave (km/s) = 3.25654 3.70817 3.48967
# Velocity P-wave (km/s) = 4.87191 5.75843 5.33362
#
# Compressibility (1/GPa) = 0.05023446
#
# Stress axis : x y z
#
# Youngs Moduli (GPa) = 59.54517 31.67852 149.68645
#
# Poissons Ratio (x) = 0.06146 0.27793
# Poissons Ratio (y) = 0.11553 -0.20856
# Poissons Ratio (z) = 0.11056 -0.04414
#
# Static dielectric constant tensor:
#      x y z
#    x 1.754920 0.000000 0.000000 
#    y 0.000000 1.763010 0.000000 
#    z 0.000000 0.000000 1.811300 
# 
# From -- ./inp_files/22705.got.cif
#   From: 2010.05.17/outbox.cif.g08.bks.cpg/sg55_12_cif.got.tgz:22705.got - 2010.06.03 13:27:54.
