data_PCOD9424838
_publ_section_title
;
Structure prediction by ZEFSAII (Michael W. Deem and Ramdas Pophale) SiO2 
 PCOD9424838
Probable space group: P B A M
;
_chemical_formula_sum "Si O2"
_cell_formula_units_Z 36
_cell_length_a 28.240844
_cell_length_b 4.954166
_cell_length_c 12.865234
_cell_angle_alpha 90.000000
_cell_angle_beta 90.000000
_cell_angle_gamma 90.000000
_cell_volume 1799.972691
_symmetry_space_group_name_H-M "P B A M"
_symmetry_group_IT_number 55
_symmetry_cell_setting 'orthorhombic'
loop_
_space_group_symop_operation_xyz
x,y,z
-x,-y,z
1/2+x,1/2-y,-z
1/2-x,1/2+y,-z
-x,-y,-z
x,y,-z
1/2-x,1/2+y,z
1/2+x,1/2-y,z
loop_
_atom_site_type_symbol
_atom_site_label
_atom_site_fract_x
_atom_site_fract_y
_atom_site_fract_z
Si Si1 0.641111 0.042568 0.661790
Si Si2 0.718658 0.212354 0.500000
Si Si3 0.079361 0.949778 0.614897
Si Si4 0.390079 0.876293 0.114952
Si Si5 0.548521 0.630140 0.161890
O O1 0.686786 0.140415 0.600038
O O2 0.598540 0.247565 0.630843
O O3 0.642909 0.053565 0.786890
O O4 0.624784 0.747445 0.625848
O O5 0.735799 0.518699 0.500000
O O6 0.058935 0.917704 0.500000
O O7 0.047568 0.866508 0.712436
O O8 0.409584 0.574294 0.129935
O O9 0.435506 0.076229 0.124969
O O10 0.369582 0.909089 0.000000
O O11 0.500000 0.500000 0.123378
#
# Coordination Sequence:
#
# PCOD9424838 Si02
#       5
#     8   4   8   8   8
#     4  10  20  35  53  78 106 132 171 208 246 317
#     4  12  22  34  58  86 109 128 155 206 270 308
#     4  10  17  32  53  70 103 146 173 206 257 305
#     4  10  21  36  55  73  99 145 182 211 255 300
#     4  10  21  32  48  78 106 135 181 228 263 292
#
# _framework density 20.000304
#
# number of rings (size 3 to 8) (size 9 to 14) (size 15 to 20)
#    0.000    1.778    2.222    2.667    0.000    3.111 
#    0.000    0.000    0.000    9.333    0.000    0.000 
#    0.000    0.000    0.000    0.000    0.000    0.000 
#
# Total GULP energy -201010.501431 kJ/mol
# GULP energy per Si atom -5583.625040 kJ/mol
# Density = 1.995478 g / cm^3
# Si number density = 20.000304 Si / 1000 Ang^3
#
#
#
# Elastic Constant Matrix: (Units=GPa)
#
#
# Indices 1 2 3 4 5 6 
#
# 1 24.2069 -18.0562 10.8829 0.0000 0.0000 0.0000
# 2 -18.0562 69.0154 -5.6546 0.0000 0.0000 0.0000
# 3 10.8829 -5.6546 191.6559 0.0000 0.0000 0.0000
# 4 0.0000 0.0000 0.0000 12.1961 0.0000 0.0000
# 5 0.0000 0.0000 0.0000 0.0000 409.4905 0.0000
# 6 0.0000 0.0000 0.0000 0.0000 0.0000 15.5283
#
#
#
# Elastic Compliance Matrix: (Units=1/GPa)
#
#
# Indices 1 2 3 4 5 6 
#
# 1 0.052575 0.013543 -0.002586 0.000000 0.000000 0.000000
# 2 0.013543 0.018013 -0.000238 0.000000 0.000000 0.000000
# 3 -0.002586 -0.000238 0.005358 0.000000 0.000000 0.000000
# 4 0.000000 0.000000 0.000000 0.081994 0.000000 0.000000
# 5 0.000000 0.000000 0.000000 0.000000 0.002442 0.000000
# 6 0.000000 0.000000 0.000000 0.000000 0.000000 0.064398
#
#
# Mechanical properties :
#
#
# Convention : Reuss Voigt Hill
#
# Bulk Modulus (GPa) = 10.26853 28.80250 19.53552
# Shear Modulus (GPa) = 21.20424 107.29007 64.24715
#
# Velocity S-wave (km/s) = 3.25960 7.33217 5.67387
# Velocity P-wave (km/s) = 4.39454 9.27972 7.26034
#
# Compressibility (1/GPa) = 0.09738490
#
# Stress axis : x y z
#
# Youngs Moduli (GPa) = 19.02051 55.51472 186.65397
#
# Poissons Ratio (x) = -0.75184 0.48265
# Poissons Ratio (y) = -0.25760 0.04434
# Poissons Ratio (z) = 0.04918 0.01319
#
# Static dielectric constant tensor:
#      x y z
#    x 1.680170 0.000000 0.000000 
#    y 0.000000 1.684690 0.000000 
#    z 0.000000 0.000000 1.762300 
# 
# From -- ./inp_files/11374.got.cif
#   From: 2010.05.17/outbox.cif.g08.bks.cpg/sg55_6_cif.got.tgz:11374.got - 2010.06.03 13:27:54.
