data_PCOD9424872
_publ_section_title
;
Structure prediction by ZEFSAII (Michael W. Deem and Ramdas Pophale) SiO2 
 PCOD9424872
Probable space group: P B A M
;
_chemical_formula_sum "Si O2"
_cell_formula_units_Z 64
_cell_length_a 27.341314
_cell_length_b 18.901161
_cell_length_c 8.861613
_cell_angle_alpha 90.000000
_cell_angle_beta 90.000000
_cell_angle_gamma 90.000000
_cell_volume 4579.527210
_symmetry_space_group_name_H-M "P B A M"
_symmetry_group_IT_number 55
_symmetry_cell_setting 'orthorhombic'
loop_
_space_group_symop_operation_xyz
x,y,z
-x,-y,z
1/2+x,1/2-y,-z
1/2-x,1/2+y,-z
-x,-y,-z
x,y,-z
1/2-x,1/2+y,z
1/2+x,1/2-y,z
loop_
_atom_site_type_symbol
_atom_site_label
_atom_site_fract_x
_atom_site_fract_y
_atom_site_fract_z
Si Si1 0.442719 0.418346 0.817357
Si Si2 0.300676 0.803489 0.826249
Si Si3 0.351984 0.337829 0.319043
Si Si4 0.351558 0.666781 0.816195
Si Si5 0.755515 0.074753 0.319115
Si Si6 0.946067 0.918238 0.182940
Si Si7 0.700678 0.789424 0.174589
Si Si8 0.257776 0.587831 0.318371
O O1 0.402026 0.369081 0.744816
O O2 0.434534 0.500667 0.773298
O O3 0.498486 0.400676 0.770915
O O4 0.439612 0.414133 0.000000
O O5 0.341467 0.748148 0.770089
O O6 0.287596 0.874337 0.738083
O O7 0.251058 0.756298 0.821698
O O8 0.310835 0.821299 0.000000
O O9 0.352857 0.335598 0.500000
O O10 0.307232 0.390047 0.271246
O O11 0.338740 0.260631 0.254578
O O12 0.403521 0.634814 0.768749
O O13 0.308236 0.618893 0.748667
O O14 0.347807 0.664585 0.000000
O O15 0.755113 0.075532 0.500000
O O16 0.751865 0.993585 0.269729
O O17 0.946424 0.917956 0.000000
O O18 0.714567 0.861819 0.257933
O O19 0.688313 0.801755 0.000000
O O20 0.259656 0.591329 0.500000
#
# Coordination Sequence:
#
# PCOD9424872 Si02
#       8
#     8   8   8   8   8   8   8   8
#     4   9  16  27  42  59  78 106 140 172 203 236
#     4   8  15  25  38  55  74  97 129 163 193 224
#     4  10  18  28  41  58  81 109 136 166 201 236
#     4   9  16  27  41  57  77 105 137 167 197 232
#     4   9  18  28  38  54  79 107 132 157 193 236
#     4   8  15  27  42  58  79 106 139 174 204 232
#     4   9  17  29  42  57  76 102 134 165 195 233
#     4  10  18  27  39  58  81 104 130 162 197 235
#
# _framework density 13.975241
#
# number of rings (size 3 to 8) (size 9 to 14) (size 15 to 20)
#    0.000    3.000    0.000    3.375    0.000    4.500 
#    0.000    1.875    0.000    0.000    0.000    0.000 
#    0.000    1.000    0.000   11.500    0.000    2.875 
#
# Total GULP energy -356306.841147 kJ/mol
# GULP energy per Si atom -5567.294393 kJ/mol
# Density = 1.394343 g / cm^3
# Si number density = 13.975241 Si / 1000 Ang^3
#
#
#
# Elastic Constant Matrix: (Units=GPa)
#
#
# Indices 1 2 3 4 5 6 
#
# 1 92.1787 60.6671 22.9669 0.0000 0.0000 0.0000
# 2 60.6671 113.1181 31.4981 0.0000 0.0000 0.0000
# 3 22.9669 31.4981 29.2255 0.0000 0.0000 0.0000
# 4 0.0000 0.0000 0.0000 20.6893 0.0000 0.0000
# 5 0.0000 0.0000 0.0000 0.0000 13.4777 0.0000
# 6 0.0000 0.0000 0.0000 0.0000 0.0000 27.8915
#
#
#
# Elastic Compliance Matrix: (Units=1/GPa)
#
#
# Indices 1 2 3 4 5 6 
#
# 1 0.017290 -0.007843 -0.005134 0.000000 0.000000 0.000000
# 2 -0.007843 0.016189 -0.011284 0.000000 0.000000 0.000000
# 3 -0.005134 -0.011284 0.050413 0.000000 0.000000 0.000000
# 4 0.000000 0.000000 0.000000 0.048334 0.000000 0.000000
# 5 0.000000 0.000000 0.000000 0.000000 0.074197 0.000000
# 6 0.000000 0.000000 0.000000 0.000000 0.000000 0.035853
#
#
# Mechanical properties :
#
#
# Convention : Reuss Voigt Hill
#
# Bulk Modulus (GPa) = 28.27356 51.64296 39.95826
# Shear Modulus (GPa) = 16.52414 20.37104 18.44759
#
# Velocity S-wave (km/s) = 3.44231 3.82206 3.63715
# Velocity P-wave (km/s) = 6.00620 7.51738 6.80387
#
# Compressibility (1/GPa) = 0.03536874
#
# Stress axis : x y z
#
# Youngs Moduli (GPa) = 57.83827 61.77098 19.83613
#
# Poissons Ratio (x) = 0.48448 0.10184
# Poissons Ratio (y) = 0.45363 0.22383
# Poissons Ratio (z) = 0.29695 0.69704
#
# Static dielectric constant tensor:
#      x y z
#    x 1.450040 0.000000 0.000000 
#    y 0.000000 1.460710 0.000000 
#    z 0.000000 0.000000 1.471870 
# 
# From -- ./inp_files/8230.got.cif
#   From: 2010.05.17/outbox.cif.g08.bks.cpg/sg55_5_cif.got.tgz:8230.got - 2010.06.03 13:27:54.
