data_PCOD9424680
_publ_section_title
;
Structure prediction by ZEFSAII (Michael W. Deem and Ramdas Pophale) SiO2 
 PCOD9424680
Probable space group: P C C A
;
_chemical_formula_sum "Si O2"
_cell_formula_units_Z 60
_cell_length_a 27.000000
_cell_length_b 12.000000
_cell_length_c 9.000000
_cell_angle_alpha 90.000000
_cell_angle_beta 90.000000
_cell_angle_gamma 90.000000
_cell_volume 2916.000000
_symmetry_space_group_name_H-M "P C C A"
_symmetry_group_IT_number 54
_symmetry_cell_setting 'orthorhombic'
loop_
_space_group_symop_operation_xyz
x,y,z
1/2-x,-y,z
1/2+x,-y,1/2-z
-x,y,1/2-z
-x,-y,-z
1/2+x,y,-z
1/2-x,y,1/2+z
x,-y,1/2+z
loop_
_atom_site_type_symbol
_atom_site_label
_atom_site_fract_x
_atom_site_fract_y
_atom_site_fract_z
Si Si1 0.142779 0.872184 0.022456
Si Si2 0.598878 0.614889 0.735871
Si Si3 0.964829 0.198359 0.897424
Si Si4 0.685307 0.241835 0.758156
Si Si5 0.702009 0.252430 0.236054
Si Si6 0.000000 0.754397 0.750000
Si Si7 0.906097 0.373305 0.382444
Si Si8 0.701451 0.927074 0.489690
O O1 0.156668 0.781092 0.896766
O O2 0.155105 0.996271 0.969234
O O3 0.086828 0.869728 0.082779
O O4 0.183708 0.841039 0.146753
O O5 0.559730 0.685838 0.835689
O O6 0.655486 0.662881 0.742480
O O7 0.584239 0.619087 0.560559
O O8 0.598853 0.493165 0.806168
O O9 0.000000 0.165060 0.750000
O O10 0.986879 0.198643 0.072100
O O11 0.741088 0.293711 0.756688
O O12 0.645564 0.309046 0.855061
O O13 0.695036 0.118714 0.823949
O O14 0.704483 0.185169 0.083436
O O15 0.950504 0.688718 0.795272
O O16 0.750000 0.000000 0.513071
#
# Coordination Sequence:
#
# PCOD9424680 Si02
#       8
#     8   8   8   8   8   4   8   8
#     4  11  24  38  67 105 140 182 230 289 359 430
#     4  11  26  45  68 104 138 186 233 294 361 430
#     4  11  24  46  74 106 144 183 242 306 363 423
#     4  12  23  42  66 105 140 182 235 296 346 433
#     4  11  23  42  66 102 145 179 229 292 351 422
#     4  12  24  46  76 106 132 182 244 316 348 420
#     4  12  26  44  70  99 138 184 242 292 364 421
#     4  12  22  40  70 104 138 185 236 288 352 423
#
# _framework density 20.576132000000001
#
# number of rings (size 3 to 8) (size 9 to 14) (size 15 to 20)
#    0.000    0.533    6.667    1.600    2.800    1.600 
#    0.000    1.333    1.467    4.800    0.000    0.000 
#    0.000    0.000    0.000    0.000    0.000    0.000 
#
# Total GULP energy -334098.247243 kJ/mol
# GULP energy per Si atom -5568.304121 kJ/mol
# Density = 2.052930 g / cm^3
# Si number density = 20.576132 Si / 1000 Ang^3
#
#
#
# Elastic Constant Matrix: (Units=GPa)
#
#
# Indices 1 2 3 4 5 6 
#
# 1 124.8148 10.5731 16.7921 0.0000 0.0000 0.0000
# 2 10.5731 18.7480 0.9431 0.0000 0.0000 0.0000
# 3 16.7921 0.9431 113.9738 0.0000 0.0000 0.0000
# 4 0.0000 0.0000 0.0000 30.4037 0.0000 0.0000
# 5 0.0000 0.0000 0.0000 0.0000 41.6275 0.0000
# 6 0.0000 0.0000 0.0000 0.0000 0.0000 21.7949
#
#
#
# Elastic Compliance Matrix: (Units=1/GPa)
#
#
# Indices 1 2 3 4 5 6 
#
# 1 0.008581 -0.004778 -0.001225 0.000000 0.000000 0.000000
# 2 -0.004778 0.056022 0.000240 0.000000 0.000000 0.000000
# 3 -0.001225 0.000240 0.008952 0.000000 0.000000 0.000000
# 4 0.000000 0.000000 0.000000 0.032891 0.000000 0.000000
# 5 0.000000 0.000000 0.000000 0.000000 0.024023 0.000000
# 6 0.000000 0.000000 0.000000 0.000000 0.000000 0.045882
#
#
# Mechanical properties :
#
#
# Convention : Reuss Voigt Hill
#
# Bulk Modulus (GPa) = 16.12108 34.90593 25.51350
# Shear Modulus (GPa) = 23.97478 34.04711 29.01095
#
# Velocity S-wave (km/s) = 3.41717 4.07220 3.75898
# Velocity P-wave (km/s) = 4.83955 6.25392 5.59164
#
# Compressibility (1/GPa) = 0.06203059
#
# Stress axis : x y z
#
# Youngs Moduli (GPa) = 116.53116 17.85028 111.70180
#
# Poissons Ratio (x) = 0.08529 0.13681
# Poissons Ratio (y) = 0.55678 -0.02685
# Poissons Ratio (z) = 0.14273 -0.00429
#
# Static dielectric constant tensor:
#      x y z
#    x 1.739550 0.000000 0.000000 
#    y 0.000000 1.746850 0.000000 
#    z 0.000000 0.000000 1.834270 
# 
# From -- ./inp_files/5580.got.cif
#   From: 2010.05.17/outbox.ucp.g08.bks.cvg/sg54_3_cif.got.tgz:5580.got - 2010.06.11 16:34:40.
