data_PCOD9424870
_publ_section_title
;
Structure prediction by ZEFSAII (Michael W. Deem and Ramdas Pophale) SiO2 
 PCOD9424870
Probable space group: P B A M
;
_chemical_formula_sum "Si O2"
_cell_formula_units_Z 56
_cell_length_a 21.736609
_cell_length_b 19.191142
_cell_length_c 7.558601
_cell_angle_alpha 90.000000
_cell_angle_beta 90.000000
_cell_angle_gamma 90.000000
_cell_volume 3153.073052
_symmetry_space_group_name_H-M "P B A M"
_symmetry_group_IT_number 55
_symmetry_cell_setting 'orthorhombic'
loop_
_space_group_symop_operation_xyz
x,y,z
-x,-y,z
1/2+x,1/2-y,-z
1/2-x,1/2+y,-z
-x,-y,-z
x,y,-z
1/2-x,1/2+y,z
1/2+x,1/2-y,z
loop_
_atom_site_type_symbol
_atom_site_label
_atom_site_fract_x
_atom_site_fract_y
_atom_site_fract_z
Si Si1 0.174943 0.203348 0.300593
Si Si2 0.501537 0.919406 0.283477
Si Si3 0.377058 0.843173 0.717162
Si Si4 0.128394 0.648097 0.287932
Si Si5 0.254819 0.574312 0.282479
Si Si6 0.201436 0.775405 0.796326
Si Si7 0.249352 0.416822 0.287575
O O1 0.152443 0.190395 0.500000
O O2 0.132038 0.263380 0.220664
O O3 0.193041 0.128831 0.220661
O O4 0.241455 0.242258 0.309657
O O5 0.501609 0.918864 0.500000
O O6 0.440151 0.879020 0.227633
O O7 0.564110 0.882299 0.222712
O O8 0.500000 0.000000 0.229128
O O9 0.375922 0.841619 0.500000
O O10 0.317322 0.887939 0.773064
O O11 0.127553 0.642028 0.500000
O O12 0.187990 0.603978 0.226961
O O13 0.142370 0.728508 0.243676
O O14 0.255705 0.576236 0.500000
O O15 0.262121 0.494820 0.224574
O O16 0.201359 0.857410 0.759987
O O17 0.217464 0.765087 0.000000
O O18 0.246372 0.420135 0.500000
#
# Coordination Sequence:
#
# PCOD9424870 Si02
#       7
#     8   8   8   8   8   8   8
#     4   8  14  26  42  59  80 105 133 164 203 246
#     4   9  15  22  37  63  88 109 137 168 193 227
#     4   8  13  21  35  56  81 106 129 158 193 230
#     4   9  16  27  42  60  84 112 140 166 196 238
#     4   8  13  22  39  60  78 101 131 163 199 240
#     4  10  18  27  39  56  79 106 137 169 202 239
#     4   9  15  25  41  59  80 103 129 163 205 245
#
# _framework density 17.760449999999999
#
# number of rings (size 3 to 8) (size 9 to 14) (size 15 to 20)
#    0.000    3.286    0.000    3.857    0.000    3.429 
#    0.000    2.857    0.000    3.857    0.000    1.000 
#    0.000    8.000    0.000    0.000    0.000    0.000 
#
# Total GULP energy -311859.573916 kJ/mol
# GULP energy per Si atom -5568.920963 kJ/mol
# Density = 1.772003 g / cm^3
# Si number density = 17.760450 Si / 1000 Ang^3
#
#
#
# Elastic Constant Matrix: (Units=GPa)
#
#
# Indices 1 2 3 4 5 6 
#
# 1 89.6913 82.9821 1.2182 0.0000 0.0000 0.0000
# 2 82.9821 195.6321 0.8814 0.0000 0.0000 0.0000
# 3 1.2182 0.8814 46.2054 0.0000 0.0000 0.0000
# 4 0.0000 0.0000 0.0000 -34.0309 0.0000 0.0000
# 5 0.0000 0.0000 0.0000 0.0000 -10.1230 0.0000
# 6 0.0000 0.0000 0.0000 0.0000 0.0000 30.2489
#
#
#
# Elastic Compliance Matrix: (Units=1/GPa)
#
#
# Indices 1 2 3 4 5 6 
#
# 1 0.018356 -0.007785 -0.000335 0.000000 0.000000 0.000000
# 2 -0.007785 0.008414 0.000045 0.000000 0.000000 0.000000
# 3 -0.000335 0.000045 0.021651 0.000000 0.000000 0.000000
# 4 0.000000 0.000000 0.000000 -0.029385 0.000000 0.000000
# 5 0.000000 0.000000 0.000000 0.000000 -0.098785 0.000000
# 6 0.000000 0.000000 0.000000 0.000000 0.000000 0.033059
#
#
# Mechanical properties :
#
#
# Convention : Reuss Voigt Hill
#
# Bulk Modulus (GPa) = 30.98912 55.74360 43.36636
# Shear Modulus (GPa) = -252.74283 13.64881 -119.54701
#
# Velocity S-wave (km/s) = -11.94217 2.77518 -8.21322
# Velocity P-wave (km/s) = 13.14031 6.45936 8.09149
#
# Compressibility (1/GPa) = 0.03226939
#
# Stress axis : x y z
#
# Youngs Moduli (GPa) = 54.47698 118.85599 46.18830
#
# Poissons Ratio (x) = 0.92527 0.01549
# Poissons Ratio (y) = 0.42409 -0.00207
# Poissons Ratio (z) = 0.01828 -0.00532
#
# Static dielectric constant tensor:
#      x y z
#    x 1.577870 0.000000 0.000000 
#    y 0.000000 1.642100 0.000000 
#    z 0.000000 0.000000 1.649140 
# 
# From -- ./inp_files/7881.got.cif
#   From: 2010.05.17/outbox.cif.g08.bks.cpg/sg55_4_cif.got.tgz:7881.got - 2010.06.03 13:27:54.
