data_PCOD9424667
_publ_section_title
;
Structure prediction by ZEFSAII (Michael W. Deem and Ramdas Pophale) SiO2 
 PCOD9424667
Probable space group: P C C A
;
_chemical_formula_sum "Si O2"
_cell_formula_units_Z 40
_cell_length_a 9.000000
_cell_length_b 12.000000
_cell_length_c 18.000000
_cell_angle_alpha 90.000000
_cell_angle_beta 90.000000
_cell_angle_gamma 90.000000
_cell_volume 1944.000000
_symmetry_space_group_name_H-M "P C C A"
_symmetry_group_IT_number 54
_symmetry_cell_setting 'orthorhombic'
loop_
_space_group_symop_operation_xyz
x,y,z
1/2-x,-y,z
1/2+x,-y,1/2-z
-x,y,1/2-z
-x,-y,-z
1/2+x,y,-z
1/2-x,y,1/2+z
x,-y,1/2+z
loop_
_atom_site_type_symbol
_atom_site_label
_atom_site_fract_x
_atom_site_fract_y
_atom_site_fract_z
Si Si1 0.500000 0.264258 0.250000
Si Si2 0.451176 0.129482 0.923331
Si Si3 0.250000 0.000000 0.541454
Si Si4 0.314185 0.120078 0.767560
Si Si5 0.882365 0.641413 0.947235
Si Si6 0.046086 0.394734 0.596700
O O1 0.664806 0.198853 0.249139
O O2 0.506391 0.338869 0.324932
O O3 0.609190 0.060587 0.918207
O O4 0.337871 0.116577 0.855616
O O5 0.515098 0.254557 0.925474
O O6 0.347815 0.087884 0.992071
O O7 0.500000 0.139489 0.750000
O O8 0.250000 0.000000 0.741384
O O9 0.706440 0.653696 0.931201
O O10 0.930771 0.528678 0.904093
O O11 0.919552 0.625794 0.034561
#
# Coordination Sequence:
#
# PCOD9424667 Si02
#       6
#     4   8   4   8   8   8
#     4  12  28  50  74 106 158 190 246 318 370 458
#     4  11  23  42  67 106 137 190 235 309 359 434
#     4  10  24  38  68 106 148 174 242 300 360 446
#     4  12  27  46  71 103 145 196 242 295 374 446
#     4  10  22  45  74 102 145 185 252 301 373 442
#     4  10  24  46  71 109 139 197 244 307 372 443
#
# _framework density 20.576132000000001
#
# number of rings (size 3 to 8) (size 9 to 14) (size 15 to 20)
#    0.000    1.200    2.000    2.400    7.000    1.600 
#    9.000    0.000    0.000    0.000    0.000    0.000 
#    0.000    0.000    0.000    0.000    0.000    0.000 
#
# Total GULP energy -222690.887649 kJ/mol
# GULP energy per Si atom -5567.272191 kJ/mol
# Density = 2.052930 g / cm^3
# Si number density = 20.576132 Si / 1000 Ang^3
#
#
#
# Elastic Constant Matrix: (Units=GPa)
#
#
# Indices 1 2 3 4 5 6 
#
# 1 152.5631 49.4300 42.8879 0.0000 0.0000 0.0000
# 2 49.4300 129.9390 61.8614 0.0000 0.0000 0.0000
# 3 42.8879 61.8614 106.6389 0.0000 0.0000 0.0000
# 4 0.0000 0.0000 0.0000 25.7133 0.0000 0.0000
# 5 0.0000 0.0000 0.0000 0.0000 52.7209 0.0000
# 6 0.0000 0.0000 0.0000 0.0000 0.0000 40.9805
#
#
#
# Elastic Compliance Matrix: (Units=1/GPa)
#
#
# Indices 1 2 3 4 5 6 
#
# 1 0.007758 -0.002025 -0.001945 0.000000 0.000000 0.000000
# 2 -0.002025 0.011161 -0.005660 0.000000 0.000000 0.000000
# 3 -0.001945 -0.005660 0.013443 0.000000 0.000000 0.000000
# 4 0.000000 0.000000 0.000000 0.038890 0.000000 0.000000
# 5 0.000000 0.000000 0.000000 0.000000 0.018968 0.000000
# 6 0.000000 0.000000 0.000000 0.000000 0.000000 0.024402
#
#
# Mechanical properties :
#
#
# Convention : Reuss Voigt Hill
#
# Bulk Modulus (GPa) = 76.32935 77.49996 76.91465
# Shear Modulus (GPa) = 36.16658 39.54708 37.85683
#
# Velocity S-wave (km/s) = 4.19704 4.38880 4.29399
# Velocity P-wave (km/s) = 7.78867 7.96423 7.87694
#
# Compressibility (1/GPa) = 0.01310112
#
# Stress axis : x y z
#
# Youngs Moduli (GPa) = 128.90607 89.59879 74.38719
#
# Poissons Ratio (x) = 0.18143 0.14470
# Poissons Ratio (y) = 0.26103 0.42103
# Poissons Ratio (z) = 0.25076 0.50713
#
# Static dielectric constant tensor:
#      x y z
#    x 1.745860 0.000000 0.000000 
#    y 0.000000 1.797570 0.000000 
#    z 0.000000 0.000000 1.802400 
# 
# From -- ./inp_files/16402.got.cif
#   From: 2010.05.17/outbox.ucp.g08.bks.cvg/sg54_9_cif.got.tgz:16402.got - 2010.06.11 16:34:40.
