data_PCOD9424040
_publ_section_title
;
Structure prediction by ZEFSAII (Michael W. Deem and Ramdas Pophale) SiO2 
 PCOD9424040
Probable space group: P C C A
;
_chemical_formula_sum "Si O2"
_cell_formula_units_Z 64
_cell_length_a 16.757046
_cell_length_b 11.610571
_cell_length_c 15.580554
_cell_angle_alpha 90.000000
_cell_angle_beta 90.000000
_cell_angle_gamma 90.000000
_cell_volume 3031.335017
_symmetry_space_group_name_H-M "P C C A"
_symmetry_group_IT_number 54
_symmetry_cell_setting 'orthorhombic'
loop_
_space_group_symop_operation_xyz
x,y,z
1/2-x,-y,z
1/2+x,-y,1/2-z
-x,y,1/2-z
-x,-y,-z
1/2+x,y,-z
1/2-x,y,1/2+z
x,-y,1/2+z
loop_
_atom_site_type_symbol
_atom_site_label
_atom_site_fract_x
_atom_site_fract_y
_atom_site_fract_z
Si Si1 0.417042 0.397022 0.767196
Si Si2 0.392352 0.188231 0.888726
Si Si3 0.712335 0.220507 0.162404
Si Si4 0.805296 0.333440 0.840857
Si Si5 0.941610 0.063759 0.666916
Si Si6 0.039365 0.254863 0.572657
Si Si7 0.154630 0.420824 0.100664
Si Si8 0.106914 0.577987 0.412054
O O1 0.500000 0.461039 0.750000
O O2 0.420791 0.278366 0.818009
O O3 0.397488 0.355292 0.669635
O O4 0.377822 0.481938 0.839407
O O5 0.295405 0.183421 0.880541
O O6 0.427391 0.062959 0.869295
O O7 0.424943 0.237444 0.978480
O O8 0.729569 0.283881 0.253263
O O9 0.646118 0.121744 0.180563
O O10 0.667010 0.317279 0.107165
O O11 0.883822 0.265776 0.866364
O O12 0.831153 0.467107 0.838674
O O13 0.734544 0.345678 0.910015
O O14 0.000000 0.062825 0.750000
O O15 0.986516 0.145883 0.599282
O O16 0.981553 0.365351 0.586003
O O17 0.123113 0.461161 0.009673
#
# Coordination Sequence:
#
# PCOD9424040 Si02
#       8
#     8   8   8   8   8   8   8   8
#     4  12  24  39  64  96 142 181 224 279 341 414
#     4  12  25  43  67 100 140 175 227 290 350 389
#     4  11  23  44  72  99 135 180 232 276 343 407
#     4  11  21  41  67  97 133 183 222 273 334 411
#     4  11  24  45  74  98 131 182 234 284 335 403
#     4  11  24  44  72  98 133 178 235 277 337 411
#     4  11  23  40  62 100 143 170 223 274 340 413
#     4  11  25  41  67 103 136 185 223 274 343 415
#
# _framework density 21.112808999999999
#
# number of rings (size 3 to 8) (size 9 to 14) (size 15 to 20)
#    0.000    0.750    3.750    4.125    0.000    3.000 
#    0.000    0.000    2.750    0.000    0.000    0.000 
#    0.000    0.000    0.000    0.000    0.000    0.000 
#
# Total GULP energy -356807.269112 kJ/mol
# GULP energy per Si atom -5575.113580 kJ/mol
# Density = 2.106476 g / cm^3
# Si number density = 21.112809 Si / 1000 Ang^3
#
#
#
# Elastic Constant Matrix: (Units=GPa)
#
#
# Indices 1 2 3 4 5 6 
#
# 1 95.8105 1.1016 13.7793 0.0000 0.0000 0.0000
# 2 1.1016 65.4473 -10.8950 0.0000 0.0000 0.0000
# 3 13.7793 -10.8950 75.6461 0.0000 0.0000 0.0000
# 4 0.0000 0.0000 0.0000 25.1676 0.0000 0.0000
# 5 0.0000 0.0000 0.0000 0.0000 35.3620 0.0000
# 6 0.0000 0.0000 0.0000 0.0000 0.0000 15.4909
#
#
#
# Elastic Compliance Matrix: (Units=1/GPa)
#
#
# Indices 1 2 3 4 5 6 
#
# 1 0.010735 -0.000519 -0.002030 0.000000 0.000000 0.000000
# 2 -0.000519 0.015680 0.002353 0.000000 0.000000 0.000000
# 3 -0.002030 0.002353 0.013928 0.000000 0.000000 0.000000
# 4 0.000000 0.000000 0.000000 0.039734 0.000000 0.000000
# 5 0.000000 0.000000 0.000000 0.000000 0.028279 0.000000
# 6 0.000000 0.000000 0.000000 0.000000 0.000000 0.064554
#
#
# Mechanical properties :
#
#
# Convention : Reuss Voigt Hill
#
# Bulk Modulus (GPa) = 25.03059 27.20841 26.11950
# Shear Modulus (GPa) = 26.79255 30.73196 28.76226
#
# Velocity S-wave (km/s) = 3.56619 3.81938 3.69496
# Velocity P-wave (km/s) = 5.37014 5.68906 5.53190
#
# Compressibility (1/GPa) = 0.03995112
#
# Stress axis : x y z
#
# Youngs Moduli (GPa) = 93.15140 63.77602 71.79724
#
# Poissons Ratio (x) = 0.03308 0.14576
# Poissons Ratio (y) = 0.04831 -0.16892
# Poissons Ratio (z) = 0.18911 -0.15005
#
# Static dielectric constant tensor:
#      x y z
#    x 2.094220 0.000000 0.000000 
#    y 0.000000 1.780840 0.000000 
#    z 0.000000 0.000000 2.012070 
# 
# From -- ./inp_files/14345.got.cif
#   From: 2010.05.17/outbox.cif.g08.bks.cpg/sg54_8_cif.got.tgz:14345.got - 2010.06.03 13:09:01.
