data_PCOD9424371
_publ_section_title
;
Structure prediction by ZEFSAII (Michael W. Deem and Ramdas Pophale) SiO2 
 PCOD9424371
Probable space group: P C C A
;
_chemical_formula_sum "Si O2"
_cell_formula_units_Z 32
_cell_length_a 5.390107
_cell_length_b 7.491301
_cell_length_c 32.673170
_cell_angle_alpha 90.000000
_cell_angle_beta 90.000000
_cell_angle_gamma 90.000000
_cell_volume 1319.307120
_symmetry_space_group_name_H-M "P C C A"
_symmetry_group_IT_number 54
_symmetry_cell_setting 'orthorhombic'
loop_
_space_group_symop_operation_xyz
x,y,z
1/2-x,-y,z
1/2+x,-y,1/2-z
-x,y,1/2-z
-x,-y,-z
1/2+x,y,-z
1/2-x,y,1/2+z
x,-y,1/2+z
loop_
_atom_site_type_symbol
_atom_site_label
_atom_site_fract_x
_atom_site_fract_y
_atom_site_fract_z
Si Si1 0.250000 0.000000 0.928375
Si Si2 0.250000 0.500000 0.595111
Si Si3 0.751338 0.282066 0.227037
Si Si4 0.132357 0.302429 0.364199
Si Si5 0.013803 0.269504 0.526227
O O1 0.306537 0.165800 0.899655
O O2 0.021681 0.070895 0.955299
O O3 0.346336 0.347972 0.626046
O O4 0.059098 0.408143 0.563365
O O5 0.750000 0.500000 0.227491
O O6 0.500000 0.224768 0.250000
O O7 0.785095 0.230433 0.179708
O O8 0.000000 0.223389 0.250000
O O9 0.250000 0.500000 0.367308
O O10 0.252046 0.293337 0.497156
#
# Coordination Sequence:
#
# PCOD9424371 Si02
#       5
#     4   4   8   8   8
#     4  12  26  50  74 110 144 198 250 310 378 444
#     4  12  26  46  76 110 148 196 254 310 378 448
#     4   9  20  38  67 102 142 188 235 286 360 437
#     4  11  25  46  73 106 150 189 244 303 369 439
#     4  12  27  48  73 105 149 197 253 316 379 447
#
# _framework density 24.255154999999998
#
# number of rings (size 3 to 8) (size 9 to 14) (size 15 to 20)
#    0.000    1.000    2.500    3.000    8.750    3.000 
#    0.000    1.250    0.000    0.000    0.000    0.000 
#    0.000    0.000    0.000    0.000    0.000    0.000 
#
# Total GULP energy -178870.420989 kJ/mol
# GULP energy per Si atom -5589.700656 kJ/mol
# Density = 2.419995 g / cm^3
# Si number density = 24.255155 Si / 1000 Ang^3
#
#
#
# Elastic Constant Matrix: (Units=GPa)
#
#
# Indices 1 2 3 4 5 6 
#
# 1 173.3189 30.1756 94.8784 0.0000 0.0000 0.0000
# 2 30.1756 94.5063 39.7402 0.0000 0.0000 0.0000
# 3 94.8784 39.7402 175.2618 0.0000 0.0000 0.0000
# 4 0.0000 0.0000 0.0000 78.1545 0.0000 0.0000
# 5 0.0000 0.0000 0.0000 0.0000 34.8237 0.0000
# 6 0.0000 0.0000 0.0000 0.0000 0.0000 20.4714
#
#
#
# Elastic Compliance Matrix: (Units=1/GPa)
#
#
# Indices 1 2 3 4 5 6 
#
# 1 0.008259 -0.000837 -0.004281 0.000000 0.000000 0.000000
# 2 -0.000837 0.011781 -0.002218 0.000000 0.000000 0.000000
# 3 -0.004281 -0.002218 0.008526 0.000000 0.000000 0.000000
# 4 0.000000 0.000000 0.000000 0.012795 0.000000 0.000000
# 5 0.000000 0.000000 0.000000 0.000000 0.028716 0.000000
# 6 0.000000 0.000000 0.000000 0.000000 0.000000 0.048849
#
#
# Mechanical properties :
#
#
# Convention : Reuss Voigt Hill
#
# Bulk Modulus (GPa) = 71.97420 85.85281 78.91350
# Shear Modulus (GPa) = 36.17134 45.24279 40.70706
#
# Velocity S-wave (km/s) = 3.86590 4.32358 4.10113
# Velocity P-wave (km/s) = 7.04735 7.77155 7.41829
#
# Compressibility (1/GPa) = 0.01389387
#
# Stress axis : x y z
#
# Youngs Moduli (GPa) = 121.07873 84.88003 117.28177
#
# Poissons Ratio (x) = 0.07103 0.50212
# Poissons Ratio (y) = 0.10132 0.26018
# Poissons Ratio (z) = 0.51838 0.18830
#
# Static dielectric constant tensor:
#      x y z
#    x 2.052000 0.000000 0.000000 
#    y 0.000000 2.098440 0.000000 
#    z 0.000000 0.000000 1.921830 
# 
# From -- ./inp_files/26975.got.cif
#   From: 2010.05.17/outbox.cif.g08.bks.cpg/sg54_14_cif.got.tgz:26975.got - 2010.06.03 13:09:01.
