data_PCOD9424222
_publ_section_title
;
Structure prediction by ZEFSAII (Michael W. Deem and Ramdas Pophale) SiO2 
 PCOD9424222
Probable space group: P C C A
;
_chemical_formula_sum "Si O2"
_cell_formula_units_Z 56
_cell_length_a 14.730103
_cell_length_b 5.686793
_cell_length_c 32.001309
_cell_angle_alpha 90.000000
_cell_angle_beta 90.000000
_cell_angle_gamma 90.000000
_cell_volume 2680.655143
_symmetry_space_group_name_H-M "P C C A"
_symmetry_group_IT_number 54
_symmetry_cell_setting 'orthorhombic'
loop_
_space_group_symop_operation_xyz
x,y,z
1/2-x,-y,z
1/2+x,-y,1/2-z
-x,y,1/2-z
-x,-y,-z
1/2+x,y,-z
1/2-x,y,1/2+z
x,-y,1/2+z
loop_
_atom_site_type_symbol
_atom_site_label
_atom_site_fract_x
_atom_site_fract_y
_atom_site_fract_z
Si Si1 0.750000 0.500000 0.077405
Si Si2 0.666915 0.137790 0.643864
Si Si3 0.250000 0.500000 0.137165
Si Si4 0.836966 0.831711 0.928845
Si Si5 0.999343 0.192098 0.299648
Si Si6 0.588898 0.357989 0.014888
Si Si7 0.073388 0.317778 0.665518
Si Si8 0.985587 0.880415 0.091351
O O1 0.784084 0.303456 0.110020
O O2 0.663602 0.466626 0.046591
O O3 0.598655 0.229597 0.679290
O O4 0.750000 0.000000 0.664605
O O5 0.599775 0.981212 0.615813
O O6 0.187222 0.353724 0.106274
O O7 0.317635 0.326644 0.161290
O O8 0.750000 0.000000 0.933258
O O9 0.859144 0.721625 0.973625
O O10 0.926315 0.959599 0.912451
O O11 0.000000 0.170172 0.250000
O O12 0.949316 0.437906 0.311003
O O13 0.959144 0.938523 0.316568
O O14 0.545901 0.160092 0.044310
O O15 0.500000 0.500000 0.000000
O O16 0.021962 0.332530 0.620271
#
# Coordination Sequence:
#
# PCOD9424222 Si02
#       8
#     4   8   4   8   8   8   8   8
#     4  12  25  44  69 100 144 186 266 298 365 454
#     4  11  24  45  72 101 134 191 235 293 360 442
#     4  12  23  46  67 104 136 180 252 286 361 436
#     4  12  26  41  67  97 141 187 242 315 363 418
#     4  11  26  49  75 109 149 183 232 296 374 439
#     4  12  26  40  64  97 139 191 242 310 374 417
#     4  11  24  45  78 105 141 193 230 293 361 445
#     4  11  23  46  68  97 141 189 245 292 363 438
#
# _framework density 20.890416999999999
#
# number of rings (size 3 to 8) (size 9 to 14) (size 15 to 20)
#    0.000    0.571    2.857    5.571    6.000    0.000 
#    2.571    0.000    0.000    0.000    0.000    0.000 
#    0.000    0.000    0.000    0.000    0.000    0.000 
#
# Total GULP energy -312371.375208 kJ/mol
# GULP energy per Si atom -5578.060272 kJ/mol
# Density = 2.084287 g / cm^3
# Si number density = 20.890417 Si / 1000 Ang^3
#
#
#
# Elastic Constant Matrix: (Units=GPa)
#
#
# Indices 1 2 3 4 5 6 
#
# 1 131.7242 43.4274 28.8700 0.0000 0.0000 0.0000
# 2 43.4274 82.7862 27.0309 0.0000 0.0000 0.0000
# 3 28.8700 27.0309 98.8346 0.0000 0.0000 0.0000
# 4 0.0000 0.0000 0.0000 29.5920 0.0000 0.0000
# 5 0.0000 0.0000 0.0000 0.0000 22.1285 0.0000
# 6 0.0000 0.0000 0.0000 0.0000 0.0000 42.1956
#
#
#
# Elastic Compliance Matrix: (Units=1/GPa)
#
#
# Indices 1 2 3 4 5 6 
#
# 1 0.009386 -0.004423 -0.001532 0.000000 0.000000 0.000000
# 2 -0.004423 0.015348 -0.002906 0.000000 0.000000 0.000000
# 3 -0.001532 -0.002906 0.011360 0.000000 0.000000 0.000000
# 4 0.000000 0.000000 0.000000 0.033793 0.000000 0.000000
# 5 0.000000 0.000000 0.000000 0.000000 0.045191 0.000000
# 6 0.000000 0.000000 0.000000 0.000000 0.000000 0.023699
#
#
# Mechanical properties :
#
#
# Convention : Reuss Voigt Hill
#
# Bulk Modulus (GPa) = 54.42915 56.88907 55.65911
# Shear Modulus (GPa) = 30.74603 33.05098 31.89850
#
# Velocity S-wave (km/s) = 3.84054 3.98189 3.91185
# Velocity P-wave (km/s) = 6.76590 6.95930 6.86328
#
# Compressibility (1/GPa) = 0.01837251
#
# Stress axis : x y z
#
# Youngs Moduli (GPa) = 106.54577 65.15345 88.02766
#
# Poissons Ratio (x) = 0.28819 0.13484
# Poissons Ratio (y) = 0.47128 0.25578
# Poissons Ratio (z) = 0.16321 0.18931
#
# Static dielectric constant tensor:
#      x y z
#    x 1.782510 0.000000 0.000000 
#    y 0.000000 1.798630 0.000000 
#    z 0.000000 0.000000 1.796150 
# 
# From -- ./inp_files/28273.got.cif
#   From: 2010.05.17/outbox.cif.g08.bks.cpg/sg54_15_cif.got.tgz:28273.got - 2010.06.03 13:09:01.
