data_PCOD9424743
_publ_section_title
;
Structure prediction by ZEFSAII (Michael W. Deem and Ramdas Pophale) SiO2 
 PCOD9424743
Probable space group: P B A M
;
_chemical_formula_sum "Si O2"
_cell_formula_units_Z 52
_cell_length_a 21.090460
_cell_length_b 14.546223
_cell_length_c 9.101333
_cell_angle_alpha 90.000000
_cell_angle_beta 90.000000
_cell_angle_gamma 90.000000
_cell_volume 2792.166409
_symmetry_space_group_name_H-M "P B A M"
_symmetry_group_IT_number 55
_symmetry_cell_setting 'orthorhombic'
loop_
_space_group_symop_operation_xyz
x,y,z
-x,-y,z
1/2+x,1/2-y,-z
1/2-x,1/2+y,-z
-x,-y,-z
x,y,-z
1/2-x,1/2+y,z
1/2+x,1/2-y,z
loop_
_atom_site_type_symbol
_atom_site_label
_atom_site_fract_x
_atom_site_fract_y
_atom_site_fract_z
Si Si1 0.067098 0.843912 0.322464
Si Si2 0.104598 0.642063 0.668341
Si Si3 0.065757 0.163053 0.174224
Si Si4 0.342021 0.493195 0.825019
Si Si5 0.205120 0.497738 0.322870
Si Si6 0.500000 0.000000 0.754349
Si Si7 0.610904 0.133422 0.166163
O O1 0.068654 0.848185 0.500000
O O2 0.085340 0.740532 0.269129
O O3 0.115712 0.915178 0.251776
O O4 0.996348 0.862938 0.265445
O O5 0.121450 0.660470 0.500000
O O6 0.164183 0.586213 0.731663
O O7 0.045250 0.572021 0.670989
O O8 0.088378 0.265722 0.213561
O O9 0.121186 0.089407 0.196909
O O10 0.049756 0.163242 0.000000
O O11 0.273298 0.495746 0.751172
O O12 0.337221 0.476796 0.000000
O O13 0.209608 0.499519 0.500000
O O14 0.162925 0.410999 0.272146
O O15 0.449773 0.934648 0.835715
O O16 0.636314 0.139797 0.000000
#
# Coordination Sequence:
#
# PCOD9424743 Si02
#       7
#     8   8   8   8   8   4   8
#     4  11  22  38  61  91 119 151 194 243 291 344
#     4   9  19  34  57  88 121 150 186 235 294 347
#     4  10  22  40  60  86 119 155 196 241 290 344
#     4  11  24  42  60  79 114 160 201 242 287 341
#     4  10  22  40  60  85 117 155 194 238 290 350
#     4  10  16  32  58  86 119 154 185 234 281 348
#     4  10  20  35  58  90 121 150 190 238 291 348
#
# _framework density 18.623531
#
# number of rings (size 3 to 8) (size 9 to 14) (size 15 to 20)
#    0.000    1.846    1.538    2.308    0.000    5.538 
#    0.000    5.385    0.000    0.000    0.000    0.000 
#    0.000    0.000    0.000    0.000    0.000    0.000 
#
# Total GULP energy -290086.905665 kJ/mol
# GULP energy per Si atom -5578.594340 kJ/mol
# Density = 1.858114 g / cm^3
# Si number density = 18.623531 Si / 1000 Ang^3
#
#
#
# Elastic Constant Matrix: (Units=GPa)
#
#
# Indices 1 2 3 4 5 6 
#
# 1 160.2834 64.3127 68.9180 0.0000 0.0000 0.0000
# 2 64.3127 105.7983 36.1923 0.0000 0.0000 0.0000
# 3 68.9180 36.1923 72.9437 0.0000 0.0000 0.0000
# 4 0.0000 0.0000 0.0000 24.3251 0.0000 0.0000
# 5 0.0000 0.0000 0.0000 0.0000 22.6536 0.0000
# 6 0.0000 0.0000 0.0000 0.0000 0.0000 67.9635
#
#
#
# Elastic Compliance Matrix: (Units=1/GPa)
#
#
# Indices 1 2 3 4 5 6 
#
# 1 0.011787 -0.004041 -0.009131 0.000000 0.000000 0.000000
# 2 -0.004041 0.012770 -0.002518 0.000000 0.000000 0.000000
# 3 -0.009131 -0.002518 0.023585 0.000000 0.000000 0.000000
# 4 0.000000 0.000000 0.000000 0.041110 0.000000 0.000000
# 5 0.000000 0.000000 0.000000 0.000000 0.044143 0.000000
# 6 0.000000 0.000000 0.000000 0.000000 0.000000 0.014714
#
#
# Mechanical properties :
#
#
# Convention : Reuss Voigt Hill
#
# Bulk Modulus (GPa) = 59.65893 75.31902 67.48898
# Shear Modulus (GPa) = 27.01599 34.29528 30.65564
#
# Velocity S-wave (km/s) = 3.81286 4.29593 4.06158
# Velocity P-wave (km/s) = 7.17548 8.07077 7.63626
#
# Compressibility (1/GPa) = 0.01676195
#
# Stress axis : x y z
#
# Youngs Moduli (GPa) = 84.84254 78.30955 42.39906
#
# Poissons Ratio (x) = 0.31647 0.38714
# Poissons Ratio (y) = 0.34287 0.10675
# Poissons Ratio (z) = 0.77469 0.19717
#
# Static dielectric constant tensor:
#      x y z
#    x 1.612390 0.000000 0.000000 
#    y 0.000000 1.654500 0.000000 
#    z 0.000000 0.000000 1.644030 
# 
# From -- ./inp_files/8627.got.cif
#   From: 2010.05.17/outbox.cif.g08.bks.cpg/sg55_5_cif.got.tgz:8627.got - 2010.06.03 13:27:54.
