data_PCOD9424693
_publ_section_title
;
Structure prediction by ZEFSAII (Michael W. Deem and Ramdas Pophale) SiO2 
 PCOD9424693
Probable space group: P B A M
;
_chemical_formula_sum "Si O2"
_cell_formula_units_Z 58
_cell_length_a 5.336480
_cell_length_b 18.056658
_cell_length_c 30.744220
_cell_angle_alpha 90.000000
_cell_angle_beta 90.000000
_cell_angle_gamma 90.000000
_cell_volume 2962.482119
_symmetry_space_group_name_H-M "P B A M"
_symmetry_group_IT_number 55
_symmetry_cell_setting 'orthorhombic'
loop_
_space_group_symop_operation_xyz
x,y,z
-x,-y,z
1/2+x,1/2-y,-z
1/2-x,1/2+y,-z
-x,-y,-z
x,y,-z
1/2-x,1/2+y,z
1/2+x,1/2-y,z
loop_
_atom_site_type_symbol
_atom_site_label
_atom_site_fract_x
_atom_site_fract_y
_atom_site_fract_z
Si Si1 0.724434 0.702236 0.819153
Si Si2 0.247960 0.955675 0.328145
Si Si3 0.743762 0.200376 0.719260
Si Si4 0.500000 0.500000 0.500000
Si Si5 0.288717 0.672647 0.948797
Si Si6 0.107235 0.713496 0.447412
Si Si7 0.316762 0.935636 0.430044
Si Si8 0.288989 0.841499 0.912212
O O1 0.448623 0.737698 0.823427
O O2 0.750359 0.674417 0.769885
O O3 0.763722 0.650035 0.860608
O O4 0.251379 0.872553 0.309991
O O5 0.247742 0.951129 0.380579
O O6 0.500000 0.000000 0.315443
O O7 0.000000 0.000000 0.313972
O O8 0.490382 0.248434 0.712360
O O9 0.581842 0.560083 0.538079
O O10 0.296584 0.752719 0.924361
O O11 0.543749 0.631731 0.936886
O O12 0.048191 0.630185 0.931073
O O13 0.267965 0.687208 0.000000
O O14 0.113697 0.715136 0.500000
O O15 0.891127 0.771667 0.432295
O O16 0.983058 0.637231 0.433201
O O17 0.500000 0.000000 0.447773
#
# Coordination Sequence:
#
# PCOD9424693 Si02
#       8
#     8   8   8   2   8   8   8   8
#     4  10  16  28  44  67  93 127 173 230 271 319
#     4  11  24  43  63  90 120 155 189 234 293 350
#     4  10  22  38  63  89 116 148 195 245 288 348
#     4  12  22  40  64  90 112 152 196 238 258 326
#     4  10  16  20  29  48  79 123 174 213 253 318
#     4  10  23  37  55  82 117 150 182 224 274 319
#     4  11  25  39  65  89 119 151 199 232 273 332
#     4  10  14  22  32  48  78 118 166 219 252 310
#
# _framework density 19.578177
#
# number of rings (size 3 to 8) (size 9 to 14) (size 15 to 20)
#    0.000    1.655    4.138    3.103    1.931    1.103 
#    0.000    0.000    0.000    0.000    0.000    0.000 
#    0.000    0.000    0.000    0.000    0.000   23.448 
#
# Total GULP energy -323025.305994 kJ/mol
# GULP energy per Si atom -5569.401827 kJ/mol
# Density = 1.953362 g / cm^3
# Si number density = 19.578177 Si / 1000 Ang^3
#
#
#
# Elastic Constant Matrix: (Units=GPa)
#
#
# Indices 1 2 3 4 5 6 
#
# 1 76.2634 15.7506 19.5364 0.0000 0.0000 0.0000
# 2 15.7506 56.7611 28.5892 0.0000 0.0000 0.0000
# 3 19.5364 28.5892 66.7541 0.0000 0.0000 0.0000
# 4 0.0000 0.0000 0.0000 -3.3191 0.0000 0.0000
# 5 0.0000 0.0000 0.0000 0.0000 28.5177 0.0000
# 6 0.0000 0.0000 0.0000 0.0000 0.0000 21.6036
#
#
#
# Elastic Compliance Matrix: (Units=1/GPa)
#
#
# Indices 1 2 3 4 5 6 
#
# 1 0.014426 -0.002393 -0.003197 0.000000 0.000000 0.000000
# 2 -0.002393 0.022860 -0.009090 0.000000 0.000000 0.000000
# 3 -0.003197 -0.009090 0.019809 0.000000 0.000000 0.000000
# 4 0.000000 0.000000 0.000000 -0.301284 0.000000 0.000000
# 5 0.000000 0.000000 0.000000 0.000000 0.035066 0.000000
# 6 0.000000 0.000000 0.000000 0.000000 0.000000 0.046288
#
#
# Mechanical properties :
#
#
# Convention : Reuss Voigt Hill
#
# Bulk Modulus (GPa) = 36.05559 36.39234 36.22396
# Shear Modulus (GPa) = -40.24799 18.42060 -10.91370
#
# Velocity S-wave (km/s) = -4.53897 3.07069 -2.36358
# Velocity P-wave (km/s) = 3.00223 5.58577 3.33072
#
# Compressibility (1/GPa) = 0.02773495
#
# Stress axis : x y z
#
# Youngs Moduli (GPa) = 69.32117 43.74421 50.48167
#
# Poissons Ratio (x) = 0.10466 0.16140
# Poissons Ratio (y) = 0.16586 0.45889
# Poissons Ratio (z) = 0.22163 0.39765
#
# Static dielectric constant tensor:
#      x y z
#    x 1.779920 0.000000 0.000000 
#    y 0.000000 1.670080 0.000000 
#    z 0.000000 0.000000 1.677650 
# 
# From -- ./inp_files/23859.got.cif
#   From: 2010.05.17/outbox.cif.g08.bks.cpg/sg55_12_cif.got.tgz:23859.got - 2010.06.03 13:27:54.
