data_PCOD9424930
_publ_section_title
;
Structure prediction by ZEFSAII (Michael W. Deem and Ramdas Pophale) SiO2 
 PCOD9424930
Probable space group: P B A M
;
_chemical_formula_sum "Si O2"
_cell_formula_units_Z 64
_cell_length_a 15.127502
_cell_length_b 18.974250
_cell_length_c 12.287490
_cell_angle_alpha 90.000000
_cell_angle_beta 90.000000
_cell_angle_gamma 90.000000
_cell_volume 3526.915176
_symmetry_space_group_name_H-M "P B A M"
_symmetry_group_IT_number 55
_symmetry_cell_setting 'orthorhombic'
loop_
_space_group_symop_operation_xyz
x,y,z
-x,-y,z
1/2+x,1/2-y,-z
1/2-x,1/2+y,-z
-x,-y,-z
x,y,-z
1/2-x,1/2+y,z
1/2+x,1/2-y,z
loop_
_atom_site_type_symbol
_atom_site_label
_atom_site_fract_x
_atom_site_fract_y
_atom_site_fract_z
Si Si1 0.758176 0.535869 0.221047
Si Si2 0.994329 0.237842 0.377454
Si Si3 0.615303 0.135497 0.121275
Si Si4 0.251639 0.619914 0.126864
Si Si5 0.682859 0.255760 0.283324
Si Si6 0.326296 0.352443 0.374785
Si Si7 0.898151 0.477165 0.621633
Si Si8 0.067663 0.642391 0.218131
O O1 0.808511 0.577097 0.125638
O O2 0.732474 0.458800 0.176181
O O3 0.690219 0.586354 0.285313
O O4 0.836436 0.527943 0.309943
O O5 0.983268 0.269611 0.500000
O O6 0.098790 0.226247 0.359214
O O7 0.928344 0.171716 0.373699
O O8 0.960876 0.285813 0.276937
O O9 0.648540 0.196634 0.199808
O O10 0.520662 0.109815 0.165850
O O11 0.602285 0.162260 0.000000
O O12 0.292158 0.676875 0.210451
O O13 0.147063 0.639465 0.132857
O O14 0.280347 0.624088 0.000000
O O15 0.764129 0.215692 0.344174
O O16 0.304075 0.373359 0.500000
O O17 0.864882 0.472418 0.500000
O O18 0.896343 0.403681 0.682613
O O19 0.000000 0.500000 0.620245
#
# Coordination Sequence:
#
# PCOD9424930 Si02
#       8
#     8   8   8   8   8   8   8   8
#     4  10  21  35  53  78 111 151 192 235 280 339
#     4  10  20  36  60  86 114 148 184 232 290 343
#     4  10  19  33  53  76 107 146 189 230 279 333
#     4  11  22  37  57  81 115 153 191 241 289 326
#     4  10  21  37  57  84 115 148 188 233 281 341
#     4  10  20  38  60  85 115 148 185 232 286 347
#     4  10  18  29  45  72 109 146 176 213 272 341
#     4  10  19  33  51  83 113 143 182 230 281 347
#
# _framework density 18.146169
#
# number of rings (size 3 to 8) (size 9 to 14) (size 15 to 20)
#    0.000    1.875    2.500    2.250    0.000    0.000 
#    0.000    4.375    0.000    2.250    0.000    0.000 
#    0.000    0.000    0.000    0.000    0.000    0.000 
#
# Total GULP energy -356311.115639 kJ/mol
# GULP energy per Si atom -5567.361182 kJ/mol
# Density = 1.810487 g / cm^3
# Si number density = 18.146169 Si / 1000 Ang^3
#
#
#
# Elastic Constant Matrix: (Units=GPa)
#
#
# Indices 1 2 3 4 5 6 
#
# 1 49.4527 19.6030 7.1587 0.0000 0.0000 0.0000
# 2 19.6030 62.7740 6.7982 0.0000 0.0000 0.0000
# 3 7.1587 6.7982 88.7895 0.0000 0.0000 0.0000
# 4 0.0000 0.0000 0.0000 24.8641 0.0000 0.0000
# 5 0.0000 0.0000 0.0000 0.0000 19.1745 0.0000
# 6 0.0000 0.0000 0.0000 0.0000 0.0000 20.7770
#
#
#
# Elastic Compliance Matrix: (Units=1/GPa)
#
#
# Indices 1 2 3 4 5 6 
#
# 1 0.023233 -0.007111 -0.001329 0.000000 0.000000 0.000000
# 2 -0.007111 0.018240 -0.000823 0.000000 0.000000 0.000000
# 3 -0.001329 -0.000823 0.011433 0.000000 0.000000 0.000000
# 4 0.000000 0.000000 0.000000 0.040219 0.000000 0.000000
# 5 0.000000 0.000000 0.000000 0.000000 0.052153 0.000000
# 6 0.000000 0.000000 0.000000 0.000000 0.000000 0.048130
#
#
# Mechanical properties :
#
#
# Convention : Reuss Voigt Hill
#
# Bulk Modulus (GPa) = 29.08735 29.79289 29.44012
# Shear Modulus (GPa) = 22.38215 24.12688 23.25451
#
# Velocity S-wave (km/s) = 3.51584 3.65030 3.58370
# Velocity P-wave (km/s) = 5.70489 5.84980 5.77780
#
# Compressibility (1/GPa) = 0.03437921
#
# Stress axis : x y z
#
# Youngs Moduli (GPa) = 43.04312 54.82461 87.46810
#
# Poissons Ratio (x) = 0.38987 0.11622
# Poissons Ratio (y) = 0.30609 0.07200
# Poissons Ratio (z) = 0.05719 0.04513
#
# Static dielectric constant tensor:
#      x y z
#    x 1.658910 0.000000 0.000000 
#    y 0.000000 1.648480 0.000000 
#    z 0.000000 0.000000 1.657360 
# 
# From -- ./inp_files/14411.got.cif
#   From: 2010.05.17/outbox.cif.g08.bks.cpg/sg55_8_cif.got.tgz:14411.got - 2010.06.03 13:27:54.
