data_PCOD9424761
_publ_section_title
;
Structure prediction by ZEFSAII (Michael W. Deem and Ramdas Pophale) SiO2 
 PCOD9424761
Probable space group: P B A M
;
_chemical_formula_sum "Si O2"
_cell_formula_units_Z 48
_cell_length_a 7.932618
_cell_length_b 28.442246
_cell_length_c 8.741825
_cell_angle_alpha 90.000000
_cell_angle_beta 90.000000
_cell_angle_gamma 90.000000
_cell_volume 1972.343430
_symmetry_space_group_name_H-M "P B A M"
_symmetry_group_IT_number 55
_symmetry_cell_setting 'orthorhombic'
loop_
_space_group_symop_operation_xyz
x,y,z
-x,-y,z
1/2+x,1/2-y,-z
1/2-x,1/2+y,-z
-x,-y,-z
x,y,-z
1/2-x,1/2+y,z
1/2+x,1/2-y,z
loop_
_atom_site_type_symbol
_atom_site_label
_atom_site_fract_x
_atom_site_fract_y
_atom_site_fract_z
Si Si1 0.259313 0.987511 0.816277
Si Si2 0.932004 0.934074 0.320637
Si Si3 0.973739 0.598077 0.178984
Si Si4 0.942077 0.759594 0.176247
Si Si5 0.642449 0.816266 0.676769
Si Si6 0.393291 0.353625 0.173457
O O1 0.418293 0.954739 0.773602
O O2 0.098914 0.960126 0.745118
O O3 0.224394 0.040650 0.762492
O O4 0.251200 0.986261 0.000000
O O5 0.915399 0.941927 0.500000
O O6 0.978770 0.880458 0.285061
O O7 0.096928 0.630704 0.276163
O O8 0.793995 0.626077 0.187972
O O9 0.024408 0.597362 0.000000
O O10 0.980648 0.716901 0.288629
O O11 0.782585 0.791668 0.218062
O O12 0.093240 0.797933 0.190752
O O13 0.933933 0.743314 0.000000
O O14 0.689646 0.813846 0.500000
O O15 0.449890 0.364996 0.000000
#
# Coordination Sequence:
#
# PCOD9424761 Si02
#       6
#     8   8   8   8   8   8
#     4   9  16  28  47  71 104 143 184 225 260 308
#     4  10  17  25  44  75 110 142 174 219 273 321
#     4   9  18  34  56  81 109 145 187 226 268 322
#     4  11  23  41  63  82 107 146 188 224 265 329
#     4  12  25  39  58  85 115 142 175 227 283 328
#     4   9  19  35  56  80 106 142 186 227 265 314
#
# _framework density 24.336532999999999
#
# number of rings (size 3 to 8) (size 9 to 14) (size 15 to 20)
#    0.000    2.000    0.000    7.000    0.000    6.000 
#    0.000    0.000    0.000    1.000    0.000    7.000 
#    0.000    0.000    0.000    0.000    0.000    0.000 
#
# Total GULP energy -268567.650266 kJ/mol
# GULP energy per Si atom -5595.159381 kJ/mol
# Density = 2.428114 g / cm^3
# Si number density = 24.336533 Si / 1000 Ang^3
#
#
#
# Elastic Constant Matrix: (Units=GPa)
#
#
# Indices 1 2 3 4 5 6 
#
# 1 68.4029 -3.5487 8.7999 0.0000 0.0000 0.0000
# 2 -3.5487 128.3206 19.2957 0.0000 0.0000 0.0000
# 3 8.7999 19.2957 78.4632 0.0000 0.0000 0.0000
# 4 0.0000 0.0000 0.0000 1249.5656 0.0000 0.0000
# 5 0.0000 0.0000 0.0000 0.0000 63.1252 0.0000
# 6 0.0000 0.0000 0.0000 0.0000 0.0000 45.3246
#
#
#
# Elastic Compliance Matrix: (Units=1/GPa)
#
#
# Indices 1 2 3 4 5 6 
#
# 1 0.014892 0.000688 -0.001839 0.000000 0.000000 0.000000
# 2 0.000688 0.008124 -0.002075 0.000000 0.000000 0.000000
# 3 -0.001839 -0.002075 0.013461 0.000000 0.000000 0.000000
# 4 0.000000 0.000000 0.000000 0.000800 0.000000 0.000000
# 5 0.000000 0.000000 0.000000 0.000000 0.015842 0.000000
# 6 0.000000 0.000000 0.000000 0.000000 0.000000 0.022063
#
#
# Mechanical properties :
#
#
# Convention : Reuss Voigt Hill
#
# Bulk Modulus (GPa) = 33.30566 36.03115 34.66841
# Shear Modulus (GPa) = 54.55986 288.31240 171.43613
#
# Velocity S-wave (km/s) = 4.74000 10.89615 8.40219
# Velocity P-wave (km/s) = 6.60848 13.15823 10.41180
#
# Compressibility (1/GPa) = 0.03002492
#
# Stress axis : x y z
#
# Youngs Moduli (GPa) = 67.15186 123.09131 74.28631
#
# Poissons Ratio (x) = -0.08474 0.13665
# Poissons Ratio (y) = -0.04623 0.15415
# Poissons Ratio (z) = 0.12352 0.25542
#
# Static dielectric constant tensor:
#      x y z
#    x 2.047800 0.000000 0.000000 
#    y 0.000000 2.013880 0.000000 
#    z 0.000000 0.000000 1.798560 
# 
# From -- ./inp_files/2897.got.cif
#   From: 2010.05.17/outbox.cif.g08.bks.cpg/sg55_2_cif.got.tgz:2897.got - 2010.06.03 13:27:54.
