data_PCOD9424774
_publ_section_title
;
Structure prediction by ZEFSAII (Michael W. Deem and Ramdas Pophale) SiO2 
 PCOD9424774
Probable space group: P B A M
;
_chemical_formula_sum "Si O2"
_cell_formula_units_Z 48
_cell_length_a 21.350505
_cell_length_b 7.371457
_cell_length_c 12.367503
_cell_angle_alpha 90.000000
_cell_angle_beta 90.000000
_cell_angle_gamma 90.000000
_cell_volume 1946.451168
_symmetry_space_group_name_H-M "P B A M"
_symmetry_group_IT_number 55
_symmetry_cell_setting 'orthorhombic'
loop_
_space_group_symop_operation_xyz
x,y,z
-x,-y,z
1/2+x,1/2-y,-z
1/2-x,1/2+y,-z
-x,-y,-z
x,y,-z
1/2-x,1/2+y,z
1/2+x,1/2-y,z
loop_
_atom_site_type_symbol
_atom_site_label
_atom_site_fract_x
_atom_site_fract_y
_atom_site_fract_z
Si Si1 0.120321 0.313950 0.252049
Si Si2 0.855232 0.313708 0.122941
Si Si3 0.182349 0.959359 0.708751
Si Si4 0.549066 0.666631 0.380792
Si Si5 0.246002 0.055932 0.500000
Si Si6 0.359981 0.873256 0.500000
Si Si7 0.490155 0.197040 0.169479
O O1 0.138550 0.498161 0.189815
O O2 0.108143 0.348548 0.381796
O O3 0.060201 0.229889 0.186638
O O4 0.173691 0.162431 0.248380
O O5 0.812756 0.180027 0.193346
O O6 0.926437 0.226232 0.119274
O O7 0.835072 0.342715 0.000000
O O8 0.116789 0.910808 0.649069
O O9 0.232498 0.954911 0.613602
O O10 0.500000 0.500000 0.372960
O O11 0.546885 0.740609 0.500000
O O12 0.531607 0.814557 0.293514
O O13 0.321403 0.063969 0.500000
O O14 0.193648 0.213594 0.500000
O O15 0.500000 0.000000 0.120168
#
# Coordination Sequence:
#
# PCOD9424774 Si02
#       7
#     8   8   8   8   4   4   8
#     4  10  21  38  57  87 122 157 196 244 299 362
#     4  10  23  39  58  87 122 165 208 244 282 336
#     4  10  20  37  59  86 117 158 195 241 305 360
#     4  10  17  26  50  75 113 150 180 227 285 350
#     4  10  22  40  62  93 122 149 191 250 313 378
#     4  10  24  38  64  94 120 154 192 245 322 376
#     4   9  19  33  49  79 116 156 195 236 280 347
#
# _framework density 24.660264000000002
#
# number of rings (size 3 to 8) (size 9 to 14) (size 15 to 20)
#    0.000    2.167    2.500    0.000    3.500    4.000 
#    7.500    0.833    0.000    1.000    0.000    0.000 
#    0.000    0.000    0.000    0.000    0.000    0.000 
#
# Total GULP energy -267829.481147 kJ/mol
# GULP energy per Si atom -5579.780857 kJ/mol
# Density = 2.460414 g / cm^3
# Si number density = 24.660264 Si / 1000 Ang^3
#
#
#
# Elastic Constant Matrix: (Units=GPa)
#
#
# Indices 1 2 3 4 5 6 
#
# 1 66.0254 18.2094 9.6669 0.0000 0.0000 0.0000
# 2 18.2094 89.9897 66.5651 0.0000 0.0000 0.0000
# 3 9.6669 66.5651 182.0740 0.0000 0.0000 0.0000
# 4 0.0000 0.0000 0.0000 -28.0277 0.0000 0.0000
# 5 0.0000 0.0000 0.0000 0.0000 -2.9565 0.0000
# 6 0.0000 0.0000 0.0000 0.0000 0.0000 22.4156
#
#
#
# Elastic Compliance Matrix: (Units=1/GPa)
#
#
# Indices 1 2 3 4 5 6 
#
# 1 0.016069 -0.003592 0.000460 0.000000 0.000000 0.000000
# 2 -0.003592 0.016034 -0.005671 0.000000 0.000000 0.000000
# 3 0.000460 -0.005671 0.007541 0.000000 0.000000 0.000000
# 4 0.000000 0.000000 0.000000 -0.035679 0.000000 0.000000
# 5 0.000000 0.000000 0.000000 0.000000 -0.338235 0.000000
# 6 0.000000 0.000000 0.000000 0.000000 0.000000 0.044612
#
#
# Mechanical properties :
#
#
# Convention : Reuss Voigt Hill
#
# Bulk Modulus (GPa) = 45.37584 58.55243 51.96414
# Shear Modulus (GPa) = -18.88889 14.52947 -2.17971
#
# Velocity S-wave (km/s) = -2.77061 2.42995 -0.94118
# Velocity P-wave (km/s) = 2.86449 5.62744 4.46505
#
# Compressibility (1/GPa) = 0.02203816
#
# Stress axis : x y z
#
# Youngs Moduli (GPa) = 62.23190 62.36651 132.60411
#
# Poissons Ratio (x) = 0.22401 -0.06100
# Poissons Ratio (y) = 0.22353 0.75204
# Poissons Ratio (z) = -0.02863 0.35370
#
# Static dielectric constant tensor:
#      x y z
#    x 2.025160 0.000000 0.000000 
#    y 0.000000 2.075250 0.000000 
#    z 0.000000 0.000000 1.902810 
# 
# From -- ./inp_files/15644.got.cif
#   From: 2010.05.17/outbox.cif.g08.bks.cpg/sg55_8_cif.got.tgz:15644.got - 2010.06.03 13:27:54.
