data_PCOD9424593
_publ_section_title
;
Structure prediction by ZEFSAII (Michael W. Deem and Ramdas Pophale) SiO2 
 PCOD9424593
Probable space group: P C C A
;
_chemical_formula_sum "Si O2"
_cell_formula_units_Z 24
_cell_length_a 8.663901
_cell_length_b 12.562763
_cell_length_c 8.245754
_cell_angle_alpha 90.000000
_cell_angle_beta 90.000000
_cell_angle_gamma 90.000000
_cell_volume 897.488768
_symmetry_space_group_name_H-M "P C C A"
_symmetry_group_IT_number 54
_symmetry_cell_setting 'orthorhombic'
loop_
_space_group_symop_operation_xyz
x,y,z
1/2-x,-y,z
1/2+x,-y,1/2-z
-x,y,1/2-z
-x,-y,-z
1/2+x,y,-z
1/2-x,y,1/2+z
x,-y,1/2+z
loop_
_atom_site_type_symbol
_atom_site_label
_atom_site_fract_x
_atom_site_fract_y
_atom_site_fract_z
Si Si1 0.361084 0.255986 0.863418
Si Si2 0.611129 0.926910 0.892948
Si Si3 0.358621 0.597711 0.647063
O O1 0.500000 0.218611 0.750000
O O2 0.232280 0.313998 0.754947
O O3 0.317316 0.160461 0.984663
O O4 0.420038 0.346142 0.986286
O O5 0.500000 0.883184 0.750000
O O6 0.750000 0.000000 0.826510
O O7 0.500000 0.000000 0.000000
O O8 0.250000 0.500000 0.604272
O O9 0.500000 0.556216 0.750000
#
# Coordination Sequence:
#
# PCOD9424593 Si02
#       3
#     8   8   8
#     4  12  29  52  82 120 167 218 276 343 418 497
#     4  12  30  53  84 123 169 223 284 350 421 503
#     4  12  28  52  84 122 166 218 275 340 417 501
#
# _framework density 26.741282999999999
#
# number of rings (size 3 to 8) (size 9 to 14) (size 15 to 20)
#    0.000    0.000    0.000    7.000   18.667    4.000 
#    0.000    1.667    0.000    0.000    0.000    0.000 
#    0.000    0.000    0.000    0.000    0.000    0.000 
#
# Total GULP energy -134832.642219 kJ/mol
# GULP energy per Si atom -5618.026759 kJ/mol
# Density = 2.668042 g / cm^3
# Si number density = 26.741283 Si / 1000 Ang^3
#
#
#
# Elastic Constant Matrix: (Units=GPa)
#
#
# Indices 1 2 3 4 5 6 
#
# 1 75.7884 22.5633 14.5100 0.0000 0.0000 0.0000
# 2 22.5633 119.3909 40.5892 0.0000 0.0000 0.0000
# 3 14.5100 40.5892 122.3519 0.0000 0.0000 0.0000
# 4 0.0000 0.0000 0.0000 47.8977 0.0000 0.0000
# 5 0.0000 0.0000 0.0000 0.0000 49.7085 0.0000
# 6 0.0000 0.0000 0.0000 0.0000 0.0000 49.4593
#
#
#
# Elastic Compliance Matrix: (Units=1/GPa)
#
#
# Indices 1 2 3 4 5 6 
#
# 1 0.014066 -0.002357 -0.000886 0.000000 0.000000 0.000000
# 2 -0.002357 0.009836 -0.002983 0.000000 0.000000 0.000000
# 3 -0.000886 -0.002983 0.009268 0.000000 0.000000 0.000000
# 4 0.000000 0.000000 0.000000 0.020878 0.000000 0.000000
# 5 0.000000 0.000000 0.000000 0.000000 0.020117 0.000000
# 6 0.000000 0.000000 0.000000 0.000000 0.000000 0.020219
#
#
# Mechanical properties :
#
#
# Convention : Reuss Voigt Hill
#
# Bulk Modulus (GPa) = 48.27093 52.53956 50.40524
# Shear Modulus (GPa) = 43.95921 45.40433 44.68177
#
# Velocity S-wave (km/s) = 4.05887 4.12504 4.09209
# Velocity P-wave (km/s) = 6.32899 6.50984 6.42005
#
# Compressibility (1/GPa) = 0.02071640
#
# Stress axis : x y z
#
# Youngs Moduli (GPa) = 71.09337 101.67216 107.89881
#
# Poissons Ratio (x) = 0.23964 0.09562
# Poissons Ratio (y) = 0.16757 0.32190
# Poissons Ratio (z) = 0.06300 0.30332
#
# Static dielectric constant tensor:
#      x y z
#    x 1.995040 0.000000 0.000000 
#    y 0.000000 2.075700 0.000000 
#    z 0.000000 0.000000 2.029130 
# 
# From -- ./inp_files/2418.got.cif
#   From: 2010.05.17/outbox.cif.g08.bks.cpg/sg54_2_cif.got.tgz:2418.got - 2010.06.03 13:09:01.
