data_PCOD9424634
_publ_section_title
;
Structure prediction by ZEFSAII (Michael W. Deem and Ramdas Pophale) SiO2 
 PCOD9424634
Probable space group: P C C A
;
_chemical_formula_sum "Si O2"
_cell_formula_units_Z 48
_cell_length_a 27.000000
_cell_length_b 6.000000
_cell_length_c 15.000000
_cell_angle_alpha 90.000000
_cell_angle_beta 90.000000
_cell_angle_gamma 90.000000
_cell_volume 2430.000000
_symmetry_space_group_name_H-M "P C C A"
_symmetry_group_IT_number 54
_symmetry_cell_setting 'orthorhombic'
loop_
_space_group_symop_operation_xyz
x,y,z
1/2-x,-y,z
1/2+x,-y,1/2-z
-x,y,1/2-z
-x,-y,-z
1/2+x,y,-z
1/2-x,y,1/2+z
x,-y,1/2+z
loop_
_atom_site_type_symbol
_atom_site_label
_atom_site_fract_x
_atom_site_fract_y
_atom_site_fract_z
Si Si1 0.348899 0.832387 0.694331
Si Si2 0.556419 0.147711 0.756895
Si Si3 0.200274 0.354920 0.867994
Si Si4 0.667232 0.933141 0.480645
Si Si5 0.391620 0.321199 0.919191
Si Si6 0.405359 0.556073 0.093937
O O1 0.314929 0.784512 0.780017
O O2 0.370806 0.604816 0.653283
O O3 0.398267 0.976102 0.720668
O O4 0.318968 0.945795 0.612144
O O5 0.500000 0.056440 0.750000
O O6 0.573638 0.259146 0.663755
O O7 0.556894 0.328332 0.837649
O O8 0.250000 0.500000 0.855830
O O9 0.205289 0.195283 0.954902
O O10 0.152083 0.511300 0.886990
O O11 0.628354 0.750113 0.446631
O O12 0.637625 0.107640 0.542307
O O13 0.420951 0.420334 0.005190
#
# Coordination Sequence:
#
# PCOD9424634 Si02
#       6
#     8   8   8   8   8   8
#     4  10  20  41  62  90 133 163 207 267 313 373
#     4  11  22  37  64  94 125 171 215 256 318 382
#     4  11  22  39  67  95 120 165 216 253 318 384
#     4   9  20  40  64  85 130 166 196 264 324 366
#     4  10  20  40  64  87 130 163 201 269 308 369
#     4   9  20  39  63  88 127 167 201 261 319 363
#
# _framework density 19.753086
#
# number of rings (size 3 to 8) (size 9 to 14) (size 15 to 20)
#    0.000    2.000    3.333    0.000    0.000    2.000 
#    0.000   16.667    3.667    0.000    0.000    0.000 
#    0.000    0.000    0.000    0.000    0.000    0.000 
#
# Total GULP energy -267725.573343 kJ/mol
# GULP energy per Si atom -5577.616111 kJ/mol
# Density = 1.970813 g / cm^3
# Si number density = 19.753086 Si / 1000 Ang^3
#
#
#
# Elastic Constant Matrix: (Units=GPa)
#
#
# Indices 1 2 3 4 5 6 
#
# 1 81.7646 18.3700 51.1076 0.0000 0.0000 0.0000
# 2 18.3700 75.7828 46.9159 0.0000 0.0000 0.0000
# 3 51.1076 46.9159 166.9411 0.0000 0.0000 0.0000
# 4 0.0000 0.0000 0.0000 45.6231 0.0000 0.0000
# 5 0.0000 0.0000 0.0000 0.0000 15.7903 0.0000
# 6 0.0000 0.0000 0.0000 0.0000 0.0000 26.3495
#
#
#
# Elastic Compliance Matrix: (Units=1/GPa)
#
#
# Indices 1 2 3 4 5 6 
#
# 1 0.015183 -0.000972 -0.004375 0.000000 0.000000 0.000000
# 2 -0.000972 0.016037 -0.004209 0.000000 0.000000 0.000000
# 3 -0.004375 -0.004209 0.008513 0.000000 0.000000 0.000000
# 4 0.000000 0.000000 0.000000 0.021919 0.000000 0.000000
# 5 0.000000 0.000000 0.000000 0.000000 0.063330 0.000000
# 6 0.000000 0.000000 0.000000 0.000000 0.000000 0.037951
#
#
# Mechanical properties :
#
#
# Convention : Reuss Voigt Hill
#
# Bulk Modulus (GPa) = 48.49638 61.91950 55.20794
# Shear Modulus (GPa) = 26.46633 31.42558 28.94595
#
# Velocity S-wave (km/s) = 3.66438 3.99296 3.83219
# Velocity P-wave (km/s) = 6.51983 7.25762 6.89860
#
# Compressibility (1/GPa) = 0.02062010
#
# Stress axis : x y z
#
# Youngs Moduli (GPa) = 65.86194 62.35507 117.47404
#
# Poissons Ratio (x) = 0.06060 0.51396
# Poissons Ratio (y) = 0.06401 0.49450
# Poissons Ratio (z) = 0.28815 0.26248
#
# Static dielectric constant tensor:
#      x y z
#    x 1.641730 0.000000 0.000000 
#    y 0.000000 1.744910 0.000000 
#    z 0.000000 0.000000 1.714240 
# 
# From -- ./inp_files/15122.got.cif
#   From: 2010.05.17/outbox.ucp.g08.bks.cvg/sg54_8_cif.got.tgz:15122.got - 2010.06.11 16:34:40.
