data_PCOD9424208
_publ_section_title
;
Structure prediction by ZEFSAII (Michael W. Deem and Ramdas Pophale) SiO2 
 PCOD9424208
Probable space group: P C C A
;
_chemical_formula_sum "Si O2"
_cell_formula_units_Z 48
_cell_length_a 9.195833
_cell_length_b 11.072391
_cell_length_c 21.479560
_cell_angle_alpha 90.000000
_cell_angle_beta 90.000000
_cell_angle_gamma 90.000000
_cell_volume 2187.045761
_symmetry_space_group_name_H-M "P C C A"
_symmetry_group_IT_number 54
_symmetry_cell_setting 'orthorhombic'
loop_
_space_group_symop_operation_xyz
x,y,z
1/2-x,-y,z
1/2+x,-y,1/2-z
-x,y,1/2-z
-x,-y,-z
1/2+x,y,-z
1/2-x,y,1/2+z
x,-y,1/2+z
loop_
_atom_site_type_symbol
_atom_site_label
_atom_site_fract_x
_atom_site_fract_y
_atom_site_fract_z
Si Si1 0.250000 0.000000 0.831987
Si Si2 0.146328 0.752192 0.374206
Si Si3 0.250000 0.500000 0.720065
Si Si4 0.000000 0.888961 0.750000
Si Si5 0.414316 0.359266 0.062532
Si Si6 0.140930 0.710978 0.648266
Si Si7 0.500000 0.679977 0.750000
Si Si8 0.596678 0.607469 0.077866
O O1 0.223846 0.120328 0.871145
O O2 0.387907 0.031180 0.788932
O O3 0.038748 0.748562 0.313789
O O4 0.265326 0.642993 0.379091
O O5 0.042495 0.737778 0.433422
O O6 0.134630 0.584225 0.684642
O O7 0.356023 0.598740 0.748073
O O8 0.901171 0.809076 0.798737
O O9 0.290247 0.311922 0.109595
O O10 0.502280 0.482904 0.081296
O O11 0.355039 0.381561 0.993750
O O12 0.017077 0.710912 0.596492
#
# Coordination Sequence:
#
# PCOD9424208 Si02
#       8
#     4   8   4   4   8   8   4   8
#     4  12  28  48  70  98 134 190 244 292 352 406
#     4  12  25  46  68  99 140 184 237 287 344 413
#     4  12  24  36  62 102 142 172 214 282 362 432
#     4  12  28  46  72  98 136 185 243 302 354 414
#     4  11  24  41  74 104 144 183 228 275 356 428
#     4  12  22  42  64 103 138 177 226 288 349 426
#     4  12  26  38  64 100 138 181 221 284 360 418
#     4  11  23  44  70 107 143 185 223 282 347 430
#
# _framework density 21.947413999999998
#
# number of rings (size 3 to 8) (size 9 to 14) (size 15 to 20)
#    0.000    0.333    5.000    3.500    7.000    2.667 
#    0.000    0.833    0.000    0.000    0.000    0.000 
#    0.000    0.000    0.000    0.000    0.000    0.000 
#
# Total GULP energy -267223.645739 kJ/mol
# GULP energy per Si atom -5567.159286 kJ/mol
# Density = 2.189746 g / cm^3
# Si number density = 21.947414 Si / 1000 Ang^3
#
#
#
# Elastic Constant Matrix: (Units=GPa)
#
#
# Indices 1 2 3 4 5 6 
#
# 1 103.5543 39.4853 52.7423 0.0000 0.0000 0.0000
# 2 39.4853 86.0230 39.5775 0.0000 0.0000 0.0000
# 3 52.7423 39.5775 83.9960 0.0000 0.0000 0.0000
# 4 0.0000 0.0000 0.0000 13.3914 0.0000 0.0000
# 5 0.0000 0.0000 0.0000 0.0000 39.2691 0.0000
# 6 0.0000 0.0000 0.0000 0.0000 0.0000 25.8499
#
#
#
# Elastic Compliance Matrix: (Units=1/GPa)
#
#
# Indices 1 2 3 4 5 6 
#
# 1 0.014868 -0.003229 -0.007814 0.000000 0.000000 0.000000
# 2 -0.003229 0.015544 -0.005296 0.000000 0.000000 0.000000
# 3 -0.007814 -0.005296 0.019307 0.000000 0.000000 0.000000
# 4 0.000000 0.000000 0.000000 0.074675 0.000000 0.000000
# 5 0.000000 0.000000 0.000000 0.000000 0.025465 0.000000
# 6 0.000000 0.000000 0.000000 0.000000 0.000000 0.038685
#
#
# Mechanical properties :
#
#
# Convention : Reuss Voigt Hill
#
# Bulk Modulus (GPa) = 58.68650 59.68706 59.18678
# Shear Modulus (GPa) = 22.03577 25.15329 23.59453
#
# Velocity S-wave (km/s) = 3.17207 3.38904 3.28235
# Velocity P-wave (km/s) = 6.34143 6.52446 6.43360
#
# Compressibility (1/GPa) = 0.01703969
#
# Stress axis : x y z
#
# Youngs Moduli (GPa) = 67.25811 64.33430 51.79337
#
# Poissons Ratio (x) = 0.20776 0.40473
# Poissons Ratio (y) = 0.21720 0.27431
# Poissons Ratio (z) = 0.52557 0.34073
#
# Static dielectric constant tensor:
#      x y z
#    x 1.887400 0.000000 0.000000 
#    y 0.000000 1.806150 0.000000 
#    z 0.000000 0.000000 1.856140 
# 
# From -- ./inp_files/23590.got.cif
#   From: 2010.05.17/outbox.cif.g08.bks.cpg/sg54_12_cif.got.tgz:23590.got - 2010.06.03 13:09:01.
