data_PCOD9424490
_publ_section_title
;
Structure prediction by ZEFSAII (Michael W. Deem and Ramdas Pophale) SiO2 
 PCOD9424490
Probable space group: P C C A
;
_chemical_formula_sum "Si O2"
_cell_formula_units_Z 32
_cell_length_a 11.533588
_cell_length_b 9.218934
_cell_length_c 14.583532
_cell_angle_alpha 90.000000
_cell_angle_beta 90.000000
_cell_angle_gamma 90.000000
_cell_volume 1550.628844
_symmetry_space_group_name_H-M "P C C A"
_symmetry_group_IT_number 54
_symmetry_cell_setting 'orthorhombic'
loop_
_space_group_symop_operation_xyz
x,y,z
1/2-x,-y,z
1/2+x,-y,1/2-z
-x,y,1/2-z
-x,-y,-z
1/2+x,y,-z
1/2-x,y,1/2+z
x,-y,1/2+z
loop_
_atom_site_type_symbol
_atom_site_label
_atom_site_fract_x
_atom_site_fract_y
_atom_site_fract_z
Si Si1 0.245814 0.672281 0.454639
Si Si2 0.122988 0.171825 0.299133
Si Si3 0.295973 0.155349 0.131929
Si Si4 0.547448 0.095700 0.088138
O O1 0.250000 0.500000 0.449294
O O2 0.342487 0.724987 0.382453
O O3 0.276150 0.722972 0.556631
O O4 0.128085 0.765795 0.434272
O O5 0.221375 0.181289 0.222108
O O6 0.000000 0.201319 0.250000
O O7 0.115402 0.015271 0.347113
O O8 0.432677 0.141487 0.142746
O O9 0.250000 0.000000 0.093775
O O10 0.500000 0.000000 0.000000
#
# Coordination Sequence:
#
# PCOD9424490 Si02
#       4
#     8   8   8   8
#     4  12  28  47  68 107 154 192 237 305 385 453
#     4  12  25  45  76 107 137 186 252 307 362 438
#     4  12  23  44  75 106 136 190 249 305 361 439
#     4  12  23  46  77 104 138 187 250 308 356 436
#
# _framework density 20.636790000000001
#
# number of rings (size 3 to 8) (size 9 to 14) (size 15 to 20)
#    0.000    0.000    7.500    2.250    0.000    2.000 
#    4.500    0.000    0.000    0.000    0.000    0.000 
#    0.000    0.000    0.000    0.000    0.000    0.000 
#
# Total GULP energy -178944.020674 kJ/mol
# GULP energy per Si atom -5592.000646 kJ/mol
# Density = 2.058982 g / cm^3
# Si number density = 20.636790 Si / 1000 Ang^3
#
#
#
# Elastic Constant Matrix: (Units=GPa)
#
#
# Indices 1 2 3 4 5 6 
#
# 1 81.4601 26.8891 46.4284 0.0000 0.0000 0.0000
# 2 26.8891 143.3505 45.1885 0.0000 0.0000 0.0000
# 3 46.4284 45.1885 139.2618 0.0000 0.0000 0.0000
# 4 0.0000 0.0000 0.0000 -50.5011 0.0000 0.0000
# 5 0.0000 0.0000 0.0000 0.0000 42.1211 0.0000
# 6 0.0000 0.0000 0.0000 0.0000 0.0000 18.2938
#
#
#
# Elastic Compliance Matrix: (Units=1/GPa)
#
#
# Indices 1 2 3 4 5 6 
#
# 1 0.015410 -0.001416 -0.004678 0.000000 0.000000 0.000000
# 2 -0.001416 0.007901 -0.002092 0.000000 0.000000 0.000000
# 3 -0.004678 -0.002092 0.009419 0.000000 0.000000 0.000000
# 4 0.000000 0.000000 0.000000 -0.019802 0.000000 0.000000
# 5 0.000000 0.000000 0.000000 0.000000 0.023741 0.000000
# 6 0.000000 0.000000 0.000000 0.000000 0.000000 0.054663
#
#
# Mechanical properties :
#
#
# Convention : Reuss Voigt Hill
#
# Bulk Modulus (GPa) = 61.13048 66.78714 63.95881
# Shear Modulus (GPa) = 44.18682 18.35386 31.27034
#
# Velocity S-wave (km/s) = 4.63229 2.98548 3.89687
# Velocity P-wave (km/s) = 7.63526 6.65714 7.16292
#
# Compressibility (1/GPa) = 0.01635845
#
# Stress axis : x y z
#
# Youngs Moduli (GPa) = 64.89502 126.56867 106.16818
#
# Poissons Ratio (x) = 0.17920 0.49665
# Poissons Ratio (y) = 0.09188 0.22207
# Poissons Ratio (z) = 0.30358 0.26474
#
# Static dielectric constant tensor:
#      x y z
#    x 1.763590 0.000000 0.000000 
#    y 0.000000 1.715200 0.000000 
#    z 0.000000 0.000000 1.793860 
# 
# From -- ./inp_files/12166.got.cif
#   From: 2010.05.17/outbox.cif.g08.bks.cpg/sg54_7_cif.got.tgz:12166.got - 2010.06.03 13:09:01.
