data_PCOD9424152
_publ_section_title
;
Structure prediction by ZEFSAII (Michael W. Deem and Ramdas Pophale) SiO2 
 PCOD9424152
Probable space group: P C C A
;
_chemical_formula_sum "Si O2"
_cell_formula_units_Z 40
_cell_length_a 8.162986
_cell_length_b 8.817612
_cell_length_c 24.139501
_cell_angle_alpha 90.000000
_cell_angle_beta 90.000000
_cell_angle_gamma 90.000000
_cell_volume 1737.514048
_symmetry_space_group_name_H-M "P C C A"
_symmetry_group_IT_number 54
_symmetry_cell_setting 'orthorhombic'
loop_
_space_group_symop_operation_xyz
x,y,z
1/2-x,-y,z
1/2+x,-y,1/2-z
-x,y,1/2-z
-x,-y,-z
1/2+x,y,-z
1/2-x,y,1/2+z
x,-y,1/2+z
loop_
_atom_site_type_symbol
_atom_site_label
_atom_site_fract_x
_atom_site_fract_y
_atom_site_fract_z
Si Si1 0.996431 0.677618 0.014448
Si Si2 0.816797 0.331122 0.824375
Si Si3 0.819733 0.831368 0.723783
Si Si4 0.198548 0.826519 0.572746
Si Si5 0.319039 0.330157 0.374579
O O1 0.859347 0.708730 0.061747
O O2 0.164793 0.722045 0.043517
O O3 0.962861 0.778426 0.960284
O O4 0.000000 0.500000 0.000000
O O5 0.750000 0.500000 0.832565
O O6 0.789406 0.279700 0.761783
O O7 0.710147 0.219452 0.863303
O O8 0.003869 0.322478 0.844289
O O9 0.801323 0.776203 0.660597
O O10 0.000000 0.824056 0.750000
O O11 0.750000 0.000000 0.728348
O O12 0.250000 0.000000 0.565923
O O13 0.250000 0.500000 0.372749
#
# Coordination Sequence:
#
# PCOD9424152 Si02
#       5
#     8   8   8   8   8
#     4  11  23  42  66  96 133 177 226 280 343 419
#     4  11  23  42  66  92 127 174 223 274 335 407
#     4  12  26  44  66  95 132 175 222 282 349 418
#     4  11  23  39  63  94 130 170 218 278 341 403
#     4  11  23  41  65  95 129 172 224 278 335 405
#
# _framework density 23.021398000000001
#
# number of rings (size 3 to 8) (size 9 to 14) (size 15 to 20)
#    0.000    0.800    0.000    9.000    0.000    4.000 
#    0.000    0.000    0.000    0.000    0.000    0.000 
#    0.000    0.000    0.000    0.000    0.000    0.000 
#
# Total GULP energy -224052.106114 kJ/mol
# GULP energy per Si atom -5601.302653 kJ/mol
# Density = 2.296900 g / cm^3
# Si number density = 23.021398 Si / 1000 Ang^3
#
#
#
# Elastic Constant Matrix: (Units=GPa)
#
#
# Indices 1 2 3 4 5 6 
#
# 1 81.5136 -9.4994 27.2685 0.0000 0.0000 0.0000
# 2 -9.4994 74.7821 1.4388 0.0000 0.0000 0.0000
# 3 27.2685 1.4388 125.3530 0.0000 0.0000 0.0000
# 4 0.0000 0.0000 0.0000 -27.0658 0.0000 0.0000
# 5 0.0000 0.0000 0.0000 0.0000 38.7905 0.0000
# 6 0.0000 0.0000 0.0000 0.0000 0.0000 35.9519
#
#
#
# Elastic Compliance Matrix: (Units=1/GPa)
#
#
# Indices 1 2 3 4 5 6 
#
# 1 0.013460 0.001767 -0.002948 0.000000 0.000000 0.000000
# 2 0.001767 0.013607 -0.000540 0.000000 0.000000 0.000000
# 3 -0.002948 -0.000540 0.008625 0.000000 0.000000 0.000000
# 4 0.000000 0.000000 0.000000 -0.036947 0.000000 0.000000
# 5 0.000000 0.000000 0.000000 0.000000 0.025780 0.000000
# 6 0.000000 0.000000 0.000000 0.000000 0.000000 0.027815
#
#
# Mechanical properties :
#
#
# Convention : Reuss Voigt Hill
#
# Bulk Modulus (GPa) = 31.01007 35.56273 33.28640
# Shear Modulus (GPa) = 75.15047 27.03136 51.09091
#
# Velocity S-wave (km/s) = 5.71967 3.43035 4.71603
# Velocity P-wave (km/s) = 7.55770 5.58310 6.64416
#
# Compressibility (1/GPa) = 0.03224759
#
# Stress axis : x y z
#
# Youngs Moduli (GPa) = 74.29399 73.49168 115.94160
#
# Poissons Ratio (x) = -0.12982 0.34183
# Poissons Ratio (y) = -0.13124 0.06266
# Poissons Ratio (z) = 0.21904 0.03972
#
# Static dielectric constant tensor:
#      x y z
#    x 1.865180 0.000000 0.000000 
#    y 0.000000 1.766240 0.000000 
#    z 0.000000 0.000000 1.855120 
# 
# From -- ./inp_files/23213.got.cif
#   From: 2010.05.17/outbox.cif.g08.bks.cpg/sg54_12_cif.got.tgz:23213.got - 2010.06.03 13:09:01.
