data_PCOD9424199
_publ_section_title
;
Structure prediction by ZEFSAII (Michael W. Deem and Ramdas Pophale) SiO2 
 PCOD9424199
Probable space group: P C C A
;
_chemical_formula_sum "Si O2"
_cell_formula_units_Z 40
_cell_length_a 23.155654
_cell_length_b 8.173034
_cell_length_c 8.979390
_cell_angle_alpha 90.000000
_cell_angle_beta 90.000000
_cell_angle_gamma 90.000000
_cell_volume 1699.367044
_symmetry_space_group_name_H-M "P C C A"
_symmetry_group_IT_number 54
_symmetry_cell_setting 'orthorhombic'
loop_
_space_group_symop_operation_xyz
x,y,z
1/2-x,-y,z
1/2+x,-y,1/2-z
-x,y,1/2-z
-x,-y,-z
1/2+x,y,-z
1/2-x,y,1/2+z
x,-y,1/2+z
loop_
_atom_site_type_symbol
_atom_site_label
_atom_site_fract_x
_atom_site_fract_y
_atom_site_fract_z
Si Si1 0.737303 0.812849 0.692381
Si Si2 0.797869 0.360940 0.971331
Si Si3 0.116794 0.846050 0.429780
Si Si4 0.987854 0.674825 0.925957
Si Si5 0.094513 0.182367 0.585601
O O1 0.723454 0.784257 0.863183
O O2 0.788109 0.695138 0.639957
O O3 0.679731 0.768698 0.599135
O O4 0.750000 0.000000 0.666575
O O5 0.750000 0.500000 0.941848
O O6 0.866192 0.347059 0.938475
O O7 0.091001 0.852999 0.261796
O O8 0.075674 0.739411 0.534083
O O9 0.121964 0.025171 0.502735
O O10 0.000000 0.670859 0.750000
O O11 0.033123 0.793374 0.008677
O O12 0.000000 0.500000 0.000000
#
# Coordination Sequence:
#
# PCOD9424199 Si02
#       5
#     8   8   8   8   8
#     4  11  23  43  69 101 141 187 241 293 356 435
#     4  11  25  42  67 103 144 185 238 299 363 431
#     4  11  24  43  71 103 138 186 239 298 355 432
#     4  12  27  48  72 103 143 185 235 299 367 437
#     4  11  24  45  70 104 140 188 240 298 363 431
#
# _framework density 23.538176
#
# number of rings (size 3 to 8) (size 9 to 14) (size 15 to 20)
#    0.000    0.800    2.000    4.800    5.600    1.600 
#    0.000    0.000    0.000    0.000    0.000    0.000 
#    0.000    0.000    0.000    0.000    0.000    0.000 
#
# Total GULP energy -223507.638310 kJ/mol
# GULP energy per Si atom -5587.690958 kJ/mol
# Density = 2.348460 g / cm^3
# Si number density = 23.538176 Si / 1000 Ang^3
#
#
#
# Elastic Constant Matrix: (Units=GPa)
#
#
# Indices 1 2 3 4 5 6 
#
# 1 71.0330 29.2530 27.9755 0.0000 0.0000 0.0000
# 2 29.2530 78.0170 13.5527 0.0000 0.0000 0.0000
# 3 27.9755 13.5527 141.6902 0.0000 0.0000 0.0000
# 4 0.0000 0.0000 0.0000 28.3439 0.0000 0.0000
# 5 0.0000 0.0000 0.0000 0.0000 39.1119 0.0000
# 6 0.0000 0.0000 0.0000 0.0000 0.0000 38.6047
#
#
#
# Elastic Compliance Matrix: (Units=1/GPa)
#
#
# Indices 1 2 3 4 5 6 
#
# 1 0.017761 -0.006153 -0.002918 0.000000 0.000000 0.000000
# 2 -0.006153 0.015166 -0.000236 0.000000 0.000000 0.000000
# 3 -0.002918 -0.000236 0.007656 0.000000 0.000000 0.000000
# 4 0.000000 0.000000 0.000000 0.035281 0.000000 0.000000
# 5 0.000000 0.000000 0.000000 0.000000 0.025568 0.000000
# 6 0.000000 0.000000 0.000000 0.000000 0.000000 0.025904
#
#
# Mechanical properties :
#
#
# Convention : Reuss Voigt Hill
#
# Bulk Modulus (GPa) = 45.51739 48.03363 46.77551
# Shear Modulus (GPa) = 32.62169 35.87602 34.24885
#
# Velocity S-wave (km/s) = 3.72681 3.90829 3.81863
# Velocity P-wave (km/s) = 6.15618 6.38884 6.27359
#
# Compressibility (1/GPa) = 0.02196963
#
# Stress axis : x y z
#
# Youngs Moduli (GPa) = 56.30273 65.93831 130.60974
#
# Poissons Ratio (x) = 0.40570 0.38116
# Poissons Ratio (y) = 0.34641 0.03080
# Poissons Ratio (z) = 0.16431 0.01555
#
# Static dielectric constant tensor:
#      x y z
#    x 1.933000 0.000000 0.000000 
#    y 0.000000 1.928110 0.000000 
#    z 0.000000 0.000000 1.819970 
# 
# From -- ./inp_files/5014.got.cif
#   From: 2010.05.17/outbox.cif.g08.bks.cpg/sg54_3_cif.got.tgz:5014.got - 2010.06.03 13:09:01.
