data_PCOD9424890
_publ_section_title
;
Structure prediction by ZEFSAII (Michael W. Deem and Ramdas Pophale) SiO2 
 PCOD9424890
Probable space group: P B A M
;
_chemical_formula_sum "Si O2"
_cell_formula_units_Z 64
_cell_length_a 19.382925
_cell_length_b 21.590845
_cell_length_c 7.661980
_cell_angle_alpha 90.000000
_cell_angle_beta 90.000000
_cell_angle_gamma 90.000000
_cell_volume 3206.490584
_symmetry_space_group_name_H-M "P B A M"
_symmetry_group_IT_number 55
_symmetry_cell_setting 'orthorhombic'
loop_
_space_group_symop_operation_xyz
x,y,z
-x,-y,z
1/2+x,1/2-y,-z
1/2-x,1/2+y,-z
-x,-y,-z
x,y,-z
1/2-x,1/2+y,z
1/2+x,1/2-y,z
loop_
_atom_site_type_symbol
_atom_site_label
_atom_site_fract_x
_atom_site_fract_y
_atom_site_fract_z
Si Si1 0.733146 0.873195 0.789241
Si Si2 0.616001 0.335237 0.789301
Si Si3 0.219743 0.989071 0.709776
Si Si4 0.077877 0.521954 0.300314
Si Si5 0.570682 0.470962 0.708808
Si Si6 0.559347 0.204818 0.209027
Si Si7 0.912071 0.341254 0.197621
Si Si8 0.663557 0.095140 0.710727
O O1 0.805130 0.843947 0.727111
O O2 0.664884 0.837804 0.721706
O O3 0.738864 0.946774 0.748071
O O4 0.730802 0.869196 0.000000
O O5 0.575886 0.397672 0.741132
O O6 0.581423 0.272265 0.724849
O O7 0.618547 0.332200 0.000000
O O8 0.215908 0.985548 0.500000
O O9 0.260194 0.927183 0.769147
O O10 0.142143 0.999326 0.778320
O O11 0.101477 0.535247 0.500000
O O12 0.080308 0.584553 0.193931
O O13 0.118807 0.463622 0.228973
O O14 0.000000 0.500000 0.310521
O O15 0.500000 0.500000 0.778410
O O16 0.571202 0.480605 0.500000
O O17 0.483811 0.183571 0.278120
O O18 0.621710 0.156323 0.238853
O O19 0.551703 0.207889 0.000000
O O20 0.907831 0.316286 0.000000
O O21 0.663681 0.095551 0.500000
#
# Coordination Sequence:
#
# PCOD9424890 Si02
#       8
#     8   8   8   8   8   8   8   8
#     4   9  17  30  49  69  90 119 159 204 242 281
#     4   9  19  36  53  70  96 130 166 203 244 291
#     4   9  17  30  49  73  99 125 153 193 243 290
#     4  10  18  28  42  65  97 128 157 192 233 276
#     4   9  18  34  57  81 100 120 155 207 259 298
#     4  10  21  34  47  67 100 137 167 198 239 290
#     4  10  19  29  45  69  94 124 163 202 239 281
#     4  10  19  30  46  69  99 132 162 194 234 285
#
# _framework density 19.959515
#
# number of rings (size 3 to 8) (size 9 to 14) (size 15 to 20)
#    0.000    2.500    2.500    0.000    0.000    2.000 
#    0.000    1.250    0.000    1.500    0.000    0.000 
#    0.000    0.000    0.000    0.000    0.000    0.000 
#
# Total GULP energy -356481.303010 kJ/mol
# GULP energy per Si atom -5570.020360 kJ/mol
# Density = 1.991409 g / cm^3
# Si number density = 19.959515 Si / 1000 Ang^3
#
#
#
# Elastic Constant Matrix: (Units=GPa)
#
#
# Indices 1 2 3 4 5 6 
#
# 1 176.8293 98.0401 7.7723 0.0000 0.0000 0.0000
# 2 98.0401 104.1978 -1.3866 0.0000 0.0000 0.0000
# 3 7.7723 -1.3866 38.3058 0.0000 0.0000 0.0000
# 4 0.0000 0.0000 0.0000 22.5015 0.0000 0.0000
# 5 0.0000 0.0000 0.0000 0.0000 12.9741 0.0000
# 6 0.0000 0.0000 0.0000 0.0000 0.0000 22.9266
#
#
#
# Elastic Compliance Matrix: (Units=1/GPa)
#
#
# Indices 1 2 3 4 5 6 
#
# 1 0.012131 -0.011453 -0.002876 0.000000 0.000000 0.000000
# 2 -0.011453 0.020414 0.003063 0.000000 0.000000 0.000000
# 3 -0.002876 0.003063 0.026800 0.000000 0.000000 0.000000
# 4 0.000000 0.000000 0.000000 0.044441 0.000000 0.000000
# 5 0.000000 0.000000 0.000000 0.000000 0.077077 0.000000
# 6 0.000000 0.000000 0.000000 0.000000 0.000000 0.043617
#
#
# Mechanical properties :
#
#
# Convention : Reuss Voigt Hill
#
# Bulk Modulus (GPa) = 27.16418 58.68716 42.92567
# Shear Modulus (GPa) = 19.28387 26.00759 22.64573
#
# Velocity S-wave (km/s) = 3.11167 3.61365 3.37201
# Velocity P-wave (km/s) = 5.15259 6.84677 6.05918
#
# Compressibility (1/GPa) = 0.03681319
#
# Stress axis : x y z
#
# Youngs Moduli (GPa) = 82.43112 48.98653 37.31326
#
# Poissons Ratio (x) = 0.56103 0.10731
# Poissons Ratio (y) = 0.94406 -0.11428
# Poissons Ratio (z) = 0.23707 -0.15003
#
# Static dielectric constant tensor:
#      x y z
#    x 1.788210 0.000000 0.000000 
#    y 0.000000 1.665270 0.000000 
#    z 0.000000 0.000000 1.791090 
# 
# From -- ./inp_files/9128.got.cif
#   From: 2010.05.17/outbox.cif.g08.bks.cpg/sg55_5_cif.got.tgz:9128.got - 2010.06.03 13:27:54.
