data_PCOD9424836
_publ_section_title
;
Structure prediction by ZEFSAII (Michael W. Deem and Ramdas Pophale) SiO2 
 PCOD9424836
Probable space group: P B A M
;
_chemical_formula_sum "Si O2"
_cell_formula_units_Z 56
_cell_length_a 4.980945
_cell_length_b 25.997972
_cell_length_c 25.813868
_cell_angle_alpha 90.000000
_cell_angle_beta 90.000000
_cell_angle_gamma 90.000000
_cell_volume 3342.753120
_symmetry_space_group_name_H-M "P B A M"
_symmetry_group_IT_number 55
_symmetry_cell_setting 'orthorhombic'
loop_
_space_group_symop_operation_xyz
x,y,z
-x,-y,z
1/2+x,1/2-y,-z
1/2-x,1/2+y,-z
-x,-y,-z
x,y,-z
1/2-x,1/2+y,z
1/2+x,1/2-y,z
loop_
_atom_site_type_symbol
_atom_site_label
_atom_site_fract_x
_atom_site_fract_y
_atom_site_fract_z
Si Si1 0.031519 0.285116 0.891264
Si Si2 0.073785 0.360615 0.577750
Si Si3 0.414999 0.574177 0.442555
Si Si4 0.863733 0.947425 0.325742
Si Si5 0.163791 0.286476 0.000000
Si Si6 0.119616 0.288248 0.223784
Si Si7 0.801546 0.219307 0.500000
Si Si8 0.125520 0.379417 0.306082
O O1 0.226580 0.234786 0.892250
O O2 0.094381 0.308747 0.835504
O O3 0.101987 0.313318 0.945128
O O4 0.278352 0.407675 0.564948
O O5 0.203558 0.312850 0.549227
O O6 0.058012 0.353382 0.638893
O O7 0.781655 0.376579 0.558299
O O8 0.380570 0.550739 0.500000
O O9 0.331482 0.546919 0.388643
O O10 0.583314 0.927290 0.302652
O O11 0.077714 0.902673 0.313019
O O12 0.000000 0.000000 0.306881
O O13 0.460386 0.262675 0.000000
O O14 0.387748 0.254556 0.230564
O O15 0.104229 0.336519 0.262069
O O16 0.614610 0.269492 0.500000
#
# Coordination Sequence:
#
# PCOD9424836 Si02
#       8
#     8   8   8   8   4   8   4   8
#     4   8  14  23  37  59  86 120 154 190 218 255
#     4  10  20  33  45  62  84 111 139 171 218 265
#     4  10  17  32  53  64  85 108 128 165 218 277
#     4  10  21  35  52  74  92 114 148 184 235 291
#     4   8  12  20  34  54  84 118 153 182 223 258
#     4  10  19  31  48  69  95 125 165 194 218 261
#     4  12  22  30  44  62  81 108 143 180 214 250
#     4  10  21  35  52  68  93 125 147 190 234 264
#
# _framework density 16.752659999999999
#
# number of rings (size 3 to 8) (size 9 to 14) (size 15 to 20)
#    0.000    2.286    1.429    2.143    0.000    1.429 
#    0.000    0.000    0.000    5.143    0.000    0.000 
#    0.000    0.000    0.000    3.857    0.000    1.429 
#
# Total GULP energy -311839.899592 kJ/mol
# GULP energy per Si atom -5568.569636 kJ/mol
# Density = 1.671453 g / cm^3
# Si number density = 16.752660 Si / 1000 Ang^3
#
#
#
# Elastic Constant Matrix: (Units=GPa)
#
#
# Indices 1 2 3 4 5 6 
#
# 1 68.3612 -9.1175 -1.9541 0.0000 0.0000 0.0000
# 2 -9.1175 23.3470 17.0422 0.0000 0.0000 0.0000
# 3 -1.9541 17.0422 120.1036 0.0000 0.0000 0.0000
# 4 0.0000 0.0000 0.0000-1073.8456 0.0000 0.0000
# 5 0.0000 0.0000 0.0000 0.0000 15.9522 0.0000
# 6 0.0000 0.0000 0.0000 0.0000 0.0000 11.7807
#
#
#
# Elastic Compliance Matrix: (Units=1/GPa)
#
#
# Indices 1 2 3 4 5 6 
#
# 1 0.015481 0.006539 -0.000676 0.000000 0.000000 0.000000
# 2 0.006539 0.050543 -0.007066 0.000000 0.000000 0.000000
# 3 -0.000676 -0.007066 0.009318 0.000000 0.000000 0.000000
# 4 0.000000 0.000000 0.000000 -0.000931 0.000000 0.000000
# 5 0.000000 0.000000 0.000000 0.000000 0.062687 0.000000
# 6 0.000000 0.000000 0.000000 0.000000 0.000000 0.084885
#
#
# Mechanical properties :
#
#
# Convention : Reuss Voigt Hill
#
# Bulk Modulus (GPa) = 13.71042 24.86144 19.28593
# Shear Modulus (GPa) = 20.10455 -195.49979 -87.69762
#
# Velocity S-wave (km/s) = 3.46798 -10.81439 -7.24307
# Velocity P-wave (km/s) = 4.92317 11.87696 7.64280
#
# Compressibility (1/GPa) = 0.07293723
#
# Stress axis : x y z
#
# Youngs Moduli (GPa) = 64.59534 19.78502 107.32244
#
# Poissons Ratio (x) = -0.12938 0.07255
# Poissons Ratio (y) = -0.42240 0.75829
# Poissons Ratio (z) = 0.04367 0.13979
#
# Static dielectric constant tensor:
#      x y z
#    x 1.586120 0.000000 0.000000 
#    y 0.000000 1.562220 0.000000 
#    z 0.000000 0.000000 1.613690 
# 
# From -- ./inp_files/23366.got.cif
#   From: 2010.05.17/outbox.cif.g08.bks.cpg/sg55_12_cif.got.tgz:23366.got - 2010.06.03 13:27:54.
