data_PCOD9424972
_publ_section_title
;
Structure prediction by ZEFSAII (Michael W. Deem and Ramdas Pophale) SiO2 
 PCOD9424972
Probable space group: P B A M
;
_chemical_formula_sum "Si O2"
_cell_formula_units_Z 48
_cell_length_a 12.241590
_cell_length_b 18.223206
_cell_length_c 9.619097
_cell_angle_alpha 90.000000
_cell_angle_beta 90.000000
_cell_angle_gamma 90.000000
_cell_volume 2145.837935
_symmetry_space_group_name_H-M "P B A M"
_symmetry_group_IT_number 55
_symmetry_cell_setting 'orthorhombic'
loop_
_space_group_symop_operation_xyz
x,y,z
-x,-y,z
1/2+x,1/2-y,-z
1/2-x,1/2+y,-z
-x,-y,-z
x,y,-z
1/2-x,1/2+y,z
1/2+x,1/2-y,z
loop_
_atom_site_type_symbol
_atom_site_label
_atom_site_fract_x
_atom_site_fract_y
_atom_site_fract_z
Si Si1 0.086066 0.291850 0.342664
Si Si2 0.301566 0.540782 0.654668
Si Si3 0.004367 0.869459 0.667186
Si Si4 0.787755 0.175560 0.165289
Si Si5 0.853427 0.338472 0.741563
Si Si6 0.881173 0.488351 0.846865
O O1 0.131010 0.294085 0.500000
O O2 0.058576 0.207427 0.303836
O O3 0.168663 0.330011 0.236137
O O4 0.966912 0.328209 0.337789
O O5 0.307475 0.509666 0.500000
O O6 0.421443 0.564700 0.702596
O O7 0.236468 0.619010 0.650404
O O8 0.224203 0.493553 0.754717
O O9 0.023991 0.870778 0.500000
O O10 0.115854 0.867565 0.753925
O O11 0.816527 0.261371 0.197436
O O12 0.788396 0.162408 0.000000
O O13 0.872598 0.400278 0.856765
O O14 0.000000 0.500000 0.780407
O O15 0.879255 0.521969 0.000000
#
# Coordination Sequence:
#
# PCOD9424972 Si02
#       6
#     8   8   8   8   8   8
#     4  10  18  30  47  64  90 125 158 192 228 271
#     4   9  17  31  49  68  90 119 155 192 228 269
#     4   9  18  31  46  64  91 125 159 191 227 273
#     4  11  21  30  44  68  97 128 161 191 224 272
#     4   9  19  31  46  68  94 124 156 190 229 273
#     4   9  18  31  47  69  97 125 151 186 235 282
#
# _framework density 22.368884999999999
#
# number of rings (size 3 to 8) (size 9 to 14) (size 15 to 20)
#    1.000    1.500    1.667    1.500    0.000    5.667 
#    0.000    0.000    0.000    0.000    0.000    1.167 
#    0.000    8.000    0.000    0.000    0.000    0.000 
#
# Total GULP energy -267595.923151 kJ/mol
# GULP energy per Si atom -5574.915066 kJ/mol
# Density = 2.231797 g / cm^3
# Si number density = 22.368885 Si / 1000 Ang^3
#
#
#
# Elastic Constant Matrix: (Units=GPa)
#
#
# Indices 1 2 3 4 5 6 
#
# 1 156.2755 46.3555 51.4282 0.0000 0.0000 0.0000
# 2 46.3555 57.4038 6.5656 0.0000 0.0000 0.0000
# 3 51.4282 6.5656 90.5645 0.0000 0.0000 0.0000
# 4 0.0000 0.0000 0.0000 0.3296 0.0000 0.0000
# 5 0.0000 0.0000 0.0000 0.0000 258.6760 0.0000
# 6 0.0000 0.0000 0.0000 0.0000 0.0000 44.3133
#
#
#
# Elastic Compliance Matrix: (Units=1/GPa)
#
#
# Indices 1 2 3 4 5 6 
#
# 1 0.010509 -0.007869 -0.005397 0.000000 0.000000 0.000000
# 2 -0.007869 0.023459 0.002768 0.000000 0.000000 0.000000
# 3 -0.005397 0.002768 0.013906 0.000000 0.000000 0.000000
# 4 0.000000 0.000000 0.000000 3.034115 0.000000 0.000000
# 5 0.000000 0.000000 0.000000 0.000000 0.003866 0.000000
# 6 0.000000 0.000000 0.000000 0.000000 0.000000 0.022567
#
#
# Mechanical properties :
#
#
# Convention : Reuss Voigt Hill
#
# Bulk Modulus (GPa) = 37.20684 56.99360 47.10022
# Shear Modulus (GPa) = 1.59318 73.99006 37.79162
#
# Velocity S-wave (km/s) = 0.84485 5.75752 4.11478
# Velocity P-wave (km/s) = 4.19775 8.35063 6.60886
#
# Compressibility (1/GPa) = 0.02687678
#
# Stress axis : x y z
#
# Youngs Moduli (GPa) = 95.15239 42.62816 71.91046
#
# Poissons Ratio (x) = 0.33546 0.38813
# Poissons Ratio (y) = 0.74879 -0.19905
# Poissons Ratio (z) = 0.51358 -0.11800
#
# Static dielectric constant tensor:
#      x y z
#    x 1.841850 0.000000 0.000000 
#    y 0.000000 1.895690 0.000000 
#    z 0.000000 0.000000 1.806420 
# 
# From -- ./inp_files/4181.got.cif
#   From: 2010.05.17/outbox.cif.g08.bks.cpg/sg55_3_cif.got.tgz:4181.got - 2010.06.03 13:27:54.
