data_PCOD9424172
_publ_section_title
;
Structure prediction by ZEFSAII (Michael W. Deem and Ramdas Pophale) SiO2 
 PCOD9424172
Probable space group: P C C A
;
_chemical_formula_sum "Si O2"
_cell_formula_units_Z 32
_cell_length_a 18.932514
_cell_length_b 5.171827
_cell_length_c 13.324174
_cell_angle_alpha 90.000000
_cell_angle_beta 90.000000
_cell_angle_gamma 90.000000
_cell_volume 1304.645652
_symmetry_space_group_name_H-M "P C C A"
_symmetry_group_IT_number 54
_symmetry_cell_setting 'orthorhombic'
loop_
_space_group_symop_operation_xyz
x,y,z
1/2-x,-y,z
1/2+x,-y,1/2-z
-x,y,1/2-z
-x,-y,-z
1/2+x,y,-z
1/2-x,y,1/2+z
x,-y,1/2+z
loop_
_atom_site_type_symbol
_atom_site_label
_atom_site_fract_x
_atom_site_fract_y
_atom_site_fract_z
Si Si1 0.705947 0.751155 0.102038
Si Si2 0.083593 0.566013 0.484189
Si Si3 0.637077 0.331585 0.799786
Si Si4 0.424251 0.831670 0.779795
O O1 0.750000 0.500000 0.073825
O O2 0.699242 0.756613 0.224174
O O3 0.750000 0.000000 0.068882
O O4 0.629016 0.680075 0.055859
O O5 0.123927 0.672994 0.581897
O O6 0.086737 0.778582 0.396377
O O7 0.000000 0.500000 0.500000
O O8 0.628448 0.634483 0.774516
O O9 0.580607 0.122158 0.758471
O O10 0.500000 0.724112 0.750000
#
# Coordination Sequence:
#
# PCOD9424172 Si02
#       4
#     8   8   8   8
#     4  11  26  51  73 106 156 209 261 329 406 498
#     4  11  25  48  81 121 152 211 276 346 412 488
#     4  11  25  45  72 105 151 198 256 323 403 472
#     4  11  23  41  68 109 156 190 243 329 405 470
#
# _framework density 24.527733000000001
#
# number of rings (size 3 to 8) (size 9 to 14) (size 15 to 20)
#    0.000    1.000    2.500    3.750    3.500    8.000 
#    0.000    5.000    0.000    0.000    0.000    0.000 
#    0.000    0.000    0.000    0.000    0.000    0.000 
#
# Total GULP energy -178494.454766 kJ/mol
# GULP energy per Si atom -5577.951711 kJ/mol
# Density = 2.447191 g / cm^3
# Si number density = 24.527733 Si / 1000 Ang^3
#
#
#
# Elastic Constant Matrix: (Units=GPa)
#
#
# Indices 1 2 3 4 5 6 
#
# 1 123.3644 60.6125 35.1717 0.0000 0.0000 0.0000
# 2 60.6125 152.4804 50.5276 0.0000 0.0000 0.0000
# 3 35.1717 50.5276 197.1349 0.0000 0.0000 0.0000
# 4 0.0000 0.0000 0.0000 60.6344 0.0000 0.0000
# 5 0.0000 0.0000 0.0000 0.0000 44.6836 0.0000
# 6 0.0000 0.0000 0.0000 0.0000 0.0000 27.5976
#
#
#
# Elastic Compliance Matrix: (Units=1/GPa)
#
#
# Indices 1 2 3 4 5 6 
#
# 1 0.010203 -0.003773 -0.000853 0.000000 0.000000 0.000000
# 2 -0.003773 0.008562 -0.001521 0.000000 0.000000 0.000000
# 3 -0.000853 -0.001521 0.005615 0.000000 0.000000 0.000000
# 4 0.000000 0.000000 0.000000 0.016492 0.000000 0.000000
# 5 0.000000 0.000000 0.000000 0.000000 0.022380 0.000000
# 6 0.000000 0.000000 0.000000 0.000000 0.000000 0.036235
#
#
# Mechanical properties :
#
#
# Convention : Reuss Voigt Hill
#
# Bulk Modulus (GPa) = 82.74981 85.06705 83.90843
# Shear Modulus (GPa) = 43.17376 48.36096 45.76736
#
# Velocity S-wave (km/s) = 4.20003 4.44518 4.32434
# Velocity P-wave (km/s) = 7.57171 7.81687 7.69527
#
# Compressibility (1/GPa) = 0.01208462
#
# Stress axis : x y z
#
# Youngs Moduli (GPa) = 98.00859 116.79214 178.09873
#
# Poissons Ratio (x) = 0.44067 0.15197
# Poissons Ratio (y) = 0.36980 0.27096
# Poissons Ratio (z) = 0.08363 0.17769
#
# Static dielectric constant tensor:
#      x y z
#    x 2.107510 0.000000 0.000000 
#    y 0.000000 1.918860 0.000000 
#    z 0.000000 0.000000 1.987780 
# 
# From -- ./inp_files/13723.got.cif
#   From: 2010.05.17/outbox.cif.g08.bks.cpg/sg54_7_cif.got.tgz:13723.got - 2010.06.03 13:09:01.
