data_PCOD9424554
_publ_section_title
;
Structure prediction by ZEFSAII (Michael W. Deem and Ramdas Pophale) SiO2 
 PCOD9424554
Probable space group: P C C A
;
_chemical_formula_sum "Si O2"
_cell_formula_units_Z 24
_cell_length_a 13.558560
_cell_length_b 7.071145
_cell_length_c 9.429094
_cell_angle_alpha 90.000000
_cell_angle_beta 90.000000
_cell_angle_gamma 90.000000
_cell_volume 904.010085
_symmetry_space_group_name_H-M "P C C A"
_symmetry_group_IT_number 54
_symmetry_cell_setting 'orthorhombic'
loop_
_space_group_symop_operation_xyz
x,y,z
1/2-x,-y,z
1/2+x,-y,1/2-z
-x,y,1/2-z
-x,-y,-z
1/2+x,y,-z
1/2-x,y,1/2+z
x,-y,1/2+z
loop_
_atom_site_type_symbol
_atom_site_label
_atom_site_fract_x
_atom_site_fract_y
_atom_site_fract_z
Si Si1 0.085663 0.583692 0.133999
Si Si2 0.272572 0.301833 0.763725
Si Si3 0.555339 0.144174 0.602214
O O1 0.148235 0.389582 0.150396
O O2 0.169752 0.736844 0.187001
O O3 0.000000 0.591541 0.250000
O O4 0.050927 0.657713 0.982487
O O5 0.250000 0.500000 0.849221
O O6 0.329225 0.146634 0.853815
O O7 0.500000 0.133726 0.750000
O O8 0.500000 0.000000 0.500000
#
# Coordination Sequence:
#
# PCOD9424554 Si02
#       3
#     8   8   8
#     4   9  21  44  73 106 146 196 262 318 378 466
#     4   8  23  41  77 110 142 197 267 319 376 465
#     4  12  26  46  73 115 159 205 248 331 406 472
#
# _framework density 26.548379000000001
#
# number of rings (size 3 to 8) (size 9 to 14) (size 15 to 20)
#    2.000    0.000    0.000    2.000    4.667    8.000 
#    0.000   13.333    0.000    0.000    0.000    0.000 
#    0.000    0.000    0.000    0.000    0.000    0.000 
#
# Total GULP energy -133859.402368 kJ/mol
# GULP energy per Si atom -5577.475099 kJ/mol
# Density = 2.648795 g / cm^3
# Si number density = 26.548379 Si / 1000 Ang^3
#
#
#
# Elastic Constant Matrix: (Units=GPa)
#
#
# Indices 1 2 3 4 5 6 
#
# 1 157.3533 47.6988 76.4625 0.0000 0.0000 0.0000
# 2 47.6988 91.0389 49.8834 0.0000 0.0000 0.0000
# 3 76.4625 49.8834 197.3183 0.0000 0.0000 0.0000
# 4 0.0000 0.0000 0.0000 24.0275 0.0000 0.0000
# 5 0.0000 0.0000 0.0000 0.0000 29.8426 0.0000
# 6 0.0000 0.0000 0.0000 0.0000 0.0000 46.6341
#
#
#
# Elastic Compliance Matrix: (Units=1/GPa)
#
#
# Indices 1 2 3 4 5 6 
#
# 1 0.008513 -0.003079 -0.002521 0.000000 0.000000 0.000000
# 2 -0.003079 0.013864 -0.002312 0.000000 0.000000 0.000000
# 3 -0.002521 -0.002312 0.006629 0.000000 0.000000 0.000000
# 4 0.000000 0.000000 0.000000 0.041619 0.000000 0.000000
# 5 0.000000 0.000000 0.000000 0.000000 0.033509 0.000000
# 6 0.000000 0.000000 0.000000 0.000000 0.000000 0.021444
#
#
# Mechanical properties :
#
#
# Convention : Reuss Voigt Hill
#
# Bulk Modulus (GPa) = 75.85183 88.19998 82.02590
# Shear Modulus (GPa) = 34.29440 38.21189 36.25314
#
# Velocity S-wave (km/s) = 3.59802 3.79797 3.69934
# Velocity P-wave (km/s) = 6.77452 7.24757 7.01503
#
# Compressibility (1/GPa) = 0.01318360
#
# Stress axis : x y z
#
# Youngs Moduli (GPa) = 117.46216 72.12716 150.85028
#
# Poissons Ratio (x) = 0.22211 0.38022
# Poissons Ratio (y) = 0.36171 0.34872
# Poissons Ratio (z) = 0.29606 0.16674
#
# Static dielectric constant tensor:
#      x y z
#    x 2.283880 0.000000 0.000000 
#    y 0.000000 2.295670 0.000000 
#    z 0.000000 0.000000 2.086340 
# 
# From -- ./inp_files/3152.got.cif
#   From: 2010.05.17/outbox.cif.g08.bks.cpg/sg54_2_cif.got.tgz:3152.got - 2010.06.03 13:09:01.
