data_PCOD9424370
_publ_section_title
;
Structure prediction by ZEFSAII (Michael W. Deem and Ramdas Pophale) SiO2 
 PCOD9424370
Probable space group: P C C A
;
_chemical_formula_sum "Si O2"
_cell_formula_units_Z 64
_cell_length_a 11.479975
_cell_length_b 15.565367
_cell_length_c 16.843169
_cell_angle_alpha 90.000000
_cell_angle_beta 90.000000
_cell_angle_gamma 90.000000
_cell_volume 3009.706273
_symmetry_space_group_name_H-M "P C C A"
_symmetry_group_IT_number 54
_symmetry_cell_setting 'orthorhombic'
loop_
_space_group_symop_operation_xyz
x,y,z
1/2-x,-y,z
1/2+x,-y,1/2-z
-x,y,1/2-z
-x,-y,-z
1/2+x,y,-z
1/2-x,y,1/2+z
x,-y,1/2+z
loop_
_atom_site_type_symbol
_atom_site_label
_atom_site_fract_x
_atom_site_fract_y
_atom_site_fract_z
Si Si1 0.275773 0.903087 0.615979
Si Si2 0.082063 0.247308 0.324694
Si Si3 0.119474 0.249773 0.049377
Si Si4 0.301351 0.407851 0.040525
Si Si5 0.733712 0.595957 0.142182
Si Si6 0.985681 0.818306 0.113724
Si Si7 0.265256 0.901039 0.807183
Si Si8 0.002106 0.638421 0.339158
O O1 0.188587 0.833147 0.580875
O O2 0.405989 0.877231 0.591912
O O3 0.264345 0.898663 0.711535
O O4 0.250000 0.000000 0.590351
O O5 0.160174 0.332694 0.311082
O O6 0.167354 0.166036 0.337523
O O7 0.000000 0.229406 0.250000
O O8 0.994729 0.263850 0.397257
O O9 0.208534 0.330339 0.052626
O O10 0.073378 0.224676 0.962798
O O11 0.250000 0.500000 0.062215
O O12 0.414817 0.397492 0.094973
O O13 0.323037 0.410922 0.945546
O O14 0.750000 0.500000 0.176207
O O15 0.864937 0.629623 0.133807
O O16 0.888850 0.868988 0.161703
O O17 0.032744 0.738439 0.164870
O O18 0.250000 0.000000 0.832178
O O19 0.000000 0.600950 0.250000
#
# Coordination Sequence:
#
# PCOD9424370 Si02
#       8
#     8   8   8   8   8   8   8   8
#     4  11  26  46  70 103 138 183 232 288 355 421
#     4  12  26  45  70 102 145 188 231 295 359 416
#     4  12  26  45  69 102 140 181 238 291 352 421
#     4  11  26  47  74 102 143 190 236 293 365 425
#     4  11  27  47  71 105 140 187 241 289 360 434
#     4  12  25  44  74  98 139 185 233 291 347 420
#     4  11  25  46  73 104 141 187 235 282 353 427
#     4  12  25  44  71 102 141 184 241 293 354 427
#
# _framework density 21.264534000000001
#
# number of rings (size 3 to 8) (size 9 to 14) (size 15 to 20)
#    0.000    0.500    5.000    1.875    7.000    3.000 
#    0.000    0.000    0.000    0.000    0.000    0.000 
#    0.000    0.000    0.000    0.000    0.000    0.000 
#
# Total GULP energy -357943.983247 kJ/mol
# GULP energy per Si atom -5592.874738 kJ/mol
# Density = 2.121613 g / cm^3
# Si number density = 21.264534 Si / 1000 Ang^3
#
#
#
# Elastic Constant Matrix: (Units=GPa)
#
#
# Indices 1 2 3 4 5 6 
#
# 1 99.2636 29.8951 -10.6750 0.0000 0.0000 0.0000
# 2 29.8951 124.8660 -27.4592 0.0000 0.0000 0.0000
# 3 -10.6750 -27.4592 35.1162 0.0000 0.0000 0.0000
# 4 0.0000 0.0000 0.0000 32.3605 0.0000 0.0000
# 5 0.0000 0.0000 0.0000 0.0000 38.8208 0.0000
# 6 0.0000 0.0000 0.0000 0.0000 0.0000 52.3504
#
#
#
# Elastic Compliance Matrix: (Units=1/GPa)
#
#
# Indices 1 2 3 4 5 6 
#
# 1 0.010926 -0.002277 0.001541 0.000000 0.000000 0.000000
# 2 -0.002277 0.010146 0.007242 0.000000 0.000000 0.000000
# 3 0.001541 0.007242 0.034608 0.000000 0.000000 0.000000
# 4 0.000000 0.000000 0.000000 0.030902 0.000000 0.000000
# 5 0.000000 0.000000 0.000000 0.000000 0.025759 0.000000
# 6 0.000000 0.000000 0.000000 0.000000 0.000000 0.019102
#
#
# Mechanical properties :
#
#
# Convention : Reuss Voigt Hill
#
# Bulk Modulus (GPa) = 14.55792 26.97415 20.76604
# Shear Modulus (GPa) = 35.37843 42.53866 38.95855
#
# Velocity S-wave (km/s) = 4.08331 4.47749 4.28494
# Velocity P-wave (km/s) = 5.39372 6.28038 5.85386
#
# Compressibility (1/GPa) = 0.06869115
#
# Stress axis : x y z
#
# Youngs Moduli (GPa) = 91.52788 98.55860 28.89505
#
# Poissons Ratio (x) = 0.22441 -0.04452
# Poissons Ratio (y) = 0.20840 -0.20925
# Poissons Ratio (z) = -0.14103 -0.71373
#
# Static dielectric constant tensor:
#      x y z
#    x 1.728990 0.000000 0.000000 
#    y 0.000000 1.822240 0.000000 
#    z 0.000000 0.000000 1.800140 
# 
# From -- ./inp_files/17455.got.cif
#   From: 2010.05.17/outbox.cif.g08.bks.cpg/sg54_9_cif.got.tgz:17455.got - 2010.06.03 13:09:01.
