data_PCOD9424066
_publ_section_title
;
Structure prediction by ZEFSAII (Michael W. Deem and Ramdas Pophale) SiO2 
 PCOD9424066
Probable space group: P C C A
;
_chemical_formula_sum "Si O2"
_cell_formula_units_Z 44
_cell_length_a 16.373069
_cell_length_b 5.366290
_cell_length_c 25.604148
_cell_angle_alpha 90.000000
_cell_angle_beta 90.000000
_cell_angle_gamma 90.000000
_cell_volume 2249.647947
_symmetry_space_group_name_H-M "P C C A"
_symmetry_group_IT_number 54
_symmetry_cell_setting 'orthorhombic'
loop_
_space_group_symop_operation_xyz
x,y,z
1/2-x,-y,z
1/2+x,-y,1/2-z
-x,y,1/2-z
-x,-y,-z
1/2+x,y,-z
1/2-x,y,1/2+z
x,-y,1/2+z
loop_
_atom_site_type_symbol
_atom_site_label
_atom_site_fract_x
_atom_site_fract_y
_atom_site_fract_z
Si Si1 0.197737 0.748244 0.213526
Si Si2 0.448496 0.485716 0.446996
Si Si3 0.655994 0.016325 0.576439
Si Si4 0.542055 0.645915 0.845415
Si Si5 0.110332 0.944881 0.308464
Si Si6 0.000000 0.704251 0.750000
O O1 0.250000 0.500000 0.208153
O O2 0.131291 0.748503 0.166930
O O3 0.155327 0.747742 0.271252
O O4 0.250000 0.000000 0.211753
O O5 0.500000 0.500000 0.500000
O O6 0.393067 0.234103 0.441293
O O7 0.515313 0.467595 0.400352
O O8 0.392029 0.732550 0.440626
O O9 0.658068 0.024079 0.640081
O O10 0.750000 0.000000 0.557939
O O11 0.475316 0.854105 0.832179
O O12 0.525998 0.448312 0.800141
O O13 0.080452 0.147911 0.267343
#
# Coordination Sequence:
#
# PCOD9424066 Si02
#       6
#     8   8   8   8   8   4
#     4  12  25  37  56  93 136 168 207 258 322 390
#     4  11  25  46  70  93 125 175 225 263 314 394
#     4  11  24  42  68 103 130 161 215 284 331 363
#     4  11  23  38  64  89 124 173 216 258 311 388
#     4  11  22  36  63  92 130 174 209 258 318 394
#     4  12  16  38  64  90 130 156 226 238 322 376
#
# _framework density 19.558613999999999
#
# number of rings (size 3 to 8) (size 9 to 14) (size 15 to 20)
#    0.000    0.727    5.455    2.727    0.000    2.909 
#    0.000    2.727    0.000    0.000    0.000    0.000 
#    0.000    0.000    0.000    0.000    0.000    0.000 
#
# Total GULP energy -245569.721903 kJ/mol
# GULP energy per Si atom -5581.130043 kJ/mol
# Density = 1.951410 g / cm^3
# Si number density = 19.558614 Si / 1000 Ang^3
#
#
#
# Elastic Constant Matrix: (Units=GPa)
#
#
# Indices 1 2 3 4 5 6 
#
# 1 119.4802 46.0225 49.4944 0.0000 0.0000 0.0000
# 2 46.0225 106.6204 35.5783 0.0000 0.0000 0.0000
# 3 49.4944 35.5783 134.7481 0.0000 0.0000 0.0000
# 4 0.0000 0.0000 0.0000 15.0279 0.0000 0.0000
# 5 0.0000 0.0000 0.0000 0.0000 18.3280 0.0000
# 6 0.0000 0.0000 0.0000 0.0000 0.0000 46.3643
#
#
#
# Elastic Compliance Matrix: (Units=1/GPa)
#
#
# Indices 1 2 3 4 5 6 
#
# 1 0.011095 -0.003761 -0.003082 0.000000 0.000000 0.000000
# 2 -0.003761 0.011560 -0.001671 0.000000 0.000000 0.000000
# 3 -0.003082 -0.001671 0.008995 0.000000 0.000000 0.000000
# 4 0.000000 0.000000 0.000000 0.066543 0.000000 0.000000
# 5 0.000000 0.000000 0.000000 0.000000 0.054561 0.000000
# 6 0.000000 0.000000 0.000000 0.000000 0.000000 0.021568
#
#
# Mechanical properties :
#
#
# Convention : Reuss Voigt Hill
#
# Bulk Modulus (GPa) = 68.39127 69.22657 68.80892
# Shear Modulus (GPa) = 25.48113 31.26095 28.37104
#
# Velocity S-wave (km/s) = 3.61336 4.00224 3.81276
# Velocity P-wave (km/s) = 7.24236 7.53847 7.39189
#
# Compressibility (1/GPa) = 0.01462175
#
# Stress axis : x y z
#
# Youngs Moduli (GPa) = 90.13083 86.50609 111.17745
#
# Poissons Ratio (x) = 0.32531 0.34269
# Poissons Ratio (y) = 0.33894 0.18577
# Poissons Ratio (z) = 0.27782 0.14455
#
# Static dielectric constant tensor:
#      x y z
#    x 1.778380 0.000000 0.000000 
#    y 0.000000 1.748250 0.000000 
#    z 0.000000 0.000000 1.697300 
# 
# From -- ./inp_files/26384.got.cif
#   From: 2010.05.17/outbox.cif.g08.bks.cpg/sg54_14_cif.got.tgz:26384.got - 2010.06.03 13:09:01.
