data_PCOD9424499
_publ_section_title
;
Structure prediction by ZEFSAII (Michael W. Deem and Ramdas Pophale) SiO2 
 PCOD9424499
Probable space group: P C C A
;
_chemical_formula_sum "Si O2"
_cell_formula_units_Z 32
_cell_length_a 5.027377
_cell_length_b 20.977015
_cell_length_c 13.522200
_cell_angle_alpha 90.000000
_cell_angle_beta 90.000000
_cell_angle_gamma 90.000000
_cell_volume 1426.042595
_symmetry_space_group_name_H-M "P C C A"
_symmetry_group_IT_number 54
_symmetry_cell_setting 'orthorhombic'
loop_
_space_group_symop_operation_xyz
x,y,z
1/2-x,-y,z
1/2+x,-y,1/2-z
-x,y,1/2-z
-x,-y,-z
1/2+x,y,-z
1/2-x,y,1/2+z
x,-y,1/2+z
loop_
_atom_site_type_symbol
_atom_site_label
_atom_site_fract_x
_atom_site_fract_y
_atom_site_fract_z
Si Si1 0.000000 0.542247 0.750000
Si Si2 0.203308 0.377546 0.436478
Si Si3 0.740114 0.745583 0.683038
Si Si4 0.250000 0.000000 0.817211
Si Si5 0.204171 0.871664 0.434198
O O1 0.750000 0.500000 0.784429
O O2 0.887108 0.584190 0.660102
O O3 0.496826 0.391673 0.475853
O O4 0.196714 0.303429 0.404854
O O5 0.500000 0.718844 0.750000
O O6 0.654096 0.813423 0.639529
O O7 0.000000 0.752839 0.750000
O O8 0.166792 0.060352 0.882561
O O9 0.500000 0.019092 0.750000
O O10 0.503204 0.866731 0.474414
#
# Coordination Sequence:
#
# PCOD9424499 Si02
#       5
#     4   8   8   4   8
#     4  12  28  48  74 106 146 188 234 290 348 426
#     4  12  26  46  74 106 141 186 234 288 349 416
#     4  12  24  43  70 100 138 181 229 288 347 415
#     4  12  24  42  64  92 130 178 228 282 350 416
#     4  12  24  42  64  97 133 176 228 286 347 415
#
# _framework density 22.439723999999998
#
# number of rings (size 3 to 8) (size 9 to 14) (size 15 to 20)
#    0.000    0.000    1.250    9.750    1.750    3.000 
#    0.000    0.000    0.000    0.000    0.000    0.000 
#    0.000    0.000    0.000    0.000    0.000    0.000 
#
# Total GULP energy -179411.262202 kJ/mol
# GULP energy per Si atom -5606.601944 kJ/mol
# Density = 2.238865 g / cm^3
# Si number density = 22.439724 Si / 1000 Ang^3
#
#
#
# Elastic Constant Matrix: (Units=GPa)
#
#
# Indices 1 2 3 4 5 6 
#
# 1 75.9733 7.6336 9.0615 0.0000 0.0000 0.0000
# 2 7.6336 85.1601 22.4804 0.0000 0.0000 0.0000
# 3 9.0615 22.4804 69.5868 0.0000 0.0000 0.0000
# 4 0.0000 0.0000 0.0000 62.2450 0.0000 0.0000
# 5 0.0000 0.0000 0.0000 0.0000 40.2798 0.0000
# 6 0.0000 0.0000 0.0000 0.0000 0.0000 43.3408
#
#
#
# Elastic Compliance Matrix: (Units=1/GPa)
#
#
# Indices 1 2 3 4 5 6 
#
# 1 0.013421 -0.000811 -0.001486 0.000000 0.000000 0.000000
# 2 -0.000811 0.012886 -0.004057 0.000000 0.000000 0.000000
# 3 -0.001486 -0.004057 0.015875 0.000000 0.000000 0.000000
# 4 0.000000 0.000000 0.000000 0.016066 0.000000 0.000000
# 5 0.000000 0.000000 0.000000 0.000000 0.024826 0.000000
# 6 0.000000 0.000000 0.000000 0.000000 0.000000 0.023073
#
#
# Mechanical properties :
#
#
# Convention : Reuss Voigt Hill
#
# Bulk Modulus (GPa) = 33.92784 34.34123 34.13453
# Shear Modulus (GPa) = 38.85613 41.94279 40.39946
#
# Velocity S-wave (km/s) = 4.16574 4.32804 4.24766
# Velocity P-wave (km/s) = 6.18791 6.34924 6.26909
#
# Compressibility (1/GPa) = 0.02947432
#
# Stress axis : x y z
#
# Youngs Moduli (GPa) = 74.50898 77.60160 62.99306
#
# Poissons Ratio (x) = 0.06292 0.09359
# Poissons Ratio (y) = 0.06042 0.25559
# Poissons Ratio (z) = 0.11070 0.31486
#
# Static dielectric constant tensor:
#      x y z
#    x 1.786340 0.000000 0.000000 
#    y 0.000000 1.807210 0.000000 
#    z 0.000000 0.000000 1.814670 
# 
# From -- ./inp_files/6273.got.cif
#   From: 2010.05.17/outbox.cif.g08.bks.cpg/sg54_4_cif.got.tgz:6273.got - 2010.06.03 13:09:01.
