data_PCOD9424487
_publ_section_title
;
Structure prediction by ZEFSAII (Michael W. Deem and Ramdas Pophale) SiO2 
 PCOD9424487
Probable space group: P C C A
;
_chemical_formula_sum "Si O2"
_cell_formula_units_Z 24
_cell_length_a 16.502920
_cell_length_b 4.985558
_cell_length_c 13.862047
_cell_angle_alpha 90.000000
_cell_angle_beta 90.000000
_cell_angle_gamma 90.000000
_cell_volume 1140.517450
_symmetry_space_group_name_H-M "P C C A"
_symmetry_group_IT_number 54
_symmetry_cell_setting 'orthorhombic'
loop_
_space_group_symop_operation_xyz
x,y,z
1/2-x,-y,z
1/2+x,-y,1/2-z
-x,y,1/2-z
-x,-y,-z
1/2+x,y,-z
1/2-x,y,1/2+z
x,-y,1/2+z
loop_
_atom_site_type_symbol
_atom_site_label
_atom_site_fract_x
_atom_site_fract_y
_atom_site_fract_z
Si Si1 0.440707 0.749203 0.014370
Si Si2 0.908676 0.387827 0.270415
Si Si3 0.660435 0.120044 0.168875
O O1 0.403157 0.715353 0.120335
O O2 0.500000 0.500000 0.000000
O O3 0.372277 0.770349 0.932755
O O4 0.500000 0.000000 0.000000
O O5 0.849963 0.632887 0.243092
O O6 0.000000 0.488770 0.250000
O O7 0.893946 0.130635 0.203060
O O8 0.750000 0.000000 0.163513
#
# Coordination Sequence:
#
# PCOD9424487 Si02
#       3
#     8   8   8
#     4  12  23  41  72 103 134 188 241 287 348 432
#     4  12  23  43  74 102 139 189 240 286 354 435
#     4  12  26  45  67 106 147 179 234 305 356 414
#
# _framework density 21.043081999999998
#
# number of rings (size 3 to 8) (size 9 to 14) (size 15 to 20)
#    0.000    0.000    6.667    4.000    0.000    1.333 
#    0.000    6.667    0.000    0.000    0.000    0.000 
#    0.000    0.000    0.000    0.000    0.000    0.000 
#
# Total GULP energy -134347.929221 kJ/mol
# GULP energy per Si atom -5597.830384 kJ/mol
# Density = 2.099519 g / cm^3
# Si number density = 21.043082 Si / 1000 Ang^3
#
#
#
# Elastic Constant Matrix: (Units=GPa)
#
#
# Indices 1 2 3 4 5 6 
#
# 1 106.7251 48.3304 75.2575 0.0000 0.0000 0.0000
# 2 48.3304 164.0320 53.9369 0.0000 0.0000 0.0000
# 3 75.2575 53.9369 161.4769 0.0000 0.0000 0.0000
# 4 0.0000 0.0000 0.0000 34.2285 0.0000 0.0000
# 5 0.0000 0.0000 0.0000 0.0000 23.9496 0.0000
# 6 0.0000 0.0000 0.0000 0.0000 0.0000 52.7898
#
#
#
# Elastic Compliance Matrix: (Units=1/GPa)
#
#
# Indices 1 2 3 4 5 6 
#
# 1 0.014713 -0.002337 -0.006077 0.000000 0.000000 0.000000
# 2 -0.002337 0.007220 -0.001322 0.000000 0.000000 0.000000
# 3 -0.006077 -0.001322 0.009467 0.000000 0.000000 0.000000
# 4 0.000000 0.000000 0.000000 0.029215 0.000000 0.000000
# 5 0.000000 0.000000 0.000000 0.000000 0.041754 0.000000
# 6 0.000000 0.000000 0.000000 0.000000 0.000000 0.018943
#
#
# Mechanical properties :
#
#
# Convention : Reuss Voigt Hill
#
# Bulk Modulus (GPa) = 83.83933 87.47595 85.65764
# Shear Modulus (GPa) = 34.53998 39.17420 36.85709
#
# Velocity S-wave (km/s) = 4.05581 4.31933 4.18964
# Velocity P-wave (km/s) = 7.86518 8.15694 8.01239
#
# Compressibility (1/GPa) = 0.01192758
#
# Stress axis : x y z
#
# Youngs Moduli (GPa) = 67.96691 138.50866 105.63504
#
# Poissons Ratio (x) = 0.32369 0.64189
# Poissons Ratio (y) = 0.15884 0.13969
# Poissons Ratio (z) = 0.41300 0.18316
#
# Static dielectric constant tensor:
#      x y z
#    x 1.656230 0.000000 0.000000 
#    y 0.000000 1.725540 0.000000 
#    z 0.000000 0.000000 1.784760 
# 
# From -- ./inp_files/8583.got.cif
#   From: 2010.05.17/outbox.cif.g08.bks.cpg/sg54_5_cif.got.tgz:8583.got - 2010.06.03 13:09:01.
