data_PCOD9424123
_publ_section_title
;
Structure prediction by ZEFSAII (Michael W. Deem and Ramdas Pophale) SiO2 
 PCOD9424123
Probable space group: P C C A
;
_chemical_formula_sum "Si O2"
_cell_formula_units_Z 40
_cell_length_a 14.759862
_cell_length_b 5.361412
_cell_length_c 20.550877
_cell_angle_alpha 90.000000
_cell_angle_beta 90.000000
_cell_angle_gamma 90.000000
_cell_volume 1626.266961
_symmetry_space_group_name_H-M "P C C A"
_symmetry_group_IT_number 54
_symmetry_cell_setting 'orthorhombic'
loop_
_space_group_symop_operation_xyz
x,y,z
1/2-x,-y,z
1/2+x,-y,1/2-z
-x,y,1/2-z
-x,-y,-z
1/2+x,y,-z
1/2-x,y,1/2+z
x,-y,1/2+z
loop_
_atom_site_type_symbol
_atom_site_label
_atom_site_fract_x
_atom_site_fract_y
_atom_site_fract_z
Si Si1 0.150474 0.559869 0.500853
Si Si2 0.513867 0.764795 0.063253
Si Si3 0.153072 0.860376 0.375149
Si Si4 0.558017 0.420781 0.812778
Si Si5 0.349931 0.101874 0.220710
O O1 0.250000 0.500000 0.528430
O O2 0.079497 0.332588 0.494053
O O3 0.164836 0.637228 0.425864
O O4 0.089798 0.770415 0.537061
O O5 0.501893 0.573701 0.123031
O O6 0.567216 0.989539 0.096448
O O7 0.139905 0.835702 0.297794
O O8 0.250000 0.000000 0.381495
O O9 0.500000 0.486122 0.750000
O O10 0.631497 0.640289 0.816549
O O11 0.590254 0.135891 0.801169
O O12 0.250000 0.000000 0.210616
#
# Coordination Sequence:
#
# PCOD9424123 Si02
#       5
#     8   8   8   8   8
#     4  11  24  44  69  99 136 182 243 300 358 430
#     4  11  25  43  70  99 139 190 234 296 365 428
#     4  11  22  42  70 102 135 187 239 300 353 433
#     4  12  24  45  69 105 143 185 235 297 361 437
#     4  11  26  43  72 102 144 186 241 296 364 432
#
# _framework density 24.596207
#
# number of rings (size 3 to 8) (size 9 to 14) (size 15 to 20)
#    0.000    0.800    4.000    3.000    2.800    1.600 
#    0.000    1.000    0.000    0.000    0.000    0.000 
#    0.000    0.000    0.000    0.000    0.000    0.000 
#
# Total GULP energy -223415.359910 kJ/mol
# GULP energy per Si atom -5585.383998 kJ/mol
# Density = 2.454023 g / cm^3
# Si number density = 24.596207 Si / 1000 Ang^3
#
#
#
# Elastic Constant Matrix: (Units=GPa)
#
#
# Indices 1 2 3 4 5 6 
#
# 1 172.0768 35.1039 41.6535 0.0000 0.0000 0.0000
# 2 35.1039 78.1900 16.8629 0.0000 0.0000 0.0000
# 3 41.6535 16.8629 63.7596 0.0000 0.0000 0.0000
# 4 0.0000 0.0000 0.0000 8.8917 0.0000 0.0000
# 5 0.0000 0.0000 0.0000 0.0000 37.3012 0.0000
# 6 0.0000 0.0000 0.0000 0.0000 0.0000 33.4962
#
#
#
# Elastic Compliance Matrix: (Units=1/GPa)
#
#
# Indices 1 2 3 4 5 6 
#
# 1 0.007300 -0.002385 -0.004138 0.000000 0.000000 0.000000
# 2 -0.002385 0.014342 -0.002235 0.000000 0.000000 0.000000
# 3 -0.004138 -0.002235 0.018978 0.000000 0.000000 0.000000
# 4 0.000000 0.000000 0.000000 0.112465 0.000000 0.000000
# 5 0.000000 0.000000 0.000000 0.000000 0.026809 0.000000
# 6 0.000000 0.000000 0.000000 0.000000 0.000000 0.029854
#
#
# Mechanical properties :
#
#
# Convention : Reuss Voigt Hill
#
# Bulk Modulus (GPa) = 43.28241 55.69633 49.48937
# Shear Modulus (GPa) = 21.27979 30.63155 25.95567
#
# Velocity S-wave (km/s) = 2.94456 3.53282 3.25202
# Velocity P-wave (km/s) = 5.40333 6.27172 5.85365
#
# Compressibility (1/GPa) = 0.02310407
#
# Stress axis : x y z
#
# Youngs Moduli (GPa) = 136.99562 69.72496 52.69157
#
# Poissons Ratio (x) = 0.16628 0.21804
# Poissons Ratio (y) = 0.32670 0.11778
# Poissons Ratio (z) = 0.56689 0.15585
#
# Static dielectric constant tensor:
#      x y z
#    x 2.003740 0.000000 0.000000 
#    y 0.000000 1.993720 0.000000 
#    z 0.000000 0.000000 1.930010 
# 
# From -- ./inp_files/24323.got.cif
#   From: 2010.05.17/outbox.cif.g08.bks.cpg/sg54_13_cif.got.tgz:24323.got - 2010.06.03 13:09:01.
