data_PCOD9424590
_publ_section_title
;
Structure prediction by ZEFSAII (Michael W. Deem and Ramdas Pophale) SiO2 
 PCOD9424590
Probable space group: P C C A
;
_chemical_formula_sum "Si O2"
_cell_formula_units_Z 32
_cell_length_a 12.112769
_cell_length_b 5.208101
_cell_length_c 19.530500
_cell_angle_alpha 90.000000
_cell_angle_beta 90.000000
_cell_angle_gamma 90.000000
_cell_volume 1232.072303
_symmetry_space_group_name_H-M "P C C A"
_symmetry_group_IT_number 54
_symmetry_cell_setting 'orthorhombic'
loop_
_space_group_symop_operation_xyz
x,y,z
1/2-x,-y,z
1/2+x,-y,1/2-z
-x,y,1/2-z
-x,-y,-z
1/2+x,y,-z
1/2-x,y,1/2+z
x,-y,1/2+z
loop_
_atom_site_type_symbol
_atom_site_label
_atom_site_fract_x
_atom_site_fract_y
_atom_site_fract_z
Si Si1 0.859847 0.349240 0.148733
Si Si2 0.577771 0.613520 0.874578
Si Si3 0.129006 0.884195 0.996867
Si Si4 0.868746 0.116182 0.289260
O O1 0.750000 0.500000 0.168670
O O2 0.849395 0.177427 0.082036
O O3 0.908354 0.198377 0.213589
O O4 0.948937 0.556441 0.126368
O O5 0.632586 0.373752 0.835135
O O6 0.588467 0.881220 0.834939
O O7 0.618375 0.643272 0.951790
O O8 0.250000 0.000000 0.020220
O O9 0.000000 0.000000 0.000000
O O10 0.750000 0.000000 0.271223
#
# Coordination Sequence:
#
# PCOD9424590 Si02
#       4
#     8   8   8   8
#     4  12  28  49  78 114 159 212 271 336 409 485
#     4  12  28  51  80 116 159 210 269 334 404 483
#     4  12  28  52  84 121 166 216 273 336 407 485
#     4  12  28  50  79 117 158 208 266 334 406 483
#
# _framework density 25.972501999999999
#
# number of rings (size 3 to 8) (size 9 to 14) (size 15 to 20)
#    0.000    0.000    0.000    8.250    0.000   18.000 
#    0.000    0.000    0.000    0.000    0.000    0.000 
#    0.000    0.000    0.000    0.000    0.000    0.000 
#
# Total GULP energy -179005.690406 kJ/mol
# GULP energy per Si atom -5593.927825 kJ/mol
# Density = 2.591339 g / cm^3
# Si number density = 25.972502 Si / 1000 Ang^3
#
#
#
# Elastic Constant Matrix: (Units=GPa)
#
#
# Indices 1 2 3 4 5 6 
#
# 1 104.5334 38.0862 24.8989 0.0000 0.0000 0.0000
# 2 38.0862 146.5774 73.8180 0.0000 0.0000 0.0000
# 3 24.8989 73.8180 162.9248 0.0000 0.0000 0.0000
# 4 0.0000 0.0000 0.0000 66.2892 0.0000 0.0000
# 5 0.0000 0.0000 0.0000 0.0000 53.5083 0.0000
# 6 0.0000 0.0000 0.0000 0.0000 0.0000 51.7747
#
#
#
# Elastic Compliance Matrix: (Units=1/GPa)
#
#
# Indices 1 2 3 4 5 6 
#
# 1 0.010596 -0.002511 -0.000482 0.000000 0.000000 0.000000
# 2 -0.002511 0.009434 -0.003891 0.000000 0.000000 0.000000
# 3 -0.000482 -0.003891 0.007974 0.000000 0.000000 0.000000
# 4 0.000000 0.000000 0.000000 0.015085 0.000000 0.000000
# 5 0.000000 0.000000 0.000000 0.000000 0.018689 0.000000
# 6 0.000000 0.000000 0.000000 0.000000 0.000000 0.019314
#
#
# Mechanical properties :
#
#
# Convention : Reuss Voigt Hill
#
# Bulk Modulus (GPa) = 70.23481 76.40465 73.31973
# Shear Modulus (GPa) = 50.19839 52.79660 51.49750
#
# Velocity S-wave (km/s) = 4.40108 4.51354 4.45766
# Velocity P-wave (km/s) = 7.27507 7.52623 7.40171
#
# Compressibility (1/GPa) = 0.01423795
#
# Stress axis : x y z
#
# Youngs Moduli (GPa) = 94.37722 105.99881 125.40371
#
# Poissons Ratio (x) = 0.26611 0.06042
# Poissons Ratio (y) = 0.23694 0.48791
# Poissons Ratio (z) = 0.04547 0.41241
#
# Static dielectric constant tensor:
#      x y z
#    x 2.207490 0.000000 0.000000 
#    y 0.000000 2.023870 0.000000 
#    z 0.000000 0.000000 2.059440 
# 
# From -- ./inp_files/20832.got.cif
#   From: 2010.05.17/outbox.cif.g08.bks.cpg/sg54_11_cif.got.tgz:20832.got - 2010.06.03 13:09:01.
