data_PCOD9424899
_publ_section_title
;
Structure prediction by ZEFSAII (Michael W. Deem and Ramdas Pophale) SiO2 
 PCOD9424899
Probable space group: P B A M
;
_chemical_formula_sum "Si O2"
_cell_formula_units_Z 64
_cell_length_a 22.587554
_cell_length_b 19.417817
_cell_length_c 7.454137
_cell_angle_alpha 90.000000
_cell_angle_beta 90.000000
_cell_angle_gamma 90.000000
_cell_volume 3269.391868
_symmetry_space_group_name_H-M "P B A M"
_symmetry_group_IT_number 55
_symmetry_cell_setting 'orthorhombic'
loop_
_space_group_symop_operation_xyz
x,y,z
-x,-y,z
1/2+x,1/2-y,-z
1/2-x,1/2+y,-z
-x,-y,-z
x,y,-z
1/2-x,1/2+y,z
1/2+x,1/2-y,z
loop_
_atom_site_type_symbol
_atom_site_label
_atom_site_fract_x
_atom_site_fract_y
_atom_site_fract_z
Si Si1 0.411939 0.678089 0.280139
Si Si2 0.693026 0.420252 0.719622
Si Si3 0.225809 0.392196 0.791273
Si Si4 0.182991 0.542074 0.297633
Si Si5 0.065746 0.478514 0.720296
Si Si6 0.983123 0.077698 0.719020
Si Si7 0.351151 0.428543 0.284705
Si Si8 0.391784 0.829213 0.710346
O O1 0.411957 0.678656 0.500000
O O2 0.351341 0.639884 0.226200
O O3 0.467578 0.632031 0.222709
O O4 0.413610 0.756630 0.216134
O O5 0.694964 0.421259 0.500000
O O6 0.761200 0.417342 0.783230
O O7 0.664972 0.493719 0.776204
O O8 0.208126 0.463487 0.694584
O O9 0.295334 0.381207 0.763636
O O10 0.179312 0.335329 0.729173
O O11 0.215423 0.404349 0.000000
O O12 0.174633 0.568416 0.500000
O O13 0.117883 0.530372 0.217733
O O14 0.068513 0.478881 0.500000
O O15 0.081797 0.401044 0.781566
O O16 0.000000 0.500000 0.772604
O O17 0.983905 0.078315 0.500000
O O18 0.916103 0.092529 0.778436
O O19 0.000000 0.000000 0.772585
O O20 0.353640 0.431312 0.500000
O O21 0.406293 0.829216 0.500000
#
# Coordination Sequence:
#
# PCOD9424899 Si02
#       8
#     8   8   8   8   8   8   8   8
#     4   9  15  23  40  66  94 118 143 180 224 266
#     4   8  12  20  37  63  89 112 137 171 211 256
#     4  10  18  28  44  63  84 111 149 190 224 260
#     4   8  14  25  43  66  86 106 136 175 223 268
#     4   8  13  23  41  62  83 110 141 176 220 267
#     4   9  14  22  40  70  99 121 145 176 217 270
#     4   9  15  25  44  67  92 116 143 176 216 262
#     4   9  17  29  45  64  88 115 148 189 232 271
#
# _framework density 19.575507000000002
#
# number of rings (size 3 to 8) (size 9 to 14) (size 15 to 20)
#    0.000    3.250    1.250    2.625    0.000    0.000 
#    0.000    0.000    2.750   10.125    0.000    0.000 
#    0.000    0.000    0.000    0.000    0.000    0.000 
#
# Total GULP energy -356498.053585 kJ/mol
# GULP energy per Si atom -5570.282087 kJ/mol
# Density = 1.953095 g / cm^3
# Si number density = 19.575507 Si / 1000 Ang^3
#
#
#
# Elastic Constant Matrix: (Units=GPa)
#
#
# Indices 1 2 3 4 5 6 
#
# 1 192.3077 63.5968 -4.9374 0.0000 0.0000 0.0000
# 2 63.5968 79.9938 0.1889 0.0000 0.0000 0.0000
# 3 -4.9374 0.1889 59.1208 0.0000 0.0000 0.0000
# 4 0.0000 0.0000 0.0000 -19.9241 0.0000 0.0000
# 5 0.0000 0.0000 0.0000 0.0000 -41.0872 0.0000
# 6 0.0000 0.0000 0.0000 0.0000 0.0000 24.0836
#
#
#
# Elastic Compliance Matrix: (Units=1/GPa)
#
#
# Indices 1 2 3 4 5 6 
#
# 1 0.007077 -0.005628 0.000609 0.000000 0.000000 0.000000
# 2 -0.005628 0.016976 -0.000524 0.000000 0.000000 0.000000
# 3 0.000609 -0.000524 0.016967 0.000000 0.000000 0.000000
# 4 0.000000 0.000000 0.000000 -0.050190 0.000000 0.000000
# 5 0.000000 0.000000 0.000000 0.000000 -0.024338 0.000000
# 6 0.000000 0.000000 0.000000 0.000000 0.000000 0.041522
#
#
# Mechanical properties :
#
#
# Convention : Reuss Voigt Hill
#
# Bulk Modulus (GPa) = 33.40640 49.90210 41.65425
# Shear Modulus (GPa) = 171.95761 10.78605 91.37183
#
# Velocity S-wave (km/s) = 9.38264 2.34988 6.83944
# Velocity P-wave (km/s) = 11.59660 5.73673 9.14853
#
# Compressibility (1/GPa) = 0.02993439
#
# Stress axis : x y z
#
# Youngs Moduli (GPa) = 141.30901 58.90581 58.93772
#
# Poissons Ratio (x) = 0.33150 -0.03589
# Poissons Ratio (y) = 0.79523 0.03090
# Poissons Ratio (z) = -0.08606 0.03088
#
# Static dielectric constant tensor:
#      x y z
#    x 1.722330 0.000000 0.000000 
#    y 0.000000 1.650340 0.000000 
#    z 0.000000 0.000000 1.721720 
# 
# From -- ./inp_files/9155.got.cif
#   From: 2010.05.17/outbox.cif.g08.bks.cpg/sg55_5_cif.got.tgz:9155.got - 2010.06.03 13:27:54.
