data_PCOD9424032
_publ_section_title
;
Structure prediction by ZEFSAII (Michael W. Deem and Ramdas Pophale) SiO2 
 PCOD9424032
Probable space group: P C C A
;
_chemical_formula_sum "Si O2"
_cell_formula_units_Z 60
_cell_length_a 18.913590
_cell_length_b 12.300131
_cell_length_c 12.476240
_cell_angle_alpha 90.000000
_cell_angle_beta 90.000000
_cell_angle_gamma 90.000000
_cell_volume 2902.467916
_symmetry_space_group_name_H-M "P C C A"
_symmetry_group_IT_number 54
_symmetry_cell_setting 'orthorhombic'
loop_
_space_group_symop_operation_xyz
x,y,z
1/2-x,-y,z
1/2+x,-y,1/2-z
-x,y,1/2-z
-x,-y,-z
1/2+x,y,-z
1/2-x,y,1/2+z
x,-y,1/2+z
loop_
_atom_site_type_symbol
_atom_site_label
_atom_site_fract_x
_atom_site_fract_y
_atom_site_fract_z
Si Si1 0.791340 0.686369 0.737542
Si Si2 0.131542 0.409583 0.069235
Si Si3 0.344869 0.219159 0.155800
Si Si4 0.250000 0.500000 0.418200
Si Si5 0.536722 0.768636 0.506183
Si Si6 0.927867 0.942803 0.185473
Si Si7 0.043618 0.406589 0.646526
Si Si8 0.609100 0.830580 0.089108
O O1 0.829020 0.605056 0.819180
O O2 0.734622 0.757532 0.804375
O O3 0.755118 0.608409 0.651390
O O4 0.848312 0.756214 0.672000
O O5 0.064312 0.485438 0.085423
O O6 0.181955 0.476037 0.990520
O O7 0.106930 0.288120 0.038527
O O8 0.380913 0.129793 0.233337
O O9 0.387078 0.333297 0.170860
O O10 0.357034 0.184007 0.031030
O O11 0.552190 0.869974 0.582504
O O12 0.504328 0.675883 0.581243
O O13 0.473814 0.798124 0.424238
O O14 0.000000 0.970157 0.250000
O O15 0.890250 0.048819 0.138191
O O16 0.000000 0.437882 0.750000
#
# Coordination Sequence:
#
# PCOD9424032 Si02
#       8
#     8   8   8   4   8   8   8   8
#     4  12  27  45  69 100 145 185 232 296 348 439
#     4  12  27  39  70 103 142 184 229 295 359 425
#     4  11  23  49  69  97 138 189 237 281 366 432
#     4  12  24  48  68  98 140 200 240 270 358 438
#     4  11  23  44  67 106 137 182 232 296 359 429
#     4  12  23  45  77 100 133 189 232 299 361 430
#     4  11  21  40  67 100 134 178 226 285 344 432
#     4  11  27  43  72 105 138 176 242 301 351 428
#
# _framework density 20.672063000000001
#
# number of rings (size 3 to 8) (size 9 to 14) (size 15 to 20)
#    0.000    0.533    4.000    6.000    5.600    0.533 
#    0.000    1.333    0.000    0.000    0.000    0.000 
#    0.000    0.000    0.000    0.000    0.000    0.000 
#
# Total GULP energy -335372.477323 kJ/mol
# GULP energy per Si atom -5589.541289 kJ/mol
# Density = 2.062501 g / cm^3
# Si number density = 20.672063 Si / 1000 Ang^3
#
#
#
# Elastic Constant Matrix: (Units=GPa)
#
#
# Indices 1 2 3 4 5 6 
#
# 1 24.7925 8.2923 14.1934 0.0000 0.0000 0.0000
# 2 8.2923 84.8022 21.6093 0.0000 0.0000 0.0000
# 3 14.1934 21.6093 51.0763 0.0000 0.0000 0.0000
# 4 0.0000 0.0000 0.0000 34.0372 0.0000 0.0000
# 5 0.0000 0.0000 0.0000 0.0000 22.8533 0.0000
# 6 0.0000 0.0000 0.0000 0.0000 0.0000 21.4223
#
#
#
# Elastic Compliance Matrix: (Units=1/GPa)
#
#
# Indices 1 2 3 4 5 6 
#
# 1 0.048125 -0.001455 -0.012758 0.000000 0.000000 0.000000
# 2 -0.001455 0.013261 -0.005206 0.000000 0.000000 0.000000
# 3 -0.012758 -0.005206 0.025326 0.000000 0.000000 0.000000
# 4 0.000000 0.000000 0.000000 0.029380 0.000000 0.000000
# 5 0.000000 0.000000 0.000000 0.000000 0.043757 0.000000
# 6 0.000000 0.000000 0.000000 0.000000 0.000000 0.046680
#
#
# Mechanical properties :
#
#
# Convention : Reuss Voigt Hill
#
# Bulk Modulus (GPa) = 20.88785 27.65124 24.26954
# Shear Modulus (GPa) = 19.13322 23.43430 21.28376
#
# Velocity S-wave (km/s) = 3.04560 3.37058 3.21220
# Velocity P-wave (km/s) = 4.74277 5.34350 5.05207
#
# Compressibility (1/GPa) = 0.04787473
#
# Stress axis : x y z
#
# Youngs Moduli (GPa) = 20.77921 75.40882 39.48456
#
# Poissons Ratio (x) = 0.10972 0.50373
# Poissons Ratio (y) = 0.03023 0.20556
# Poissons Ratio (z) = 0.26510 0.39259
#
# Static dielectric constant tensor:
#      x y z
#    x 1.784900 0.000000 0.000000 
#    y 0.000000 1.716180 0.000000 
#    z 0.000000 0.000000 1.753140 
# 
# From -- ./inp_files/9615.got.cif
#   From: 2010.05.17/outbox.cif.g08.bks.cpg/sg54_5_cif.got.tgz:9615.got - 2010.06.03 13:09:01.
