data_PCOD9424614
_publ_section_title
;
Structure prediction by ZEFSAII (Michael W. Deem and Ramdas Pophale) SiO2 
 PCOD9424614
Probable space group: P C C A
;
_chemical_formula_sum "Si O2"
_cell_formula_units_Z 56
_cell_length_a 9.000000
_cell_length_b 21.000000
_cell_length_c 15.000000
_cell_angle_alpha 90.000000
_cell_angle_beta 90.000000
_cell_angle_gamma 90.000000
_cell_volume 2835.000000
_symmetry_space_group_name_H-M "P C C A"
_symmetry_group_IT_number 54
_symmetry_cell_setting 'orthorhombic'
loop_
_space_group_symop_operation_xyz
x,y,z
1/2-x,-y,z
1/2+x,-y,1/2-z
-x,y,1/2-z
-x,-y,-z
1/2+x,y,-z
1/2-x,y,1/2+z
x,-y,1/2+z
loop_
_atom_site_type_symbol
_atom_site_label
_atom_site_fract_x
_atom_site_fract_y
_atom_site_fract_z
Si Si1 0.101185 0.787577 0.610291
Si Si2 0.633895 0.955586 0.966185
Si Si3 0.371194 0.875244 0.936630
Si Si4 0.272810 0.782136 0.302161
Si Si5 0.729690 0.357672 0.125676
Si Si6 0.059460 0.646903 0.547234
Si Si7 0.163800 0.562240 0.710182
O O1 0.121468 0.838889 0.532299
O O2 0.209444 0.790759 0.695950
O O3 0.111328 0.719459 0.562143
O O4 0.936747 0.790254 0.653536
O O5 0.536253 0.902051 0.919378
O O6 0.750000 0.000000 0.913073
O O7 0.737096 0.925437 0.043961
O O8 0.500000 0.000000 0.000000
O O9 0.327602 0.831810 0.854297
O O10 0.218603 0.711734 0.329053
O O11 0.747095 0.405473 0.208150
O O12 0.884775 0.357951 0.069899
O O13 0.602969 0.371804 0.053148
O O14 0.140222 0.607160 0.624936
O O15 0.250000 0.500000 0.681653
O O16 0.000000 0.548877 0.750000
#
# Coordination Sequence:
#
# PCOD9424614 Si02
#       7
#     8   8   8   8   8   8   8
#     4  10  19  33  57  88 121 150 190 247 304 354
#     4   9  20  36  58  86 120 159 196 232 280 345
#     4  11  18  34  62  88 113 157 201 235 295 352
#     4  10  19  33  57  88 121 151 192 243 304 359
#     4  10  20  36  58  84 117 153 192 247 305 352
#     4  10  20  36  58  84 117 153 192 245 307 352
#     4  10  22  40  60  80 114 163 202 238 296 368
#
# _framework density 19.753086
#
# number of rings (size 3 to 8) (size 9 to 14) (size 15 to 20)
#    0.000    2.000    4.286    0.000    0.000    1.714 
#    0.000    3.571    0.000   12.857    0.000    0.000 
#    0.000    0.000    0.000    0.000    0.000    0.000 
#
# Total GULP energy -312324.338950 kJ/mol
# GULP energy per Si atom -5577.220338 kJ/mol
# Density = 1.970813 g / cm^3
# Si number density = 19.753086 Si / 1000 Ang^3
#
#
#
# Elastic Constant Matrix: (Units=GPa)
#
#
# Indices 1 2 3 4 5 6 
#
# 1 54.2207 30.1562 -4.9982 0.0000 0.0000 0.0000
# 2 30.1562 61.8412 -4.0520 0.0000 0.0000 0.0000
# 3 -4.9982 -4.0520 24.2534 0.0000 0.0000 0.0000
# 4 0.0000 0.0000 0.0000 0.3395 0.0000 0.0000
# 5 0.0000 0.0000 0.0000 0.0000 30.1533 0.0000
# 6 0.0000 0.0000 0.0000 0.0000 0.0000 32.1973
#
#
#
# Elastic Compliance Matrix: (Units=1/GPa)
#
#
# Indices 1 2 3 4 5 6 
#
# 1 0.025553 -0.012250 0.003219 0.000000 0.000000 0.000000
# 2 -0.012250 0.022222 0.001188 0.000000 0.000000 0.000000
# 3 0.003219 0.001188 0.042093 0.000000 0.000000 0.000000
# 4 0.000000 0.000000 0.000000 2.945157 0.000000 0.000000
# 5 0.000000 0.000000 0.000000 0.000000 0.033164 0.000000
# 6 0.000000 0.000000 0.000000 0.000000 0.000000 0.031059
#
#
# Mechanical properties :
#
#
# Convention : Reuss Voigt Hill
#
# Bulk Modulus (GPa) = 13.48003 20.28081 16.88042
# Shear Modulus (GPa) = 1.59253 20.48531 11.03892
#
# Velocity S-wave (km/s) = 0.89887 3.22385 2.36656
# Velocity P-wave (km/s) = 2.81360 4.91397 4.00396
#
# Compressibility (1/GPa) = 0.07418382
#
# Stress axis : x y z
#
# Youngs Moduli (GPa) = 39.13461 45.00106 23.75671
#
# Poissons Ratio (x) = 0.55125 -0.07648
# Poissons Ratio (y) = 0.47938 -0.02823
# Poissons Ratio (z) = -0.12599 -0.05347
#
# Static dielectric constant tensor:
#      x y z
#    x 1.726270 0.000000 0.000000 
#    y 0.000000 1.768400 0.000000 
#    z 0.000000 0.000000 1.632920 
# 
# From -- ./inp_files/11879.got.cif
#   From: 2010.05.17/outbox.ucp.g08.bks.cvg/sg54_6_cif.got.tgz:11879.got - 2010.06.11 16:34:40.
