data_PCOD9424965
_publ_section_title
;
Structure prediction by ZEFSAII (Michael W. Deem and Ramdas Pophale) SiO2 
 PCOD9424965
Probable space group: P B A M
;
_chemical_formula_sum "Si O2"
_cell_formula_units_Z 44
_cell_length_a 5.595626
_cell_length_b 18.250162
_cell_length_c 18.511672
_cell_angle_alpha 90.000000
_cell_angle_beta 90.000000
_cell_angle_gamma 90.000000
_cell_volume 1890.431956
_symmetry_space_group_name_H-M "P B A M"
_symmetry_group_IT_number 55
_symmetry_cell_setting 'orthorhombic'
loop_
_space_group_symop_operation_xyz
x,y,z
-x,-y,z
1/2+x,1/2-y,-z
1/2-x,1/2+y,-z
-x,-y,-z
x,y,-z
1/2-x,1/2+y,z
1/2+x,1/2-y,z
loop_
_atom_site_type_symbol
_atom_site_label
_atom_site_fract_x
_atom_site_fract_y
_atom_site_fract_z
Si Si1 0.914648 0.704598 0.000000
Si Si2 0.123410 0.099197 0.807948
Si Si3 0.374515 0.888900 0.144978
Si Si4 0.980131 0.916899 0.360092
Si Si5 0.341179 0.756359 0.744697
Si Si6 0.018481 0.413474 0.585418
O O1 0.908590 0.654418 0.929026
O O2 0.666907 0.751364 0.000000
O O3 0.376283 0.071308 0.837414
O O4 0.149624 0.188732 0.802792
O O5 0.889973 0.076941 0.852820
O O6 0.079123 0.078497 0.724713
O O7 0.349036 0.831027 0.210996
O O8 0.243145 0.884566 0.375205
O O9 0.742766 0.882197 0.394904
O O10 0.000000 0.000000 0.390216
O O11 0.591248 0.750244 0.704317
O O12 0.056913 0.408610 0.500000
O O13 0.000000 0.500000 0.606390
#
# Coordination Sequence:
#
# PCOD9424965 Si02
#       6
#     4   8   8   8   8   8
#     4  12  20  30  48  72  99 128 151 184 246 300
#     4  10  18  30  44  64  95 123 152 190 226 271
#     4  10  19  30  45  67  94 121 150 189 234 285
#     4  10  19  30  47  71  95 124 158 187 225 275
#     4   8  14  25  39  57  84 111 136 174 217 262
#     4   9  17  30  47  68  96 123 147 185 236 284
#
# _framework density 23.275106000000001
#
# number of rings (size 3 to 8) (size 9 to 14) (size 15 to 20)
#    0.000    2.364    0.000    6.000    0.000    2.182 
#    0.000    0.000    0.000    0.000    0.000    3.818 
#    0.000  130.909    0.000    0.000    0.000    0.000 
#
# Total GULP energy -245487.322793 kJ/mol
# GULP energy per Si atom -5579.257336 kJ/mol
# Density = 2.322213 g / cm^3
# Si number density = 23.275106 Si / 1000 Ang^3
#
#
#
# Elastic Constant Matrix: (Units=GPa)
#
#
# Indices 1 2 3 4 5 6 
#
# 1 327.2829 29.7736 65.7362 0.0000 0.0000 0.0000
# 2 29.7736 51.3981 1.6436 0.0000 0.0000 0.0000
# 3 65.7362 1.6436 81.0439 0.0000 0.0000 0.0000
# 4 0.0000 0.0000 0.0000 18.1347 0.0000 0.0000
# 5 0.0000 0.0000 0.0000 0.0000 36.8872 0.0000
# 6 0.0000 0.0000 0.0000 0.0000 0.0000 28.9253
#
#
#
# Elastic Compliance Matrix: (Units=1/GPa)
#
#
# Indices 1 2 3 4 5 6 
#
# 1 0.003873 -0.002144 -0.003098 0.000000 0.000000 0.000000
# 2 -0.002144 0.020656 0.001320 0.000000 0.000000 0.000000
# 3 -0.003098 0.001320 0.014825 0.000000 0.000000 0.000000
# 4 0.000000 0.000000 0.000000 0.055143 0.000000 0.000000
# 5 0.000000 0.000000 0.000000 0.000000 0.027110 0.000000
# 6 0.000000 0.000000 0.000000 0.000000 0.000000 0.034572
#
#
# Mechanical properties :
#
#
# Convention : Reuss Voigt Hill
#
# Bulk Modulus (GPa) = 31.73581 72.67017 52.20299
# Shear Modulus (GPa) = 28.64924 40.96088 34.80506
#
# Velocity S-wave (km/s) = 3.51222 4.19962 3.87121
# Velocity P-wave (km/s) = 5.48746 7.40309 6.51606
#
# Compressibility (1/GPa) = 0.03151015
#
# Stress axis : x y z
#
# Youngs Moduli (GPa) = 258.21573 48.41228 67.45431
#
# Poissons Ratio (x) = 0.10381 0.20896
# Poissons Ratio (y) = 0.55370 -0.08907
# Poissons Ratio (z) = 0.79989 -0.06392
#
# Static dielectric constant tensor:
#      x y z
#    x 2.011570 0.000000 0.000000 
#    y 0.000000 2.208510 0.000000 
#    z 0.000000 0.000000 1.787100 
# 
# From -- ./inp_files/16624.got.cif
#   From: 2010.05.17/outbox.cif.g08.bks.cpg/sg55_9_cif.got.tgz:16624.got - 2010.06.03 13:27:54.
