data_PCOD9424501
_publ_section_title
;
Structure prediction by ZEFSAII (Michael W. Deem and Ramdas Pophale) SiO2 
 PCOD9424501
Probable space group: P C C A
;
_chemical_formula_sum "Si O2"
_cell_formula_units_Z 32
_cell_length_a 7.560254
_cell_length_b 12.623693
_cell_length_c 14.343134
_cell_angle_alpha 90.000000
_cell_angle_beta 90.000000
_cell_angle_gamma 90.000000
_cell_volume 1368.884691
_symmetry_space_group_name_H-M "P C C A"
_symmetry_group_IT_number 54
_symmetry_cell_setting 'orthorhombic'
loop_
_space_group_symop_operation_xyz
x,y,z
1/2-x,-y,z
1/2+x,-y,1/2-z
-x,y,1/2-z
-x,-y,-z
1/2+x,y,-z
1/2-x,y,1/2+z
x,-y,1/2+z
loop_
_atom_site_type_symbol
_atom_site_label
_atom_site_fract_x
_atom_site_fract_y
_atom_site_fract_z
Si Si1 0.000000 0.095464 0.250000
Si Si2 0.732961 0.750825 0.639023
Si Si3 0.804603 0.384467 0.295328
Si Si4 0.750000 0.000000 0.897885
Si Si5 0.350921 0.226182 0.055589
O O1 0.154632 0.166563 0.297890
O O2 0.086290 0.024536 0.170103
O O3 0.693560 0.651412 0.705003
O O4 0.847361 0.725022 0.547309
O O5 0.543518 0.785451 0.600487
O O6 0.750000 0.500000 0.328896
O O7 0.766362 0.297687 0.375041
O O8 0.000000 0.383716 0.250000
O O9 0.721301 0.893148 0.954551
#
# Coordination Sequence:
#
# PCOD9424501 Si02
#       5
#     4   8   8   4   8
#     4  12  24  42  72  98 152 186 242 284 354 432
#     4  12  25  48  71 106 145 188 241 291 358 419
#     4  12  25  49  75 105 142 187 238 297 355 419
#     4  12  24  42  68 106 144 194 230 294 348 424
#     4  12  27  45  72 109 144 190 238 292 353 428
#
# _framework density 23.376695999999999
#
# number of rings (size 3 to 8) (size 9 to 14) (size 15 to 20)
#    0.000    0.000    3.750    6.750    0.000    6.000 
#    0.000    5.000    0.000    0.000    0.000    0.000 
#    0.000    0.000    0.000    0.000    0.000    0.000 
#
# Total GULP energy -179111.747861 kJ/mol
# GULP energy per Si atom -5597.242121 kJ/mol
# Density = 2.332349 g / cm^3
# Si number density = 23.376696 Si / 1000 Ang^3
#
#
#
# Elastic Constant Matrix: (Units=GPa)
#
#
# Indices 1 2 3 4 5 6 
#
# 1 124.8936 35.4118 23.7828 0.0000 0.0000 0.0000
# 2 35.4118 114.6051 33.5862 0.0000 0.0000 0.0000
# 3 23.7828 33.5862 118.6612 0.0000 0.0000 0.0000
# 4 0.0000 0.0000 0.0000 9.2384 0.0000 0.0000
# 5 0.0000 0.0000 0.0000 0.0000 37.2966 0.0000
# 6 0.0000 0.0000 0.0000 0.0000 0.0000 29.6134
#
#
#
# Elastic Compliance Matrix: (Units=1/GPa)
#
#
# Indices 1 2 3 4 5 6 
#
# 1 0.008905 -0.002430 -0.001097 0.000000 0.000000 0.000000
# 2 -0.002430 0.010178 -0.002394 0.000000 0.000000 0.000000
# 3 -0.001097 -0.002394 0.009325 0.000000 0.000000 0.000000
# 4 0.000000 0.000000 0.000000 0.108244 0.000000 0.000000
# 5 0.000000 0.000000 0.000000 0.000000 0.026812 0.000000
# 6 0.000000 0.000000 0.000000 0.000000 0.000000 0.033768
#
#
# Mechanical properties :
#
#
# Convention : Reuss Voigt Hill
#
# Bulk Modulus (GPa) = 60.36453 60.41349 60.38901
# Shear Modulus (GPa) = 23.29970 32.92164 28.11067
#
# Velocity S-wave (km/s) = 3.16049 3.75682 3.47148
# Velocity P-wave (km/s) = 6.26074 6.68714 6.47745
#
# Compressibility (1/GPa) = 0.01656602
#
# Stress axis : x y z
#
# Youngs Moduli (GPa) = 112.30047 98.25143 107.24156
#
# Poissons Ratio (x) = 0.23875 0.11764
# Poissons Ratio (y) = 0.27289 0.25671
# Poissons Ratio (z) = 0.12319 0.23519
#
# Static dielectric constant tensor:
#      x y z
#    x 1.961090 0.000000 0.000000 
#    y 0.000000 1.880840 0.000000 
#    z 0.000000 0.000000 1.829060 
# 
# From -- ./inp_files/11351.got.cif
#   From: 2010.05.17/outbox.cif.g08.bks.cpg/sg54_6_cif.got.tgz:11351.got - 2010.06.03 13:09:01.
