data_PCOD9424096
_publ_section_title
;
Structure prediction by ZEFSAII (Michael W. Deem and Ramdas Pophale) SiO2 
 PCOD9424096
Probable space group: P C C A
;
_chemical_formula_sum "Si O2"
_cell_formula_units_Z 64
_cell_length_a 9.491796
_cell_length_b 23.251975
_cell_length_c 13.758309
_cell_angle_alpha 90.000000
_cell_angle_beta 90.000000
_cell_angle_gamma 90.000000
_cell_volume 3036.500117
_symmetry_space_group_name_H-M "P C C A"
_symmetry_group_IT_number 54
_symmetry_cell_setting 'orthorhombic'
loop_
_space_group_symop_operation_xyz
x,y,z
1/2-x,-y,z
1/2+x,-y,1/2-z
-x,y,1/2-z
-x,-y,-z
1/2+x,y,-z
1/2-x,y,1/2+z
x,-y,1/2+z
loop_
_atom_site_type_symbol
_atom_site_label
_atom_site_fract_x
_atom_site_fract_y
_atom_site_fract_z
Si Si1 0.885344 0.255574 0.333054
Si Si2 0.831708 0.649278 0.094468
Si Si3 0.008439 0.093814 0.987687
Si Si4 0.874494 0.540906 0.966717
Si Si5 0.240879 0.831981 0.076930
Si Si6 0.590198 0.011119 0.652071
Si Si7 0.579430 0.717880 0.987960
Si Si8 0.836191 0.380245 0.283727
O O1 0.804509 0.194999 0.324614
O O2 0.805362 0.316944 0.329839
O O3 0.000000 0.257374 0.250000
O O4 0.971362 0.258163 0.432245
O O5 0.690079 0.675375 0.043078
O O6 0.773236 0.621023 0.194182
O O7 0.887515 0.598634 0.027358
O O8 0.969075 0.691919 0.092544
O O9 0.888658 0.125090 0.925126
O O10 0.941630 0.067741 0.087007
O O11 0.135103 0.136562 0.017268
O O12 0.058594 0.041057 0.921957
O O13 0.750000 0.500000 0.997291
O O14 0.837312 0.566525 0.859072
O O15 0.000000 0.500000 0.000000
O O16 0.175554 0.772098 0.038682
O O17 0.500000 0.011489 0.750000
O O18 0.750000 0.000000 0.681685
O O19 0.000000 0.378830 0.250000
#
# Coordination Sequence:
#
# PCOD9424096 Si02
#       8
#     8   8   8   8   8   8   8   8
#     4  11  22  40  69  99 138 184 232 284 356 429
#     4  12  23  44  73  98 135 191 233 285 358 441
#     4  11  25  47  72 100 148 189 237 302 362 424
#     4  12  26  44  67  98 133 176 229 295 364 415
#     4  12  23  44  70 104 142 187 229 294 363 424
#     4  11  26  47  75 103 138 193 250 294 360 434
#     4  12  21  42  73  98 139 185 232 281 360 438
#     4  11  22  43  70  96 134 180 233 287 347 434
#
# _framework density 21.076898
#
# number of rings (size 3 to 8) (size 9 to 14) (size 15 to 20)
#    0.000    0.500    7.500    1.500    1.750    2.000 
#    2.250    5.000    0.000    0.000    0.000    0.000 
#    0.000    0.000    0.000    0.000    0.000    0.000 
#
# Total GULP energy -356494.900252 kJ/mol
# GULP energy per Si atom -5570.232816 kJ/mol
# Density = 2.102893 g / cm^3
# Si number density = 21.076898 Si / 1000 Ang^3
#
#
#
# Elastic Constant Matrix: (Units=GPa)
#
#
# Indices 1 2 3 4 5 6 
#
# 1 129.9887 34.8681 11.2250 0.0000 0.0000 0.0000
# 2 34.8681 73.8833 8.9199 0.0000 0.0000 0.0000
# 3 11.2250 8.9199 60.1290 0.0000 0.0000 0.0000
# 4 0.0000 0.0000 0.0000 40.6103 0.0000 0.0000
# 5 0.0000 0.0000 0.0000 0.0000 15.4783 0.0000
# 6 0.0000 0.0000 0.0000 0.0000 0.0000 32.6202
#
#
#
# Elastic Compliance Matrix: (Units=1/GPa)
#
#
# Indices 1 2 3 4 5 6 
#
# 1 0.008873 -0.004060 -0.001054 0.000000 0.000000 0.000000
# 2 -0.004060 0.015640 -0.001562 0.000000 0.000000 0.000000
# 3 -0.001054 -0.001562 0.017059 0.000000 0.000000 0.000000
# 4 0.000000 0.000000 0.000000 0.024624 0.000000 0.000000
# 5 0.000000 0.000000 0.000000 0.000000 0.064607 0.000000
# 6 0.000000 0.000000 0.000000 0.000000 0.000000 0.030656
#
#
# Mechanical properties :
#
#
# Convention : Reuss Voigt Hill
#
# Bulk Modulus (GPa) = 35.43689 41.55857 38.49773
# Shear Modulus (GPa) = 27.14170 31.67429 29.40799
#
# Velocity S-wave (km/s) = 3.59241 3.88080 3.73939
# Velocity P-wave (km/s) = 5.83583 6.31199 6.07857
#
# Compressibility (1/GPa) = 0.02821918
#
# Stress axis : x y z
#
# Youngs Moduli (GPa) = 112.69975 63.94006 58.61865
#
# Poissons Ratio (x) = 0.25961 0.06179
# Poissons Ratio (y) = 0.45759 0.09157
# Poissons Ratio (z) = 0.11880 0.09988
#
# Static dielectric constant tensor:
#      x y z
#    x 1.908390 0.000000 0.000000 
#    y 0.000000 1.812710 0.000000 
#    z 0.000000 0.000000 1.848620 
# 
# From -- ./inp_files/11939.got.cif
#   From: 2010.05.17/outbox.cif.g08.bks.cpg/sg54_6_cif.got.tgz:11939.got - 2010.06.03 13:09:01.
