data_PCOD9424414
_publ_section_title
;
Structure prediction by ZEFSAII (Michael W. Deem and Ramdas Pophale) SiO2 
 PCOD9424414
Probable space group: P C C A
;
_chemical_formula_sum "Si O2"
_cell_formula_units_Z 40
_cell_length_a 8.519212
_cell_length_b 21.658683
_cell_length_c 8.920787
_cell_angle_alpha 90.000000
_cell_angle_beta 90.000000
_cell_angle_gamma 90.000000
_cell_volume 1646.018229
_symmetry_space_group_name_H-M "P C C A"
_symmetry_group_IT_number 54
_symmetry_cell_setting 'orthorhombic'
loop_
_space_group_symop_operation_xyz
x,y,z
1/2-x,-y,z
1/2+x,-y,1/2-z
-x,y,1/2-z
-x,-y,-z
1/2+x,y,-z
1/2-x,y,1/2+z
x,-y,1/2+z
loop_
_atom_site_type_symbol
_atom_site_label
_atom_site_fract_x
_atom_site_fract_y
_atom_site_fract_z
Si Si1 0.896064 0.457654 0.892272
Si Si2 0.106819 0.042535 0.109206
Si Si3 0.092590 0.341525 0.405433
Si Si4 0.180289 0.823326 0.683748
Si Si5 0.361035 0.744782 0.905829
O O1 0.750000 0.500000 0.842937
O O2 0.000000 0.438590 0.750000
O O3 0.853393 0.399704 0.996572
O O4 0.000000 0.500000 0.000000
O O5 0.180759 0.111106 0.093240
O O6 0.000000 0.052890 0.250000
O O7 0.250000 0.000000 0.151077
O O8 0.000000 0.000000 0.000000
O O9 0.243172 0.305771 0.344555
O O10 0.000000 0.357162 0.250000
O O11 0.006157 0.295541 0.526625
O O12 0.198923 0.773234 0.558234
O O13 0.000000 0.816622 0.750000
O O14 0.324264 0.804427 0.795216
#
# Coordination Sequence:
#
# PCOD9424414 Si02
#       5
#     8   8   8   8   8
#     4  12  28  50  79 113 153 205 266 325 394 471
#     4  11  27  48  75 110 152 207 265 327 397 466
#     4  12  27  49  74 112 154 197 251 319 391 477
#     4  11  26  47  71 110 153 194 259 314 384 477
#     4  12  23  47  72 106 154 193 249 312 386 464
#
# _framework density 24.301068000000001
#
# number of rings (size 3 to 8) (size 9 to 14) (size 15 to 20)
#    0.000    0.400    4.000    3.000   11.200    3.200 
#    0.000    1.000    0.000    0.000    0.000    0.000 
#    0.000    0.000    0.000    0.000    0.000    0.000 
#
# Total GULP energy -222709.049372 kJ/mol
# GULP energy per Si atom -5567.726234 kJ/mol
# Density = 2.424576 g / cm^3
# Si number density = 24.301068 Si / 1000 Ang^3
#
#
#
# Elastic Constant Matrix: (Units=GPa)
#
#
# Indices 1 2 3 4 5 6 
#
# 1 71.4103 29.8577 12.3761 0.0000 0.0000 0.0000
# 2 29.8577 146.6547 47.0120 0.0000 0.0000 0.0000
# 3 12.3761 47.0120 74.5137 0.0000 0.0000 0.0000
# 4 0.0000 0.0000 0.0000 158.8322 0.0000 0.0000
# 5 0.0000 0.0000 0.0000 0.0000 33.4949 0.0000
# 6 0.0000 0.0000 0.0000 0.0000 0.0000 22.0679
#
#
#
# Elastic Compliance Matrix: (Units=1/GPa)
#
#
# Indices 1 2 3 4 5 6 
#
# 1 0.015338 -0.002891 -0.000724 0.000000 0.000000 0.000000
# 2 -0.002891 0.009092 -0.005256 0.000000 0.000000 0.000000
# 3 -0.000724 -0.005256 0.016857 0.000000 0.000000 0.000000
# 4 0.000000 0.000000 0.000000 0.006296 0.000000 0.000000
# 5 0.000000 0.000000 0.000000 0.000000 0.029855 0.000000
# 6 0.000000 0.000000 0.000000 0.000000 0.000000 0.045315
#
#
# Mechanical properties :
#
#
# Convention : Reuss Voigt Hill
#
# Bulk Modulus (GPa) = 42.47120 52.34116 47.40618
# Shear Modulus (GPa) = 33.70578 56.43451 45.07015
#
# Velocity S-wave (km/s) = 3.72830 4.82426 4.31124
# Velocity P-wave (km/s) = 6.00405 7.25374 6.65828
#
# Compressibility (1/GPa) = 0.02354537
#
# Stress axis : x y z
#
# Youngs Moduli (GPa) = 65.19919 109.98402 59.32304
#
# Poissons Ratio (x) = 0.31792 0.04293
# Poissons Ratio (y) = 0.18847 0.31182
# Poissons Ratio (z) = 0.04719 0.57811
#
# Static dielectric constant tensor:
#      x y z
#    x 1.949510 0.000000 0.000000 
#    y 0.000000 2.123770 0.000000 
#    z 0.000000 0.000000 1.945250 
# 
# From -- ./inp_files/2534.got.cif
#   From: 2010.05.17/outbox.cif.g08.bks.cpg/sg54_2_cif.got.tgz:2534.got - 2010.06.03 13:09:01.
