data_PCOD9424948
_publ_section_title
;
Structure prediction by ZEFSAII (Michael W. Deem and Ramdas Pophale) SiO2 
 PCOD9424948
Probable space group: P B A M
;
_chemical_formula_sum "Si O2"
_cell_formula_units_Z 48
_cell_length_a 9.223400
_cell_length_b 18.470907
_cell_length_c 13.150651
_cell_angle_alpha 90.000000
_cell_angle_beta 90.000000
_cell_angle_gamma 90.000000
_cell_volume 2240.404919
_symmetry_space_group_name_H-M "P B A M"
_symmetry_group_IT_number 55
_symmetry_cell_setting 'orthorhombic'
loop_
_space_group_symop_operation_xyz
x,y,z
-x,-y,z
1/2+x,1/2-y,-z
1/2-x,1/2+y,-z
-x,-y,-z
x,y,-z
1/2-x,1/2+y,z
1/2+x,1/2-y,z
loop_
_atom_site_type_symbol
_atom_site_label
_atom_site_fract_x
_atom_site_fract_y
_atom_site_fract_z
Si Si1 0.430397 0.594449 0.882519
Si Si2 0.639515 0.715158 0.886010
Si Si3 0.149545 0.633645 0.214078
Si Si4 0.428266 0.427067 0.674973
Si Si5 0.846686 0.644793 0.284257
Si Si6 0.355942 0.700433 0.382211
O O1 0.479002 0.679229 0.879414
O O2 0.269330 0.583622 0.839581
O O3 0.541727 0.567117 0.796917
O O4 0.444047 0.572381 0.000000
O O5 0.625989 0.798885 0.861049
O O6 0.749020 0.677980 0.807108
O O7 0.691832 0.702403 0.000000
O O8 0.229155 0.667163 0.312738
O O9 0.991982 0.606940 0.245046
O O10 0.500000 0.500000 0.630835
O O11 0.259646 0.411116 0.658861
O O12 0.510862 0.354788 0.637245
O O13 0.887060 0.717218 0.347700
O O14 0.317325 0.700103 0.500000
#
# Coordination Sequence:
#
# PCOD9424948 Si02
#       6
#     8   8   8   8   8   8
#     4   9  18  32  50  74 110 154 191 227 278 338
#     4   9  16  27  46  75 111 148 186 229 275 329
#     4  10  18  29  48  76 108 139 180 235 286 329
#     4  10  22  40  61  85 115 153 195 236 280 337
#     4  10  20  34  55  84 114 148 191 234 282 338
#     4  10  21  38  58  81 112 148 187 233 286 345
#
# _framework density 21.424697999999999
#
# number of rings (size 3 to 8) (size 9 to 14) (size 15 to 20)
#    0.000    2.333    0.000    5.500    0.000    6.000 
#    0.000    3.333    0.000    2.000    0.000    0.000 
#    0.000    0.000    0.000    0.000    0.000    0.000 
#
# Total GULP energy -267689.673338 kJ/mol
# GULP energy per Si atom -5576.868195 kJ/mol
# Density = 2.137593 g / cm^3
# Si number density = 21.424698 Si / 1000 Ang^3
#
#
#
# Elastic Constant Matrix: (Units=GPa)
#
#
# Indices 1 2 3 4 5 6 
#
# 1 121.2661 26.0974 -8.9248 0.0000 0.0000 0.0000
# 2 26.0974 55.6016 12.4053 0.0000 0.0000 0.0000
# 3 -8.9248 12.4053 89.0870 0.0000 0.0000 0.0000
# 4 0.0000 0.0000 0.0000 -4.7886 0.0000 0.0000
# 5 0.0000 0.0000 0.0000 0.0000 5.4116 0.0000
# 6 0.0000 0.0000 0.0000 0.0000 0.0000 14.8600
#
#
#
# Elastic Compliance Matrix: (Units=1/GPa)
#
#
# Indices 1 2 3 4 5 6 
#
# 1 0.009390 -0.004765 0.001604 0.000000 0.000000 0.000000
# 2 -0.004765 0.020980 -0.003399 0.000000 0.000000 0.000000
# 3 0.001604 -0.003399 0.011859 0.000000 0.000000 0.000000
# 4 0.000000 0.000000 0.000000 -0.208830 0.000000 0.000000
# 5 0.000000 0.000000 0.000000 0.000000 0.184789 0.000000
# 6 0.000000 0.000000 0.000000 0.000000 0.000000 0.067295
#
#
# Mechanical properties :
#
#
# Convention : Reuss Voigt Hill
#
# Bulk Modulus (GPa) = 34.35328 36.12340 35.23834
# Shear Modulus (GPa) = 46.16584 18.85505 32.51044
#
# Velocity S-wave (km/s) = 4.64701 2.96980 3.89964
# Velocity P-wave (km/s) = 6.69793 5.35321 6.06296
#
# Compressibility (1/GPa) = 0.02910930
#
# Stress axis : x y z
#
# Youngs Moduli (GPa) = 106.49737 47.66440 84.32430
#
# Poissons Ratio (x) = 0.22713 -0.13528
# Poissons Ratio (y) = 0.50748 0.28660
# Poissons Ratio (z) = -0.17085 0.16200
#
# Static dielectric constant tensor:
#      x y z
#    x 1.821470 0.000000 0.000000 
#    y 0.000000 1.862800 0.000000 
#    z 0.000000 0.000000 1.787180 
# 
# From -- ./inp_files/17489.got.cif
#   From: 2010.05.17/outbox.cif.g08.bks.cpg/sg55_9_cif.got.tgz:17489.got - 2010.06.03 13:27:54.
