data_PCOD9424820
_publ_section_title
;
Structure prediction by ZEFSAII (Michael W. Deem and Ramdas Pophale) SiO2 
 PCOD9424820
Probable space group: P B A M
;
_chemical_formula_sum "Si O2"
_cell_formula_units_Z 64
_cell_length_a 21.548986
_cell_length_b 19.806679
_cell_length_c 7.758677
_cell_angle_alpha 90.000000
_cell_angle_beta 90.000000
_cell_angle_gamma 90.000000
_cell_volume 3311.510789
_symmetry_space_group_name_H-M "P B A M"
_symmetry_group_IT_number 55
_symmetry_cell_setting 'orthorhombic'
loop_
_space_group_symop_operation_xyz
x,y,z
-x,-y,z
1/2+x,1/2-y,-z
1/2-x,1/2+y,-z
-x,-y,-z
x,y,-z
1/2-x,1/2+y,z
1/2+x,1/2-y,z
loop_
_atom_site_type_symbol
_atom_site_label
_atom_site_fract_x
_atom_site_fract_y
_atom_site_fract_z
Si Si1 0.115319 0.828748 0.295236
Si Si2 0.385653 0.176822 0.206982
Si Si3 0.936162 0.030590 0.204988
Si Si4 0.188086 0.466045 0.798510
Si Si5 0.257128 0.830776 0.703227
Si Si6 0.437173 0.036096 0.788412
Si Si7 0.242959 0.179628 0.792090
Si Si8 0.811427 0.959336 0.211490
O O1 0.118746 0.834358 0.500000
O O2 0.094508 0.752642 0.253472
O O3 0.072914 0.889533 0.230595
O O4 0.186258 0.837403 0.226335
O O5 0.427126 0.113921 0.266007
O O6 0.314176 0.168099 0.268304
O O7 0.383769 0.173360 0.000000
O O8 0.874552 0.993515 0.274164
O O9 0.936536 0.018234 0.000000
O O10 0.000000 0.000000 0.276011
O O11 0.197935 0.386332 0.782349
O O12 0.123833 0.495103 0.729080
O O13 0.250685 0.499999 0.727156
O O14 0.187364 0.484618 0.000000
O O15 0.255189 0.843455 0.500000
O O16 0.276476 0.753791 0.733958
O O17 0.500000 0.000000 0.730063
O O18 0.438578 0.035380 0.000000
O O19 0.199458 0.118140 0.737506
O O20 0.244543 0.179478 0.000000
O O21 0.812153 0.962152 0.000000
#
# Coordination Sequence:
#
# PCOD9424820 Si02
#       8
#     8   8   8   8   8   8   8   8
#     4  10  20  33  50  73 101 133 168 207 250 300
#     4   9  16  29  51  75  98 128 165 205 249 297
#     4  10  20  34  53  77 103 132 167 210 254 298
#     4  10  17  30  53  76  99 131 165 203 252 299
#     4  10  20  32  47  74 105 131 165 210 254 298
#     4   9  17  30  51  81 108 129 164 212 255 296
#     4   9  16  29  50  74  97 127 166 207 251 299
#     4   9  16  29  51  76  98 122 163 208 247 295
#
# _framework density 19.326525
#
# number of rings (size 3 to 8) (size 9 to 14) (size 15 to 20)
#    0.000    2.500    2.500    0.750    0.000    1.250 
#    0.000    3.125    0.000    9.000    0.000    0.000 
#    0.000    0.000    0.000    0.000    0.000    0.000 
#
# Total GULP energy -356972.172926 kJ/mol
# GULP energy per Si atom -5577.690202 kJ/mol
# Density = 1.928254 g / cm^3
# Si number density = 19.326525 Si / 1000 Ang^3
#
#
#
# Elastic Constant Matrix: (Units=GPa)
#
#
# Indices 1 2 3 4 5 6 
#
# 1 137.8807 96.6061 9.7926 0.0000 0.0000 0.0000
# 2 96.6061 153.7189 -7.8510 0.0000 0.0000 0.0000
# 3 9.7926 -7.8510 23.4601 0.0000 0.0000 0.0000
# 4 0.0000 0.0000 0.0000 -91.4535 0.0000 0.0000
# 5 0.0000 0.0000 0.0000 0.0000 3.5731 0.0000
# 6 0.0000 0.0000 0.0000 0.0000 0.0000 29.6540
#
#
#
# Elastic Compliance Matrix: (Units=1/GPa)
#
#
# Indices 1 2 3 4 5 6 
#
# 1 0.014757 -0.009756 -0.009425 0.000000 0.000000 0.000000
# 2 -0.009756 0.013068 0.008445 0.000000 0.000000 0.000000
# 3 -0.009425 0.008445 0.049386 0.000000 0.000000 0.000000
# 4 0.000000 0.000000 0.000000 -0.010935 0.000000 0.000000
# 5 0.000000 0.000000 0.000000 0.000000 0.279866 0.000000
# 6 0.000000 0.000000 0.000000 0.000000 0.000000 0.033722
#
#
# Mechanical properties :
#
#
# Convention : Reuss Voigt Hill
#
# Bulk Modulus (GPa) = 17.94015 56.90614 37.42315
# Shear Modulus (GPa) = 11.90716 2.78884 7.34800
#
# Velocity S-wave (km/s) = 2.48484 1.20256 1.95199
# Velocity P-wave (km/s) = 4.18753 5.60684 4.94834
#
# Compressibility (1/GPa) = 0.05574090
#
# Stress axis : x y z
#
# Youngs Moduli (GPa) = 67.76249 76.52366 20.24866
#
# Poissons Ratio (x) = 0.74655 0.19084
# Poissons Ratio (y) = 0.66108 -0.17101
# Poissons Ratio (z) = 0.63865 -0.64628
#
# Static dielectric constant tensor:
#      x y z
#    x 1.666640 0.000000 0.000000 
#    y 0.000000 1.676030 0.000000 
#    z 0.000000 0.000000 1.700640 
# 
# From -- ./inp_files/8949.got.cif
#   From: 2010.05.17/outbox.cif.g08.bks.cpg/sg55_5_cif.got.tgz:8949.got - 2010.06.03 13:27:54.
