data_PCOD9424932
_publ_section_title
;
Structure prediction by ZEFSAII (Michael W. Deem and Ramdas Pophale) SiO2 
 PCOD9424932
Probable space group: P B A M
;
_chemical_formula_sum "Si O2"
_cell_formula_units_Z 56
_cell_length_a 14.048889
_cell_length_b 33.383376
_cell_length_c 7.767580
_cell_angle_alpha 90.000000
_cell_angle_beta 90.000000
_cell_angle_gamma 90.000000
_cell_volume 3642.989923
_symmetry_space_group_name_H-M "P B A M"
_symmetry_group_IT_number 55
_symmetry_cell_setting 'orthorhombic'
loop_
_space_group_symop_operation_xyz
x,y,z
-x,-y,z
1/2+x,1/2-y,-z
1/2-x,1/2+y,-z
-x,-y,-z
x,y,-z
1/2-x,1/2+y,z
1/2+x,1/2-y,z
loop_
_atom_site_type_symbol
_atom_site_label
_atom_site_fract_x
_atom_site_fract_y
_atom_site_fract_z
Si Si1 0.412349 0.223086 0.200649
Si Si2 0.603544 0.608477 0.702611
Si Si3 0.122351 0.267681 0.791260
Si Si4 0.620231 0.456419 0.000000
Si Si5 0.319018 0.305271 0.296925
Si Si6 0.889161 0.047746 0.000000
Si Si7 0.780995 0.814770 0.209472
Si Si8 0.623813 0.397764 0.694739
O O1 0.518171 0.220560 0.275110
O O2 0.376989 0.269072 0.210838
O O3 0.325279 0.196726 0.271677
O O4 0.419912 0.212113 0.000000
O O5 0.625414 0.601403 0.500000
O O6 0.648362 0.650789 0.758593
O O7 0.635781 0.573212 0.829926
O O8 0.488817 0.611424 0.717493
O O9 0.208099 0.296400 0.735652
O O10 0.151967 0.222579 0.738153
O O11 0.120379 0.267534 0.000000
O O12 0.504562 0.455812 0.000000
O O13 0.649941 0.502691 0.000000
O O14 0.650951 0.431365 0.832927
O O15 0.338282 0.302426 0.500000
O O16 0.819657 0.856722 0.275133
O O17 0.780775 0.815799 0.000000
O O18 0.637611 0.411973 0.500000
#
# Coordination Sequence:
#
# PCOD9424932 Si02
#       8
#     8   8   8   4   8   4   8   8
#     4   9  18  30  44  62  86 119 156 191 221 254
#     4   9  19  30  43  68  92 116 152 183 215 264
#     4   9  18  30  44  62  86 120 156 188 223 256
#     4   9  18  32  44  69  89 111 153 177 214 274
#     4  10  19  29  42  63  90 118 151 188 220 260
#     4   9  18  30  50  63  87 123 141 177 226 262
#     4   9  16  27  42  62  89 118 153 191 219 258
#     4  10  18  29  46  65  91 121 147 183 221 259
#
# _framework density 15.371988999999999
#
# number of rings (size 3 to 8) (size 9 to 14) (size 15 to 20)
#    0.000    2.714    0.714    2.143    2.000    3.429 
#    0.000    2.857    0.000    0.000    0.000    0.000 
#    0.000    2.286    0.000    4.429    0.000    0.286 
#
# Total GULP energy -312080.242675 kJ/mol
# GULP energy per Si atom -5572.861476 kJ/mol
# Density = 1.533700 g / cm^3
# Si number density = 15.371989 Si / 1000 Ang^3
#
#
#
# Elastic Constant Matrix: (Units=GPa)
#
#
# Indices 1 2 3 4 5 6 
#
# 1 58.1712 28.5165 18.7187 0.0000 0.0000 0.0000
# 2 28.5165 115.8067 41.2976 0.0000 0.0000 0.0000
# 3 18.7187 41.2976 51.7338 0.0000 0.0000 0.0000
# 4 0.0000 0.0000 0.0000 -0.1187 0.0000 0.0000
# 5 0.0000 0.0000 0.0000 0.0000 11.2971 0.0000
# 6 0.0000 0.0000 0.0000 0.0000 0.0000 18.0040
#
#
#
# Elastic Compliance Matrix: (Units=1/GPa)
#
#
# Indices 1 2 3 4 5 6 
#
# 1 0.020336 -0.003332 -0.004698 0.000000 0.000000 0.000000
# 2 -0.003332 0.012617 -0.008866 0.000000 0.000000 0.000000
# 3 -0.004698 -0.008866 0.028107 0.000000 0.000000 0.000000
# 4 0.000000 0.000000 0.000000 -8.428017 0.000000 0.000000
# 5 0.000000 0.000000 0.000000 0.000000 0.088519 0.000000
# 6 0.000000 0.000000 0.000000 0.000000 0.000000 0.055543
#
#
# Mechanical properties :
#
#
# Convention : Reuss Voigt Hill
#
# Bulk Modulus (GPa) = 36.67392 44.75302 40.71347
# Shear Modulus (GPa) = -0.61125 14.98176 7.18526
#
# Velocity S-wave (km/s) = -0.63127 3.12527 2.16435
# Velocity P-wave (km/s) = 4.83509 6.49612 5.72616
#
# Compressibility (1/GPa) = 0.02726733
#
# Stress axis : x y z
#
# Youngs Moduli (GPa) = 49.17416 79.25528 35.57774
#
# Poissons Ratio (x) = 0.26409 0.16715
# Poissons Ratio (y) = 0.16386 0.31545
# Poissons Ratio (z) = 0.23102 0.70272
#
# Static dielectric constant tensor:
#      x y z
#    x 1.511840 0.000000 0.000000 
#    y 0.000000 1.484150 0.000000 
#    z 0.000000 0.000000 1.554180 
# 
# From -- ./inp_files/6898.got.cif
#   From: 2010.05.17/outbox.cif.g08.bks.cpg/sg55_4_cif.got.tgz:6898.got - 2010.06.03 13:27:54.
