data_PCOD9424879
_publ_section_title
;
Structure prediction by ZEFSAII (Michael W. Deem and Ramdas Pophale) SiO2 
 PCOD9424879
Probable space group: P B A M
;
_chemical_formula_sum "Si O2"
_cell_formula_units_Z 56
_cell_length_a 29.945667
_cell_length_b 13.917335
_cell_length_c 9.091072
_cell_angle_alpha 90.000000
_cell_angle_beta 90.000000
_cell_angle_gamma 90.000000
_cell_volume 3788.830435
_symmetry_space_group_name_H-M "P B A M"
_symmetry_group_IT_number 55
_symmetry_cell_setting 'orthorhombic'
loop_
_space_group_symop_operation_xyz
x,y,z
-x,-y,z
1/2+x,1/2-y,-z
1/2-x,1/2+y,-z
-x,-y,-z
x,y,-z
1/2-x,1/2+y,z
1/2+x,1/2-y,z
loop_
_atom_site_type_symbol
_atom_site_label
_atom_site_fract_x
_atom_site_fract_y
_atom_site_fract_z
Si Si1 0.182326 0.225834 0.324238
Si Si2 0.503759 0.616522 0.669020
Si Si3 0.682220 0.716842 0.175821
Si Si4 0.906196 0.100784 0.175749
Si Si5 0.405373 0.607906 0.322240
Si Si6 0.228313 0.401481 0.175277
Si Si7 0.728124 0.892612 0.675197
O O1 0.182658 0.243882 0.500000
O O2 0.135371 0.177535 0.284157
O O3 0.194031 0.323195 0.239575
O O4 0.222556 0.151036 0.293100
O O5 0.500000 0.500000 0.669969
O O6 0.511405 0.646106 0.500000
O O7 0.546434 0.640592 0.766657
O O8 0.454416 0.648478 0.718296
O O9 0.635151 0.669173 0.215603
O O10 0.722391 0.642014 0.207831
O O11 0.693890 0.814347 0.260276
O O12 0.682872 0.734626 0.000000
O O13 0.899427 0.996001 0.248168
O O14 0.907234 0.090321 0.000000
O O15 0.405759 0.594636 0.500000
O O16 0.223124 0.504458 0.249899
O O17 0.223766 0.409222 0.000000
O O18 0.723381 0.900538 0.500000
#
# Coordination Sequence:
#
# PCOD9424879 Si02
#       7
#     8   8   8   8   8   8   8
#     4   9  18  31  46  65  87 113 148 182 211 249
#     4   8  15  27  41  59  85 116 145 172 211 259
#     4   9  19  32  44  62  88 118 148 175 212 258
#     4  10  18  27  42  64  89 116 146 180 213 250
#     4   9  17  29  44  62  88 119 145 175 215 256
#     4  10  19  31  46  63  88 118 144 176 216 257
#     4  10  19  30  46  66  87 113 146 183 215 247
#
# _framework density 14.780286
#
# number of rings (size 3 to 8) (size 9 to 14) (size 15 to 20)
#    0.000    2.714    0.000    3.000    0.000    5.429 
#    0.000    0.000    0.000    0.000    0.000    1.000 
#    0.000    8.000    0.000    0.000    0.000    0.000 
#
# Total GULP energy -312097.498851 kJ/mol
# GULP energy per Si atom -5573.169622 kJ/mol
# Density = 1.474665 g / cm^3
# Si number density = 14.780286 Si / 1000 Ang^3
#
#
#
# Elastic Constant Matrix: (Units=GPa)
#
#
# Indices 1 2 3 4 5 6 
#
# 1 140.1718 70.0139 54.0311 0.0000 0.0000 0.0000
# 2 70.0139 113.2531 56.9224 0.0000 0.0000 0.0000
# 3 54.0311 56.9224 47.6308 0.0000 0.0000 0.0000
# 4 0.0000 0.0000 0.0000 24.5580 0.0000 0.0000
# 5 0.0000 0.0000 0.0000 0.0000 23.2852 0.0000
# 6 0.0000 0.0000 0.0000 0.0000 0.0000 22.4391
#
#
#
# Elastic Compliance Matrix: (Units=1/GPa)
#
#
# Indices 1 2 3 4 5 6 
#
# 1 0.012784 -0.001538 -0.012663 0.000000 0.000000 0.000000
# 2 -0.001538 0.022296 -0.024900 0.000000 0.000000 0.000000
# 3 -0.012663 -0.024900 0.065117 0.000000 0.000000 0.000000
# 4 0.000000 0.000000 0.000000 0.040720 0.000000 0.000000
# 5 0.000000 0.000000 0.000000 0.000000 0.042946 0.000000
# 6 0.000000 0.000000 0.000000 0.000000 0.000000 0.044565
#
#
# Mechanical properties :
#
#
# Convention : Reuss Voigt Hill
#
# Bulk Modulus (GPa) = 45.46805 73.66562 59.56684
# Shear Modulus (GPa) = 15.92550 22.06235 18.99393
#
# Velocity S-wave (km/s) = 3.28606 3.86772 3.58870
# Velocity P-wave (km/s) = 6.72511 8.36029 7.58688
#
# Compressibility (1/GPa) = 0.02199347
#
# Stress axis : x y z
#
# Youngs Moduli (GPa) = 78.22545 44.85093 15.35696
#
# Poissons Ratio (x) = 0.06900 0.19446
# Poissons Ratio (y) = 0.12034 0.38239
# Poissons Ratio (z) = 0.99056 1.11681
#
# Static dielectric constant tensor:
#      x y z
#    x 1.503970 0.000000 0.000000 
#    y 0.000000 1.451500 0.000000 
#    z 0.000000 0.000000 1.492590 
# 
# From -- ./inp_files/6885.got.cif
#   From: 2010.05.17/outbox.cif.g08.bks.cpg/sg55_4_cif.got.tgz:6885.got - 2010.06.03 13:27:54.
