data_PCOD9424067
_publ_section_title
;
Structure prediction by ZEFSAII (Michael W. Deem and Ramdas Pophale) SiO2 
 PCOD9424067
Probable space group: P C C A
;
_chemical_formula_sum "Si O2"
_cell_formula_units_Z 24
_cell_length_a 25.684303
_cell_length_b 4.296567
_cell_length_c 5.934320
_cell_angle_alpha 90.000000
_cell_angle_beta 90.000000
_cell_angle_gamma 90.000000
_cell_volume 654.877900
_symmetry_space_group_name_H-M "P C C A"
_symmetry_group_IT_number 54
_symmetry_cell_setting 'orthorhombic'
loop_
_space_group_symop_operation_xyz
x,y,z
1/2-x,-y,z
1/2+x,-y,1/2-z
-x,y,1/2-z
-x,-y,-z
1/2+x,y,-z
1/2-x,y,1/2+z
x,-y,1/2+z
loop_
_atom_site_type_symbol
_atom_site_label
_atom_site_fract_x
_atom_site_fract_y
_atom_site_fract_z
Si Si1 0.208514 0.251954 0.127459
Si Si2 0.874391 0.757602 0.375211
Si Si3 0.543084 0.266156 0.896024
O O1 0.250000 0.500000 0.235411
O O2 0.333015 0.497207 0.021326
O O3 0.250000 0.000000 0.022489
O O4 0.167079 0.003250 0.234899
O O5 0.916679 0.511109 0.273323
O O6 0.915513 0.006937 0.482708
O O7 0.500000 0.072661 0.750000
O O8 0.500000 0.500000 0.000000
#
# Coordination Sequence:
#
# PCOD9424067 Si02
#       3
#     8   8   8
#     4   8  14  28  52  84 114 148 191 242 296 356
#     4   9  18  31  52  84 114 154 193 238 298 354
#     4  11  22  37  56  84 119 156 197 242 291 354
#
# _framework density 36.648046999999998
#
# number of rings (size 3 to 8) (size 9 to 14) (size 15 to 20)
#    0.000    2.667    0.000    2.000    0.000    0.000 
#    0.000    0.000    0.000    0.000    0.000  490.000 
#    0.000    0.000    0.000    0.667    0.000    0.000 
#
# Total GULP energy -133862.554073 kJ/mol
# GULP energy per Si atom -5577.606420 kJ/mol
# Density = 3.656463 g / cm^3
# Si number density = 36.648047 Si / 1000 Ang^3
#
#
#
# Elastic Constant Matrix: (Units=GPa)
#
#
# Indices 1 2 3 4 5 6 
#
# 1 578.8200 194.2389 114.6263 0.0000 0.0000 0.0000
# 2 194.2389 511.7677 95.9021 0.0000 0.0000 0.0000
# 3 114.6263 95.9021 81.8921 0.0000 0.0000 0.0000
# 4 0.0000 0.0000 0.0000 52.8271 0.0000 0.0000
# 5 0.0000 0.0000 0.0000 0.0000 66.5301 0.0000
# 6 0.0000 0.0000 0.0000 0.0000 0.0000 58.8942
#
#
#
# Elastic Compliance Matrix: (Units=1/GPa)
#
#
# Indices 1 2 3 4 5 6 
#
# 1 0.002443 -0.000367 -0.002990 0.000000 0.000000 0.000000
# 2 -0.000367 0.002559 -0.002483 0.000000 0.000000 0.000000
# 3 -0.002990 -0.002483 0.019303 0.000000 0.000000 0.000000
# 4 0.000000 0.000000 0.000000 0.018930 0.000000 0.000000
# 5 0.000000 0.000000 0.000000 0.000000 0.015031 0.000000
# 6 0.000000 0.000000 0.000000 0.000000 0.000000 0.016980
#
#
# Mechanical properties :
#
#
# Convention : Reuss Voigt Hill
#
# Bulk Modulus (GPa) = 79.20040 220.22380 149.71210
# Shear Modulus (GPa) = 54.86582 86.83112 70.84847
#
# Velocity S-wave (km/s) = 3.87344 4.87285 4.40160
# Velocity P-wave (km/s) = 6.45466 9.58549 8.17142
#
# Compressibility (1/GPa) = 0.01262620
#
# Stress axis : x y z
#
# Youngs Moduli (GPa) = 409.36190 390.85346 51.80520
#
# Poissons Ratio (x) = 0.14342 0.15488
# Poissons Ratio (y) = 0.15021 0.12861
# Poissons Ratio (z) = 1.22382 0.97033
#
# Static dielectric constant tensor:
#      x y z
#    x 2.580670 0.000000 0.000000 
#    y 0.000000 2.657450 0.000000 
#    z 0.000000 0.000000 4.725210 
# 
# From -- ./inp_files/8591.got.cif
#   From: 2010.05.17/outbox.cif.g08.bks.cpg/sg54_5_cif.got.tgz:8591.got - 2010.06.03 13:09:01.
