data_PCOD9424155
_publ_section_title
;
Structure prediction by ZEFSAII (Michael W. Deem and Ramdas Pophale) SiO2 
 PCOD9424155
Probable space group: P C C A
;
_chemical_formula_sum "Si O2"
_cell_formula_units_Z 32
_cell_length_a 13.617895
_cell_length_b 8.891157
_cell_length_c 11.893811
_cell_angle_alpha 90.000000
_cell_angle_beta 90.000000
_cell_angle_gamma 90.000000
_cell_volume 1440.088868
_symmetry_space_group_name_H-M "P C C A"
_symmetry_group_IT_number 54
_symmetry_cell_setting 'orthorhombic'
loop_
_space_group_symop_operation_xyz
x,y,z
1/2-x,-y,z
1/2+x,-y,1/2-z
-x,y,1/2-z
-x,-y,-z
1/2+x,y,-z
1/2-x,y,1/2+z
x,-y,1/2+z
loop_
_atom_site_type_symbol
_atom_site_label
_atom_site_fract_x
_atom_site_fract_y
_atom_site_fract_z
Si Si1 0.890050 0.180714 0.297563
Si Si2 0.285521 0.667493 0.786660
Si Si3 0.075307 0.147371 0.644319
Si Si4 0.939464 0.344655 0.508679
O O1 0.808085 0.220773 0.205124
O O2 0.886604 0.307651 0.392677
O O3 0.000000 0.187044 0.250000
O O4 0.878118 0.017986 0.355743
O O5 0.250000 0.500000 0.769383
O O6 0.344755 0.730864 0.680271
O O7 0.359232 0.660194 0.892251
O O8 0.000000 0.143535 0.750000
O O9 0.015615 0.209049 0.538202
O O10 0.000000 0.500000 0.500000
#
# Coordination Sequence:
#
# PCOD9424155 Si02
#       4
#     8   8   8   8
#     4  11  23  41  65  93 128 169 214 269 329 396
#     4  11  23  40  62  92 127 167 214 267 327 395
#     4   9  21  42  65  91 125 166 215 268 323 387
#     4  11  23  41  66  96 130 170 215 270 332 394
#
# _framework density 22.220851
#
# number of rings (size 3 to 8) (size 9 to 14) (size 15 to 20)
#    0.000    1.500    0.000    4.500    0.000    7.000 
#    0.000   10.000    0.000    0.000    0.000    0.000 
#    0.000    0.000    0.000    0.000    0.000    0.000 
#
# Total GULP energy -178804.783916 kJ/mol
# GULP energy per Si atom -5587.649497 kJ/mol
# Density = 2.217028 g / cm^3
# Si number density = 22.220851 Si / 1000 Ang^3
#
#
#
# Elastic Constant Matrix: (Units=GPa)
#
#
# Indices 1 2 3 4 5 6 
#
# 1 125.7337 51.0712 31.0821 0.0000 0.0000 0.0000
# 2 51.0712 148.5697 26.6788 0.0000 0.0000 0.0000
# 3 31.0821 26.6788 63.5122 0.0000 0.0000 0.0000
# 4 0.0000 0.0000 0.0000 19.1194 0.0000 0.0000
# 5 0.0000 0.0000 0.0000 0.0000 39.8769 0.0000
# 6 0.0000 0.0000 0.0000 0.0000 0.0000 36.6510
#
#
#
# Elastic Compliance Matrix: (Units=1/GPa)
#
#
# Indices 1 2 3 4 5 6 
#
# 1 0.010000 -0.002767 -0.003731 0.000000 0.000000 0.000000
# 2 -0.002767 0.008046 -0.002025 0.000000 0.000000 0.000000
# 3 -0.003731 -0.002025 0.018422 0.000000 0.000000 0.000000
# 4 0.000000 0.000000 0.000000 0.052303 0.000000 0.000000
# 5 0.000000 0.000000 0.000000 0.000000 0.025077 0.000000
# 6 0.000000 0.000000 0.000000 0.000000 0.000000 0.027284
#
#
# Mechanical properties :
#
#
# Convention : Reuss Voigt Hill
#
# Bulk Modulus (GPa) = 51.49524 61.71998 56.60761
# Shear Modulus (GPa) = 30.36687 34.39504 32.38095
#
# Velocity S-wave (km/s) = 3.70076 3.93857 3.82151
# Velocity P-wave (km/s) = 6.44092 6.96557 6.70837
#
# Compressibility (1/GPa) = 0.01941927
#
# Stress axis : x y z
#
# Youngs Moduli (GPa) = 100.00196 124.28755 54.28343
#
# Poissons Ratio (x) = 0.34396 0.20255
# Poissons Ratio (y) = 0.27675 0.10995
# Poissons Ratio (z) = 0.37314 0.25173
#
# Static dielectric constant tensor:
#      x y z
#    x 1.911670 0.000000 0.000000 
#    y 0.000000 1.815540 0.000000 
#    z 0.000000 0.000000 1.865010 
# 
# From -- ./inp_files/7904.got.cif
#   From: 2010.05.17/outbox.cif.g08.bks.cpg/sg54_4_cif.got.tgz:7904.got - 2010.06.03 13:09:01.
