data_PCOD9424412
_publ_section_title
;
Structure prediction by ZEFSAII (Michael W. Deem and Ramdas Pophale) SiO2 
 PCOD9424412
Probable space group: P C C A
;
_chemical_formula_sum "Si O2"
_cell_formula_units_Z 48
_cell_length_a 23.879090
_cell_length_b 5.263101
_cell_length_c 15.121059
_cell_angle_alpha 90.000000
_cell_angle_beta 90.000000
_cell_angle_gamma 90.000000
_cell_volume 1900.385397
_symmetry_space_group_name_H-M "P C C A"
_symmetry_group_IT_number 54
_symmetry_cell_setting 'orthorhombic'
loop_
_space_group_symop_operation_xyz
x,y,z
1/2-x,-y,z
1/2+x,-y,1/2-z
-x,y,1/2-z
-x,-y,-z
1/2+x,y,-z
1/2-x,y,1/2+z
x,-y,1/2+z
loop_
_atom_site_type_symbol
_atom_site_label
_atom_site_fract_x
_atom_site_fract_y
_atom_site_fract_z
Si Si1 0.359893 0.882314 0.622489
Si Si2 0.191530 0.931102 0.950552
Si Si3 0.812612 0.596656 0.805320
Si Si4 0.344682 0.430101 0.374744
Si Si5 0.048341 0.701064 0.484702
Si Si6 0.524037 0.018244 0.846656
O O1 0.328908 0.610541 0.621274
O O2 0.420918 0.843642 0.665339
O O3 0.359235 0.953564 0.518796
O O4 0.324676 0.111641 0.668725
O O5 0.181120 0.148253 0.877813
O O6 0.250000 0.000000 0.996295
O O7 0.194078 0.650836 0.913674
O O8 0.750000 0.500000 0.779785
O O9 0.853003 0.525772 0.723980
O O10 0.399518 0.423010 0.435144
O O11 0.000000 0.500000 0.500000
O O12 0.023178 0.902309 0.412294
O O13 0.054463 0.782599 0.587639
O O14 0.500000 0.087264 0.750000
#
# Coordination Sequence:
#
# PCOD9424412 Si02
#       6
#     8   8   8   8   8   8
#     4  12  26  46  70 103 145 186 241 300 368 441
#     4  12  24  44  71 102 141 190 240 294 364 441
#     4  12  26  45  70 104 143 188 242 302 368 444
#     4  12  26  46  73 105 146 191 241 304 367 443
#     4  11  26  46  74 107 148 192 253 314 372 454
#     4  11  26  47  73 107 146 198 249 311 383 447
#
# _framework density 25.258033000000001
#
# number of rings (size 3 to 8) (size 9 to 14) (size 15 to 20)
#    0.000    0.333    1.667    7.000    7.000    0.667 
#    0.000    0.000    0.000    0.000    0.000    0.000 
#    0.000    0.000    0.000    0.000    0.000    0.000 
#
# Total GULP energy -268046.597263 kJ/mol
# GULP energy per Si atom -5584.304110 kJ/mol
# Density = 2.520054 g / cm^3
# Si number density = 25.258033 Si / 1000 Ang^3
#
#
#
# Elastic Constant Matrix: (Units=GPa)
#
#
# Indices 1 2 3 4 5 6 
#
# 1 82.0087 22.5971 -0.4225 0.0000 0.0000 0.0000
# 2 22.5971 98.6678 26.1614 0.0000 0.0000 0.0000
# 3 -0.4225 26.1614 130.0740 0.0000 0.0000 0.0000
# 4 0.0000 0.0000 0.0000 34.2250 0.0000 0.0000
# 5 0.0000 0.0000 0.0000 0.0000 26.3503 0.0000
# 6 0.0000 0.0000 0.0000 0.0000 0.0000 39.3065
#
#
#
# Elastic Compliance Matrix: (Units=1/GPa)
#
#
# Indices 1 2 3 4 5 6 
#
# 1 0.013072 -0.003174 0.000681 0.000000 0.000000 0.000000
# 2 -0.003174 0.011477 -0.002319 0.000000 0.000000 0.000000
# 3 0.000681 -0.002319 0.008156 0.000000 0.000000 0.000000
# 4 0.000000 0.000000 0.000000 0.029218 0.000000 0.000000
# 5 0.000000 0.000000 0.000000 0.000000 0.037950 0.000000
# 6 0.000000 0.000000 0.000000 0.000000 0.000000 0.025441
#
#
# Mechanical properties :
#
#
# Convention : Reuss Voigt Hill
#
# Bulk Modulus (GPa) = 43.32526 45.26917 44.29721
# Shear Modulus (GPa) = 35.05505 37.47065 36.26285
#
# Velocity S-wave (km/s) = 3.72946 3.85582 3.79317
# Velocity P-wave (km/s) = 5.97792 6.14693 6.06301
#
# Compressibility (1/GPa) = 0.02308123
#
# Stress axis : x y z
#
# Youngs Moduli (GPa) = 76.49932 87.13252 122.60195
#
# Poissons Ratio (x) = 0.27659 -0.08348
# Poissons Ratio (y) = 0.24283 0.28426
# Poissons Ratio (z) = -0.05209 0.20203
#
# Static dielectric constant tensor:
#      x y z
#    x 2.659800 0.000000 0.000000 
#    y 0.000000 2.120170 0.000000 
#    z 0.000000 0.000000 2.064950 
# 
# From -- ./inp_files/15148.got.cif
#   From: 2010.05.17/outbox.cif.g08.bks.cpg/sg54_8_cif.got.tgz:15148.got - 2010.06.03 13:09:01.
