data_PCOD9424127
_publ_section_title
;
Structure prediction by ZEFSAII (Michael W. Deem and Ramdas Pophale) SiO2 
 PCOD9424127
Probable space group: P C C A
;
_chemical_formula_sum "Si O2"
_cell_formula_units_Z 36
_cell_length_a 15.249365
_cell_length_b 8.595205
_cell_length_c 13.843284
_cell_angle_alpha 90.000000
_cell_angle_beta 90.000000
_cell_angle_gamma 90.000000
_cell_volume 1814.458868
_symmetry_space_group_name_H-M "P C C A"
_symmetry_group_IT_number 54
_symmetry_cell_setting 'orthorhombic'
loop_
_space_group_symop_operation_xyz
x,y,z
1/2-x,-y,z
1/2+x,-y,1/2-z
-x,y,1/2-z
-x,-y,-z
1/2+x,y,-z
1/2-x,y,1/2+z
x,-y,1/2+z
loop_
_atom_site_type_symbol
_atom_site_label
_atom_site_fract_x
_atom_site_fract_y
_atom_site_fract_z
Si Si1 0.122647 0.282253 0.610395
Si Si2 0.000000 0.517234 0.250000
Si Si3 0.959936 0.045954 0.352550
Si Si4 0.394636 0.291048 0.893054
Si Si5 0.786567 0.174989 0.273906
O O1 0.062360 0.380553 0.682059
O O2 0.125788 0.345589 0.501235
O O3 0.216608 0.266802 0.662316
O O4 0.081184 0.108455 0.602666
O O5 0.943592 0.413830 0.175650
O O6 0.878976 0.160777 0.329797
O O7 0.000000 0.994663 0.250000
O O8 0.038269 0.143868 0.399479
O O9 0.309135 0.241433 0.831630
O O10 0.750000 0.000000 0.262621
#
# Coordination Sequence:
#
# PCOD9424127 Si02
#       5
#     8   4   8   8   8
#     4  11  23  39  65  95 120 165 212 248 311 365
#     4  12  24  42  60  90 136 160 206 250 302 384
#     4   9  17  40  67  91 123 158 204 264 299 355
#     4  11  22  43  65  88 125 170 201 253 314 364
#     4   9  20  39  64  94 126 149 207 268 299 352
#
# _framework density 19.840626
#
# number of rings (size 3 to 8) (size 9 to 14) (size 15 to 20)
#    0.000    1.778    4.444    1.333    0.000    3.556 
#    4.000    2.222    0.000    0.000    0.000    0.000 
#    0.000    0.000    0.000    0.000    0.000    0.000 
#
# Total GULP energy -200857.213113 kJ/mol
# GULP energy per Si atom -5579.367031 kJ/mol
# Density = 1.979547 g / cm^3
# Si number density = 19.840626 Si / 1000 Ang^3
#
#
#
# Elastic Constant Matrix: (Units=GPa)
#
#
# Indices 1 2 3 4 5 6 
#
# 1 89.4573 26.4134 84.9596 0.0000 0.0000 0.0000
# 2 26.4134 46.8535 40.1246 0.0000 0.0000 0.0000
# 3 84.9596 40.1246 186.0682 0.0000 0.0000 0.0000
# 4 0.0000 0.0000 0.0000 16.8925 0.0000 0.0000
# 5 0.0000 0.0000 0.0000 0.0000 12.7622 0.0000
# 6 0.0000 0.0000 0.0000 0.0000 0.0000 20.9427
#
#
#
# Elastic Compliance Matrix: (Units=1/GPa)
#
#
# Indices 1 2 3 4 5 6 
#
# 1 0.020429 -0.004328 -0.008395 0.000000 0.000000 0.000000
# 2 -0.004328 0.027094 -0.003867 0.000000 0.000000 0.000000
# 3 -0.008395 -0.003867 0.010041 0.000000 0.000000 0.000000
# 4 0.000000 0.000000 0.000000 0.059198 0.000000 0.000000
# 5 0.000000 0.000000 0.000000 0.000000 0.078356 0.000000
# 6 0.000000 0.000000 0.000000 0.000000 0.000000 0.047749
#
#
# Mechanical properties :
#
#
# Convention : Reuss Voigt Hill
#
# Bulk Modulus (GPa) = 41.00655 69.48604 55.24629
# Shear Modulus (GPa) = 17.59480 21.51157 19.55319
#
# Velocity S-wave (km/s) = 2.98116 3.29632 3.14269
# Velocity P-wave (km/s) = 5.70636 7.04172 6.40891
#
# Compressibility (1/GPa) = 0.02438635
#
# Stress axis : x y z
#
# Youngs Moduli (GPa) = 48.95010 36.90826 99.58879
#
# Poissons Ratio (x) = 0.15972 0.83602
# Poissons Ratio (y) = 0.21184 0.38508
# Poissons Ratio (z) = 0.41092 0.14271
#
# Static dielectric constant tensor:
#      x y z
#    x 1.708520 0.000000 0.000000 
#    y 0.000000 1.716300 0.000000 
#    z 0.000000 0.000000 1.691820 
# 
# From -- ./inp_files/13122.got.cif
#   From: 2010.05.17/outbox.cif.g08.bks.cpg/sg54_7_cif.got.tgz:13122.got - 2010.06.03 13:09:01.
