data_PCOD9424230
_publ_section_title
;
Structure prediction by ZEFSAII (Michael W. Deem and Ramdas Pophale) SiO2 
 PCOD9424230
Probable space group: P C C A
;
_chemical_formula_sum "Si O2"
_cell_formula_units_Z 48
_cell_length_a 17.744494
_cell_length_b 8.177380
_cell_length_c 14.912442
_cell_angle_alpha 90.000000
_cell_angle_beta 90.000000
_cell_angle_gamma 90.000000
_cell_volume 2163.847086
_symmetry_space_group_name_H-M "P C C A"
_symmetry_group_IT_number 54
_symmetry_cell_setting 'orthorhombic'
loop_
_space_group_symop_operation_xyz
x,y,z
1/2-x,-y,z
1/2+x,-y,1/2-z
-x,y,1/2-z
-x,-y,-z
1/2+x,y,-z
1/2-x,y,1/2+z
x,-y,1/2+z
loop_
_atom_site_type_symbol
_atom_site_label
_atom_site_fract_x
_atom_site_fract_y
_atom_site_fract_z
Si Si1 0.406262 0.665802 0.992062
Si Si2 0.018980 0.777550 0.148993
Si Si3 0.742006 0.807333 0.599191
Si Si4 0.830690 0.665447 0.438622
Si Si5 0.545085 0.843926 0.334314
Si Si6 0.777666 0.813651 0.799797
O O1 0.366769 0.506870 0.033447
O O2 0.452084 0.751372 0.071983
O O3 0.467294 0.663731 0.913138
O O4 0.337357 0.764925 0.946695
O O5 0.104172 0.754572 0.116967
O O6 0.000000 0.730072 0.250000
O O7 0.009806 0.975617 0.146699
O O8 0.806369 0.740830 0.533637
O O9 0.751316 0.751309 0.701959
O O10 0.750000 0.000000 0.603442
O O11 0.757944 0.694221 0.374655
O O12 0.500000 0.772311 0.250000
O O13 0.632626 0.835285 0.304881
O O14 0.750000 0.000000 0.816104
#
# Coordination Sequence:
#
# PCOD9424230 Si02
#       6
#     8   8   8   8   8   8
#     4  12  26  46  69 109 148 194 237 304 385 452
#     4  11  25  46  74 104 148 189 247 305 373 444
#     4  11  25  43  74 102 139 190 252 306 364 433
#     4  12  24  47  71 106 147 190 238 304 379 453
#     4  11  25  43  73 107 145 195 255 307 368 445
#     4  11  23  46  76 105 140 191 254 307 364 436
#
# _framework density 22.182714000000001
#
# number of rings (size 3 to 8) (size 9 to 14) (size 15 to 20)
#    0.000    0.667    3.333    4.000    9.333    0.667 
#    9.000    0.000    0.000    0.000    0.000    0.000 
#    0.000    0.000    0.000    0.000    0.000    0.000 
#
# Total GULP energy -268161.841515 kJ/mol
# GULP energy per Si atom -5586.705032 kJ/mol
# Density = 2.213222 g / cm^3
# Si number density = 22.182714 Si / 1000 Ang^3
#
#
#
# Elastic Constant Matrix: (Units=GPa)
#
#
# Indices 1 2 3 4 5 6 
#
# 1 98.2210 16.7867 41.6360 0.0000 0.0000 0.0000
# 2 16.7867 58.7758 60.6327 0.0000 0.0000 0.0000
# 3 41.6360 60.6327 184.8290 0.0000 0.0000 0.0000
# 4 0.0000 0.0000 0.0000 34.1972 0.0000 0.0000
# 5 0.0000 0.0000 0.0000 0.0000 70.9942 0.0000
# 6 0.0000 0.0000 0.0000 0.0000 0.0000 30.5067
#
#
#
# Elastic Compliance Matrix: (Units=1/GPa)
#
#
# Indices 1 2 3 4 5 6 
#
# 1 0.011288 -0.000908 -0.002245 0.000000 0.000000 0.000000
# 2 -0.000908 0.025790 -0.008256 0.000000 0.000000 0.000000
# 3 -0.002245 -0.008256 0.008624 0.000000 0.000000 0.000000
# 4 0.000000 0.000000 0.000000 0.029242 0.000000 0.000000
# 5 0.000000 0.000000 0.000000 0.000000 0.014086 0.000000
# 6 0.000000 0.000000 0.000000 0.000000 0.000000 0.032780
#
#
# Mechanical properties :
#
#
# Convention : Reuss Voigt Hill
#
# Bulk Modulus (GPa) = 43.69740 64.43738 54.06739
# Shear Modulus (GPa) = 32.83965 41.99098 37.41532
#
# Velocity S-wave (km/s) = 3.85179 4.35554 4.11139
# Velocity P-wave (km/s) = 6.28676 7.37603 6.85307
#
# Compressibility (1/GPa) = 0.02288466
#
# Stress axis : x y z
#
# Youngs Moduli (GPa) = 88.59017 38.77526 115.95055
#
# Poissons Ratio (x) = 0.03521 0.26030
# Poissons Ratio (y) = 0.08044 0.95725
# Poissons Ratio (z) = 0.19888 0.32012
#
# Static dielectric constant tensor:
#      x y z
#    x 1.585130 0.000000 0.000000 
#    y 0.000000 1.836460 0.000000 
#    z 0.000000 0.000000 1.794950 
# 
# From -- ./inp_files/14097.got.cif
#   From: 2010.05.17/outbox.cif.g08.bks.cpg/sg54_8_cif.got.tgz:14097.got - 2010.06.03 13:09:01.
