data_PCOD9424815
_publ_section_title
;
Structure prediction by ZEFSAII (Michael W. Deem and Ramdas Pophale) SiO2 
 PCOD9424815
Probable space group: P B A M
;
_chemical_formula_sum "Si O2"
_cell_formula_units_Z 56
_cell_length_a 24.840212
_cell_length_b 8.397727
_cell_length_c 11.835729
_cell_angle_alpha 90.000000
_cell_angle_beta 90.000000
_cell_angle_gamma 90.000000
_cell_volume 2468.948681
_symmetry_space_group_name_H-M "P B A M"
_symmetry_group_IT_number 55
_symmetry_cell_setting 'orthorhombic'
loop_
_space_group_symop_operation_xyz
x,y,z
-x,-y,z
1/2+x,1/2-y,-z
1/2-x,1/2+y,-z
-x,-y,-z
x,y,-z
1/2-x,1/2+y,z
1/2+x,1/2-y,z
loop_
_atom_site_type_symbol
_atom_site_label
_atom_site_fract_x
_atom_site_fract_y
_atom_site_fract_z
Si Si1 0.060579 0.871540 0.371460
Si Si2 0.346455 0.517715 0.247826
Si Si3 0.626834 0.953686 0.332874
Si Si4 0.783995 0.735507 0.868906
Si Si5 0.530106 0.158600 0.633953
Si Si6 0.166809 0.681137 0.124344
Si Si7 0.741333 0.059219 0.372404
O O1 0.056132 0.927755 0.500000
O O2 0.095937 0.998428 0.304493
O O3 0.095472 0.705087 0.371535
O O4 0.003128 0.811635 0.323780
O O5 0.335633 0.659131 0.161011
O O6 0.338982 0.353977 0.179132
O O7 0.299081 0.518793 0.343036
O O8 0.592840 0.112057 0.358028
O O9 0.687718 0.950247 0.378219
O O10 0.634613 0.941702 0.199093
O O11 0.730890 0.848412 0.876319
O O12 0.772135 0.651082 0.746391
O O13 0.787879 0.669354 0.000000
O O14 0.518959 0.164381 0.500000
O O15 0.500000 0.000000 0.680492
O O16 0.145599 0.684234 0.000000
O O17 0.744959 0.132847 0.500000
#
# Coordination Sequence:
#
# PCOD9424815 Si02
#       7
#     8   8   8   8   8   8   8
#     4   9  17  29  49  75 103 135 166 200 255 315
#     4  10  19  33  49  73  98 135 168 214 251 302
#     4  10  17  30  49  74 104 132 158 207 258 307
#     4  10  21  37  52  69 100 143 180 208 244 309
#     4   8  14  26  46  71  98 132 166 197 245 315
#     4   9  18  31  49  71  95 128 169 207 250 303
#     4  11  22  32  48  79 109 134 163 211 267 306
#
# _framework density 22.681718
#
# number of rings (size 3 to 8) (size 9 to 14) (size 15 to 20)
#    0.000    2.429    1.429    3.000    0.000    2.286 
#    0.000    0.000    0.000   12.429    0.000    4.000 
#    0.000    0.000    0.000    0.000    0.000    0.000 
#
# Total GULP energy -311883.025422 kJ/mol
# GULP energy per Si atom -5569.339740 kJ/mol
# Density = 2.263009 g / cm^3
# Si number density = 22.681718 Si / 1000 Ang^3
#
#
#
# Elastic Constant Matrix: (Units=GPa)
#
#
# Indices 1 2 3 4 5 6 
#
# 1 117.8058 27.6456 36.7285 0.0000 0.0000 0.0000
# 2 27.6456 50.9867 34.0995 0.0000 0.0000 0.0000
# 3 36.7285 34.0995 157.2045 0.0000 0.0000 0.0000
# 4 0.0000 0.0000 0.0000 15.4001 0.0000 0.0000
# 5 0.0000 0.0000 0.0000 0.0000 25.0780 0.0000
# 6 0.0000 0.0000 0.0000 0.0000 0.0000 41.3109
#
#
#
# Elastic Compliance Matrix: (Units=1/GPa)
#
#
# Indices 1 2 3 4 5 6 
#
# 1 0.009966 -0.004499 -0.001352 0.000000 0.000000 0.000000
# 2 -0.004499 0.024972 -0.004366 0.000000 0.000000 0.000000
# 3 -0.001352 -0.004366 0.007624 0.000000 0.000000 0.000000
# 4 0.000000 0.000000 0.000000 0.064935 0.000000 0.000000
# 5 0.000000 0.000000 0.000000 0.000000 0.039876 0.000000
# 6 0.000000 0.000000 0.000000 0.000000 0.000000 0.024207
#
#
# Mechanical properties :
#
#
# Convention : Reuss Voigt Hill
#
# Bulk Modulus (GPa) = 45.19213 58.10491 51.64852
# Shear Modulus (GPa) = 25.07652 31.52603 28.30128
#
# Velocity S-wave (km/s) = 3.32864 3.73222 3.53619
# Velocity P-wave (km/s) = 5.89414 6.65175 6.28437
#
# Compressibility (1/GPa) = 0.02212775
#
# Stress axis : x y z
#
# Youngs Moduli (GPa) = 100.34077 40.04464 131.16343
#
# Poissons Ratio (x) = 0.18017 0.17740
# Poissons Ratio (y) = 0.45145 0.57260
# Poissons Ratio (z) = 0.13571 0.17482
#
# Static dielectric constant tensor:
#      x y z
#    x 1.908400 0.000000 0.000000 
#    y 0.000000 2.005270 0.000000 
#    z 0.000000 0.000000 1.831760 
# 
# From -- ./inp_files/16032.got.cif
#   From: 2010.05.17/outbox.cif.g08.bks.cpg/sg55_9_cif.got.tgz:16032.got - 2010.06.03 13:27:54.
