data_PCOD9424020
_publ_section_title
;
Structure prediction by ZEFSAII (Michael W. Deem and Ramdas Pophale) SiO2 
 PCOD9424020
Probable space group: P C C A
;
_chemical_formula_sum "Si O2"
_cell_formula_units_Z 32
_cell_length_a 16.952868
_cell_length_b 7.669005
_cell_length_c 9.617410
_cell_angle_alpha 90.000000
_cell_angle_beta 90.000000
_cell_angle_gamma 90.000000
_cell_volume 1250.375145
_symmetry_space_group_name_H-M "P C C A"
_symmetry_group_IT_number 54
_symmetry_cell_setting 'orthorhombic'
loop_
_space_group_symop_operation_xyz
x,y,z
1/2-x,-y,z
1/2+x,-y,1/2-z
-x,y,1/2-z
-x,-y,-z
1/2+x,y,-z
1/2-x,y,1/2+z
x,-y,1/2+z
loop_
_atom_site_type_symbol
_atom_site_label
_atom_site_fract_x
_atom_site_fract_y
_atom_site_fract_z
Si Si1 0.438803 0.818033 0.423056
Si Si2 0.177467 0.369431 0.024399
Si Si3 0.886951 0.050499 0.361763
Si Si4 0.415098 0.549482 0.772961
O O1 0.532041 0.860158 0.423852
O O2 0.399815 0.937296 0.302203
O O3 0.431082 0.622670 0.368425
O O4 0.393137 0.864348 0.564303
O O5 0.250000 0.500000 0.011165
O O6 0.143506 0.344182 0.869762
O O7 0.183782 0.176920 0.091628
O O8 0.121353 0.470629 0.133946
O O9 0.500000 0.635198 0.750000
#
# Coordination Sequence:
#
# PCOD9424020 Si02
#       4
#     8   8   8   8
#     4   9  17  34  57  87 118 146 205 253 297 360
#     4  11  23  39  59  88 128 163 204 259 325 377
#     4   9  18  34  56  88 118 155 194 256 308 362
#     4  11  21  39  60  90 120 165 212 264 302 374
#
# _framework density 25.592317999999999
#
# number of rings (size 3 to 8) (size 9 to 14) (size 15 to 20)
#    0.000    2.000    5.000    1.500    0.000    2.000 
#    4.500    1.250    0.000    6.000    0.000    0.000 
#    0.000    0.000    0.000    0.000    0.000    0.000 
#
# Total GULP energy -179018.489404 kJ/mol
# GULP energy per Si atom -5594.327794 kJ/mol
# Density = 2.553407 g / cm^3
# Si number density = 25.592318 Si / 1000 Ang^3
#
#
#
# Elastic Constant Matrix: (Units=GPa)
#
#
# Indices 1 2 3 4 5 6 
#
# 1 75.9580 14.9445 19.1806 0.0000 0.0000 0.0000
# 2 14.9445 78.8896 3.6664 0.0000 0.0000 0.0000
# 3 19.1806 3.6664 106.4885 0.0000 0.0000 0.0000
# 4 0.0000 0.0000 0.0000 33.1199 0.0000 0.0000
# 5 0.0000 0.0000 0.0000 0.0000 20.8530 0.0000
# 6 0.0000 0.0000 0.0000 0.0000 0.0000 16.1970
#
#
#
# Elastic Compliance Matrix: (Units=1/GPa)
#
#
# Indices 1 2 3 4 5 6 
#
# 1 0.014304 -0.002594 -0.002487 0.000000 0.000000 0.000000
# 2 -0.002594 0.013167 0.000014 0.000000 0.000000 0.000000
# 3 -0.002487 0.000014 0.009838 0.000000 0.000000 0.000000
# 4 0.000000 0.000000 0.000000 0.030193 0.000000 0.000000
# 5 0.000000 0.000000 0.000000 0.000000 0.047955 0.000000
# 6 0.000000 0.000000 0.000000 0.000000 0.000000 0.061740
#
#
# Mechanical properties :
#
#
# Convention : Reuss Voigt Hill
#
# Bulk Modulus (GPa) = 36.79973 37.43547 37.11760
# Shear Modulus (GPa) = 25.45970 28.93694 27.19832
#
# Velocity S-wave (km/s) = 3.15750 3.36622 3.26353
# Velocity P-wave (km/s) = 5.26341 5.45600 5.36057
#
# Compressibility (1/GPa) = 0.02717411
#
# Stress axis : x y z
#
# Youngs Moduli (GPa) = 69.91275 75.94922 101.64499
#
# Poissons Ratio (x) = 0.19701 0.25279
# Poissons Ratio (y) = 0.18135 -0.00141
# Poissons Ratio (z) = 0.17387 -0.00106
#
# Static dielectric constant tensor:
#      x y z
#    x 2.035290 0.000000 0.000000 
#    y 0.000000 2.100640 0.000000 
#    z 0.000000 0.000000 1.991260 
# 
# From -- ./inp_files/3254.got.cif
#   From: 2010.05.17/outbox.cif.g08.bks.cpg/sg54_2_cif.got.tgz:3254.got - 2010.06.03 13:09:01.
