data_PCOD9424739
_publ_section_title
;
Structure prediction by ZEFSAII (Michael W. Deem and Ramdas Pophale) SiO2 
 PCOD9424739
Probable space group: P B A M
;
_chemical_formula_sum "Si O2"
_cell_formula_units_Z 54
_cell_length_a 5.326411
_cell_length_b 14.382573
_cell_length_c 31.385427
_cell_angle_alpha 90.000000
_cell_angle_beta 90.000000
_cell_angle_gamma 90.000000
_cell_volume 2404.358943
_symmetry_space_group_name_H-M "P B A M"
_symmetry_group_IT_number 55
_symmetry_cell_setting 'orthorhombic'
loop_
_space_group_symop_operation_xyz
x,y,z
-x,-y,z
1/2+x,1/2-y,-z
1/2-x,1/2+y,-z
-x,-y,-z
x,y,-z
1/2-x,1/2+y,z
1/2+x,1/2-y,z
loop_
_atom_site_type_symbol
_atom_site_label
_atom_site_fract_x
_atom_site_fract_y
_atom_site_fract_z
Si Si1 0.202694 0.190640 0.128836
Si Si2 0.000000 0.000000 0.500000
Si Si3 0.631294 0.088753 0.429061
Si Si4 0.355415 0.134381 0.687822
Si Si5 0.360128 0.195322 0.500000
Si Si6 0.250335 0.062486 0.047200
Si Si7 0.713331 0.812792 0.220589
Si Si8 0.145238 0.848068 0.654333
O O1 0.418985 0.270060 0.128577
O O2 0.244739 0.130982 0.086878
O O3 0.251990 0.140562 0.174334
O O4 0.831260 0.052029 0.462914
O O5 0.417940 0.137269 0.457758
O O6 0.756716 0.154178 0.394020
O O7 0.500000 0.000000 0.407915
O O8 0.275532 0.126937 0.736803
O O9 0.635417 0.099481 0.679998
O O10 0.385063 0.245027 0.674684
O O11 0.124514 0.104417 0.658480
O O12 0.077210 0.228184 0.500000
O O13 0.500000 0.000000 0.049913
O O14 0.252370 0.108087 0.000000
O O15 0.000000 0.000000 0.049302
O O16 0.443656 0.760931 0.222534
#
# Coordination Sequence:
#
# PCOD9424739 Si02
#       8
#     8   2   8   8   4   8   8   8
#     4  10  21  33  57  91 120 158 211 265 318 373
#     4  10  24  48  64  78 116 170 192 224 294 376
#     4  11  27  45  66  89 130 167 193 236 310 362
#     4  10  18  35  55  94 117 148 191 258 285 334
#     4  11  28  43  68  94 120 147 200 249 273 339
#     4  10  21  38  58  81 119 169 215 261 324 390
#     4  10  16  31  52  84 121 156 190 246 312 363
#     4  10  21  33  62  85 117 150 199 234 286 344
#
# _framework density 22.459206999999999
#
# number of rings (size 3 to 8) (size 9 to 14) (size 15 to 20)
#    0.000    1.778    2.963    1.778   10.370    0.593 
#    0.000    0.000    0.000    2.667    0.000    0.000 
#    0.000    0.000    0.000    0.000    0.000    0.000 
#
# Total GULP energy -301147.059807 kJ/mol
# GULP energy per Si atom -5576.797404 kJ/mol
# Density = 2.240809 g / cm^3
# Si number density = 22.459207 Si / 1000 Ang^3
#
#
#
# Elastic Constant Matrix: (Units=GPa)
#
#
# Indices 1 2 3 4 5 6 
#
# 1 129.7975 12.8623 -6.2793 0.0000 0.0000 0.0000
# 2 12.8623 26.8414 17.7609 0.0000 0.0000 0.0000
# 3 -6.2793 17.7609 155.7028 0.0000 0.0000 0.0000
# 4 0.0000 0.0000 0.0000 14.3994 0.0000 0.0000
# 5 0.0000 0.0000 0.0000 0.0000 55.3215 0.0000
# 6 0.0000 0.0000 0.0000 0.0000 0.0000 28.5386
#
#
#
# Elastic Compliance Matrix: (Units=1/GPa)
#
#
# Indices 1 2 3 4 5 6 
#
# 1 0.008189 -0.004481 0.000841 0.000000 0.000000 0.000000
# 2 -0.004481 0.042749 -0.005057 0.000000 0.000000 0.000000
# 3 0.000841 -0.005057 0.007033 0.000000 0.000000 0.000000
# 4 0.000000 0.000000 0.000000 0.069447 0.000000 0.000000
# 5 0.000000 0.000000 0.000000 0.000000 0.018076 0.000000
# 6 0.000000 0.000000 0.000000 0.000000 0.000000 0.035040
#
#
# Mechanical properties :
#
#
# Convention : Reuss Voigt Hill
#
# Bulk Modulus (GPa) = 24.64364 40.11441 32.37903
# Shear Modulus (GPa) = 23.64574 38.85177 31.24875
#
# Velocity S-wave (km/s) = 3.24825 4.16370 3.73414
# Velocity P-wave (km/s) = 5.00646 6.40429 5.74803
#
# Compressibility (1/GPa) = 0.04057842
#
# Stress axis : x y z
#
# Youngs Moduli (GPa) = 122.11428 23.39218 142.18106
#
# Poissons Ratio (x) = 0.10482 -0.11963
# Poissons Ratio (y) = 0.54718 0.71902
# Poissons Ratio (z) = -0.10275 0.11830
#
# Static dielectric constant tensor:
#      x y z
#    x 2.209810 0.000000 0.000000 
#    y 0.000000 1.981050 0.000000 
#    z 0.000000 0.000000 1.821240 
# 
# From -- ./inp_files/24086.got.cif
#   From: 2010.05.17/outbox.cif.g08.bks.cpg/sg55_13_cif.got.tgz:24086.got - 2010.06.03 13:27:54.
