data_PCOD9424060
_publ_section_title
;
Structure prediction by ZEFSAII (Michael W. Deem and Ramdas Pophale) SiO2 
 PCOD9424060
Probable space group: P C C A
;
_chemical_formula_sum "Si O2"
_cell_formula_units_Z 56
_cell_length_a 14.931493
_cell_length_b 13.916731
_cell_length_c 12.574670
_cell_angle_alpha 90.000000
_cell_angle_beta 90.000000
_cell_angle_gamma 90.000000
_cell_volume 2612.985889
_symmetry_space_group_name_H-M "P C C A"
_symmetry_group_IT_number 54
_symmetry_cell_setting 'orthorhombic'
loop_
_space_group_symop_operation_xyz
x,y,z
1/2-x,-y,z
1/2+x,-y,1/2-z
-x,y,1/2-z
-x,-y,-z
1/2+x,y,-z
1/2-x,y,1/2+z
x,-y,1/2+z
loop_
_atom_site_type_symbol
_atom_site_label
_atom_site_fract_x
_atom_site_fract_y
_atom_site_fract_z
Si Si1 0.253040 0.261912 0.783775
Si Si2 0.983767 0.539132 0.123342
Si Si3 0.927778 0.739364 0.339676
Si Si4 0.272476 0.110009 0.941458
Si Si5 0.528863 0.889005 0.018610
Si Si6 0.853736 0.772465 0.911237
Si Si7 0.798072 0.406524 0.548788
O O1 0.169933 0.281904 0.706642
O O2 0.225811 0.164613 0.844393
O O3 0.339164 0.245950 0.712329
O O4 0.264621 0.342055 0.874679
O O5 0.877726 0.556103 0.122649
O O6 0.000000 0.503596 0.250000
O O7 0.037533 0.639009 0.114063
O O8 0.000000 0.500000 0.000000
O O9 0.937070 0.830275 0.415795
O O10 0.000000 0.760763 0.250000
O O11 0.250000 0.000000 0.951496
O O12 0.378262 0.115219 0.917201
O O13 0.229125 0.163893 0.042872
O O14 0.444535 0.828867 0.062286
O O15 0.500000 0.000000 0.000000
O O16 0.842654 0.669113 0.968020
O O17 0.750000 0.500000 0.501006
#
# Coordination Sequence:
#
# PCOD9424060 Si02
#       7
#     8   8   8   8   8   8   8
#     4  11  24  43  69  95 142 191 238 306 380 456
#     4  11  24  43  73 108 144 191 260 319 395 476
#     4  11  21  45  71  95 135 195 246 300 385 463
#     4  11  24  42  66 104 142 183 248 298 366 464
#     4  12  24  42  72 102 142 187 240 311 381 458
#     4  11  24  45  68 102 140 191 238 311 378 453
#     4  11  25  44  70 100 138 193 246 306 389 462
#
# _framework density 21.431421
#
# number of rings (size 3 to 8) (size 9 to 14) (size 15 to 20)
#    0.000    0.857    7.143    0.857    2.000    4.000 
#    0.000    0.000    0.000    0.000    0.000    0.000 
#    0.000    0.000    0.000    0.000    0.000    0.000 
#
# Total GULP energy -311869.280500 kJ/mol
# GULP energy per Si atom -5569.094295 kJ/mol
# Density = 2.138264 g / cm^3
# Si number density = 21.431421 Si / 1000 Ang^3
#
#
#
# Elastic Constant Matrix: (Units=GPa)
#
#
# Indices 1 2 3 4 5 6 
#
# 1 82.9103 24.2854 -1.7851 0.0000 0.0000 0.0000
# 2 24.2854 84.6366 19.4312 0.0000 0.0000 0.0000
# 3 -1.7851 19.4312 83.8995 0.0000 0.0000 0.0000
# 4 0.0000 0.0000 0.0000 -64.7720 0.0000 0.0000
# 5 0.0000 0.0000 0.0000 0.0000 15.5187 0.0000
# 6 0.0000 0.0000 0.0000 0.0000 0.0000 35.4159
#
#
#
# Elastic Compliance Matrix: (Units=1/GPa)
#
#
# Indices 1 2 3 4 5 6 
#
# 1 0.013287 -0.004095 0.001231 0.000000 0.000000 0.000000
# 2 -0.004095 0.013741 -0.003270 0.000000 0.000000 0.000000
# 3 0.001231 -0.003270 0.012702 0.000000 0.000000 0.000000
# 4 0.000000 0.000000 0.000000 -0.015439 0.000000 0.000000
# 5 0.000000 0.000000 0.000000 0.000000 0.064438 0.000000
# 6 0.000000 0.000000 0.000000 0.000000 0.000000 0.028236
#
#
# Mechanical properties :
#
#
# Convention : Reuss Voigt Hill
#
# Bulk Modulus (GPa) = 36.41210 37.25659 36.83435
# Shear Modulus (GPa) = 36.13032 11.20018 23.66525
#
# Velocity S-wave (km/s) = 4.11037 2.28854 3.32660
# Velocity P-wave (km/s) = 6.28918 4.94015 5.65504
#
# Compressibility (1/GPa) = 0.02746339
#
# Stress axis : x y z
#
# Youngs Moduli (GPa) = 75.25984 72.77515 78.72496
#
# Poissons Ratio (x) = 0.29803 -0.09693
# Poissons Ratio (y) = 0.30821 0.25740
# Poissons Ratio (z) = -0.09266 0.23794
#
# Static dielectric constant tensor:
#      x y z
#    x 1.813070 0.000000 0.000000 
#    y 0.000000 1.794710 0.000000 
#    z 0.000000 0.000000 1.872470 
# 
# From -- ./inp_files/8458.got.cif
#   From: 2010.05.17/outbox.cif.g08.bks.cpg/sg54_5_cif.got.tgz:8458.got - 2010.06.03 13:09:01.
