data_PCOD9424319
_publ_section_title
;
Structure prediction by ZEFSAII (Michael W. Deem and Ramdas Pophale) SiO2 
 PCOD9424319
Probable space group: P C C A
;
_chemical_formula_sum "Si O2"
_cell_formula_units_Z 40
_cell_length_a 9.688147
_cell_length_b 20.763169
_cell_length_c 8.743781
_cell_angle_alpha 90.000000
_cell_angle_beta 90.000000
_cell_angle_gamma 90.000000
_cell_volume 1758.869550
_symmetry_space_group_name_H-M "P C C A"
_symmetry_group_IT_number 54
_symmetry_cell_setting 'orthorhombic'
loop_
_space_group_symop_operation_xyz
x,y,z
1/2-x,-y,z
1/2+x,-y,1/2-z
-x,y,1/2-z
-x,-y,-z
1/2+x,y,-z
1/2-x,y,1/2+z
x,-y,1/2+z
loop_
_atom_site_type_symbol
_atom_site_label
_atom_site_fract_x
_atom_site_fract_y
_atom_site_fract_z
Si Si1 0.805676 0.152835 0.440566
Si Si2 0.460238 0.931132 0.569117
Si Si3 0.843301 0.769446 0.214304
Si Si4 0.858731 0.555243 0.664674
Si Si5 0.134733 0.627150 0.150369
O O1 0.693641 0.095366 0.461302
O O2 0.765781 0.179420 0.277098
O O3 0.812260 0.220375 0.536825
O O4 0.948100 0.120208 0.477943
O O5 0.500000 0.932353 0.750000
O O6 0.500000 0.000000 0.500000
O O7 0.838185 0.700885 0.297364
O O8 0.000000 0.791230 0.250000
O O9 0.750000 0.500000 0.609722
O O10 0.889089 0.604438 0.524205
O O11 0.769536 0.590722 0.792837
O O12 0.000000 0.533985 0.750000
O O13 0.000000 0.609306 0.250000
#
# Coordination Sequence:
#
# PCOD9424319 Si02
#       5
#     8   8   8   8   8
#     4  12  22  47  69  98 140 180 233 293 356 417
#     4  12  28  46  68 103 138 181 238 293 351 429
#     4  11  24  46  69 103 141 180 235 296 348 424
#     4  12  26  47  74 111 146 194 242 295 364 426
#     4  11  25  46  73 105 148 189 244 301 357 434
#
# _framework density 22.741879999999998
#
# number of rings (size 3 to 8) (size 9 to 14) (size 15 to 20)
#    0.000    0.400    4.000    4.200    2.800    5.600 
#    3.600    1.000    0.000    0.000    0.000    0.000 
#    0.000    0.000    0.000    0.000    0.000    0.000 
#
# Total GULP energy -223008.926244 kJ/mol
# GULP energy per Si atom -5575.223156 kJ/mol
# Density = 2.269012 g / cm^3
# Si number density = 22.741880 Si / 1000 Ang^3
#
#
#
# Elastic Constant Matrix: (Units=GPa)
#
#
# Indices 1 2 3 4 5 6 
#
# 1 71.8119 -2.3641 6.5830 0.0000 0.0000 0.0000
# 2 -2.3641 114.9057 10.5568 0.0000 0.0000 0.0000
# 3 6.5830 10.5568 66.6938 0.0000 0.0000 0.0000
# 4 0.0000 0.0000 0.0000 38.7266 0.0000 0.0000
# 5 0.0000 0.0000 0.0000 0.0000 31.0962 0.0000
# 6 0.0000 0.0000 0.0000 0.0000 0.0000 32.6067
#
#
#
# Elastic Compliance Matrix: (Units=1/GPa)
#
#
# Indices 1 2 3 4 5 6 
#
# 1 0.014073 0.000423 -0.001456 0.000000 0.000000 0.000000
# 2 0.000423 0.008844 -0.001442 0.000000 0.000000 0.000000
# 3 -0.001456 -0.001442 0.015366 0.000000 0.000000 0.000000
# 4 0.000000 0.000000 0.000000 0.025822 0.000000 0.000000
# 5 0.000000 0.000000 0.000000 0.000000 0.032158 0.000000
# 6 0.000000 0.000000 0.000000 0.000000 0.000000 0.030669
#
#
# Mechanical properties :
#
#
# Convention : Reuss Voigt Hill
#
# Bulk Modulus (GPa) = 29.99975 31.44032 30.72003
# Shear Modulus (GPa) = 34.96716 36.39494 35.68105
#
# Velocity S-wave (km/s) = 3.92544 4.00478 3.96530
# Velocity P-wave (km/s) = 5.81080 5.93626 5.87387
#
# Compressibility (1/GPa) = 0.03333362
#
# Stress axis : x y z
#
# Youngs Moduli (GPa) = 71.05968 113.07161 65.07952
#
# Poissons Ratio (x) = -0.04786 0.09476
# Poissons Ratio (y) = -0.03008 0.09382
# Poissons Ratio (z) = 0.10347 0.16301
#
# Static dielectric constant tensor:
#      x y z
#    x 1.727530 0.000000 0.000000 
#    y 0.000000 1.955920 0.000000 
#    z 0.000000 0.000000 1.730450 
# 
# From -- ./inp_files/2521.got.cif
#   From: 2010.05.17/outbox.cif.g08.bks.cpg/sg54_2_cif.got.tgz:2521.got - 2010.06.03 13:09:01.
