data_PCOD9424962
_publ_section_title
;
Structure prediction by ZEFSAII (Michael W. Deem and Ramdas Pophale) SiO2 
 PCOD9424962
Probable space group: P B A M
;
_chemical_formula_sum "Si O2"
_cell_formula_units_Z 48
_cell_length_a 9.074274
_cell_length_b 16.073172
_cell_length_c 14.564587
_cell_angle_alpha 90.000000
_cell_angle_beta 90.000000
_cell_angle_gamma 90.000000
_cell_volume 2124.279485
_symmetry_space_group_name_H-M "P B A M"
_symmetry_group_IT_number 55
_symmetry_cell_setting 'orthorhombic'
loop_
_space_group_symop_operation_xyz
x,y,z
-x,-y,z
1/2+x,1/2-y,-z
1/2-x,1/2+y,-z
-x,-y,-z
x,y,-z
1/2-x,1/2+y,z
1/2+x,1/2-y,z
loop_
_atom_site_type_symbol
_atom_site_label
_atom_site_fract_x
_atom_site_fract_y
_atom_site_fract_z
Si Si1 0.655839 0.567371 0.690546
Si Si2 0.806404 0.326182 0.898156
Si Si3 0.914997 0.695512 0.330340
Si Si4 0.124814 0.570514 0.717324
Si Si5 0.489205 0.322470 0.172314
Si Si6 0.749410 0.775718 0.500000
Si Si7 0.984034 0.131478 0.500000
O O1 0.724884 0.475497 0.691633
O O2 0.560771 0.592732 0.779210
O O3 0.578755 0.588905 0.593251
O O4 0.794975 0.629463 0.704151
O O5 0.863725 0.385091 0.816103
O O6 0.862941 0.232746 0.875709
O O7 0.630236 0.331119 0.891891
O O8 0.857759 0.349600 0.000000
O O9 0.063517 0.642456 0.350771
O O10 0.956198 0.764789 0.256964
O O11 0.829234 0.737463 0.411518
O O12 0.000000 0.500000 0.718656
O O13 0.593822 0.724725 0.500000
O O14 0.836816 0.865124 0.500000
#
# Coordination Sequence:
#
# PCOD9424962 Si02
#       7
#     8   8   8   8   8   4   4
#     4  10  19  36  58  87 119 158 194 237 289 346
#     4  11  24  41  63  90 114 150 199 249 299 353
#     4   9  18  34  56  86 117 157 199 234 287 344
#     4   9  21  39  60  84 121 163 192 233 299 356
#     4  11  20  37  63  86 120 149 194 248 296 348
#     4  10  18  29  53  89 114 153 196 245 272 339
#     4  10  20  31  57  88 121 150 202 240 277 344
#
# _framework density 22.595896
#
# number of rings (size 3 to 8) (size 9 to 14) (size 15 to 20)
#    0.000    2.000    3.333    0.500    0.000    1.667 
#    0.000    5.833    0.000    3.000    0.000    0.000 
#    0.000    0.000    0.000    0.000    0.000    0.000 
#
# Total GULP energy -267849.172343 kJ/mol
# GULP energy per Si atom -5580.191090 kJ/mol
# Density = 2.254447 g / cm^3
# Si number density = 22.595896 Si / 1000 Ang^3
#
#
#
# Elastic Constant Matrix: (Units=GPa)
#
#
# Indices 1 2 3 4 5 6 
#
# 1 82.3445 8.9841 -9.1243 0.0000 0.0000 0.0000
# 2 8.9841 65.2695 1.0128 0.0000 0.0000 0.0000
# 3 -9.1243 1.0128 32.5182 0.0000 0.0000 0.0000
# 4 0.0000 0.0000 0.0000 13.5230 0.0000 0.0000
# 5 0.0000 0.0000 0.0000 0.0000 17.1455 0.0000
# 6 0.0000 0.0000 0.0000 0.0000 0.0000 41.6859
#
#
#
# Elastic Compliance Matrix: (Units=1/GPa)
#
#
# Indices 1 2 3 4 5 6 
#
# 1 0.012744 -0.001811 0.003632 0.000000 0.000000 0.000000
# 2 -0.001811 0.015586 -0.000993 0.000000 0.000000 0.000000
# 3 0.003632 -0.000993 0.031802 0.000000 0.000000 0.000000
# 4 0.000000 0.000000 0.000000 0.073948 0.000000 0.000000
# 5 0.000000 0.000000 0.000000 0.000000 0.058324 0.000000
# 6 0.000000 0.000000 0.000000 0.000000 0.000000 0.023989
#
#
# Mechanical properties :
#
#
# Convention : Reuss Voigt Hill
#
# Bulk Modulus (GPa) = 16.18422 20.20859 18.19640
# Shear Modulus (GPa) = 21.24650 26.42152 23.83401
#
# Velocity S-wave (km/s) = 3.06973 3.42322 3.25128
# Velocity P-wave (km/s) = 4.44323 4.95858 4.70796
#
# Compressibility (1/GPa) = 0.06178860
#
# Stress axis : x y z
#
# Youngs Moduli (GPa) = 78.46755 64.16126 31.44438
#
# Poissons Ratio (x) = 0.11617 -0.11422
# Poissons Ratio (y) = 0.14207 0.03124
# Poissons Ratio (z) = -0.28502 0.06374
#
# Static dielectric constant tensor:
#      x y z
#    x 1.952140 0.000000 0.000000 
#    y 0.000000 1.868780 0.000000 
#    z 0.000000 0.000000 1.857970 
# 
# From -- ./inp_files/17391.got.cif
#   From: 2010.05.17/outbox.cif.g08.bks.cpg/sg55_9_cif.got.tgz:17391.got - 2010.06.03 13:27:54.
