data_PCOD9424030
_publ_section_title
;
Structure prediction by ZEFSAII (Michael W. Deem and Ramdas Pophale) SiO2 
 PCOD9424030
Probable space group: P C C A
;
_chemical_formula_sum "Si O2"
_cell_formula_units_Z 36
_cell_length_a 13.521006
_cell_length_b 8.291342
_cell_length_c 15.860447
_cell_angle_alpha 90.000000
_cell_angle_beta 90.000000
_cell_angle_gamma 90.000000
_cell_volume 1778.071651
_symmetry_space_group_name_H-M "P C C A"
_symmetry_group_IT_number 54
_symmetry_cell_setting 'orthorhombic'
loop_
_space_group_symop_operation_xyz
x,y,z
1/2-x,-y,z
1/2+x,-y,1/2-z
-x,y,1/2-z
-x,-y,-z
1/2+x,y,-z
1/2-x,y,1/2+z
x,-y,1/2+z
loop_
_atom_site_type_symbol
_atom_site_label
_atom_site_fract_x
_atom_site_fract_y
_atom_site_fract_z
Si Si1 0.986756 0.621764 0.080435
Si Si2 0.285828 0.311615 0.716854
Si Si3 0.211747 0.817691 0.389235
Si Si4 0.500000 0.412825 0.750000
Si Si5 0.205384 0.319844 0.549618
O O1 0.094166 0.701691 0.080918
O O2 0.895677 0.748809 0.079626
O O3 0.979927 0.519908 0.166757
O O4 0.000000 0.500000 0.000000
O O5 0.250000 0.500000 0.716661
O O6 0.226216 0.231182 0.792466
O O7 0.401677 0.310896 0.735258
O O8 0.268381 0.238341 0.624224
O O9 0.285771 0.730142 0.453518
O O10 0.250000 0.000000 0.396965
O O11 0.250000 0.500000 0.548574
#
# Coordination Sequence:
#
# PCOD9424030 Si02
#       5
#     8   8   8   4   8
#     4  12  21  37  67  93 120 169 223 271 320 389
#     4  11  21  40  66  94 121 164 222 276 314 381
#     4  12  26  41  60  95 139 171 203 269 350 403
#     4  12  20  36  68  98 116 158 226 274 318 370
#     4  11  21  40  65  95 120 164 230 277 313 386
#
# _framework density 20.246652999999998
#
# number of rings (size 3 to 8) (size 9 to 14) (size 15 to 20)
#    0.000    0.444    8.889    2.000    0.000    1.778 
#    0.000    3.333    0.000    0.000    0.000    0.000 
#    0.000    0.000    0.000    0.000    0.000    0.000 
#
# Total GULP energy -200586.775906 kJ/mol
# GULP energy per Si atom -5571.854886 kJ/mol
# Density = 2.020057 g / cm^3
# Si number density = 20.246653 Si / 1000 Ang^3
#
#
#
# Elastic Constant Matrix: (Units=GPa)
#
#
# Indices 1 2 3 4 5 6 
#
# 1 92.3235 12.3061 -27.6659 0.0000 0.0000 0.0000
# 2 12.3061 57.3005 14.3153 0.0000 0.0000 0.0000
# 3 -27.6659 14.3153 102.1077 0.0000 0.0000 0.0000
# 4 0.0000 0.0000 0.0000 10.5546 0.0000 0.0000
# 5 0.0000 0.0000 0.0000 0.0000 38.3428 0.0000
# 6 0.0000 0.0000 0.0000 0.0000 0.0000 15.1409
#
#
#
# Elastic Compliance Matrix: (Units=1/GPa)
#
#
# Indices 1 2 3 4 5 6 
#
# 1 0.012486 -0.003655 0.003895 0.000000 0.000000 0.000000
# 2 -0.003655 0.019155 -0.003676 0.000000 0.000000 0.000000
# 3 0.003895 -0.003676 0.011364 0.000000 0.000000 0.000000
# 4 0.000000 0.000000 0.000000 0.094746 0.000000 0.000000
# 5 0.000000 0.000000 0.000000 0.000000 0.026081 0.000000
# 6 0.000000 0.000000 0.000000 0.000000 0.000000 0.066046
#
#
# Mechanical properties :
#
#
# Convention : Reuss Voigt Hill
#
# Bulk Modulus (GPa) = 27.67378 27.73809 27.70594
# Shear Modulus (GPa) = 20.09701 29.65940 24.87821
#
# Velocity S-wave (km/s) = 3.15399 3.83156 3.50917
# Velocity P-wave (km/s) = 5.19245 5.77099 5.48934
#
# Compressibility (1/GPa) = 0.03613528
#
# Stress axis : x y z
#
# Youngs Moduli (GPa) = 80.09009 52.20552 87.99435
#
# Poissons Ratio (x) = 0.19080 -0.34278
# Poissons Ratio (y) = 0.29271 0.32344
# Poissons Ratio (z) = -0.31199 0.19189
#
# Static dielectric constant tensor:
#      x y z
#    x 1.732190 0.000000 0.000000 
#    y 0.000000 1.674280 0.000000 
#    z 0.000000 0.000000 1.782400 
# 
# From -- ./inp_files/13114.got.cif
#   From: 2010.05.17/outbox.cif.g08.bks.cpg/sg54_7_cif.got.tgz:13114.got - 2010.06.03 13:09:01.
