data_PCOD9424653
_publ_section_title
;
Structure prediction by ZEFSAII (Michael W. Deem and Ramdas Pophale) SiO2 
 PCOD9424653
Probable space group: P C C A
;
_chemical_formula_sum "Si O2"
_cell_formula_units_Z 48
_cell_length_a 18.000000
_cell_length_b 9.000000
_cell_length_c 15.000000
_cell_angle_alpha 90.000000
_cell_angle_beta 90.000000
_cell_angle_gamma 90.000000
_cell_volume 2430.000000
_symmetry_space_group_name_H-M "P C C A"
_symmetry_group_IT_number 54
_symmetry_cell_setting 'orthorhombic'
loop_
_space_group_symop_operation_xyz
x,y,z
1/2-x,-y,z
1/2+x,-y,1/2-z
-x,y,1/2-z
-x,-y,-z
1/2+x,y,-z
1/2-x,y,1/2+z
x,-y,1/2+z
loop_
_atom_site_type_symbol
_atom_site_label
_atom_site_fract_x
_atom_site_fract_y
_atom_site_fract_z
Si Si1 0.970180 0.330730 0.030369
Si Si2 0.621156 0.192817 0.904871
Si Si3 0.917900 0.172883 0.206606
Si Si4 0.680553 0.888596 0.707199
Si Si5 0.232061 0.677723 0.460141
Si Si6 0.644887 0.837563 0.914053
O O1 0.921232 0.293263 0.123815
O O2 0.040015 0.230713 0.058264
O O3 0.928108 0.252864 0.947104
O O4 0.000000 0.500000 0.000000
O O5 0.626812 0.219903 0.797528
O O6 0.639092 0.017987 0.922733
O O7 0.669652 0.305191 0.963702
O O8 0.000000 0.153669 0.250000
O O9 0.884931 0.008960 0.180465
O O10 0.703309 0.767687 0.629503
O O11 0.662946 0.820446 0.806849
O O12 0.750000 0.000000 0.717799
O O13 0.250000 0.500000 0.445058
O O14 0.296370 0.770657 0.513594
#
# Coordination Sequence:
#
# PCOD9424653 Si02
#       6
#     8   8   8   8   8   8
#     4  11  22  40  65  96 131 164 202 259 322 376
#     4  10  21  41  67  91 121 167 213 256 304 368
#     4   9  20  39  67  94 121 163 212 260 305 364
#     4  11  23  41  66  93 122 166 218 263 307 371
#     4  12  25  41  63  94 131 166 203 261 325 375
#     4  11  23  42  67  92 122 166 218 259 305 374
#
# _framework density 19.753086
#
# number of rings (size 3 to 8) (size 9 to 14) (size 15 to 20)
#    0.000    1.333    0.000    7.000    0.000    3.333 
#    0.000   16.667    0.000    0.000    0.000    0.000 
#    0.000    0.000    0.000    0.000    0.000    0.000 
#
# Total GULP energy -267239.213094 kJ/mol
# GULP energy per Si atom -5567.483606 kJ/mol
# Density = 1.970813 g / cm^3
# Si number density = 19.753086 Si / 1000 Ang^3
#
#
#
# Elastic Constant Matrix: (Units=GPa)
#
#
# Indices 1 2 3 4 5 6 
#
# 1 60.3410 24.9746 42.4849 0.0000 0.0000 0.0000
# 2 24.9746 149.0407 85.7699 0.0000 0.0000 0.0000
# 3 42.4849 85.7699 190.4129 0.0000 0.0000 0.0000
# 4 0.0000 0.0000 0.0000 39.9990 0.0000 0.0000
# 5 0.0000 0.0000 0.0000 0.0000 41.3054 0.0000
# 6 0.0000 0.0000 0.0000 0.0000 0.0000 41.2031
#
#
#
# Elastic Compliance Matrix: (Units=1/GPa)
#
#
# Indices 1 2 3 4 5 6 
#
# 1 0.019781 -0.001046 -0.003942 0.000000 0.000000 0.000000
# 2 -0.001046 0.009113 -0.003871 0.000000 0.000000 0.000000
# 3 -0.003942 -0.003871 0.007875 0.000000 0.000000 0.000000
# 4 0.000000 0.000000 0.000000 0.025001 0.000000 0.000000
# 5 0.000000 0.000000 0.000000 0.000000 0.024210 0.000000
# 6 0.000000 0.000000 0.000000 0.000000 0.000000 0.024270
#
#
# Mechanical properties :
#
#
# Convention : Reuss Voigt Hill
#
# Bulk Modulus (GPa) = 52.49445 78.47259 65.48352
# Shear Modulus (GPa) = 37.22477 40.93917 39.08197
#
# Velocity S-wave (km/s) = 4.34580 4.55746 4.45289
# Velocity P-wave (km/s) = 7.19821 8.21626 7.72403
#
# Compressibility (1/GPa) = 0.01904963
#
# Stress axis : x y z
#
# Youngs Moduli (GPa) = 50.55306 109.73636 126.98050
#
# Poissons Ratio (x) = 0.11477 0.50062
# Poissons Ratio (y) = 0.05287 0.49159
# Poissons Ratio (z) = 0.19930 0.42483
#
# Static dielectric constant tensor:
#      x y z
#    x 1.908890 0.000000 0.000000 
#    y 0.000000 1.668270 0.000000 
#    z 0.000000 0.000000 1.729000 
# 
# From -- ./inp_files/14145.got.cif
#   From: 2010.05.17/outbox.ucp.g08.bks.cvg/sg54_8_cif.got.tgz:14145.got - 2010.06.11 16:34:40.
