data_PCOD9424038
_publ_section_title
;
Structure prediction by ZEFSAII (Michael W. Deem and Ramdas Pophale) SiO2 
 PCOD9424038
Probable space group: P C C A
;
_chemical_formula_sum "Si O2"
_cell_formula_units_Z 36
_cell_length_a 6.625436
_cell_length_b 10.384161
_cell_length_c 19.708910
_cell_angle_alpha 90.000000
_cell_angle_beta 90.000000
_cell_angle_gamma 90.000000
_cell_volume 1355.965009
_symmetry_space_group_name_H-M "P C C A"
_symmetry_group_IT_number 54
_symmetry_cell_setting 'orthorhombic'
loop_
_space_group_symop_operation_xyz
x,y,z
1/2-x,-y,z
1/2+x,-y,1/2-z
-x,y,1/2-z
-x,-y,-z
1/2+x,y,-z
1/2-x,y,1/2+z
x,-y,1/2+z
loop_
_atom_site_type_symbol
_atom_site_label
_atom_site_fract_x
_atom_site_fract_y
_atom_site_fract_z
Si Si1 0.618179 0.629811 0.320433
Si Si2 0.250000 0.000000 0.345071
Si Si3 0.707750 0.635936 0.063779
Si Si4 0.884361 0.099682 0.021400
Si Si5 0.000137 0.244816 0.676018
O O1 0.750000 0.500000 0.315028
O O2 0.500000 0.654179 0.250000
O O3 0.465431 0.610043 0.381262
O O4 0.763340 0.750246 0.338679
O O5 0.391328 0.919824 0.396776
O O6 0.111987 0.891506 0.312337
O O7 0.750000 0.500000 0.029079
O O8 0.635824 0.746598 0.012909
O O9 0.885073 0.687720 0.114047
O O10 0.625394 0.070506 0.004300
O O11 0.000000 0.311962 0.750000
#
# Coordination Sequence:
#
# PCOD9424038 Si02
#       5
#     8   4   8   8   8
#     4  12  22  34  64 101 140 190 229 276 355 429
#     4   8  22  42  64  90 134 180 236 294 330 440
#     4  11  22  41  65 102 137 179 238 299 350 435
#     4   9  21  43  69  91 130 176 231 297 366 421
#     4  11  21  41  62  94 141 184 231 278 350 417
#
# _framework density 26.549358000000002
#
# number of rings (size 3 to 8) (size 9 to 14) (size 15 to 20)
#    0.667    0.889    4.444    1.333    0.000    1.778 
#    8.000    1.111    0.000    0.000    0.000    0.000 
#    0.000    0.000    0.000    0.000    0.000    0.000 
#
# Total GULP energy -201015.378728 kJ/mol
# GULP energy per Si atom -5583.760520 kJ/mol
# Density = 2.648893 g / cm^3
# Si number density = 26.549358 Si / 1000 Ang^3
#
#
#
# Elastic Constant Matrix: (Units=GPa)
#
#
# Indices 1 2 3 4 5 6 
#
# 1 188.4544 99.6512 62.0132 0.0000 0.0000 0.0000
# 2 99.6512 228.5578 37.5591 0.0000 0.0000 0.0000
# 3 62.0132 37.5591 85.9893 0.0000 0.0000 0.0000
# 4 0.0000 0.0000 0.0000 14.4154 0.0000 0.0000
# 5 0.0000 0.0000 0.0000 0.0000 55.9716 0.0000
# 6 0.0000 0.0000 0.0000 0.0000 0.0000 60.7935
#
#
#
# Elastic Compliance Matrix: (Units=1/GPa)
#
#
# Indices 1 2 3 4 5 6 
#
# 1 0.008410 -0.002876 -0.004808 0.000000 0.000000 0.000000
# 2 -0.002876 0.005697 -0.000414 0.000000 0.000000 0.000000
# 3 -0.004808 -0.000414 0.015278 0.000000 0.000000 0.000000
# 4 0.000000 0.000000 0.000000 0.069370 0.000000 0.000000
# 5 0.000000 0.000000 0.000000 0.000000 0.017866 0.000000
# 6 0.000000 0.000000 0.000000 0.000000 0.000000 0.016449
#
#
# Mechanical properties :
#
#
# Convention : Reuss Voigt Hill
#
# Bulk Modulus (GPa) = 75.83220 100.16093 87.99656
# Shear Modulus (GPa) = 32.53847 46.48797 39.51322
#
# Velocity S-wave (km/s) = 3.50463 4.18904 3.86203
# Velocity P-wave (km/s) = 6.70830 7.82340 7.28721
#
# Compressibility (1/GPa) = 0.01318701
#
# Stress axis : x y z
#
# Youngs Moduli (GPa) = 118.91215 175.51756 65.45383
#
# Poissons Ratio (x) = 0.50486 0.31473
# Poissons Ratio (y) = 0.34204 0.02711
# Poissons Ratio (z) = 0.57177 0.07270
#
# Static dielectric constant tensor:
#      x y z
#    x 2.688880 0.000000 0.000000 
#    y 0.000000 2.233620 0.000000 
#    z 0.000000 0.000000 1.964820 
# 
# From -- ./inp_files/22692.got.cif
#   From: 2010.05.17/outbox.cif.g08.bks.cpg/sg54_12_cif.got.tgz:22692.got - 2010.06.03 13:09:01.
