data_PCOD9424594
_publ_section_title
;
Structure prediction by ZEFSAII (Michael W. Deem and Ramdas Pophale) SiO2 
 PCOD9424594
Probable space group: P C C A
;
_chemical_formula_sum "Si O2"
_cell_formula_units_Z 16
_cell_length_a 4.980056
_cell_length_b 10.907542
_cell_length_c 9.267645
_cell_angle_alpha 90.000000
_cell_angle_beta 90.000000
_cell_angle_gamma 90.000000
_cell_volume 503.420052
_symmetry_space_group_name_H-M "P C C A"
_symmetry_group_IT_number 54
_symmetry_cell_setting 'orthorhombic'
loop_
_space_group_symop_operation_xyz
x,y,z
1/2-x,-y,z
1/2+x,-y,1/2-z
-x,y,1/2-z
-x,-y,-z
1/2+x,y,-z
1/2-x,y,1/2+z
x,-y,1/2+z
loop_
_atom_site_type_symbol
_atom_site_label
_atom_site_fract_x
_atom_site_fract_y
_atom_site_fract_z
Si Si1 0.879459 0.262293 0.979318
Si Si2 0.000000 0.408631 0.250000
Si Si3 0.250000 0.000000 0.649541
O O1 0.115170 0.335951 0.106751
O O2 0.656815 0.274505 0.114043
O O3 0.806158 0.121124 0.941169
O O4 0.250000 0.500000 0.287248
O O5 0.500000 0.028267 0.750000
#
# Coordination Sequence:
#
# PCOD9424594 Si02
#       3
#     8   4   4
#     4  12  28  52  87 126 172 229 292 357 448 517
#     4  12  30  56  88 126 174 232 302 366 420 514
#     4  12  28  52  88 134 182 224 280 360 452 544
#
# _framework density 31.782602000000001
#
# number of rings (size 3 to 8) (size 9 to 14) (size 15 to 20)
#    0.000    0.000    0.000    7.500   10.500    6.000 
#    0.000    5.000    0.000    0.000    0.000    0.000 
#    0.000    0.000    0.000    0.000    0.000    0.000 
#
# Total GULP energy -89094.797269 kJ/mol
# GULP energy per Si atom -5568.424829 kJ/mol
# Density = 3.171026 g / cm^3
# Si number density = 31.782602 Si / 1000 Ang^3
#
#
#
# Elastic Constant Matrix: (Units=GPa)
#
#
# Indices 1 2 3 4 5 6 
#
# 1 293.8557 -66.2260 -71.5376 0.0000 0.0000 0.0000
# 2 -66.2260 242.5656 40.5572 0.0000 0.0000 0.0000
# 3 -71.5376 40.5572 151.3281 0.0000 0.0000 0.0000
# 4 0.0000 0.0000 0.0000 35.4277 0.0000 0.0000
# 5 0.0000 0.0000 0.0000 0.0000 40.5651 0.0000
# 6 0.0000 0.0000 0.0000 0.0000 0.0000 36.7799
#
#
#
# Elastic Compliance Matrix: (Units=1/GPa)
#
#
# Indices 1 2 3 4 5 6 
#
# 1 0.003992 0.000811 0.001670 0.000000 0.000000 0.000000
# 2 0.000811 0.004481 -0.000818 0.000000 0.000000 0.000000
# 3 0.001670 -0.000818 0.007617 0.000000 0.000000 0.000000
# 4 0.000000 0.000000 0.000000 0.028227 0.000000 0.000000
# 5 0.000000 0.000000 0.000000 0.000000 0.024652 0.000000
# 6 0.000000 0.000000 0.000000 0.000000 0.000000 0.027189
#
#
# Mechanical properties :
#
#
# Convention : Reuss Voigt Hill
#
# Bulk Modulus (GPa) = 51.50374 54.81517 53.15946
# Shear Modulus (GPa) = 50.35127 74.88492 62.61809
#
# Velocity S-wave (km/s) = 3.98457 4.85930 4.44351
# Velocity P-wave (km/s) = 6.11631 6.98341 6.56419
#
# Compressibility (1/GPa) = 0.01941607
#
# Stress axis : x y z
#
# Youngs Moduli (GPa) = 250.48191 223.18172 131.28981
#
# Poissons Ratio (x) = -0.18095 -0.21925
# Poissons Ratio (y) = -0.20308 0.10734
# Poissons Ratio (z) = -0.41830 0.18247
#
# Static dielectric constant tensor:
#      x y z
#    x 16.402290 0.000000 0.000000 
#    y 0.000000 2.436640 0.000000 
#    z 0.000000 0.000000 2.617800 
# 
# From -- ./inp_files/6084.got.cif
#   From: 2010.05.17/outbox.cif.g08.bks.cpg/sg54_4_cif.got.tgz:6084.got - 2010.06.03 13:09:01.
