data_PCOD9424910
_publ_section_title
;
Structure prediction by ZEFSAII (Michael W. Deem and Ramdas Pophale) SiO2 
 PCOD9424910
Probable space group: P B A M
;
_chemical_formula_sum "Si O2"
_cell_formula_units_Z 64
_cell_length_a 16.966827
_cell_length_b 18.254236
_cell_length_c 13.844808
_cell_angle_alpha 90.000000
_cell_angle_beta 90.000000
_cell_angle_gamma 90.000000
_cell_volume 4287.964982
_symmetry_space_group_name_H-M "P B A M"
_symmetry_group_IT_number 55
_symmetry_cell_setting 'orthorhombic'
loop_
_space_group_symop_operation_xyz
x,y,z
-x,-y,z
1/2+x,1/2-y,-z
1/2-x,1/2+y,-z
-x,-y,-z
x,y,-z
1/2-x,1/2+y,z
1/2+x,1/2-y,z
loop_
_atom_site_type_symbol
_atom_site_label
_atom_site_fract_x
_atom_site_fract_y
_atom_site_fract_z
Si Si1 0.072150 0.604263 0.388718
Si Si2 0.086480 0.978016 0.883131
Si Si3 0.747715 0.446639 0.116519
Si Si4 0.177751 0.402674 0.809367
Si Si5 0.361338 0.168469 0.798539
Si Si6 0.668598 0.673976 0.883590
Si Si7 0.609670 0.068174 0.611628
Si Si8 0.008741 0.416653 0.114943
O O1 0.084647 0.625316 0.500000
O O2 0.118596 0.653989 0.313255
O O3 0.099655 0.519701 0.377741
O O4 0.977670 0.601985 0.371086
O O5 0.113475 0.895685 0.857761
O O6 0.157810 0.032815 0.856315
O O7 0.084119 0.979772 0.000000
O O8 0.000000 0.000000 0.847048
O O9 0.799028 0.516913 0.149789
O O10 0.783773 0.375669 0.167397
O O11 0.753373 0.439885 0.000000
O O12 0.244122 0.349086 0.849630
O O13 0.169489 0.405410 0.693603
O O14 0.091006 0.385124 0.848187
O O15 0.356073 0.251955 0.831106
O O16 0.434173 0.129618 0.852737
O O17 0.667116 0.683002 0.000000
O O18 0.631230 0.083072 0.500000
O O19 0.000000 0.500000 0.153148
O O20 0.010984 0.419936 0.000000
#
# Coordination Sequence:
#
# PCOD9424910 Si02
#       8
#     8   8   8   8   8   8   8   8
#     4   9  17  30  49  75 104 132 161 204 257 307
#     4   8  16  34  53  65  85 130 181 209 232 280
#     4  10  18  28  48  70  96 129 164 205 245 296
#     4  11  18  32  48  70 100 135 166 196 251 304
#     4  12  20  32  47  73 106 132 162 203 258 309
#     4  10  22  35  47  69 106 138 165 214 256 289
#     4   9  16  29  50  76 100 127 168 211 249 299
#     4  11  19  27  47  74 101 132 164 196 240 315
#
# _framework density 14.925496000000001
#
# number of rings (size 3 to 8) (size 9 to 14) (size 15 to 20)
#    0.000    2.000    3.750    3.750    0.000    0.000 
#    2.250    0.625    0.000    0.000    0.000    0.000 
#    0.000   13.000    0.000    0.000    0.000    0.000 
#
# Total GULP energy -356781.895381 kJ/mol
# GULP energy per Si atom -5574.717115 kJ/mol
# Density = 1.489152 g / cm^3
# Si number density = 14.925496 Si / 1000 Ang^3
#
#
#
# Elastic Constant Matrix: (Units=GPa)
#
#
# Indices 1 2 3 4 5 6 
#
# 1 98.4041 54.6364 34.0739 0.0000 0.0000 0.0000
# 2 54.6364 85.3563 35.3138 0.0000 0.0000 0.0000
# 3 34.0739 35.3138 98.2188 0.0000 0.0000 0.0000
# 4 0.0000 0.0000 0.0000 19.7016 0.0000 0.0000
# 5 0.0000 0.0000 0.0000 0.0000 16.7181 0.0000
# 6 0.0000 0.0000 0.0000 0.0000 0.0000 17.4055
#
#
#
# Elastic Compliance Matrix: (Units=1/GPa)
#
#
# Indices 1 2 3 4 5 6 
#
# 1 0.016166 -0.009430 -0.002218 0.000000 0.000000 0.000000
# 2 -0.009430 0.019264 -0.003655 0.000000 0.000000 0.000000
# 3 -0.002218 -0.003655 0.012265 0.000000 0.000000 0.000000
# 4 0.000000 0.000000 0.000000 0.050757 0.000000 0.000000
# 5 0.000000 0.000000 0.000000 0.000000 0.059815 0.000000
# 6 0.000000 0.000000 0.000000 0.000000 0.000000 0.057453
#
#
# Mechanical properties :
#
#
# Convention : Reuss Voigt Hill
#
# Bulk Modulus (GPa) = 58.51599 58.89193 58.70396
# Shear Modulus (GPa) = 19.83952 21.29539 20.56746
#
# Velocity S-wave (km/s) = 3.64983 3.78137 3.71618
# Velocity P-wave (km/s) = 7.55329 7.65558 7.60461
#
# Compressibility (1/GPa) = 0.01708934
#
# Stress axis : x y z
#
# Youngs Moduli (GPa) = 61.85808 51.91045 81.53475
#
# Poissons Ratio (x) = 0.48953 0.18082
# Poissons Ratio (y) = 0.58334 0.29798
# Poissons Ratio (z) = 0.13718 0.18971
#
# Static dielectric constant tensor:
#      x y z
#    x 1.498120 0.000000 0.000000 
#    y 0.000000 1.481220 0.000000 
#    z 0.000000 0.000000 1.507020 
# 
# From -- ./inp_files/19119.got.cif
#   From: 2010.05.17/outbox.cif.g08.bks.cpg/sg55_10_cif.got.tgz:19119.got - 2010.06.03 13:27:54.
