data_PCOD9424385
_publ_section_title
;
Structure prediction by ZEFSAII (Michael W. Deem and Ramdas Pophale) SiO2 
 PCOD9424385
Probable space group: P C C A
;
_chemical_formula_sum "Si O2"
_cell_formula_units_Z 24
_cell_length_a 8.082897
_cell_length_b 12.769430
_cell_length_c 9.674898
_cell_angle_alpha 90.000000
_cell_angle_beta 90.000000
_cell_angle_gamma 90.000000
_cell_volume 998.584801
_symmetry_space_group_name_H-M "P C C A"
_symmetry_group_IT_number 54
_symmetry_cell_setting 'orthorhombic'
loop_
_space_group_symop_operation_xyz
x,y,z
1/2-x,-y,z
1/2+x,-y,1/2-z
-x,y,1/2-z
-x,-y,-z
1/2+x,y,-z
1/2-x,y,1/2+z
x,-y,1/2+z
loop_
_atom_site_type_symbol
_atom_site_label
_atom_site_fract_x
_atom_site_fract_y
_atom_site_fract_z
Si Si1 0.259923 0.378712 0.204198
Si Si2 0.084916 0.703696 0.462063
Si Si3 0.093799 0.072525 0.107702
O O1 0.250000 0.500000 0.244208
O O2 0.275209 0.313622 0.344695
O O3 0.417951 0.334846 0.115017
O O4 0.110998 0.365384 0.097786
O O5 0.110681 0.819850 0.522481
O O6 0.000000 0.095275 0.250000
O O7 0.250000 0.000000 0.146273
O O8 0.000000 0.000000 0.000000
#
# Coordination Sequence:
#
# PCOD9424385 Si02
#       3
#     8   8   8
#     4  11  25  47  75 109 156 203 262 320 394 469
#     4  11  27  46  75 114 153 202 266 327 394 477
#     4  12  29  50  81 115 159 209 270 337 414 489
#
# _framework density 24.034013000000002
#
# number of rings (size 3 to 8) (size 9 to 14) (size 15 to 20)
#    0.000    0.667    0.000    5.000   18.667    2.667 
#    0.000    0.000    0.000    0.000    0.000    0.000 
#    0.000    0.000    0.000    0.000    0.000    0.000 
#
# Total GULP energy -134157.704730 kJ/mol
# GULP energy per Si atom -5589.904364 kJ/mol
# Density = 2.397931 g / cm^3
# Si number density = 24.034013 Si / 1000 Ang^3
#
#
#
# Elastic Constant Matrix: (Units=GPa)
#
#
# Indices 1 2 3 4 5 6 
#
# 1 82.5121 33.3713 49.6652 0.0000 0.0000 0.0000
# 2 33.3713 162.2892 107.8286 0.0000 0.0000 0.0000
# 3 49.6652 107.8286 236.9599 0.0000 0.0000 0.0000
# 4 0.0000 0.0000 0.0000 40.1418 0.0000 0.0000
# 5 0.0000 0.0000 0.0000 0.0000 47.7091 0.0000
# 6 0.0000 0.0000 0.0000 0.0000 0.0000 30.1762
#
#
#
# Elastic Compliance Matrix: (Units=1/GPa)
#
#
# Indices 1 2 3 4 5 6 
#
# 1 0.014069 -0.001338 -0.002340 0.000000 0.000000 0.000000
# 2 -0.001338 0.008960 -0.003797 0.000000 0.000000 0.000000
# 3 -0.002340 -0.003797 0.006438 0.000000 0.000000 0.000000
# 4 0.000000 0.000000 0.000000 0.024912 0.000000 0.000000
# 5 0.000000 0.000000 0.000000 0.000000 0.020960 0.000000
# 6 0.000000 0.000000 0.000000 0.000000 0.000000 0.033139
#
#
# Mechanical properties :
#
#
# Convention : Reuss Voigt Hill
#
# Bulk Modulus (GPa) = 68.88296 95.94347 82.41322
# Shear Modulus (GPa) = 38.98152 42.99851 40.99001
#
# Velocity S-wave (km/s) = 4.03169 4.23433 4.13425
# Velocity P-wave (km/s) = 7.09898 7.99453 7.56003
#
# Compressibility (1/GPa) = 0.01451738
#
# Stress axis : x y z
#
# Youngs Moduli (GPa) = 71.07795 111.61274 155.32491
#
# Poissons Ratio (x) = 0.14939 0.36342
# Poissons Ratio (y) = 0.09513 0.58969
# Poissons Ratio (z) = 0.16630 0.42374
#
# Static dielectric constant tensor:
#      x y z
#    x 2.179110 0.000000 0.000000 
#    y 0.000000 3.870640 0.000000 
#    z 0.000000 0.000000 1.826190 
# 
# From -- ./inp_files/2428.got.cif
#   From: 2010.05.17/outbox.cif.g08.bks.cpg/sg54_2_cif.got.tgz:2428.got - 2010.06.03 13:09:01.
