data_PCOD9424681
_publ_section_title
;
Structure prediction by ZEFSAII (Michael W. Deem and Ramdas Pophale) SiO2 
 PCOD9424681
Probable space group: P C C A
;
_chemical_formula_sum "Si O2"
_cell_formula_units_Z 48
_cell_length_a 15.000000
_cell_length_b 9.000000
_cell_length_c 18.000000
_cell_angle_alpha 90.000000
_cell_angle_beta 90.000000
_cell_angle_gamma 90.000000
_cell_volume 2430.000000
_symmetry_space_group_name_H-M "P C C A"
_symmetry_group_IT_number 54
_symmetry_cell_setting 'orthorhombic'
loop_
_space_group_symop_operation_xyz
x,y,z
1/2-x,-y,z
1/2+x,-y,1/2-z
-x,y,1/2-z
-x,-y,-z
1/2+x,y,-z
1/2-x,y,1/2+z
x,-y,1/2+z
loop_
_atom_site_type_symbol
_atom_site_label
_atom_site_fract_x
_atom_site_fract_y
_atom_site_fract_z
Si Si1 0.109554 0.860785 0.936220
Si Si2 0.254848 0.675750 0.168649
Si Si3 0.775840 0.671455 0.004533
Si Si4 0.402739 0.845933 0.259574
Si Si5 0.934103 0.832188 0.313342
Si Si6 0.548422 0.183449 0.035968
O O1 0.197051 0.774490 0.963182
O O2 0.111218 0.873856 0.847179
O O3 0.099227 0.025167 0.971445
O O4 0.018792 0.785571 0.967715
O O5 0.250000 0.500000 0.180268
O O6 0.323933 0.751087 0.224620
O O7 0.156992 0.743594 0.179059
O O8 0.284067 0.704122 0.083462
O O9 0.750000 0.500000 0.013357
O O10 0.871474 0.700900 0.041486
O O11 0.500000 0.772357 0.250000
O O12 0.409983 0.001263 0.214382
O O13 0.000000 0.770479 0.250000
O O14 0.987362 0.829574 0.390790
#
# Coordination Sequence:
#
# PCOD9424681 Si02
#       6
#     8   8   8   8   8   8
#     4  11  23  42  70 101 125 168 226 272 329 385
#     4  11  26  46  65  95 138 179 215 265 335 398
#     4  11  26  44  64  97 135 177 217 268 331 397
#     4  11  23  43  69  99 128 168 221 277 324 388
#     4  11  23  44  67  99 130 172 218 278 328 386
#     4  11  23  43  70  97 130 169 222 277 328 388
#
# _framework density 19.753086
#
# number of rings (size 3 to 8) (size 9 to 14) (size 15 to 20)
#    0.000    1.000    5.000    2.000    4.667    4.667 
#    3.000    0.000    0.000    0.000    0.000    0.000 
#    0.000    0.000    0.000    0.000    0.000    0.000 
#
# Total GULP energy -268334.820990 kJ/mol
# GULP energy per Si atom -5590.308771 kJ/mol
# Density = 1.970813 g / cm^3
# Si number density = 19.753086 Si / 1000 Ang^3
#
#
#
# Elastic Constant Matrix: (Units=GPa)
#
#
# Indices 1 2 3 4 5 6 
#
# 1 152.5912 66.6553 66.7850 0.0000 0.0000 0.0000
# 2 66.6553 56.0657 52.4529 0.0000 0.0000 0.0000
# 3 66.7850 52.4529 123.3562 0.0000 0.0000 0.0000
# 4 0.0000 0.0000 0.0000 17.8293 0.0000 0.0000
# 5 0.0000 0.0000 0.0000 0.0000 38.7072 0.0000
# 6 0.0000 0.0000 0.0000 0.0000 0.0000 13.1776
#
#
#
# Elastic Compliance Matrix: (Units=1/GPa)
#
#
# Indices 1 2 3 4 5 6 
#
# 1 0.013683 -0.015505 -0.000815 0.000000 0.000000 0.000000
# 2 -0.015505 0.047189 -0.011671 0.000000 0.000000 0.000000
# 3 -0.000815 -0.011671 0.013511 0.000000 0.000000 0.000000
# 4 0.000000 0.000000 0.000000 0.056088 0.000000 0.000000
# 5 0.000000 0.000000 0.000000 0.000000 0.025835 0.000000
# 6 0.000000 0.000000 0.000000 0.000000 0.000000 0.075886
#
#
# Mechanical properties :
#
#
# Convention : Reuss Voigt Hill
#
# Bulk Modulus (GPa) = 54.34689 78.19994 66.27341
# Shear Modulus (GPa) = 16.98906 23.68414 20.33660
#
# Velocity S-wave (km/s) = 2.93588 3.46643 3.21213
# Velocity P-wave (km/s) = 6.25023 7.46299 6.88337
#
# Compressibility (1/GPa) = 0.01840032
#
# Stress axis : x y z
#
# Youngs Moduli (GPa) = 73.08254 21.19147 74.01629
#
# Poissons Ratio (x) = 0.32858 0.06033
# Poissons Ratio (y) = 1.13315 0.86384
# Poissons Ratio (z) = 0.05957 0.24732
#
# Static dielectric constant tensor:
#      x y z
#    x 1.684170 0.000000 0.000000 
#    y 0.000000 1.692340 0.000000 
#    z 0.000000 0.000000 1.692360 
# 
# From -- ./inp_files/18055.got.cif
#   From: 2010.05.17/outbox.ucp.g08.bks.cvg/sg54_10_cif.got.tgz:18055.got - 2010.06.11 16:34:40.
