data_PCOD9424025
_publ_section_title
;
Structure prediction by ZEFSAII (Michael W. Deem and Ramdas Pophale) SiO2 
 PCOD9424025
Probable space group: P C C A
;
_chemical_formula_sum "Si O2"
_cell_formula_units_Z 48
_cell_length_a 13.818288
_cell_length_b 10.261446
_cell_length_c 14.768054
_cell_angle_alpha 90.000000
_cell_angle_beta 90.000000
_cell_angle_gamma 90.000000
_cell_volume 2094.045316
_symmetry_space_group_name_H-M "P C C A"
_symmetry_group_IT_number 54
_symmetry_cell_setting 'orthorhombic'
loop_
_space_group_symop_operation_xyz
x,y,z
1/2-x,-y,z
1/2+x,-y,1/2-z
-x,y,1/2-z
-x,-y,-z
1/2+x,y,-z
1/2-x,y,1/2+z
x,-y,1/2+z
loop_
_atom_site_type_symbol
_atom_site_label
_atom_site_fract_x
_atom_site_fract_y
_atom_site_fract_z
Si Si1 0.361442 0.017016 0.192271
Si Si2 0.986706 0.856060 0.455884
Si Si3 0.598376 0.581537 0.999745
Si Si4 0.328765 0.349012 0.824977
Si Si5 0.750000 0.500000 0.345763
Si Si6 0.689944 0.120236 0.110714
Si Si7 0.500000 0.202462 0.750000
O O1 0.423338 0.117384 0.134134
O O2 0.353576 0.058589 0.297120
O O3 0.250000 0.000000 0.161158
O O4 0.425356 0.886422 0.193695
O O5 0.930801 0.735012 0.499401
O O6 0.099105 0.820900 0.441406
O O7 0.000000 0.000000 0.500000
O O8 0.655062 0.551023 0.093001
O O9 0.665352 0.550837 0.912454
O O10 0.500000 0.500000 0.000000
O O11 0.291139 0.603902 0.227262
O O12 0.261067 0.233669 0.860070
O O13 0.434753 0.292403 0.810312
O O14 0.750000 0.000000 0.066348
#
# Coordination Sequence:
#
# PCOD9424025 Si02
#       7
#     8   8   8   8   4   8   4
#     4  11  21  39  68 109 147 188 245 300 375 455
#     4  12  26  44  72 112 150 196 248 319 388 454
#     4  12  30  53  76 114 157 201 262 322 385 473
#     4  12  26  49  78 108 150 203 258 318 382 466
#     4  12  30  52  82 108 148 218 256 320 392 464
#     4  11  21  43  73 108 147 193 244 315 382 457
#     4  12  20  42  74 108 154 196 242 318 386 444
#
# _framework density 22.922139999999999
#
# number of rings (size 3 to 8) (size 9 to 14) (size 15 to 20)
#    0.000    0.333    5.000    4.500    4.667    2.000 
#    0.000    0.000    0.000    0.000    0.000    0.000 
#    0.000    0.000    0.000    0.000    0.000    0.000 
#
# Total GULP energy -268287.342978 kJ/mol
# GULP energy per Si atom -5589.319645 kJ/mol
# Density = 2.286997 g / cm^3
# Si number density = 22.922140 Si / 1000 Ang^3
#
#
#
# Elastic Constant Matrix: (Units=GPa)
#
#
# Indices 1 2 3 4 5 6 
#
# 1 182.7841 48.9321 60.3178 0.0000 0.0000 0.0000
# 2 48.9321 78.7837 32.4438 0.0000 0.0000 0.0000
# 3 60.3178 32.4438 119.1784 0.0000 0.0000 0.0000
# 4 0.0000 0.0000 0.0000 1.0312 0.0000 0.0000
# 5 0.0000 0.0000 0.0000 0.0000 18.6334 0.0000
# 6 0.0000 0.0000 0.0000 0.0000 0.0000 53.5632
#
#
#
# Elastic Compliance Matrix: (Units=1/GPa)
#
#
# Indices 1 2 3 4 5 6 
#
# 1 0.007292 -0.003389 -0.002768 0.000000 0.000000 0.000000
# 2 -0.003389 0.015871 -0.002605 0.000000 0.000000 0.000000
# 3 -0.002768 -0.002605 0.010501 0.000000 0.000000 0.000000
# 4 0.000000 0.000000 0.000000 0.969788 0.000000 0.000000
# 5 0.000000 0.000000 0.000000 0.000000 0.053667 0.000000
# 6 0.000000 0.000000 0.000000 0.000000 0.000000 0.018670
#
#
# Mechanical properties :
#
#
# Convention : Reuss Voigt Hill
#
# Bulk Modulus (GPa) = 61.96139 73.79263 67.87701
# Shear Modulus (GPa) = 4.55087 30.58238 17.56662
#
# Velocity S-wave (km/s) = 1.41056 3.65661 2.77133
# Velocity P-wave (km/s) = 5.45370 7.07746 6.31796
#
# Compressibility (1/GPa) = 0.01613908
#
# Stress axis : x y z
#
# Youngs Moduli (GPa) = 137.14570 63.00915 95.23058
#
# Poissons Ratio (x) = 0.21353 0.26358
# Poissons Ratio (y) = 0.46478 0.24810
# Poissons Ratio (z) = 0.37959 0.16416
#
# Static dielectric constant tensor:
#      x y z
#    x 1.792600 0.000000 0.000000 
#    y 0.000000 1.897440 0.000000 
#    z 0.000000 0.000000 1.888260 
# 
# From -- ./inp_files/17382.got.cif
#   From: 2010.05.17/outbox.cif.g08.bks.cpg/sg54_9_cif.got.tgz:17382.got - 2010.06.03 13:09:01.
