data_PCOD9424596
_publ_section_title
;
Structure prediction by ZEFSAII (Michael W. Deem and Ramdas Pophale) SiO2 
 PCOD9424596
Probable space group: P C C A
;
_chemical_formula_sum "Si O2"
_cell_formula_units_Z 28
_cell_length_a 15.091603
_cell_length_b 8.566807
_cell_length_c 8.609878
_cell_angle_alpha 90.000000
_cell_angle_beta 90.000000
_cell_angle_gamma 90.000000
_cell_volume 1113.144007
_symmetry_space_group_name_H-M "P C C A"
_symmetry_group_IT_number 54
_symmetry_cell_setting 'orthorhombic'
loop_
_space_group_symop_operation_xyz
x,y,z
1/2-x,-y,z
1/2+x,-y,1/2-z
-x,y,1/2-z
-x,-y,-z
1/2+x,y,-z
1/2-x,y,1/2+z
x,-y,1/2+z
loop_
_atom_site_type_symbol
_atom_site_label
_atom_site_fract_x
_atom_site_fract_y
_atom_site_fract_z
Si Si1 0.960498 0.347070 0.579666
Si Si2 0.328557 0.878099 0.353430
Si Si3 0.500000 0.000000 0.000000
Si Si4 0.218735 0.670933 0.569165
O O1 0.854075 0.351271 0.566463
O O2 0.000000 0.342643 0.750000
O O3 0.000000 0.500000 0.500000
O O4 0.992157 0.189373 0.498288
O O5 0.298244 0.777656 0.503422
O O6 0.330010 0.761436 0.208415
O O7 0.250000 0.000000 0.322858
O O8 0.414328 0.983736 0.380242
O O9 0.250000 0.500000 0.617030
#
# Coordination Sequence:
#
# PCOD9424596 Si02
#       4
#     8   8   4   8
#     4  12  32  51  83 129 173 236 300 367 453 540
#     4  12  28  53  84 125 166 232 294 366 453 538
#     4  12  30  54  88 120 184 228 300 378 452 542
#     4  12  29  52  86 121 179 229 299 376 449 547
#
# _framework density 25.153976
#
# number of rings (size 3 to 8) (size 9 to 14) (size 15 to 20)
#    0.000    0.000    2.857    3.429   20.000    0.000 
#    0.000    0.000    0.000    0.000    0.000    0.000 
#    0.000    0.000    0.000    0.000    0.000    0.000 
#
# Total GULP energy -156194.269823 kJ/mol
# GULP energy per Si atom -5578.366779 kJ/mol
# Density = 2.509672 g / cm^3
# Si number density = 25.153976 Si / 1000 Ang^3
#
#
#
# Elastic Constant Matrix: (Units=GPa)
#
#
# Indices 1 2 3 4 5 6 
#
# 1 119.2135 31.8292 36.6980 0.0000 0.0000 0.0000
# 2 31.8292 211.2992 25.3344 0.0000 0.0000 0.0000
# 3 36.6980 25.3344 77.5715 0.0000 0.0000 0.0000
# 4 0.0000 0.0000 0.0000 22.1651 0.0000 0.0000
# 5 0.0000 0.0000 0.0000 0.0000 33.9289 0.0000
# 6 0.0000 0.0000 0.0000 0.0000 0.0000 40.9160
#
#
#
# Elastic Compliance Matrix: (Units=1/GPa)
#
#
# Indices 1 2 3 4 5 6 
#
# 1 0.010009 -0.000978 -0.004416 0.000000 0.000000 0.000000
# 2 -0.000978 0.005021 -0.001177 0.000000 0.000000 0.000000
# 3 -0.004416 -0.001177 0.015365 0.000000 0.000000 0.000000
# 4 0.000000 0.000000 0.000000 0.045116 0.000000 0.000000
# 5 0.000000 0.000000 0.000000 0.000000 0.029473 0.000000
# 6 0.000000 0.000000 0.000000 0.000000 0.000000 0.024440
#
#
# Mechanical properties :
#
#
# Convention : Reuss Voigt Hill
#
# Bulk Modulus (GPa) = 57.96138 66.20082 62.08110
# Shear Modulus (GPa) = 33.71163 40.35019 37.03091
#
# Velocity S-wave (km/s) = 3.66486 4.00950 3.84105
# Velocity P-wave (km/s) = 6.40320 6.91449 6.66375
#
# Compressibility (1/GPa) = 0.01725287
#
# Stress axis : x y z
#
# Youngs Moduli (GPa) = 99.91263 199.15901 65.08438
#
# Poissons Ratio (x) = 0.19483 0.28738
# Poissons Ratio (y) = 0.09774 0.07661
# Poissons Ratio (z) = 0.44116 0.23442
#
# Static dielectric constant tensor:
#      x y z
#    x 2.103100 0.000000 0.000000 
#    y 0.000000 1.880060 0.000000 
#    z 0.000000 0.000000 2.083570 
# 
# From -- ./inp_files/3865.got.cif
#   From: 2010.05.17/outbox.cif.g08.bks.cpg/sg54_2_cif.got.tgz:3865.got - 2010.06.03 13:09:01.
