data_PCOD9424517
_publ_section_title
;
Structure prediction by ZEFSAII (Michael W. Deem and Ramdas Pophale) SiO2 
 PCOD9424517
Probable space group: P C C A
;
_chemical_formula_sum "Si O2"
_cell_formula_units_Z 28
_cell_length_a 9.777387
_cell_length_b 5.030174
_cell_length_c 24.713405
_cell_angle_alpha 90.000000
_cell_angle_beta 90.000000
_cell_angle_gamma 90.000000
_cell_volume 1215.453644
_symmetry_space_group_name_H-M "P C C A"
_symmetry_group_IT_number 54
_symmetry_cell_setting 'orthorhombic'
loop_
_space_group_symop_operation_xyz
x,y,z
1/2-x,-y,z
1/2+x,-y,1/2-z
-x,y,1/2-z
-x,-y,-z
1/2+x,y,-z
1/2-x,y,1/2+z
x,-y,1/2+z
loop_
_atom_site_type_symbol
_atom_site_label
_atom_site_fract_x
_atom_site_fract_y
_atom_site_fract_z
Si Si1 0.615716 0.179028 0.972340
Si Si2 0.473049 0.609951 0.370087
Si Si3 0.087155 0.916989 0.302323
Si Si4 0.250000 0.500000 0.438480
O O1 0.583031 0.334297 0.916781
O O2 0.750000 0.000000 0.963790
O O3 0.642957 0.378772 0.021053
O O4 0.500000 0.000000 0.000000
O O5 0.442024 0.315864 0.347040
O O6 0.332951 0.697119 0.400576
O O7 0.488293 0.815447 0.321943
O O8 0.000000 0.826470 0.250000
O O9 0.250000 0.000000 0.293920
#
# Coordination Sequence:
#
# PCOD9424517 Si02
#       4
#     8   8   8   4
#     4  12  27  45  73 116 161 207 258 308 374 471
#     4  12  26  47  79 110 153 207 251 314 394 457
#     4  12  27  52  78 109 145 199 264 330 391 457
#     4  12  24  46  74 110 162 204 252 300 382 474
#
# _framework density 23.036666
#
# number of rings (size 3 to 8) (size 9 to 14) (size 15 to 20)
#    0.000    0.000    5.714    3.429    4.000    1.143 
#    0.000    0.000    0.000    0.000    0.000    0.000 
#    0.000    0.000    0.000    0.000    0.000    0.000 
#
# Total GULP energy -156220.176080 kJ/mol
# GULP energy per Si atom -5579.292003 kJ/mol
# Density = 2.298423 g / cm^3
# Si number density = 23.036666 Si / 1000 Ang^3
#
#
#
# Elastic Constant Matrix: (Units=GPa)
#
#
# Indices 1 2 3 4 5 6 
#
# 1 114.4114 34.5635 48.0101 0.0000 0.0000 0.0000
# 2 34.5635 103.1259 21.7632 0.0000 0.0000 0.0000
# 3 48.0101 21.7632 109.6024 0.0000 0.0000 0.0000
# 4 0.0000 0.0000 0.0000 46.7614 0.0000 0.0000
# 5 0.0000 0.0000 0.0000 0.0000 43.7920 0.0000
# 6 0.0000 0.0000 0.0000 0.0000 0.0000 45.4145
#
#
#
# Elastic Compliance Matrix: (Units=1/GPa)
#
#
# Indices 1 2 3 4 5 6 
#
# 1 0.011489 -0.002911 -0.004455 0.000000 0.000000 0.000000
# 2 -0.002911 0.010858 -0.000881 0.000000 0.000000 0.000000
# 3 -0.004455 -0.000881 0.011250 0.000000 0.000000 0.000000
# 4 0.000000 0.000000 0.000000 0.021385 0.000000 0.000000
# 5 0.000000 0.000000 0.000000 0.000000 0.022835 0.000000
# 6 0.000000 0.000000 0.000000 0.000000 0.000000 0.022019
#
#
# Mechanical properties :
#
#
# Convention : Reuss Voigt Hill
#
# Bulk Modulus (GPa) = 58.46337 59.53482 58.99910
# Shear Modulus (GPa) = 40.97301 42.04711 41.51006
#
# Velocity S-wave (km/s) = 4.22192 4.27690 4.24950
# Velocity P-wave (km/s) = 7.01425 7.09146 7.05296
#
# Compressibility (1/GPa) = 0.01710473
#
# Stress axis : x y z
#
# Youngs Moduli (GPa) = 87.04008 92.09520 88.88750
#
# Poissons Ratio (x) = 0.26805 0.39597
# Poissons Ratio (y) = 0.25333 0.07832
# Poissons Ratio (z) = 0.38774 0.08115
#
# Static dielectric constant tensor:
#      x y z
#    x 1.916310 0.000000 0.000000 
#    y 0.000000 1.851350 0.000000 
#    z 0.000000 0.000000 1.832350 
# 
# From -- ./inp_files/20735.got.cif
#   From: 2010.05.17/outbox.cif.g08.bks.cpg/sg54_11_cif.got.tgz:20735.got - 2010.06.03 13:09:01.
