data_PCOD9424049
_publ_section_title
;
Structure prediction by ZEFSAII (Michael W. Deem and Ramdas Pophale) SiO2 
 PCOD9424049
Probable space group: P C C A
;
_chemical_formula_sum "Si O2"
_cell_formula_units_Z 40
_cell_length_a 11.867767
_cell_length_b 7.454513
_cell_length_c 19.168441
_cell_angle_alpha 90.000000
_cell_angle_beta 90.000000
_cell_angle_gamma 90.000000
_cell_volume 1695.801754
_symmetry_space_group_name_H-M "P C C A"
_symmetry_group_IT_number 54
_symmetry_cell_setting 'orthorhombic'
loop_
_space_group_symop_operation_xyz
x,y,z
1/2-x,-y,z
1/2+x,-y,1/2-z
-x,y,1/2-z
-x,-y,-z
1/2+x,y,-z
1/2-x,y,1/2+z
x,-y,1/2+z
loop_
_atom_site_type_symbol
_atom_site_label
_atom_site_fract_x
_atom_site_fract_y
_atom_site_fract_z
Si Si1 0.803302 0.688706 0.649475
Si Si2 0.510149 0.195965 0.919587
Si Si3 0.585423 0.805402 0.567759
Si Si4 0.167235 0.249065 0.199664
Si Si5 0.579920 0.340363 0.316564
O O1 0.750000 0.500000 0.674399
O O2 0.704713 0.774284 0.604317
O O3 0.842642 0.794748 0.718446
O O4 0.914833 0.663670 0.604118
O O5 0.594173 0.146132 0.856899
O O6 0.439448 0.017017 0.934963
O O7 0.576906 0.258289 0.987827
O O8 0.489626 0.713961 0.615290
O O9 0.116875 0.450779 0.189118
O O10 0.299899 0.241767 0.185234
O O11 0.500000 0.300615 0.250000
#
# Coordination Sequence:
#
# PCOD9424049 Si02
#       5
#     8   8   8   8   8
#     4  12  23  46  72  99 136 175 228 287 338 399
#     4  11  27  45  68 100 140 181 228 272 342 412
#     4  11  26  47  66  98 144 181 220 282 339 407
#     4  11  23  42  71 102 133 174 228 284 333 402
#     4  11  21  42  70 100 135 175 224 279 339 397
#
# _framework density 23.587665000000001
#
# number of rings (size 3 to 8) (size 9 to 14) (size 15 to 20)
#    0.000    0.800    4.000    3.600    2.800    5.600 
#    3.600    0.000    0.000    0.000    0.000    0.000 
#    0.000    0.000    0.000    0.000    0.000    0.000 
#
# Total GULP energy -223901.201088 kJ/mol
# GULP energy per Si atom -5597.530027 kJ/mol
# Density = 2.353398 g / cm^3
# Si number density = 23.587665 Si / 1000 Ang^3
#
#
#
# Elastic Constant Matrix: (Units=GPa)
#
#
# Indices 1 2 3 4 5 6 
#
# 1 147.7058 2.1421 69.8035 0.0000 0.0000 0.0000
# 2 2.1421 23.1497 2.0146 0.0000 0.0000 0.0000
# 3 69.8035 2.0146 168.5317 0.0000 0.0000 0.0000
# 4 0.0000 0.0000 0.0000 43.6237 0.0000 0.0000
# 5 0.0000 0.0000 0.0000 0.0000 25.6344 0.0000
# 6 0.0000 0.0000 0.0000 0.0000 0.0000 36.0675
#
#
#
# Elastic Compliance Matrix: (Units=1/GPa)
#
#
# Indices 1 2 3 4 5 6 
#
# 1 0.008423 -0.000476 -0.003483 0.000000 0.000000 0.000000
# 2 -0.000476 0.043269 -0.000320 0.000000 0.000000 0.000000
# 3 -0.003483 -0.000320 0.007380 0.000000 0.000000 0.000000
# 4 0.000000 0.000000 0.000000 0.022923 0.000000 0.000000
# 5 0.000000 0.000000 0.000000 0.000000 0.039010 0.000000
# 6 0.000000 0.000000 0.000000 0.000000 0.000000 0.027726
#
#
# Mechanical properties :
#
#
# Convention : Reuss Voigt Hill
#
# Bulk Modulus (GPa) = 19.79662 54.14529 36.97096
# Shear Modulus (GPa) = 28.71449 38.76024 33.73736
#
# Velocity S-wave (km/s) = 3.49284 4.05809 3.78603
# Velocity P-wave (km/s) = 4.96766 6.70539 5.90084
#
# Compressibility (1/GPa) = 0.05051366
#
# Stress axis : x y z
#
# Youngs Moduli (GPa) = 118.72018 23.11119 135.50020
#
# Poissons Ratio (x) = 0.01101 0.47196
# Poissons Ratio (y) = 0.05655 0.04335
# Poissons Ratio (z) = 0.41351 0.00739
#
# Static dielectric constant tensor:
#      x y z
#    x 1.837010 0.000000 0.000000 
#    y 0.000000 1.978500 0.000000 
#    z 0.000000 0.000000 1.912950 
# 
# From -- ./inp_files/17088.got.cif
#   From: 2010.05.17/outbox.cif.g08.bks.cpg/sg54_9_cif.got.tgz:17088.got - 2010.06.03 13:09:01.
