data_PCOD9424273
_publ_section_title
;
Structure prediction by ZEFSAII (Michael W. Deem and Ramdas Pophale) SiO2 
 PCOD9424273
Probable space group: P C C A
;
_chemical_formula_sum "Si O2"
_cell_formula_units_Z 32
_cell_length_a 5.073188
_cell_length_b 12.549416
_cell_length_c 23.869685
_cell_angle_alpha 90.000000
_cell_angle_beta 90.000000
_cell_angle_gamma 90.000000
_cell_volume 1519.676544
_symmetry_space_group_name_H-M "P C C A"
_symmetry_group_IT_number 54
_symmetry_cell_setting 'orthorhombic'
loop_
_space_group_symop_operation_xyz
x,y,z
1/2-x,-y,z
1/2+x,-y,1/2-z
-x,y,1/2-z
-x,-y,-z
1/2+x,y,-z
1/2-x,y,1/2+z
x,-y,1/2+z
loop_
_atom_site_type_symbol
_atom_site_label
_atom_site_fract_x
_atom_site_fract_y
_atom_site_fract_z
Si Si1 0.117308 0.680822 0.133423
Si Si2 0.750000 0.000000 0.538755
Si Si3 0.120076 0.820125 0.873489
Si Si4 0.500000 0.569470 0.750000
Si Si5 0.750000 0.000000 0.714509
Si Si6 0.250000 0.500000 0.042024
O O1 0.321872 0.778558 0.127511
O O2 0.116099 0.633533 0.196595
O O3 0.205477 0.598088 0.085309
O O4 0.818976 0.721082 0.125838
O O5 0.709913 0.104430 0.576053
O O6 0.500000 0.000000 0.500000
O O7 0.163769 0.897849 0.821124
O O8 0.750000 0.500000 0.729226
O O9 0.500000 0.965969 0.750000
O O10 0.500000 0.500000 0.000000
#
# Coordination Sequence:
#
# PCOD9424273 Si02
#       6
#     8   4   8   4   4   4
#     4  12  26  46  71 104 139 184 236 286 358 424
#     4  11  24  45  72  98 138 183 232 291 340 406
#     4  11  26  43  68 104 135 177 235 280 342 420
#     4  12  26  46  74 100 146 190 236 302 354 430
#     4  11  24  43  64  98 142 179 218 279 344 410
#     4  12  28  48  70 100 142 184 232 296 354 420
#
# _framework density 21.057112
#
# number of rings (size 3 to 8) (size 9 to 14) (size 15 to 20)
#    0.000    0.500    1.250    6.000    7.000   10.000 
#    0.000    0.000    0.000    0.000    0.000    0.000 
#    0.000    0.000    0.000    0.000    0.000    0.000 
#
# Total GULP energy -178902.482789 kJ/mol
# GULP energy per Si atom -5590.702587 kJ/mol
# Density = 2.100919 g / cm^3
# Si number density = 21.057112 Si / 1000 Ang^3
#
#
#
# Elastic Constant Matrix: (Units=GPa)
#
#
# Indices 1 2 3 4 5 6 
#
# 1 101.6834 -8.2909 26.7550 0.0000 0.0000 0.0000
# 2 -8.2909 57.7077 38.1709 0.0000 0.0000 0.0000
# 3 26.7550 38.1709 138.5572 0.0000 0.0000 0.0000
# 4 0.0000 0.0000 0.0000 131.2253 0.0000 0.0000
# 5 0.0000 0.0000 0.0000 0.0000 27.9090 0.0000
# 6 0.0000 0.0000 0.0000 0.0000 0.0000 49.4370
#
#
#
# Elastic Compliance Matrix: (Units=1/GPa)
#
#
# Indices 1 2 3 4 5 6 
#
# 1 0.010951 0.003634 -0.003116 0.000000 0.000000 0.000000
# 2 0.003634 0.022396 -0.006872 0.000000 0.000000 0.000000
# 3 -0.003116 -0.006872 0.009712 0.000000 0.000000 0.000000
# 4 0.000000 0.000000 0.000000 0.007620 0.000000 0.000000
# 5 0.000000 0.000000 0.000000 0.000000 0.035831 0.000000
# 6 0.000000 0.000000 0.000000 0.000000 0.000000 0.020228
#
#
# Mechanical properties :
#
#
# Convention : Reuss Voigt Hill
#
# Bulk Modulus (GPa) = 32.94645 45.69091 39.31868
# Shear Modulus (GPa) = 38.59178 57.80180 48.19679
#
# Velocity S-wave (km/s) = 4.28567 5.24496 4.78939
# Velocity P-wave (km/s) = 6.33794 7.64363 7.02121
#
# Compressibility (1/GPa) = 0.03035229
#
# Stress axis : x y z
#
# Youngs Moduli (GPa) = 91.31949 44.65068 102.96629
#
# Poissons Ratio (x) = -0.16227 0.32081
# Poissons Ratio (y) = -0.33187 0.70754
# Poissons Ratio (z) = 0.28452 0.30682
#
# Static dielectric constant tensor:
#      x y z
#    x 1.707350 0.000000 0.000000 
#    y 0.000000 1.766770 0.000000 
#    z 0.000000 0.000000 1.502100 
# 
# From -- ./inp_files/19537.got.cif
#   From: 2010.05.17/outbox.cif.g08.bks.cpg/sg54_10_cif.got.tgz:19537.got - 2010.06.03 13:09:01.
