data_PCOD9424768
_publ_section_title
;
Structure prediction by ZEFSAII (Michael W. Deem and Ramdas Pophale) SiO2 
 PCOD9424768
Probable space group: P B A M
;
_chemical_formula_sum "Si O2"
_cell_formula_units_Z 44
_cell_length_a 5.564906
_cell_length_b 21.469709
_cell_length_c 19.060712
_cell_angle_alpha 90.000000
_cell_angle_beta 90.000000
_cell_angle_gamma 90.000000
_cell_volume 2277.315019
_symmetry_space_group_name_H-M "P B A M"
_symmetry_group_IT_number 55
_symmetry_cell_setting 'orthorhombic'
loop_
_space_group_symop_operation_xyz
x,y,z
-x,-y,z
1/2+x,1/2-y,-z
1/2-x,1/2+y,-z
-x,-y,-z
x,y,-z
1/2-x,1/2+y,z
1/2+x,1/2-y,z
loop_
_atom_site_type_symbol
_atom_site_label
_atom_site_fract_x
_atom_site_fract_y
_atom_site_fract_z
Si Si1 0.228845 0.077112 0.636229
Si Si2 0.500000 0.000000 0.121153
Si Si3 0.864760 0.932983 0.205488
Si Si4 0.167313 0.899252 0.923907
Si Si5 0.769321 0.564592 0.582482
Si Si6 0.949430 0.725490 0.081703
O O1 0.174930 0.092184 0.717041
O O2 0.491486 0.098768 0.610459
O O3 0.988800 0.096555 0.594666
O O4 0.249755 0.001912 0.622955
O O5 0.390782 0.051707 0.171811
O O6 0.707988 0.033140 0.078179
O O7 0.006676 0.895564 0.145609
O O8 0.000000 0.000000 0.213126
O O9 0.370456 0.846267 0.919482
O O10 0.042520 0.891804 0.000000
O O11 0.797801 0.551716 0.500000
O O12 0.713074 0.760393 0.112317
O O13 0.972663 0.746102 0.000000
#
# Coordination Sequence:
#
# PCOD9424768 Si02
#       6
#     8   4   8   8   8   8
#     4  10  17  27  42  59  89 119 160 206 234 287
#     4  10  21  32  50  68  99 134 174 210 263 312
#     4  10  20  32  45  64  95 135 170 206 251 302
#     4  10  22  35  51  73  98 130 176 223 264 314
#     4  10  17  26  43  63  84 117 167 210 235 272
#     4   9  19  36  57  76  94 120 161 218 273 314
#
# _framework density 19.320999
#
# number of rings (size 3 to 8) (size 9 to 14) (size 15 to 20)
#    0.000    2.182    1.818    4.091    5.091    4.000 
#    0.000    0.000    0.000    0.000    0.000    0.000 
#    0.000    0.000    0.000    0.000    0.000   30.909 
#
# Total GULP energy -245032.872783 kJ/mol
# GULP energy per Si atom -5568.928927 kJ/mol
# Density = 1.927702 g / cm^3
# Si number density = 19.320999 Si / 1000 Ang^3
#
#
#
# Elastic Constant Matrix: (Units=GPa)
#
#
# Indices 1 2 3 4 5 6 
#
# 1 134.8343 4.7685 37.8497 0.0000 0.0000 0.0000
# 2 4.7685 23.7173 12.7420 0.0000 0.0000 0.0000
# 3 37.8497 12.7420 130.9548 0.0000 0.0000 0.0000
# 4 0.0000 0.0000 0.0000 -1.1069 0.0000 0.0000
# 5 0.0000 0.0000 0.0000 0.0000 24.2946 0.0000
# 6 0.0000 0.0000 0.0000 0.0000 0.0000 24.9880
#
#
#
# Elastic Compliance Matrix: (Units=1/GPa)
#
#
# Indices 1 2 3 4 5 6 
#
# 1 0.008075 -0.000390 -0.002296 0.000000 0.000000 0.000000
# 2 -0.000390 0.044508 -0.004218 0.000000 0.000000 0.000000
# 3 -0.002296 -0.004218 0.008710 0.000000 0.000000 0.000000
# 4 0.000000 0.000000 0.000000 -0.903383 0.000000 0.000000
# 5 0.000000 0.000000 0.000000 0.000000 0.041161 0.000000
# 6 0.000000 0.000000 0.000000 0.000000 0.000000 0.040019
#
#
# Mechanical properties :
#
#
# Convention : Reuss Voigt Hill
#
# Bulk Modulus (GPa) = 21.05920 44.46964 32.76442
# Shear Modulus (GPa) = -6.83738 25.24487 9.20374
#
# Velocity S-wave (km/s) = -1.88322 3.61862 2.18493
# Velocity P-wave (km/s) = 2.48890 6.36595 4.83322
#
# Compressibility (1/GPa) = 0.04748518
#
# Stress axis : x y z
#
# Youngs Moduli (GPa) = 123.84217 22.46793 114.80779
#
# Poissons Ratio (x) = 0.00876 0.26359
# Poissons Ratio (y) = 0.04830 0.48425
# Poissons Ratio (z) = 0.28433 0.09477
#
# Static dielectric constant tensor:
#      x y z
#    x 1.786650 0.000000 0.000000 
#    y 0.000000 1.689370 0.000000 
#    z 0.000000 0.000000 1.678230 
# 
# From -- ./inp_files/22377.got.cif
#   From: 2010.05.17/outbox.cif.g08.bks.cpg/sg55_12_cif.got.tgz:22377.got - 2010.06.03 13:27:54.
