data_PCOD9424379
_publ_section_title
;
Structure prediction by ZEFSAII (Michael W. Deem and Ramdas Pophale) SiO2 
 PCOD9424379
Probable space group: P C C A
;
_chemical_formula_sum "Si O2"
_cell_formula_units_Z 32
_cell_length_a 11.805921
_cell_length_b 7.482828
_cell_length_c 15.416730
_cell_angle_alpha 90.000000
_cell_angle_beta 90.000000
_cell_angle_gamma 90.000000
_cell_volume 1361.939770
_symmetry_space_group_name_H-M "P C C A"
_symmetry_group_IT_number 54
_symmetry_cell_setting 'orthorhombic'
loop_
_space_group_symop_operation_xyz
x,y,z
1/2-x,-y,z
1/2+x,-y,1/2-z
-x,y,1/2-z
-x,-y,-z
1/2+x,y,-z
1/2-x,y,1/2+z
x,-y,1/2+z
loop_
_atom_site_type_symbol
_atom_site_label
_atom_site_fract_x
_atom_site_fract_y
_atom_site_fract_z
Si Si1 0.221057 0.699972 0.450855
Si Si2 0.110933 0.178472 0.297641
Si Si3 0.243507 0.716921 0.135585
Si Si4 0.511166 0.211520 0.156890
O O1 0.250000 0.500000 0.474661
O O2 0.320191 0.761728 0.384314
O O3 0.200323 0.783720 0.545733
O O4 0.103480 0.696890 0.401255
O O5 0.202803 0.192419 0.220464
O O6 0.000000 0.267161 0.250000
O O7 0.062445 0.985016 0.325114
O O8 0.250000 0.500000 0.150430
O O9 0.114318 0.777352 0.121312
O O10 0.500000 0.303304 0.250000
#
# Coordination Sequence:
#
# PCOD9424379 Si02
#       4
#     8   8   8   8
#     4  11  26  45  73 109 146 194 253 303 367 442
#     4  11  26  46  70 104 146 195 241 306 368 435
#     4  11  27  47  75 109 149 196 249 307 373 441
#     4  11  25  47  70 103 148 193 243 301 372 436
#
# _framework density 23.495899999999999
#
# number of rings (size 3 to 8) (size 9 to 14) (size 15 to 20)
#    0.000    1.000    2.500    1.500   10.500    3.000 
#   13.500    0.000    0.000    0.000    0.000    0.000 
#    0.000    0.000    0.000    0.000    0.000    0.000 
#
# Total GULP energy -178534.230464 kJ/mol
# GULP energy per Si atom -5579.194702 kJ/mol
# Density = 2.344242 g / cm^3
# Si number density = 23.495900 Si / 1000 Ang^3
#
#
#
# Elastic Constant Matrix: (Units=GPa)
#
#
# Indices 1 2 3 4 5 6 
#
# 1 98.1885 26.9352 -16.1919 0.0000 0.0000 0.0000
# 2 26.9352 85.2244 12.1725 0.0000 0.0000 0.0000
# 3 -16.1919 12.1725 99.5504 0.0000 0.0000 0.0000
# 4 0.0000 0.0000 0.0000 2.6341 0.0000 0.0000
# 5 0.0000 0.0000 0.0000 0.0000 46.3404 0.0000
# 6 0.0000 0.0000 0.0000 0.0000 0.0000 14.7177
#
#
#
# Elastic Compliance Matrix: (Units=1/GPa)
#
#
# Indices 1 2 3 4 5 6 
#
# 1 0.011686 -0.004035 0.002394 0.000000 0.000000 0.000000
# 2 -0.004035 0.013336 -0.002287 0.000000 0.000000 0.000000
# 3 0.002394 -0.002287 0.010714 0.000000 0.000000 0.000000
# 4 0.000000 0.000000 0.000000 0.379638 0.000000 0.000000
# 5 0.000000 0.000000 0.000000 0.000000 0.021579 0.000000
# 6 0.000000 0.000000 0.000000 0.000000 0.000000 0.067945
#
#
# Mechanical properties :
#
#
# Convention : Reuss Voigt Hill
#
# Bulk Modulus (GPa) = 35.86812 36.53277 36.20045
# Shear Modulus (GPa) = 9.57766 30.07494 19.82630
#
# Velocity S-wave (km/s) = 2.02118 3.58160 2.90801
# Velocity P-wave (km/s) = 4.55475 5.71718 5.16875
#
# Compressibility (1/GPa) = 0.02787991
#
# Stress axis : x y z
#
# Youngs Moduli (GPa) = 85.57021 74.98631 93.33383
#
# Poissons Ratio (x) = 0.30260 -0.22346
# Poissons Ratio (y) = 0.34531 0.21345
# Poissons Ratio (z) = -0.20487 0.17149
#
# Static dielectric constant tensor:
#      x y z
#    x 1.771110 0.000000 0.000000 
#    y 0.000000 1.861550 0.000000 
#    z 0.000000 0.000000 1.922740 
# 
# From -- ./inp_files/12289.got.cif
#   From: 2010.05.17/outbox.cif.g08.bks.cpg/sg54_7_cif.got.tgz:12289.got - 2010.06.03 13:09:01.
