data_PCOD9424687
_publ_section_title
;
Structure prediction by ZEFSAII (Michael W. Deem and Ramdas Pophale) SiO2 
 PCOD9424687
Probable space group: P C C A
;
_chemical_formula_sum "Si O2"
_cell_formula_units_Z 56
_cell_length_a 9.000000
_cell_length_b 15.000000
_cell_length_c 21.000000
_cell_angle_alpha 90.000000
_cell_angle_beta 90.000000
_cell_angle_gamma 90.000000
_cell_volume 2835.000000
_symmetry_space_group_name_H-M "P C C A"
_symmetry_group_IT_number 54
_symmetry_cell_setting 'orthorhombic'
loop_
_space_group_symop_operation_xyz
x,y,z
1/2-x,-y,z
1/2+x,-y,1/2-z
-x,y,1/2-z
-x,-y,-z
1/2+x,y,-z
1/2-x,y,1/2+z
x,-y,1/2+z
loop_
_atom_site_type_symbol
_atom_site_label
_atom_site_fract_x
_atom_site_fract_y
_atom_site_fract_z
Si Si1 0.517650 0.092383 0.674843
Si Si2 0.017650 0.592383 0.825157
Si Si3 0.248938 0.750000 0.304425
Si Si4 0.083825 0.959324 0.438612
Si Si5 0.017977 0.750000 0.410351
Si Si6 0.416175 0.540676 0.938612
Si Si7 0.712447 0.750000 0.344694
O O1 0.500000 0.067067 0.750000
O O2 0.658808 0.160823 0.675410
O O3 0.386932 0.159962 0.652157
O O4 0.527480 0.007798 0.627391
O O5 0.158808 0.660823 0.824590
O O6 0.027480 0.507798 0.872609
O O7 0.000000 0.567066 0.750000
O O8 0.886932 0.659962 0.847843
O O9 0.097600 0.750000 0.342101
O O10 0.232469 0.750000 0.228618
O O11 0.065003 0.849532 0.438470
O O12 0.250000 0.000000 0.443517
O O13 0.000000 0.000000 0.500000
O O14 0.065003 0.650468 0.438470
O O15 0.841875 0.750000 0.396816
O O16 0.250000 0.500000 0.943517
O O17 0.500000 0.500000 0.000000
#
# Coordination Sequence:
#
# PCOD9424687 Si02
#       7
#     8   8   8   8   8   8   8
#     4   9  20  44  71  98 144 187 220 282 350 400
#     4   9  20  44  71  98 144 187 220 282 350 400
#     4   9  17  40  68 104 138 182 226 284 340 398
#     4  12  29  49  70 100 139 185 234 286 345 406
#     4  12  25  42  70 101 135 179 233 292 328 420
#     4  12  29  49  70 100 139 185 234 286 345 406
#     4   9  21  36  72 109 140 175 229 278 343 417
#
# _framework density 19.753086
#
# number of rings (size 3 to 8) (size 9 to 14) (size 15 to 20)
#    0.000    1.714    2.857    2.143    4.000    5.714 
#    0.000    0.000    0.000    0.000    0.000    0.000 
#    0.000    0.000    0.000    0.000    0.000    0.000 
#
# Total GULP energy -312237.946668 kJ/mol
# GULP energy per Si atom -5575.677619 kJ/mol
# Density = 1.970813 g / cm^3
# Si number density = 19.753086 Si / 1000 Ang^3
#
#
#
# Elastic Constant Matrix: (Units=GPa)
#
#
# Indices 1 2 3 4 5 6 
#
# 1 102.2365 35.8229 33.5853 0.0000 0.0000 0.0000
# 2 35.8229 181.6206 57.0253 0.0000 0.0000 0.0000
# 3 33.5853 57.0253 85.9294 0.0000 0.0000 0.0000
# 4 0.0000 0.0000 0.0000 39.6311 0.0000 0.0000
# 5 0.0000 0.0000 0.0000 0.0000 32.7431 0.0000
# 6 0.0000 0.0000 0.0000 0.0000 0.0000 18.5094
#
#
#
# Elastic Compliance Matrix: (Units=1/GPa)
#
#
# Indices 1 2 3 4 5 6 
#
# 1 0.011385 -0.001072 -0.003739 0.000000 0.000000 0.000000
# 2 -0.001072 0.007056 -0.004264 0.000000 0.000000 0.000000
# 3 -0.003739 -0.004264 0.015928 0.000000 0.000000 0.000000
# 4 0.000000 0.000000 0.000000 0.025233 0.000000 0.000000
# 5 0.000000 0.000000 0.000000 0.000000 0.030541 0.000000
# 6 0.000000 0.000000 0.000000 0.000000 0.000000 0.054027
#
#
# Mechanical properties :
#
#
# Convention : Reuss Voigt Hill
#
# Bulk Modulus (GPa) = 61.64778 69.18370 65.41574
# Shear Modulus (GPa) = 29.81081 34.40027 32.10554
#
# Velocity S-wave (km/s) = 3.88902 4.17767 4.03593
# Velocity P-wave (km/s) = 7.17237 7.64008 7.40992
#
# Compressibility (1/GPa) = 0.01622118
#
# Stress axis : x y z
#
# Youngs Moduli (GPa) = 87.83567 141.72119 62.78177
#
# Poissons Ratio (x) = 0.15189 0.23471
# Poissons Ratio (y) = 0.09414 0.26769
# Poissons Ratio (z) = 0.32837 0.60426
#
# Static dielectric constant tensor:
#      x y z
#    x 1.760480 0.000000 0.000000 
#    y 0.000000 1.688190 0.000000 
#    z 0.000000 0.000000 1.678390 
# 
# From -- ./inp_files/20574.got.cif
#   From: 2010.05.17/outbox.ucp.g08.bks.cvg/sg54_11_cif.got.tgz:20574.got - 2010.06.11 16:34:40.
