data_PCOD9424476
_publ_section_title
;
Structure prediction by ZEFSAII (Michael W. Deem and Ramdas Pophale) SiO2 
 PCOD9424476
Probable space group: P C C A
;
_chemical_formula_sum "Si O2"
_cell_formula_units_Z 48
_cell_length_a 17.258157
_cell_length_b 8.075953
_cell_length_c 16.698656
_cell_angle_alpha 90.000000
_cell_angle_beta 90.000000
_cell_angle_gamma 90.000000
_cell_volume 2327.392961
_symmetry_space_group_name_H-M "P C C A"
_symmetry_group_IT_number 54
_symmetry_cell_setting 'orthorhombic'
loop_
_space_group_symop_operation_xyz
x,y,z
1/2-x,-y,z
1/2+x,-y,1/2-z
-x,y,1/2-z
-x,-y,-z
1/2+x,y,-z
1/2-x,y,1/2+z
x,-y,1/2+z
loop_
_atom_site_type_symbol
_atom_site_label
_atom_site_fract_x
_atom_site_fract_y
_atom_site_fract_z
Si Si1 0.161244 0.778176 0.656637
Si Si2 0.090655 0.544240 0.239189
Si Si3 0.162985 0.276493 0.594103
Si Si4 0.329218 0.250374 0.375891
Si Si5 0.750000 0.500000 0.509509
Si Si6 0.750000 0.000000 0.738846
Si Si7 0.089432 0.043247 0.011659
O O1 0.132785 0.623773 0.709282
O O2 0.248869 0.750319 0.624624
O O3 0.175925 0.941181 0.710202
O O4 0.105822 0.825137 0.583071
O O5 0.108767 0.677222 0.168683
O O6 0.123210 0.619626 0.321869
O O7 0.000000 0.514178 0.250000
O O8 0.175801 0.441009 0.541149
O O9 0.134116 0.122518 0.541457
O O10 0.275357 0.348200 0.436790
O O11 0.378433 0.122440 0.429593
O O12 0.275711 0.151064 0.315178
O O13 0.000000 0.000000 0.000000
#
# Coordination Sequence:
#
# PCOD9424476 Si02
#       7
#     8   8   8   8   4   4   8
#     4  12  23  46  72  99 135 199 237 279 357 442
#     4  12  26  44  70 103 148 183 231 297 371 423
#     4  12  22  47  72  97 136 197 235 281 355 440
#     4  12  25  41  65 110 133 176 240 306 338 410
#     4  12  24  40  74  96 136 176 246 294 338 408
#     4  12  24  40  74  96 138 176 248 294 338 412
#     4  12  26  44  71 104 147 182 234 298 372 421
#
# _framework density 20.623936
#
# number of rings (size 3 to 8) (size 9 to 14) (size 15 to 20)
#    0.000    0.000    6.667    3.000    0.000    2.667 
#    0.000    4.167    0.000    0.000    0.000    0.000 
#    0.000    0.000    0.000    0.000    0.000    0.000 
#
# Total GULP energy -268398.532746 kJ/mol
# GULP energy per Si atom -5591.636099 kJ/mol
# Density = 2.057700 g / cm^3
# Si number density = 20.623936 Si / 1000 Ang^3
#
#
#
# Elastic Constant Matrix: (Units=GPa)
#
#
# Indices 1 2 3 4 5 6 
#
# 1 131.3800 40.1762 44.9116 0.0000 0.0000 0.0000
# 2 40.1762 100.5480 37.1284 0.0000 0.0000 0.0000
# 3 44.9116 37.1284 115.3204 0.0000 0.0000 0.0000
# 4 0.0000 0.0000 0.0000 58.5727 0.0000 0.0000
# 5 0.0000 0.0000 0.0000 0.0000 25.7474 0.0000
# 6 0.0000 0.0000 0.0000 0.0000 0.0000 31.8079
#
#
#
# Elastic Compliance Matrix: (Units=1/GPa)
#
#
# Indices 1 2 3 4 5 6 
#
# 1 0.009396 -0.002728 -0.002781 0.000000 0.000000 0.000000
# 2 -0.002728 0.012079 -0.002827 0.000000 0.000000 0.000000
# 3 -0.002781 -0.002827 0.010665 0.000000 0.000000 0.000000
# 4 0.000000 0.000000 0.000000 0.017073 0.000000 0.000000
# 5 0.000000 0.000000 0.000000 0.000000 0.038839 0.000000
# 6 0.000000 0.000000 0.000000 0.000000 0.000000 0.031439
#
#
# Mechanical properties :
#
#
# Convention : Reuss Voigt Hill
#
# Bulk Modulus (GPa) = 64.64465 65.74233 65.19349
# Shear Modulus (GPa) = 35.38116 38.22774 36.80445
#
# Velocity S-wave (km/s) = 4.14640 4.30997 4.22898
# Velocity P-wave (km/s) = 7.37130 7.53085 7.45150
#
# Compressibility (1/GPa) = 0.01546918
#
# Stress axis : x y z
#
# Youngs Moduli (GPa) = 106.42432 82.78727 93.76679
#
# Poissons Ratio (x) = 0.22580 0.26079
# Poissons Ratio (y) = 0.29027 0.26506
# Poissons Ratio (z) = 0.29599 0.23402
#
# Static dielectric constant tensor:
#      x y z
#    x 1.686460 0.000000 0.000000 
#    y 0.000000 1.781090 0.000000 
#    z 0.000000 0.000000 1.806100 
# 
# From -- ./inp_files/14195.got.cif
#   From: 2010.05.17/outbox.cif.g08.bks.cpg/sg54_8_cif.got.tgz:14195.got - 2010.06.03 13:09:01.
