data_PCOD9424507
_publ_section_title
;
Structure prediction by ZEFSAII (Michael W. Deem and Ramdas Pophale) SiO2 
 PCOD9424507
Probable space group: P C C A
;
_chemical_formula_sum "Si O2"
_cell_formula_units_Z 20
_cell_length_a 5.334939
_cell_length_b 5.237486
_cell_length_c 30.021759
_cell_angle_alpha 90.000000
_cell_angle_beta 90.000000
_cell_angle_gamma 90.000000
_cell_volume 838.858032
_symmetry_space_group_name_H-M "P C C A"
_symmetry_group_IT_number 54
_symmetry_cell_setting 'orthorhombic'
loop_
_space_group_symop_operation_xyz
x,y,z
1/2-x,-y,z
1/2+x,-y,1/2-z
-x,y,1/2-z
-x,-y,-z
1/2+x,y,-z
1/2-x,y,1/2+z
x,-y,1/2+z
loop_
_atom_site_type_symbol
_atom_site_label
_atom_site_fract_x
_atom_site_fract_y
_atom_site_fract_z
Si Si1 0.750000 0.500000 0.470251
Si Si2 0.509951 0.348005 0.151272
Si Si3 0.000000 0.164142 0.750000
Si Si4 0.250000 0.000000 0.591370
O O1 0.500000 0.500000 0.500000
O O2 0.771941 0.245498 0.440275
O O3 0.250000 0.500000 0.145096
O O4 0.537052 0.312863 0.204116
O O5 0.750000 0.500000 0.133832
O O6 0.470758 0.081986 0.125412
O O7 0.750000 0.000000 0.756691
#
# Coordination Sequence:
#
# PCOD9424507 Si02
#       4
#     4   8   4   4
#     4  12  30  54  84 114 156 200 258 334 416 486
#     4  12  27  47  76 112 160 212 265 324 386 473
#     4  12  24  44  72 110 162 214 266 322 384 458
#     4  12  28  54  84 118 158 204 266 328 402 480
#
# _framework density 23.841937000000001
#
# number of rings (size 3 to 8) (size 9 to 14) (size 15 to 20)
#    0.000    0.000    4.000    4.800    2.800    3.200 
#    0.000    0.000    0.000    0.000    0.000    0.000 
#    0.000    0.000    0.000    0.000    0.000    0.000 
#
# Total GULP energy -112031.691724 kJ/mol
# GULP energy per Si atom -5601.584586 kJ/mol
# Density = 2.378767 g / cm^3
# Si number density = 23.841937 Si / 1000 Ang^3
#
#
#
# Elastic Constant Matrix: (Units=GPa)
#
#
# Indices 1 2 3 4 5 6 
#
# 1 207.5544 78.4063 45.9314 0.0000 0.0000 0.0000
# 2 78.4063 174.2254 83.5708 0.0000 0.0000 0.0000
# 3 45.9314 83.5708 175.2258 0.0000 0.0000 0.0000
# 4 0.0000 0.0000 0.0000 100.6892 0.0000 0.0000
# 5 0.0000 0.0000 0.0000 0.0000 -4.5514 0.0000
# 6 0.0000 0.0000 0.0000 0.0000 0.0000 62.5220
#
#
#
# Elastic Compliance Matrix: (Units=1/GPa)
#
#
# Indices 1 2 3 4 5 6 
#
# 1 0.005822 -0.002448 -0.000359 0.000000 0.000000 0.000000
# 2 -0.002448 0.008472 -0.003399 0.000000 0.000000 0.000000
# 3 -0.000359 -0.003399 0.007422 0.000000 0.000000 0.000000
# 4 0.000000 0.000000 0.000000 0.009932 0.000000 0.000000
# 5 0.000000 0.000000 0.000000 0.000000 -0.219711 0.000000
# 6 0.000000 0.000000 0.000000 0.000000 0.000000 0.015994
#
#
# Mechanical properties :
#
#
# Convention : Reuss Voigt Hill
#
# Bulk Modulus (GPa) = 107.46994 108.09140 107.78067
# Shear Modulus (GPa) = -31.93734 55.00510 11.53388
#
# Velocity S-wave (km/s) = -3.66395 4.80841 2.20185
# Velocity P-wave (km/s) = 5.22250 8.73286 7.19504
#
# Compressibility (1/GPa) = 0.00930493
#
# Stress axis : x y z
#
# Youngs Moduli (GPa) = 171.75688 118.04029 134.73729
#
# Poissons Ratio (x) = 0.28898 0.04831
# Poissons Ratio (y) = 0.42049 0.45793
# Poissons Ratio (z) = 0.06158 0.40118
#
# Static dielectric constant tensor:
#      x y z
#    x 1.892690 0.000000 0.000000 
#    y 0.000000 1.950240 0.000000 
#    z 0.000000 0.000000 1.940340 
# 
# From -- ./inp_files/24902.got.cif
#   From: 2010.05.17/outbox.cif.g08.bks.cpg/sg54_13_cif.got.tgz:24902.got - 2010.06.03 13:09:01.
