data_PCOD9424631
_publ_section_title
;
Structure prediction by ZEFSAII (Michael W. Deem and Ramdas Pophale) SiO2 
 PCOD9424631
Probable space group: P C C A
;
_chemical_formula_sum "Si O2"
_cell_formula_units_Z 64
_cell_length_a 15.000000
_cell_length_b 9.000000
_cell_length_c 24.000000
_cell_angle_alpha 90.000000
_cell_angle_beta 90.000000
_cell_angle_gamma 90.000000
_cell_volume 3240.000000
_symmetry_space_group_name_H-M "P C C A"
_symmetry_group_IT_number 54
_symmetry_cell_setting 'orthorhombic'
loop_
_space_group_symop_operation_xyz
x,y,z
1/2-x,-y,z
1/2+x,-y,1/2-z
-x,y,1/2-z
-x,-y,-z
1/2+x,y,-z
1/2-x,y,1/2+z
x,-y,1/2+z
loop_
_atom_site_type_symbol
_atom_site_label
_atom_site_fract_x
_atom_site_fract_y
_atom_site_fract_z
Si Si1 0.229821 0.323031 0.028541
Si Si2 0.906594 0.786869 0.878276
Si Si3 0.095911 0.271780 0.701619
Si Si4 0.345593 0.588433 0.223620
Si Si5 0.902569 0.877610 0.188324
Si Si6 0.602481 0.226234 0.666927
Si Si7 0.835535 0.897414 0.399367
Si Si8 0.268859 0.828396 0.911883
O O1 0.250000 0.500000 0.032544
O O2 0.146355 0.284982 0.069414
O O3 0.310164 0.209188 0.048226
O O4 0.210955 0.272562 0.965230
O O5 0.855536 0.717410 0.823661
O O6 0.008783 0.744016 0.864290
O O7 0.907168 0.966682 0.892180
O O8 0.090672 0.448255 0.708928
O O9 0.139621 0.193997 0.755948
O O10 0.151220 0.222538 0.648494
O O11 0.999818 0.196877 0.690615
O O12 0.250000 0.500000 0.225173
O O13 0.373728 0.663203 0.282226
O O14 0.848554 0.834304 0.133211
O O15 0.904640 0.056654 0.190973
O O16 0.682270 0.226457 0.622152
O O17 0.750000 0.000000 0.390267
O O18 0.250000 0.000000 0.929423
#
# Coordination Sequence:
#
# PCOD9424631 Si02
#       8
#     8   8   8   8   8   8   8   8
#     4  11  24  45  67  94 131 170 222 279 339 400
#     4  11  22  41  67  99 132 174 226 276 322 399
#     4  11  22  38  62 103 132 170 217 270 336 394
#     4  12  25  40  66 102 144 179 212 275 347 404
#     4  10  23  41  65  94 135 176 219 275 327 405
#     4  11  24  43  67 101 132 178 224 273 334 405
#     4  10  20  38  68  94 127 173 220 272 322 389
#     4  10  23  46  67  91 129 176 225 276 334 398
#
# _framework density 19.753086
#
# number of rings (size 3 to 8) (size 9 to 14) (size 15 to 20)
#    0.000    1.250    1.250    5.625    5.250    3.000 
#    2.250    2.500    0.000    0.000    0.000    0.000 
#    0.000    0.000    0.000    0.000    0.000    0.000 
#
# Total GULP energy -356994.878471 kJ/mol
# GULP energy per Si atom -5578.044976 kJ/mol
# Density = 1.970813 g / cm^3
# Si number density = 19.753086 Si / 1000 Ang^3
#
#
#
# Elastic Constant Matrix: (Units=GPa)
#
#
# Indices 1 2 3 4 5 6 
#
# 1 79.9517 41.9843 42.7170 0.0000 0.0000 0.0000
# 2 41.9843 139.6432 63.8912 0.0000 0.0000 0.0000
# 3 42.7170 63.8912 128.5923 0.0000 0.0000 0.0000
# 4 0.0000 0.0000 0.0000 44.5117 0.0000 0.0000
# 5 0.0000 0.0000 0.0000 0.0000 20.8286 0.0000
# 6 0.0000 0.0000 0.0000 0.0000 0.0000 31.9142
#
#
#
# Elastic Compliance Matrix: (Units=1/GPa)
#
#
# Indices 1 2 3 4 5 6 
#
# 1 0.016190 -0.003115 -0.003830 0.000000 0.000000 0.000000
# 2 -0.003115 0.009867 -0.003868 0.000000 0.000000 0.000000
# 3 -0.003830 -0.003868 0.010971 0.000000 0.000000 0.000000
# 4 0.000000 0.000000 0.000000 0.022466 0.000000 0.000000
# 5 0.000000 0.000000 0.000000 0.000000 0.048011 0.000000
# 6 0.000000 0.000000 0.000000 0.000000 0.000000 0.031334
#
#
# Mechanical properties :
#
#
# Convention : Reuss Voigt Hill
#
# Bulk Modulus (GPa) = 64.92928 71.70801 68.31864
# Shear Modulus (GPa) = 30.19344 32.75722 31.47533
#
# Velocity S-wave (km/s) = 3.91390 4.07668 3.99612
# Velocity P-wave (km/s) = 7.30525 7.65115 7.48020
#
# Compressibility (1/GPa) = 0.01540137
#
# Stress axis : x y z
#
# Youngs Moduli (GPa) = 61.76716 101.34498 91.15229
#
# Poissons Ratio (x) = 0.31569 0.34915
# Poissons Ratio (y) = 0.19241 0.35256
# Poissons Ratio (z) = 0.23659 0.39198
#
# Static dielectric constant tensor:
#      x y z
#    x 1.784900 0.000000 0.000000 
#    y 0.000000 1.709450 0.000000 
#    z 0.000000 0.000000 1.693440 
# 
# From -- ./inp_files/24503.got.cif
#   From: 2010.05.17/outbox.ucp.g08.bks.cvg/sg54_13_cif.got.tgz:24503.got - 2010.06.11 16:34:40.
