data_PCOD9424599
_publ_section_title
;
Structure prediction by ZEFSAII (Michael W. Deem and Ramdas Pophale) SiO2 
 PCOD9424599
Probable space group: P C C A
;
_chemical_formula_sum "Si O2"
_cell_formula_units_Z 24
_cell_length_a 18.335817
_cell_length_b 5.134967
_cell_length_c 9.692473
_cell_angle_alpha 90.000000
_cell_angle_beta 90.000000
_cell_angle_gamma 90.000000
_cell_volume 912.583312
_symmetry_space_group_name_H-M "P C C A"
_symmetry_group_IT_number 54
_symmetry_cell_setting 'orthorhombic'
loop_
_space_group_symop_operation_xyz
x,y,z
1/2-x,-y,z
1/2+x,-y,1/2-z
-x,y,1/2-z
-x,-y,-z
1/2+x,y,-z
1/2-x,y,1/2+z
x,-y,1/2+z
loop_
_atom_site_type_symbol
_atom_site_label
_atom_site_fract_x
_atom_site_fract_y
_atom_site_fract_z
Si Si1 0.000000 0.000000 0.000000
Si Si2 0.750000 0.500000 0.478434
Si Si3 0.500000 0.585880 0.750000
Si Si4 0.625082 0.256204 0.829280
Si Si5 0.250000 0.000000 0.829832
O O1 0.988203 0.228069 0.879593
O O2 0.075979 0.140776 0.050141
O O3 0.821002 0.478327 0.384066
O O4 0.746916 0.750525 0.573621
O O5 0.567195 0.385524 0.724278
O O6 0.678011 0.045383 0.760983
#
# Coordination Sequence:
#
# PCOD9424599 Si02
#       5
#     4   4   4   8   4
#     4  12  30  52  90 128 180 238 306 380 464 556
#     4  12  30  52  90 126 180 242 306 378 458 562
#     4  12  30  56  90 136 180 244 306 394 466 562
#     4  12  30  55  86 134 180 239 314 383 474 553
#     4  12  30  54  88 126 180 240 308 376 458 558
#
# _framework density 26.298971000000002
#
# number of rings (size 3 to 8) (size 9 to 14) (size 15 to 20)
#    0.000    0.000    0.000    6.000   23.333    0.000 
#    0.000    0.000    0.000    0.000    0.000    0.000 
#    0.000    0.000    0.000    0.000    0.000    0.000 
#
# Total GULP energy -133865.178045 kJ/mol
# GULP energy per Si atom -5577.715752 kJ/mol
# Density = 2.623911 g / cm^3
# Si number density = 26.298971 Si / 1000 Ang^3
#
#
#
# Elastic Constant Matrix: (Units=GPa)
#
#
# Indices 1 2 3 4 5 6 
#
# 1 196.6529 69.2031 50.8840 0.0000 0.0000 0.0000
# 2 69.2031 175.6950 41.6640 0.0000 0.0000 0.0000
# 3 50.8840 41.6640 45.5719 0.0000 0.0000 0.0000
# 4 0.0000 0.0000 0.0000 -17.8475 0.0000 0.0000
# 5 0.0000 0.0000 0.0000 0.0000 67.2777 0.0000
# 6 0.0000 0.0000 0.0000 0.0000 0.0000 68.7390
#
#
#
# Elastic Compliance Matrix: (Units=1/GPa)
#
#
# Indices 1 2 3 4 5 6 
#
# 1 0.007348 -0.001211 -0.007097 0.000000 0.000000 0.000000
# 2 -0.001211 0.007467 -0.005474 0.000000 0.000000 0.000000
# 3 -0.007097 -0.005474 0.034872 0.000000 0.000000 0.000000
# 4 0.000000 0.000000 0.000000 -0.056030 0.000000 0.000000
# 5 0.000000 0.000000 0.000000 0.000000 0.014864 0.000000
# 6 0.000000 0.000000 0.000000 0.000000 0.000000 0.014548
#
#
# Mechanical properties :
#
#
# Convention : Reuss Voigt Hill
#
# Bulk Modulus (GPa) = 45.20324 82.38022 63.79173
# Shear Modulus (GPa) = 86.19724 40.71175 63.45449
#
# Velocity S-wave (km/s) = 5.73123 3.93878 4.91737
# Velocity P-wave (km/s) = 7.81163 7.21649 7.51995
#
# Compressibility (1/GPa) = 0.02212231
#
# Stress axis : x y z
#
# Youngs Moduli (GPa) = 136.09863 133.92444 28.67617
#
# Poissons Ratio (x) = 0.16221 0.20351
# Poissons Ratio (y) = 0.16484 0.15698
# Poissons Ratio (z) = 0.96586 0.73313
#
# Static dielectric constant tensor:
#      x y z
#    x 2.103320 0.000000 0.000000 
#    y 0.000000 2.055250 0.000000 
#    z 0.000000 0.000000 2.055370 
# 
# From -- ./inp_files/7795.got.cif
#   From: 2010.05.17/outbox.cif.g08.bks.cpg/sg54_4_cif.got.tgz:7795.got - 2010.06.03 13:09:01.
