data_PCOD9424021
_publ_section_title
;
Structure prediction by ZEFSAII (Michael W. Deem and Ramdas Pophale) SiO2 
 PCOD9424021
Probable space group: P C C A
;
_chemical_formula_sum "Si O2"
_cell_formula_units_Z 48
_cell_length_a 30.002616
_cell_length_b 16.076633
_cell_length_c 5.003829
_cell_angle_alpha 90.000000
_cell_angle_beta 90.000000
_cell_angle_gamma 90.000000
_cell_volume 2413.552116
_symmetry_space_group_name_H-M "P C C A"
_symmetry_group_IT_number 54
_symmetry_cell_setting 'orthorhombic'
loop_
_space_group_symop_operation_xyz
x,y,z
1/2-x,-y,z
1/2+x,-y,1/2-z
-x,y,1/2-z
-x,-y,-z
1/2+x,y,-z
1/2-x,y,1/2+z
x,-y,1/2+z
loop_
_atom_site_type_symbol
_atom_site_label
_atom_site_fract_x
_atom_site_fract_y
_atom_site_fract_z
Si Si1 0.500000 0.779587 0.750000
Si Si2 0.597740 0.179620 0.308894
Si Si3 0.324464 0.054512 0.116125
Si Si4 0.908505 0.554973 0.749420
Si Si5 0.000000 0.655486 0.750000
Si Si6 0.866584 0.274700 0.288728
Si Si7 0.223550 0.219988 0.493470
O O1 0.454189 0.832142 0.756403
O O2 0.500103 0.716976 0.501008
O O3 0.627327 0.100326 0.395399
O O4 0.599672 0.241990 0.560278
O O5 0.622915 0.222582 0.056755
O O6 0.288667 0.122392 0.019967
O O7 0.320167 0.022971 0.417709
O O8 0.903190 0.521692 0.450354
O O9 0.874940 0.628355 0.829100
O O10 0.957156 0.596260 0.771213
O O11 0.819232 0.258776 0.149517
O O12 0.264269 0.241665 0.296974
#
# Coordination Sequence:
#
# PCOD9424021 Si02
#       7
#     4   8   8   8   4   8   8
#     4  12  20  37  62  85 118 166 220 256 284 353
#     4  11  21  39  61  85 119 170 212 246 296 362
#     4  11  23  39  60  90 126 154 187 247 311 365
#     4  12  23  37  58  89 128 163 199 255 318 366
#     4  12  22  37  56  91 126 158 206 268 302 357
#     4  11  22  41  61  85 123 162 207 250 304 375
#     4  11  23  40  65  92 114 151 197 246 302 369
#
# _framework density 19.887701
#
# number of rings (size 3 to 8) (size 9 to 14) (size 15 to 20)
#    0.000    0.667    3.333    7.500    0.000    2.000 
#    0.000    0.833    0.000    3.000    0.000    0.000 
#    0.000    0.000    0.000    0.000    0.000    0.000 
#
# Total GULP energy -268118.130143 kJ/mol
# GULP energy per Si atom -5585.794378 kJ/mol
# Density = 1.984244 g / cm^3
# Si number density = 19.887701 Si / 1000 Ang^3
#
#
#
# Elastic Constant Matrix: (Units=GPa)
#
#
# Indices 1 2 3 4 5 6 
#
# 1 70.3024 10.1823 9.6901 0.0000 0.0000 0.0000
# 2 10.1823 35.7724 9.7320 0.0000 0.0000 0.0000
# 3 9.6901 9.7320 105.9525 0.0000 0.0000 0.0000
# 4 0.0000 0.0000 0.0000 28.5381 0.0000 0.0000
# 5 0.0000 0.0000 0.0000 0.0000 21.6969 0.0000
# 6 0.0000 0.0000 0.0000 0.0000 0.0000 22.8766
#
#
#
# Elastic Compliance Matrix: (Units=1/GPa)
#
#
# Indices 1 2 3 4 5 6 
#
# 1 0.014939 -0.003980 -0.001001 0.000000 0.000000 0.000000
# 2 -0.003980 0.029731 -0.002367 0.000000 0.000000 0.000000
# 3 -0.001001 -0.002367 0.009747 0.000000 0.000000 0.000000
# 4 0.000000 0.000000 0.000000 0.035041 0.000000 0.000000
# 5 0.000000 0.000000 0.000000 0.000000 0.046089 0.000000
# 6 0.000000 0.000000 0.000000 0.000000 0.000000 0.043713
#
#
# Mechanical properties :
#
#
# Convention : Reuss Voigt Hill
#
# Bulk Modulus (GPa) = 25.17495 30.13736 27.65615
# Shear Modulus (GPa) = 24.13176 26.78386 25.45781
#
# Velocity S-wave (km/s) = 3.48717 3.67380 3.58170
# Velocity P-wave (km/s) = 5.37586 5.76041 5.57145
#
# Compressibility (1/GPa) = 0.03972203
#
# Stress axis : x y z
#
# Youngs Moduli (GPa) = 66.94060 33.63460 102.59448
#
# Poissons Ratio (x) = 0.13386 0.10266
# Poissons Ratio (y) = 0.26642 0.24283
# Poissons Ratio (z) = 0.06699 0.07961
#
# Static dielectric constant tensor:
#      x y z
#    x 1.753590 0.000000 0.000000 
#    y 0.000000 1.673220 0.000000 
#    z 0.000000 0.000000 1.674910 
# 
# From -- ./inp_files/1926.got.cif
#   From: 2010.05.17/outbox.cif.g08.bks.cpg/sg54_1_cif.got.tgz:1926.got - 2010.06.03 13:09:01.
