data_PCOD9424592
_publ_section_title
;
Structure prediction by ZEFSAII (Michael W. Deem and Ramdas Pophale) SiO2 
 PCOD9424592
Probable space group: P C C A
;
_chemical_formula_sum "Si O2"
_cell_formula_units_Z 20
_cell_length_a 14.468850
_cell_length_b 4.865654
_cell_length_c 10.596495
_cell_angle_alpha 90.000000
_cell_angle_beta 90.000000
_cell_angle_gamma 90.000000
_cell_volume 745.997676
_symmetry_space_group_name_H-M "P C C A"
_symmetry_group_IT_number 54
_symmetry_cell_setting 'orthorhombic'
loop_
_space_group_symop_operation_xyz
x,y,z
1/2-x,-y,z
1/2+x,-y,1/2-z
-x,y,1/2-z
-x,-y,-z
1/2+x,y,-z
1/2-x,y,1/2+z
x,-y,1/2+z
loop_
_atom_site_type_symbol
_atom_site_label
_atom_site_fract_x
_atom_site_fract_y
_atom_site_fract_z
Si Si1 0.250000 0.000000 0.345819
Si Si2 0.573909 0.767591 0.542782
Si Si3 0.094448 0.639512 0.724686
O O1 0.171339 0.912308 0.442326
O O2 0.309555 0.789719 0.258272
O O3 0.578579 0.601762 0.674730
O O4 0.586316 0.563689 0.422548
O O5 0.500000 0.000000 0.500000
O O6 0.000000 0.817568 0.750000
#
# Coordination Sequence:
#
# PCOD9424592 Si02
#       3
#     4   8   8
#     4  12  28  50  88 126 172 222 288 366 442 528
#     4  12  29  55  84 125 175 229 292 362 435 525
#     4  12  28  53  87 121 171 226 287 356 442 514
#
# _framework density 26.809733999999999
#
# number of rings (size 3 to 8) (size 9 to 14) (size 15 to 20)
#    0.000    0.000    4.000    3.600    5.600    6.400 
#    0.000    0.000    0.000    0.000    0.000    0.000 
#    0.000    0.000    0.000    0.000    0.000    0.000 
#
# Total GULP energy -111497.418754 kJ/mol
# GULP energy per Si atom -5574.870938 kJ/mol
# Density = 2.674871 g / cm^3
# Si number density = 26.809734 Si / 1000 Ang^3
#
#
#
# Elastic Constant Matrix: (Units=GPa)
#
#
# Indices 1 2 3 4 5 6 
#
# 1 222.1602 71.3366 40.2587 0.0000 0.0000 0.0000
# 2 71.3366 132.6530 84.3857 0.0000 0.0000 0.0000
# 3 40.2587 84.3857 252.2266 0.0000 0.0000 0.0000
# 4 0.0000 0.0000 0.0000 10.8789 0.0000 0.0000
# 5 0.0000 0.0000 0.0000 0.0000 54.9212 0.0000
# 6 0.0000 0.0000 0.0000 0.0000 0.0000 -12.1963
#
#
#
# Elastic Compliance Matrix: (Units=1/GPa)
#
#
# Indices 1 2 3 4 5 6 
#
# 1 0.005445 -0.003017 0.000140 0.000000 0.000000 0.000000
# 2 -0.003017 0.011249 -0.003282 0.000000 0.000000 0.000000
# 3 0.000140 -0.003282 0.005040 0.000000 0.000000 0.000000
# 4 0.000000 0.000000 0.000000 0.091921 0.000000 0.000000
# 5 0.000000 0.000000 0.000000 0.000000 0.018208 0.000000
# 6 0.000000 0.000000 0.000000 0.000000 0.000000 -0.081992
#
#
# Mechanical properties :
#
#
# Convention : Reuss Voigt Hill
#
# Bulk Modulus (GPa) = 106.19871 111.00019 108.59945
# Shear Modulus (GPa) = 76.53871 38.12469 57.33170
#
# Velocity S-wave (km/s) = 5.34891 3.77509 4.62937
# Velocity P-wave (km/s) = 8.82302 7.77783 8.31686
#
# Compressibility (1/GPa) = 0.00941631
#
# Stress axis : x y z
#
# Youngs Moduli (GPa) = 183.66555 88.89857 198.40287
#
# Poissons Ratio (x) = 0.26823 -0.02786
# Poissons Ratio (y) = 0.55418 0.65112
# Poissons Ratio (z) = -0.02579 0.29175
#
# Static dielectric constant tensor:
#      x y z
#    x 2.235650 0.000000 0.000000 
#    y 0.000000 2.530710 0.000000 
#    z 0.000000 0.000000 2.134130 
# 
# From -- ./inp_files/7712.got.cif
#   From: 2010.05.17/outbox.cif.g08.bks.cpg/sg54_4_cif.got.tgz:7712.got - 2010.06.03 13:09:01.
