data_PCOD9424071
_publ_section_title
;
Structure prediction by ZEFSAII (Michael W. Deem and Ramdas Pophale) SiO2 
 PCOD9424071
Probable space group: P C C A
;
_chemical_formula_sum "Si O2"
_cell_formula_units_Z 40
_cell_length_a 7.406564
_cell_length_b 16.065989
_cell_length_c 14.067227
_cell_angle_alpha 90.000000
_cell_angle_beta 90.000000
_cell_angle_gamma 90.000000
_cell_volume 1673.912455
_symmetry_space_group_name_H-M "P C C A"
_symmetry_group_IT_number 54
_symmetry_cell_setting 'orthorhombic'
loop_
_space_group_symop_operation_xyz
x,y,z
1/2-x,-y,z
1/2+x,-y,1/2-z
-x,y,1/2-z
-x,-y,-z
1/2+x,y,-z
1/2-x,y,1/2+z
x,-y,1/2+z
loop_
_atom_site_type_symbol
_atom_site_label
_atom_site_fract_x
_atom_site_fract_y
_atom_site_fract_z
Si Si1 0.652489 0.911558 0.943751
Si Si2 0.737997 0.089998 0.153871
Si Si3 0.500000 0.210073 0.750000
Si Si4 0.830839 0.731995 0.919440
Si Si5 0.250000 0.500000 0.429640
Si Si6 0.023710 0.621141 0.072026
O O1 0.465038 0.899677 0.886540
O O2 0.762878 0.825767 0.933038
O O3 0.750000 0.000000 0.920799
O O4 0.634777 0.914932 0.059362
O O5 0.824151 0.154117 0.227471
O O6 0.750000 0.000000 0.200728
O O7 0.513567 0.265048 0.842896
O O8 0.673037 0.675050 0.876465
O O9 0.907224 0.689350 0.013724
O O10 0.389019 0.440991 0.375167
O O11 0.366171 0.562062 0.497546
#
# Coordination Sequence:
#
# PCOD9424071 Si02
#       6
#     8   8   4   8   4   8
#     4  11  22  42  67  88 118 167 222 266 305 354
#     4  11  23  40  61  84 117 164 220 270 310 358
#     4  12  26  38  52  88 132 166 204 254 318 372
#     4  11  22  37  59  90 125 163 205 253 306 368
#     4   8  16  34  66  98 112 138 196 258 300 354
#     4   9  18  36  64  93 120 150 199 251 304 369
#
# _framework density 23.896115000000002
#
# number of rings (size 3 to 8) (size 9 to 14) (size 15 to 20)
#    0.000    1.600    0.000    7.200    0.000    4.800 
#    0.000    1.000    0.000    7.200    0.000    0.000 
#    0.000    0.000    0.000    0.000    0.000    0.000 
#
# Total GULP energy -223333.213657 kJ/mol
# GULP energy per Si atom -5583.330341 kJ/mol
# Density = 2.384173 g / cm^3
# Si number density = 23.896115 Si / 1000 Ang^3
#
#
#
# Elastic Constant Matrix: (Units=GPa)
#
#
# Indices 1 2 3 4 5 6 
#
# 1 111.6492 53.8927 -3.9374 0.0000 0.0000 0.0000
# 2 53.8927 134.2095 9.0786 0.0000 0.0000 0.0000
# 3 -3.9374 9.0786 44.5613 0.0000 0.0000 0.0000
# 4 0.0000 0.0000 0.0000 1.9109 0.0000 0.0000
# 5 0.0000 0.0000 0.0000 0.0000 17.9932 0.0000
# 6 0.0000 0.0000 0.0000 0.0000 0.0000 56.5995
#
#
#
# Elastic Compliance Matrix: (Units=1/GPa)
#
#
# Indices 1 2 3 4 5 6 
#
# 1 0.011274 -0.004659 0.001945 0.000000 0.000000 0.000000
# 2 -0.004659 0.009480 -0.002343 0.000000 0.000000 0.000000
# 3 0.001945 -0.002343 0.023090 0.000000 0.000000 0.000000
# 4 0.000000 0.000000 0.000000 0.523318 0.000000 0.000000
# 5 0.000000 0.000000 0.000000 0.000000 0.055577 0.000000
# 6 0.000000 0.000000 0.000000 0.000000 0.000000 0.017668
#
#
# Mechanical properties :
#
#
# Convention : Reuss Voigt Hill
#
# Bulk Modulus (GPa) = 29.64591 45.38752 37.51671
# Shear Modulus (GPa) = 7.55557 30.72647 19.14102
#
# Velocity S-wave (km/s) = 1.78008 3.58974 2.83328
# Velocity P-wave (km/s) = 4.08143 6.01802 5.14172
#
# Compressibility (1/GPa) = 0.03373147
#
# Stress axis : x y z
#
# Youngs Moduli (GPa) = 88.69981 105.48212 43.30836
#
# Poissons Ratio (x) = 0.49141 -0.08425
# Poissons Ratio (y) = 0.41323 0.10148
# Poissons Ratio (z) = -0.17255 0.24715
#
# Static dielectric constant tensor:
#      x y z
#    x 2.102120 0.000000 0.000000 
#    y 0.000000 4.884650 0.000000 
#    z 0.000000 0.000000 1.896220 
# 
# From -- ./inp_files/11562.got.cif
#   From: 2010.05.17/outbox.cif.g08.bks.cpg/sg54_6_cif.got.tgz:11562.got - 2010.06.03 13:09:01.
