data_PCOD9424649
_publ_section_title
;
Structure prediction by ZEFSAII (Michael W. Deem and Ramdas Pophale) SiO2 
 PCOD9424649
Probable space group: P C C A
;
_chemical_formula_sum "Si O2"
_cell_formula_units_Z 64
_cell_length_a 15.000000
_cell_length_b 12.000000
_cell_length_c 18.000000
_cell_angle_alpha 90.000000
_cell_angle_beta 90.000000
_cell_angle_gamma 90.000000
_cell_volume 3240.000000
_symmetry_space_group_name_H-M "P C C A"
_symmetry_group_IT_number 54
_symmetry_cell_setting 'orthorhombic'
loop_
_space_group_symop_operation_xyz
x,y,z
1/2-x,-y,z
1/2+x,-y,1/2-z
-x,y,1/2-z
-x,-y,-z
1/2+x,y,-z
1/2-x,y,1/2+z
x,-y,1/2+z
loop_
_atom_site_type_symbol
_atom_site_label
_atom_site_fract_x
_atom_site_fract_y
_atom_site_fract_z
Si Si1 0.562921 0.640331 0.561598
Si Si2 0.496303 0.868970 0.022778
Si Si3 0.395383 0.961589 0.761757
Si Si4 0.239742 0.662432 0.656553
Si Si5 0.807817 0.265616 0.687050
Si Si6 0.615987 0.498909 0.416400
Si Si7 0.679895 0.097439 0.600370
Si Si8 0.819121 0.090360 0.380546
O O1 0.528320 0.762372 0.530354
O O2 0.629264 0.667082 0.629957
O O3 0.610425 0.567711 0.495165
O O4 0.478900 0.564675 0.587920
O O5 0.598980 0.854403 0.050523
O O6 0.410408 0.875952 0.077477
O O7 0.500000 0.000000 0.000000
O O8 0.500000 0.960214 0.750000
O O9 0.361466 0.836188 0.774050
O O10 0.370821 0.031177 0.834518
O O11 0.349147 0.026215 0.694123
O O12 0.268462 0.663724 0.743579
O O13 0.310903 0.598070 0.603029
O O14 0.147382 0.595030 0.641794
O O15 0.229046 0.791839 0.634341
O O16 0.734921 0.199513 0.636758
O O17 0.750000 0.000000 0.573187
O O18 0.750000 0.000000 0.415428
#
# Coordination Sequence:
#
# PCOD9424649 Si02
#       8
#     8   8   8   8   8   8   8   8
#     4  11  26  49  72 106 144 194 249 313 371 433
#     4  12  26  41  67 109 147 199 246 292 382 455
#     4  11  20  36  66 108 150 188 227 295 373 444
#     4  11  23  47  76 104 139 195 248 300 371 445
#     4  11  24  41  76 109 141 185 244 311 382 438
#     4  10  26  50  73  96 144 195 257 306 351 437
#     4  10  21  40  59  99 152 184 229 294 363 450
#     4  12  23  40  71 111 147 189 239 305 374 442
#
# _framework density 19.753086
#
# number of rings (size 3 to 8) (size 9 to 14) (size 15 to 20)
#    0.000    1.000    5.000    1.875    3.500    3.500 
#    0.000    8.750    5.500    0.000    0.000    0.000 
#    0.000    0.000    0.000    0.000    0.000    0.000 
#
# Total GULP energy -356916.279153 kJ/mol
# GULP energy per Si atom -5576.816862 kJ/mol
# Density = 1.970813 g / cm^3
# Si number density = 19.753086 Si / 1000 Ang^3
#
#
#
# Elastic Constant Matrix: (Units=GPa)
#
#
# Indices 1 2 3 4 5 6 
#
# 1 141.0240 59.7627 66.1246 0.0000 0.0000 0.0000
# 2 59.7627 142.4248 63.7489 0.0000 0.0000 0.0000
# 3 66.1246 63.7489 110.9783 0.0000 0.0000 0.0000
# 4 0.0000 0.0000 0.0000 49.8545 0.0000 0.0000
# 5 0.0000 0.0000 0.0000 0.0000 14.5577 0.0000
# 6 0.0000 0.0000 0.0000 0.0000 0.0000 50.3182
#
#
#
# Elastic Compliance Matrix: (Units=1/GPa)
#
#
# Indices 1 2 3 4 5 6 
#
# 1 0.010294 -0.002119 -0.004916 0.000000 0.000000 0.000000
# 2 -0.002119 0.009887 -0.004417 0.000000 0.000000 0.000000
# 3 -0.004916 -0.004417 0.014477 0.000000 0.000000 0.000000
# 4 0.000000 0.000000 0.000000 0.020058 0.000000 0.000000
# 5 0.000000 0.000000 0.000000 0.000000 0.068692 0.000000
# 6 0.000000 0.000000 0.000000 0.000000 0.000000 0.019874
#
#
# Mechanical properties :
#
#
# Convention : Reuss Voigt Hill
#
# Bulk Modulus (GPa) = 85.07633 85.96661 85.52147
# Shear Modulus (GPa) = 29.39340 36.59879 32.99610
#
# Velocity S-wave (km/s) = 3.86170 4.30910 4.09152
# Velocity P-wave (km/s) = 7.94021 8.26879 8.10617
#
# Compressibility (1/GPa) = 0.01175415
#
# Stress axis : x y z
#
# Youngs Moduli (GPa) = 97.14179 101.13837 69.07295
#
# Poissons Ratio (x) = 0.21431 0.33959
# Poissons Ratio (y) = 0.20584 0.30510
# Poissons Ratio (z) = 0.47759 0.44673
#
# Static dielectric constant tensor:
#      x y z
#    x 1.728700 0.000000 0.000000 
#    y 0.000000 1.696190 0.000000 
#    z 0.000000 0.000000 1.738020 
# 
# From -- ./inp_files/18240.got.cif
#   From: 2010.05.17/outbox.ucp.g08.bks.cvg/sg54_10_cif.got.tgz:18240.got - 2010.06.11 16:34:40.
