data_PCOD9424023
_publ_section_title
;
Structure prediction by ZEFSAII (Michael W. Deem and Ramdas Pophale) SiO2 
 PCOD9424023
Probable space group: P C C A
;
_chemical_formula_sum "Si O2"
_cell_formula_units_Z 64
_cell_length_a 16.826366
_cell_length_b 9.904530
_cell_length_c 18.438740
_cell_angle_alpha 90.000000
_cell_angle_beta 90.000000
_cell_angle_gamma 90.000000
_cell_volume 3072.949644
_symmetry_space_group_name_H-M "P C C A"
_symmetry_group_IT_number 54
_symmetry_cell_setting 'orthorhombic'
loop_
_space_group_symop_operation_xyz
x,y,z
1/2-x,-y,z
1/2+x,-y,1/2-z
-x,y,1/2-z
-x,-y,-z
1/2+x,y,-z
1/2-x,y,1/2+z
x,-y,1/2+z
loop_
_atom_site_type_symbol
_atom_site_label
_atom_site_fract_x
_atom_site_fract_y
_atom_site_fract_z
Si Si1 0.923733 0.186860 0.800729
Si Si2 0.928090 0.114756 0.073117
Si Si3 0.136707 0.580621 0.113860
Si Si4 0.866679 0.600954 0.558138
Si Si5 0.818802 0.324853 0.569768
Si Si6 0.811908 0.290148 0.399305
Si Si7 0.334411 0.927217 0.827676
Si Si8 0.103543 0.023483 0.072383
O O1 0.918307 0.337405 0.831937
O O2 0.852044 0.139261 0.749360
O O3 0.000000 0.169582 0.750000
O O4 0.919075 0.091404 0.870462
O O5 0.914227 0.272142 0.085622
O O6 0.020746 0.098859 0.056409
O O7 0.899724 0.032975 0.143506
O O8 0.877426 0.053829 0.004008
O O9 0.220954 0.664486 0.116020
O O10 0.143292 0.421758 0.133454
O O11 0.116560 0.589801 0.028260
O O12 0.873479 0.451957 0.590950
O O13 0.774464 0.638489 0.573099
O O14 0.829463 0.300622 0.484912
O O15 0.836119 0.194628 0.615534
O O16 0.837220 0.133252 0.389808
O O17 0.250000 0.000000 0.829151
#
# Coordination Sequence:
#
# PCOD9424023 Si02
#       8
#     8   8   8   8   8   8   8   8
#     4  12  26  44  57  87 135 171 203 254 319 388
#     4  11  21  39  62  92 123 162 211 263 310 367
#     4   9  20  40  65  91 120 161 206 259 312 375
#     4   9  17  36  63  92 121 150 204 262 317 352
#     4   9  18  35  61  94 122 150 196 273 308 355
#     4   9  19  39  67  94 118 148 217 269 303 363
#     4  12  24  39  61  92 126 167 211 253 317 376
#     4  11  23  39  63  91 124 167 210 261 312 367
#
# _framework density 20.826895
#
# number of rings (size 3 to 8) (size 9 to 14) (size 15 to 20)
#    0.000    1.750    5.000    1.500    1.750    0.000 
#    2.250    5.625    0.000    0.000    0.000    0.000 
#    0.000    0.000    0.000    0.000    0.000    0.000 
#
# Total GULP energy -356746.162317 kJ/mol
# GULP energy per Si atom -5574.158786 kJ/mol
# Density = 2.077949 g / cm^3
# Si number density = 20.826895 Si / 1000 Ang^3
#
#
#
# Elastic Constant Matrix: (Units=GPa)
#
#
# Indices 1 2 3 4 5 6 
#
# 1 17.9905 17.2074 0.0762 0.0000 0.0000 0.0000
# 2 17.2074 90.8290 15.3206 0.0000 0.0000 0.0000
# 3 0.0762 15.3206 41.5032 0.0000 0.0000 0.0000
# 4 0.0000 0.0000 0.0000 35.6576 0.0000 0.0000
# 5 0.0000 0.0000 0.0000 0.0000 9.0325 0.0000
# 6 0.0000 0.0000 0.0000 0.0000 0.0000 20.1173
#
#
#
# Elastic Compliance Matrix: (Units=1/GPa)
#
#
# Indices 1 2 3 4 5 6 
#
# 1 0.068845 -0.013886 0.005000 0.000000 0.000000 0.000000
# 2 -0.013886 0.014542 -0.005342 0.000000 0.000000 0.000000
# 3 0.005000 -0.005342 0.026057 0.000000 0.000000 0.000000
# 4 0.000000 0.000000 0.000000 0.028045 0.000000 0.000000
# 5 0.000000 0.000000 0.000000 0.000000 0.110711 0.000000
# 6 0.000000 0.000000 0.000000 0.000000 0.000000 0.049708
#
#
# Mechanical properties :
#
#
# Convention : Reuss Voigt Hill
#
# Bulk Modulus (GPa) = 12.34771 23.94790 18.14780
# Shear Modulus (GPa) = 14.14982 20.80938 17.47960
#
# Velocity S-wave (km/s) = 2.60936 3.16438 2.90018
# Velocity P-wave (km/s) = 3.87556 4.98744 4.46623
#
# Compressibility (1/GPa) = 0.08098668
#
# Stress axis : x y z
#
# Youngs Moduli (GPa) = 14.52533 68.76864 38.37667
#
# Poissons Ratio (x) = 0.95492 -0.19187
# Poissons Ratio (y) = 0.20170 0.20502
# Poissons Ratio (z) = -0.07262 0.36739
#
# Static dielectric constant tensor:
#      x y z
#    x 1.776500 0.000000 0.000000 
#    y 0.000000 1.796980 0.000000 
#    z 0.000000 0.000000 1.730350 
# 
# From -- ./inp_files/21941.got.cif
#   From: 2010.05.17/outbox.cif.g08.bks.cpg/sg54_11_cif.got.tgz:21941.got - 2010.06.03 13:09:01.
