data_PCOD9424237
_publ_section_title
;
Structure prediction by ZEFSAII (Michael W. Deem and Ramdas Pophale) SiO2 
 PCOD9424237
Probable space group: P C C A
;
_chemical_formula_sum "Si O2"
_cell_formula_units_Z 40
_cell_length_a 13.393777
_cell_length_b 7.014058
_cell_length_c 19.596238
_cell_angle_alpha 90.000000
_cell_angle_beta 90.000000
_cell_angle_gamma 90.000000
_cell_volume 1840.963263
_symmetry_space_group_name_H-M "P C C A"
_symmetry_group_IT_number 54
_symmetry_cell_setting 'orthorhombic'
loop_
_space_group_symop_operation_xyz
x,y,z
1/2-x,-y,z
1/2+x,-y,1/2-z
-x,y,1/2-z
-x,-y,-z
1/2+x,y,-z
1/2-x,y,1/2+z
x,-y,1/2+z
loop_
_atom_site_type_symbol
_atom_site_label
_atom_site_fract_x
_atom_site_fract_y
_atom_site_fract_z
Si Si1 0.343951 0.881898 0.459200
Si Si2 0.250000 0.500000 0.923635
Si Si3 0.563682 0.328917 0.153552
Si Si4 0.367041 0.007868 0.743635
Si Si5 0.000000 0.639947 0.750000
Si Si6 0.452789 0.021365 0.091677
O O1 0.302874 0.668452 0.465886
O O2 0.375709 0.984711 0.529705
O O3 0.250000 0.000000 0.428201
O O4 0.449279 0.888165 0.418166
O O5 0.334281 0.589830 0.875425
O O6 0.497722 0.494770 0.187007
O O7 0.503446 0.229753 0.092822
O O8 0.589260 0.161718 0.208897
O O9 0.408976 0.215935 0.762678
O O10 0.250000 0.000000 0.749907
O O11 0.399492 0.993686 0.664405
#
# Coordination Sequence:
#
# PCOD9424237 Si02
#       6
#     8   4   8   8   4   8
#     4  11  25  47  72  98 134 191 228 284 344 408
#     4  12  26  42  70 102 128 184 242 280 336 422
#     4  12  24  43  68 104 135 176 231 281 347 415
#     4  12  25  44  71 105 140 183 222 285 352 407
#     4  12  22  44  70 102 140 182 216 282 352 404
#     4  11  23  48  68  98 148 174 229 285 342 413
#
# _framework density 21.727754999999998
#
# number of rings (size 3 to 8) (size 9 to 14) (size 15 to 20)
#    0.000    0.400    6.000    3.000    2.800    0.800 
#    7.200    0.000    0.000    0.000    0.000    0.000 
#    0.000    0.000    0.000    0.000    0.000    0.000 
#
# Total GULP energy -223401.443846 kJ/mol
# GULP energy per Si atom -5585.036096 kJ/mol
# Density = 2.167830 g / cm^3
# Si number density = 21.727755 Si / 1000 Ang^3
#
#
#
# Elastic Constant Matrix: (Units=GPa)
#
#
# Indices 1 2 3 4 5 6 
#
# 1 120.7725 35.2375 5.0092 0.0000 0.0000 0.0000
# 2 35.2375 115.1056 4.4980 0.0000 0.0000 0.0000
# 3 5.0092 4.4980 67.4843 0.0000 0.0000 0.0000
# 4 0.0000 0.0000 0.0000 10.7628 0.0000 0.0000
# 5 0.0000 0.0000 0.0000 0.0000 24.3734 0.0000
# 6 0.0000 0.0000 0.0000 0.0000 0.0000 36.6198
#
#
#
# Elastic Compliance Matrix: (Units=1/GPa)
#
#
# Indices 1 2 3 4 5 6 
#
# 1 0.009108 -0.002769 -0.000492 0.000000 0.000000 0.000000
# 2 -0.002769 0.009552 -0.000431 0.000000 0.000000 0.000000
# 3 -0.000492 -0.000431 0.014883 0.000000 0.000000 0.000000
# 4 0.000000 0.000000 0.000000 0.092912 0.000000 0.000000
# 5 0.000000 0.000000 0.000000 0.000000 0.041028 0.000000
# 6 0.000000 0.000000 0.000000 0.000000 0.000000 0.027308
#
#
# Mechanical properties :
#
#
# Convention : Reuss Voigt Hill
#
# Bulk Modulus (GPa) = 38.22559 43.65019 40.93789
# Shear Modulus (GPa) = 23.70835 31.59238 27.65037
#
# Velocity S-wave (km/s) = 3.30685 3.81729 3.57120
# Velocity P-wave (km/s) = 5.67552 6.28984 5.99056
#
# Compressibility (1/GPa) = 0.02616048
#
# Stress axis : x y z
#
# Youngs Moduli (GPa) = 109.78916 104.68739 67.18857
#
# Poissons Ratio (x) = 0.28990 0.03302
# Poissons Ratio (y) = 0.30402 0.02897
# Poissons Ratio (z) = 0.05396 0.04513
#
# Static dielectric constant tensor:
#      x y z
#    x 1.813750 0.000000 0.000000 
#    y 0.000000 1.797800 0.000000 
#    z 0.000000 0.000000 1.820130 
# 
# From -- ./inp_files/24342.got.cif
#   From: 2010.05.17/outbox.cif.g08.bks.cpg/sg54_13_cif.got.tgz:24342.got - 2010.06.03 13:09:01.
