data_PCOD9424249
_publ_section_title
;
Structure prediction by ZEFSAII (Michael W. Deem and Ramdas Pophale) SiO2 
 PCOD9424249
Probable space group: P C C A
;
_chemical_formula_sum "Si O2"
_cell_formula_units_Z 24
_cell_length_a 4.910661
_cell_length_b 18.736670
_cell_length_c 12.056514
_cell_angle_alpha 90.000000
_cell_angle_beta 90.000000
_cell_angle_gamma 90.000000
_cell_volume 1109.313037
_symmetry_space_group_name_H-M "P C C A"
_symmetry_group_IT_number 54
_symmetry_cell_setting 'orthorhombic'
loop_
_space_group_symop_operation_xyz
x,y,z
1/2-x,-y,z
1/2+x,-y,1/2-z
-x,y,1/2-z
-x,-y,-z
1/2+x,y,-z
1/2-x,y,1/2+z
x,-y,1/2+z
loop_
_atom_site_type_symbol
_atom_site_label
_atom_site_fract_x
_atom_site_fract_y
_atom_site_fract_z
Si Si1 0.065199 0.329543 0.923956
Si Si2 0.500000 0.549076 0.750000
Si Si3 0.750000 0.000000 0.083883
Si Si4 0.000000 0.114900 0.250000
Si Si5 0.500000 0.790605 0.750000
O O1 0.102122 0.399144 0.847967
O O2 0.110516 0.260749 0.846831
O O3 0.761062 0.329162 0.970949
O O4 0.750000 0.500000 0.787421
O O5 0.666123 0.934924 0.164458
O O6 0.500000 0.000000 0.000000
O O7 0.245590 0.163660 0.203981
#
# Coordination Sequence:
#
# PCOD9424249 Si02
#       5
#     8   4   4   4   4
#     4  11  24  42  64  94 129 167 216 268 320 386
#     4  11  24  41  63  94 129 168 214 264 321 384
#     4  12  26  44  68  98 132 172 218 270 330 398
#     4  12  25  45  67  97 134 170 218 274 328 395
#     4  11  25  42  66  95 129 170 216 270 327 389
#
# _framework density 21.635013000000001
#
# number of rings (size 3 to 8) (size 9 to 14) (size 15 to 20)
#    0.000    0.667    0.000    8.000    0.000   17.333 
#    0.000    0.000    0.000    0.000    0.000    0.000 
#    0.000    0.000    0.000    0.000    0.000    0.000 
#
# Total GULP energy -134137.031472 kJ/mol
# GULP energy per Si atom -5589.042978 kJ/mol
# Density = 2.158577 g / cm^3
# Si number density = 21.635013 Si / 1000 Ang^3
#
#
#
# Elastic Constant Matrix: (Units=GPa)
#
#
# Indices 1 2 3 4 5 6 
#
# 1 115.8287 38.4359 -0.5253 0.0000 0.0000 0.0000
# 2 38.4359 114.9749 35.3035 0.0000 0.0000 0.0000
# 3 -0.5253 35.3035 66.4508 0.0000 0.0000 0.0000
# 4 0.0000 0.0000 0.0000 61.9133 0.0000 0.0000
# 5 0.0000 0.0000 0.0000 0.0000 51.3388 0.0000
# 6 0.0000 0.0000 0.0000 0.0000 0.0000 23.6229
#
#
#
# Elastic Compliance Matrix: (Units=1/GPa)
#
#
# Indices 1 2 3 4 5 6 
#
# 1 0.009975 -0.004014 0.002211 0.000000 0.000000 0.000000
# 2 -0.004014 0.012008 -0.006411 0.000000 0.000000 0.000000
# 3 0.002211 -0.006411 0.018472 0.000000 0.000000 0.000000
# 4 0.000000 0.000000 0.000000 0.016152 0.000000 0.000000
# 5 0.000000 0.000000 0.000000 0.000000 0.019478 0.000000
# 6 0.000000 0.000000 0.000000 0.000000 0.000000 0.042332
#
#
# Mechanical properties :
#
#
# Convention : Reuss Voigt Hill
#
# Bulk Modulus (GPa) = 41.61774 49.29806 45.45790
# Shear Modulus (GPa) = 35.00072 42.31103 38.65587
#
# Velocity S-wave (km/s) = 4.02653 4.42710 4.23156
# Velocity P-wave (km/s) = 6.39494 6.99771 6.70311
#
# Compressibility (1/GPa) = 0.02402822
#
# Stress axis : x y z
#
# Youngs Moduli (GPa) = 100.24702 83.27831 54.13504
#
# Poissons Ratio (x) = 0.33426 -0.11971
# Poissons Ratio (y) = 0.40236 0.34707
# Poissons Ratio (z) = -0.22167 0.53392
#
# Static dielectric constant tensor:
#      x y z
#    x 1.754190 0.000000 0.000000 
#    y 0.000000 1.792410 0.000000 
#    z 0.000000 0.000000 1.563470 
# 
# From -- ./inp_files/6212.got.cif
#   From: 2010.05.17/outbox.cif.g08.bks.cpg/sg54_4_cif.got.tgz:6212.got - 2010.06.03 13:09:01.
