data_PCOD9424976
_publ_section_title
;
Structure prediction by ZEFSAII (Michael W. Deem and Ramdas Pophale) SiO2 
 PCOD9424976
Probable space group: P B A M
;
_chemical_formula_sum "Si O2"
_cell_formula_units_Z 40
_cell_length_a 13.071152
_cell_length_b 14.362479
_cell_length_c 8.653819
_cell_angle_alpha 90.000000
_cell_angle_beta 90.000000
_cell_angle_gamma 90.000000
_cell_volume 1624.617321
_symmetry_space_group_name_H-M "P B A M"
_symmetry_group_IT_number 55
_symmetry_cell_setting 'orthorhombic'
loop_
_space_group_symop_operation_xyz
x,y,z
-x,-y,z
1/2+x,1/2-y,-z
1/2-x,1/2+y,-z
-x,-y,-z
x,y,-z
1/2-x,1/2+y,z
1/2+x,1/2-y,z
loop_
_atom_site_type_symbol
_atom_site_label
_atom_site_fract_x
_atom_site_fract_y
_atom_site_fract_z
Si Si1 0.697966 0.058342 0.818068
Si Si2 0.525125 0.273756 0.821599
Si Si3 0.424859 0.103971 0.321329
Si Si4 0.314092 0.284145 0.679533
Si Si5 0.888907 0.950765 0.679877
O O1 0.610255 0.994220 0.743220
O O2 0.802626 0.001006 0.780975
O O3 0.718876 0.158959 0.741861
O O4 0.682510 0.066511 0.000000
O O5 0.505724 0.166862 0.771854
O O6 0.410049 0.311936 0.787124
O O7 0.594815 0.342463 0.722598
O O8 0.552519 0.280285 0.000000
O O9 0.455271 0.099601 0.500000
O O10 0.324413 0.172486 0.314760
O O11 0.332900 0.309885 0.500000
O O12 0.860042 0.960120 0.500000
O O13 0.000000 0.000000 0.700014
#
# Coordination Sequence:
#
# PCOD9424976 Si02
#       5
#     8   8   8   8   8
#     4  12  22  30  49  76 101 129 165 206 246 287
#     4  10  18  30  47  67  95 124 158 199 240 281
#     4   9  19  34  49  66  96 132 166 198 239 295
#     4   9  18  32  48  66  95 130 161 195 240 289
#     4  11  20  30  46  68  99 133 162 193 243 302
#
# _framework density 24.621184
#
# number of rings (size 3 to 8) (size 9 to 14) (size 15 to 20)
#    1.200    0.600    2.000    4.800    0.000    0.800 
#    0.000    0.000    0.000    0.000    0.000    1.400 
#    0.000   11.200    0.000    0.000    0.000    0.000 
#
# Total GULP energy -223653.243944 kJ/mol
# GULP energy per Si atom -5591.331099 kJ/mol
# Density = 2.456514 g / cm^3
# Si number density = 24.621184 Si / 1000 Ang^3
#
#
#
# Elastic Constant Matrix: (Units=GPa)
#
#
# Indices 1 2 3 4 5 6 
#
# 1 83.1562 5.8756 -11.4021 0.0000 0.0000 0.0000
# 2 5.8756 161.9213 24.8856 0.0000 0.0000 0.0000
# 3 -11.4021 24.8856 113.9575 0.0000 0.0000 0.0000
# 4 0.0000 0.0000 0.0000 23.5973 0.0000 0.0000
# 5 0.0000 0.0000 0.0000 0.0000 -6.8444 0.0000
# 6 0.0000 0.0000 0.0000 0.0000 0.0000 48.0321
#
#
#
# Elastic Compliance Matrix: (Units=1/GPa)
#
#
# Indices 1 2 3 4 5 6 
#
# 1 0.012260 -0.000655 0.001370 0.000000 0.000000 0.000000
# 2 -0.000655 0.006425 -0.001469 0.000000 0.000000 0.000000
# 3 0.001370 -0.001469 0.009233 0.000000 0.000000 0.000000
# 4 0.000000 0.000000 0.000000 0.042378 0.000000 0.000000
# 5 0.000000 0.000000 0.000000 0.000000 -0.146105 0.000000
# 6 0.000000 0.000000 0.000000 0.000000 0.000000 0.020819
#
#
# Mechanical properties :
#
#
# Convention : Reuss Voigt Hill
#
# Bulk Modulus (GPa) = 37.86535 44.19480 41.03007
# Shear Modulus (GPa) = -111.91217 35.60206 -38.15505
#
# Velocity S-wave (km/s) = -6.74924 3.80675 -3.94087
# Velocity P-wave (km/s) = 6.73230 6.10824 2.00165
#
# Compressibility (1/GPa) = 0.02640937
#
# Stress axis : x y z
#
# Youngs Moduli (GPa) = 81.56812 155.63362 108.30732
#
# Poissons Ratio (x) = 0.10200 -0.14836
# Poissons Ratio (y) = 0.05346 0.15907
# Poissons Ratio (z) = -0.11173 0.22858
#
# Static dielectric constant tensor:
#      x y z
#    x 2.042950 0.000000 0.000000 
#    y 0.000000 1.997030 0.000000 
#    z 0.000000 0.000000 1.800210 
# 
# From -- ./inp_files/5366.got.cif
#   From: 2010.05.17/outbox.cif.g08.bks.cpg/sg55_3_cif.got.tgz:5366.got - 2010.06.03 13:27:54.
