data_PCOD9424533
_publ_section_title
;
Structure prediction by ZEFSAII (Michael W. Deem and Ramdas Pophale) SiO2 
 PCOD9424533
Probable space group: P C C A
;
_chemical_formula_sum "Si O2"
_cell_formula_units_Z 24
_cell_length_a 8.112457
_cell_length_b 4.739060
_cell_length_c 25.842330
_cell_angle_alpha 90.000000
_cell_angle_beta 90.000000
_cell_angle_gamma 90.000000
_cell_volume 993.519243
_symmetry_space_group_name_H-M "P C C A"
_symmetry_group_IT_number 54
_symmetry_cell_setting 'orthorhombic'
loop_
_space_group_symop_operation_xyz
x,y,z
1/2-x,-y,z
1/2+x,-y,1/2-z
-x,y,1/2-z
-x,-y,-z
1/2+x,y,-z
1/2-x,y,1/2+z
x,-y,1/2+z
loop_
_atom_site_type_symbol
_atom_site_label
_atom_site_fract_x
_atom_site_fract_y
_atom_site_fract_z
Si Si1 0.558358 0.062137 0.881597
Si Si2 0.637741 0.762786 0.710808
Si Si3 0.442033 0.568646 0.942502
O O1 0.449446 0.939901 0.834765
O O2 0.488344 0.889298 0.930545
O O3 0.750000 0.000000 0.873386
O O4 0.532407 0.385037 0.897909
O O5 0.750000 0.500000 0.693683
O O6 0.500000 0.652581 0.750000
O O7 0.750000 0.000000 0.738420
O O8 0.250000 0.500000 0.938053
O O9 0.500000 0.500000 0.000000
#
# Coordination Sequence:
#
# PCOD9424533 Si02
#       3
#     8   8   8
#     4  12  25  44  69 100 136 179 228 282 340 407
#     4  12  26  46  71 101 137 181 229 285 346 411
#     4  12  25  44  68  99 137 180 227 281 341 406
#
# _framework density 24.156552999999999
#
# number of rings (size 3 to 8) (size 9 to 14) (size 15 to 20)
#    0.000    0.000    0.000   12.000    0.000    2.667 
#    0.000    0.000    0.000    0.000    0.000    0.000 
#    0.000    0.000    0.000    0.000    0.000    0.000 
#
# Total GULP energy -134560.607690 kJ/mol
# GULP energy per Si atom -5606.691987 kJ/mol
# Density = 2.410157 g / cm^3
# Si number density = 24.156553 Si / 1000 Ang^3
#
#
#
# Elastic Constant Matrix: (Units=GPa)
#
#
# Indices 1 2 3 4 5 6 
#
# 1 164.4340 23.6641 19.8885 0.0000 0.0000 0.0000
# 2 23.6641 86.1908 -7.5541 0.0000 0.0000 0.0000
# 3 19.8885 -7.5541 94.5753 0.0000 0.0000 0.0000
# 4 0.0000 0.0000 0.0000 32.1941 0.0000 0.0000
# 5 0.0000 0.0000 0.0000 0.0000 31.2742 0.0000
# 6 0.0000 0.0000 0.0000 0.0000 0.0000 45.0974
#
#
#
# Elastic Compliance Matrix: (Units=1/GPa)
#
#
# Indices 1 2 3 4 5 6 
#
# 1 0.006544 -0.001931 -0.001530 0.000000 0.000000 0.000000
# 2 -0.001931 0.012254 0.001385 0.000000 0.000000 0.000000
# 3 -0.001530 0.001385 0.011006 0.000000 0.000000 0.000000
# 4 0.000000 0.000000 0.000000 0.031062 0.000000 0.000000
# 5 0.000000 0.000000 0.000000 0.000000 0.031975 0.000000
# 6 0.000000 0.000000 0.000000 0.000000 0.000000 0.022174
#
#
# Mechanical properties :
#
#
# Convention : Reuss Voigt Hill
#
# Bulk Modulus (GPa) = 38.98491 46.35523 42.67007
# Shear Modulus (GPa) = 39.14850 42.32658 40.73754
#
# Velocity S-wave (km/s) = 4.03006 4.19044 4.11103
# Velocity P-wave (km/s) = 6.15050 6.53026 6.34322
#
# Compressibility (1/GPa) = 0.02565095
#
# Stress axis : x y z
#
# Youngs Moduli (GPa) = 152.80074 81.60810 90.85918
#
# Poissons Ratio (x) = 0.15758 0.13906
# Poissons Ratio (y) = 0.29505 -0.12582
# Poissons Ratio (z) = 0.23386 -0.11301
#
# Static dielectric constant tensor:
#      x y z
#    x 1.891440 0.000000 0.000000 
#    y 0.000000 1.857330 0.000000 
#    z 0.000000 0.000000 1.886320 
# 
# From -- ./inp_files/25570.got.cif
#   From: 2010.05.17/outbox.cif.g08.bks.cpg/sg54_13_cif.got.tgz:25570.got - 2010.06.03 13:09:01.
