data_PCOD9424334
_publ_section_title
;
Structure prediction by ZEFSAII (Michael W. Deem and Ramdas Pophale) SiO2 
 PCOD9424334
Probable space group: P C C A
;
_chemical_formula_sum "Si O2"
_cell_formula_units_Z 32
_cell_length_a 7.890976
_cell_length_b 9.001685
_cell_length_c 19.896008
_cell_angle_alpha 90.000000
_cell_angle_beta 90.000000
_cell_angle_gamma 90.000000
_cell_volume 1413.254838
_symmetry_space_group_name_H-M "P C C A"
_symmetry_group_IT_number 54
_symmetry_cell_setting 'orthorhombic'
loop_
_space_group_symop_operation_xyz
x,y,z
1/2-x,-y,z
1/2+x,-y,1/2-z
-x,y,1/2-z
-x,-y,-z
1/2+x,y,-z
1/2-x,y,1/2+z
x,-y,1/2+z
loop_
_atom_site_type_symbol
_atom_site_label
_atom_site_fract_x
_atom_site_fract_y
_atom_site_fract_z
Si Si1 0.178375 0.344479 0.436264
Si Si2 0.000000 0.122720 0.750000
Si Si3 0.184287 0.659340 0.778881
Si Si4 0.898712 0.151154 0.483991
Si Si5 0.750000 0.000000 0.859636
O O1 0.250000 0.500000 0.461248
O O2 0.153253 0.359364 0.357630
O O3 0.290583 0.198781 0.451993
O O4 0.010040 0.295947 0.472952
O O5 0.161875 0.224423 0.770093
O O6 0.913602 0.032649 0.812275
O O7 0.250000 0.500000 0.750924
O O8 0.000000 0.700925 0.750000
O O9 0.796787 0.127899 0.414000
O O10 0.000000 0.000000 0.500000
#
# Coordination Sequence:
#
# PCOD9424334 Si02
#       5
#     8   4   8   8   4
#     4  11  25  43  72 108 145 189 246 306 378 446
#     4  12  28  46  72 108 154 192 262 302 382 462
#     4  11  24  48  75 110 148 197 245 317 383 457
#     4  12  23  47  72 106 148 193 250 308 380 448
#     4  12  28  46  74 108 148 208 246 324 380 458
#
# _framework density 22.642768
#
# number of rings (size 3 to 8) (size 9 to 14) (size 15 to 20)
#    0.000    0.500    3.750    3.750    5.250    0.000 
#    0.000    0.000    0.000    0.000    0.000    0.000 
#    0.000    0.000    0.000    0.000    0.000    0.000 
#
# Total GULP energy -178552.338007 kJ/mol
# GULP energy per Si atom -5579.760563 kJ/mol
# Density = 2.259123 g / cm^3
# Si number density = 22.642768 Si / 1000 Ang^3
#
#
#
# Elastic Constant Matrix: (Units=GPa)
#
#
# Indices 1 2 3 4 5 6 
#
# 1 138.4178 51.3402 43.6731 0.0000 0.0000 0.0000
# 2 51.3402 108.9752 31.0129 0.0000 0.0000 0.0000
# 3 43.6731 31.0129 76.4785 0.0000 0.0000 0.0000
# 4 0.0000 0.0000 0.0000 -20.6580 0.0000 0.0000
# 5 0.0000 0.0000 0.0000 0.0000 41.4124 0.0000
# 6 0.0000 0.0000 0.0000 0.0000 0.0000 49.2031
#
#
#
# Elastic Compliance Matrix: (Units=1/GPa)
#
#
# Indices 1 2 3 4 5 6 
#
# 1 0.009828 -0.003429 -0.004222 0.000000 0.000000 0.000000
# 2 -0.003429 0.011570 -0.002734 0.000000 0.000000 0.000000
# 3 -0.004222 -0.002734 0.016595 0.000000 0.000000 0.000000
# 4 0.000000 0.000000 0.000000 -0.048407 0.000000 0.000000
# 5 0.000000 0.000000 0.000000 0.000000 0.024147 0.000000
# 6 0.000000 0.000000 0.000000 0.000000 0.000000 0.020324
#
#
# Mechanical properties :
#
#
# Convention : Reuss Voigt Hill
#
# Bulk Modulus (GPa) = 58.05792 63.99157 61.02474
# Shear Modulus (GPa) = 82.55227 27.18118 54.86673
#
# Velocity S-wave (km/s) = 6.04464 3.46849 4.92789
# Velocity P-wave (km/s) = 8.62632 6.66058 7.70638
#
# Compressibility (1/GPa) = 0.01722418
#
# Stress axis : x y z
#
# Youngs Moduli (GPa) = 101.74577 86.43250 60.25862
#
# Poissons Ratio (x) = 0.29636 0.25442
# Poissons Ratio (y) = 0.34886 0.16473
# Poissons Ratio (z) = 0.42958 0.23628
#
# Static dielectric constant tensor:
#      x y z
#    x 2.013530 0.000000 0.000000 
#    y 0.000000 1.869540 0.000000 
#    z 0.000000 0.000000 1.806020 
# 
# From -- ./inp_files/20076.got.cif
#   From: 2010.05.17/outbox.cif.g08.bks.cpg/sg54_11_cif.got.tgz:20076.got - 2010.06.03 13:09:01.
