data_PCOD9424177
_publ_section_title
;
Structure prediction by ZEFSAII (Michael W. Deem and Ramdas Pophale) SiO2 
 PCOD9424177
Probable space group: P C C A
;
_chemical_formula_sum "Si O2"
_cell_formula_units_Z 32
_cell_length_a 14.980638
_cell_length_b 8.433578
_cell_length_c 10.142248
_cell_angle_alpha 90.000000
_cell_angle_beta 90.000000
_cell_angle_gamma 90.000000
_cell_volume 1281.375457
_symmetry_space_group_name_H-M "P C C A"
_symmetry_group_IT_number 54
_symmetry_cell_setting 'orthorhombic'
loop_
_space_group_symop_operation_xyz
x,y,z
1/2-x,-y,z
1/2+x,-y,1/2-z
-x,y,1/2-z
-x,-y,-z
1/2+x,y,-z
1/2-x,y,1/2+z
x,-y,1/2+z
loop_
_atom_site_type_symbol
_atom_site_label
_atom_site_fract_x
_atom_site_fract_y
_atom_site_fract_z
Si Si1 0.599933 0.656074 0.807932
Si Si2 0.672833 0.124757 0.088973
Si Si3 0.431246 0.824596 0.421956
Si Si4 0.871861 0.701460 0.843506
O O1 0.500000 0.629531 0.750000
O O2 0.594386 0.770531 0.932869
O O3 0.657300 0.737456 0.693821
O O4 0.635861 0.486396 0.854551
O O5 0.584077 0.012525 0.092278
O O6 0.750000 0.000000 0.118488
O O7 0.869101 0.254432 0.190329
O O8 0.688270 0.200991 0.945131
O O9 0.529012 0.756994 0.389976
#
# Coordination Sequence:
#
# PCOD9424177 Si02
#       4
#     8   8   8   8
#     4  12  23  44  79 110 147 195 258 314 364 444
#     4  12  28  47  70 110 158 199 246 310 389 453
#     4  11  23  41  73 111 142 192 256 308 364 437
#     4  11  23  44  75 109 146 196 255 308 371 441
#
# _framework density 24.973163
#
# number of rings (size 3 to 8) (size 9 to 14) (size 15 to 20)
#    0.000    0.500    5.000    4.500    3.500    4.000 
#    0.000    7.500    0.000    0.000    0.000    0.000 
#    0.000    0.000    0.000    0.000    0.000    0.000 
#
# Total GULP energy -179462.856415 kJ/mol
# GULP energy per Si atom -5608.214263 kJ/mol
# Density = 2.491632 g / cm^3
# Si number density = 24.973163 Si / 1000 Ang^3
#
#
#
# Elastic Constant Matrix: (Units=GPa)
#
#
# Indices 1 2 3 4 5 6 
#
# 1 100.5601 26.2408 -3.6223 0.0000 0.0000 0.0000
# 2 26.2408 154.3264 3.5690 0.0000 0.0000 0.0000
# 3 -3.6223 3.5690 92.7383 0.0000 0.0000 0.0000
# 4 0.0000 0.0000 0.0000 156.7899 0.0000 0.0000
# 5 0.0000 0.0000 0.0000 0.0000 6.5157 0.0000
# 6 0.0000 0.0000 0.0000 0.0000 0.0000 15.1875
#
#
#
# Elastic Compliance Matrix: (Units=1/GPa)
#
#
# Indices 1 2 3 4 5 6 
#
# 1 0.010427 -0.001784 0.000476 0.000000 0.000000 0.000000
# 2 -0.001784 0.006791 -0.000331 0.000000 0.000000 0.000000
# 3 0.000476 -0.000331 0.010814 0.000000 0.000000 0.000000
# 4 0.000000 0.000000 0.000000 0.006378 0.000000 0.000000
# 5 0.000000 0.000000 0.000000 0.000000 0.153476 0.000000
# 6 0.000000 0.000000 0.000000 0.000000 0.000000 0.065844
#
#
# Mechanical properties :
#
#
# Convention : Reuss Voigt Hill
#
# Bulk Modulus (GPa) = 40.39749 44.44439 42.42094
# Shear Modulus (GPa) = 18.84950 57.12778 37.98864
#
# Velocity S-wave (km/s) = 2.75033 4.78804 3.90446
# Velocity P-wave (km/s) = 5.12808 6.95720 6.11146
#
# Compressibility (1/GPa) = 0.02475401
#
# Stress axis : x y z
#
# Youngs Moduli (GPa) = 95.90527 147.25890 92.46963
#
# Poissons Ratio (x) = 0.26270 -0.04401
# Poissons Ratio (y) = 0.17109 0.03061
# Poissons Ratio (z) = -0.04564 0.04875
#
# Static dielectric constant tensor:
#      x y z
#    x 3.086060 0.000000 0.000000 
#    y 0.000000 1.883310 0.000000 
#    z 0.000000 0.000000 1.913490 
# 
# From -- ./inp_files/7277.got.cif
#   From: 2010.05.17/outbox.cif.g08.bks.cpg/sg54_4_cif.got.tgz:7277.got - 2010.06.03 13:09:01.
