data_PCOD9424250
_publ_section_title
;
Structure prediction by ZEFSAII (Michael W. Deem and Ramdas Pophale) SiO2 
 PCOD9424250
Probable space group: P C C A
;
_chemical_formula_sum "Si O2"
_cell_formula_units_Z 32
_cell_length_a 4.892454
_cell_length_b 23.871841
_cell_length_c 12.225921
_cell_angle_alpha 90.000000
_cell_angle_beta 90.000000
_cell_angle_gamma 90.000000
_cell_volume 1427.888347
_symmetry_space_group_name_H-M "P C C A"
_symmetry_group_IT_number 54
_symmetry_cell_setting 'orthorhombic'
loop_
_space_group_symop_operation_xyz
x,y,z
1/2-x,-y,z
1/2+x,-y,1/2-z
-x,y,1/2-z
-x,-y,-z
1/2+x,y,-z
1/2-x,y,1/2+z
x,-y,1/2+z
loop_
_atom_site_type_symbol
_atom_site_label
_atom_site_fract_x
_atom_site_fract_y
_atom_site_fract_z
Si Si1 0.750000 0.500000 0.178513
Si Si2 0.500000 0.961359 0.750000
Si Si3 0.500000 0.222699 0.250000
Si Si4 0.000000 0.700309 0.750000
Si Si5 0.177690 0.130674 0.924344
Si Si6 0.461765 0.388125 0.931649
O O1 0.500000 0.476306 0.250000
O O2 0.615125 0.550496 0.112105
O O3 0.390934 0.922424 0.848194
O O4 0.250000 0.000000 0.711913
O O5 0.248344 0.260828 0.211671
O O6 0.609049 0.183832 0.151624
O O7 0.892886 0.659377 0.655290
O O8 0.985076 0.130663 0.031281
O O9 0.778384 0.382210 0.960685
#
# Coordination Sequence:
#
# PCOD9424250 Si02
#       6
#     4   4   4   4   8   8
#     4  12  24  44  72  94 134 176 210 266 334 402
#     4  11  24  41  64 102 141 172 219 272 322 386
#     4  11  26  44  67  95 130 172 223 280 326 386
#     4  12  26  45  67  97 133 168 218 282 334 388
#     4  11  24  43  68  96 131 179 225 267 327 389
#     4  12  26  44  68  99 130 170 216 266 332 404
#
# _framework density 22.410717000000002
#
# number of rings (size 3 to 8) (size 9 to 14) (size 15 to 20)
#    0.000    0.500    1.250    6.750    1.750   13.000 
#    0.000    0.000    0.000    0.000    0.000    0.000 
#    0.000    0.000    0.000    0.000    0.000    0.000 
#
# Total GULP energy -179282.100534 kJ/mol
# GULP energy per Si atom -5602.565642 kJ/mol
# Density = 2.235971 g / cm^3
# Si number density = 22.410717 Si / 1000 Ang^3
#
#
#
# Elastic Constant Matrix: (Units=GPa)
#
#
# Indices 1 2 3 4 5 6 
#
# 1 72.6923 9.9326 -15.0068 0.0000 0.0000 0.0000
# 2 9.9326 119.2001 21.6781 0.0000 0.0000 0.0000
# 3 -15.0068 21.6781 50.3861 0.0000 0.0000 0.0000
# 4 0.0000 0.0000 0.0000 16.3681 0.0000 0.0000
# 5 0.0000 0.0000 0.0000 0.0000 47.0686 0.0000
# 6 0.0000 0.0000 0.0000 0.0000 0.0000 29.2064
#
#
#
# Elastic Compliance Matrix: (Units=1/GPa)
#
#
# Indices 1 2 3 4 5 6 
#
# 1 0.015203 -0.002268 0.005504 0.000000 0.000000 0.000000
# 2 -0.002268 0.009440 -0.004737 0.000000 0.000000 0.000000
# 3 0.005504 -0.004737 0.023524 0.000000 0.000000 0.000000
# 4 0.000000 0.000000 0.000000 0.061095 0.000000 0.000000
# 5 0.000000 0.000000 0.000000 0.000000 0.021246 0.000000
# 6 0.000000 0.000000 0.000000 0.000000 0.000000 0.034239
#
#
# Mechanical properties :
#
#
# Convention : Reuss Voigt Hill
#
# Bulk Modulus (GPa) = 22.14133 30.60959 26.37546
# Shear Modulus (GPa) = 27.35201 33.57357 30.46279
#
# Velocity S-wave (km/s) = 3.49734 3.87473 3.69086
# Velocity P-wave (km/s) = 5.11955 5.80570 5.47339
#
# Compressibility (1/GPa) = 0.04516440
#
# Stress axis : x y z
#
# Youngs Moduli (GPa) = 65.77806 105.93613 42.51007
#
# Poissons Ratio (x) = 0.24023 -0.23396
# Poissons Ratio (y) = 0.14916 0.20136
# Poissons Ratio (z) = -0.36201 0.50179
#
# Static dielectric constant tensor:
#      x y z
#    x 1.560670 0.000000 0.000000 
#    y 0.000000 1.818400 0.000000 
#    z 0.000000 0.000000 1.826030 
# 
# From -- ./inp_files/6316.got.cif
#   From: 2010.05.17/outbox.cif.g08.bks.cpg/sg54_4_cif.got.tgz:6316.got - 2010.06.03 13:09:01.
