data_PCOD9424241
_publ_section_title
;
Structure prediction by ZEFSAII (Michael W. Deem and Ramdas Pophale) SiO2 
 PCOD9424241
Probable space group: P C C A
;
_chemical_formula_sum "Si O2"
_cell_formula_units_Z 40
_cell_length_a 15.421755
_cell_length_b 5.397615
_cell_length_c 18.244101
_cell_angle_alpha 90.000000
_cell_angle_beta 90.000000
_cell_angle_gamma 90.000000
_cell_volume 1518.651667
_symmetry_space_group_name_H-M "P C C A"
_symmetry_group_IT_number 54
_symmetry_cell_setting 'orthorhombic'
loop_
_space_group_symop_operation_xyz
x,y,z
1/2-x,-y,z
1/2+x,-y,1/2-z
-x,y,1/2-z
-x,-y,-z
1/2+x,y,-z
1/2-x,y,1/2+z
x,-y,1/2+z
loop_
_atom_site_type_symbol
_atom_site_label
_atom_site_fract_x
_atom_site_fract_y
_atom_site_fract_z
Si Si1 0.250000 0.000000 0.666783
Si Si2 0.750000 0.000000 0.079226
Si Si3 0.000000 0.241989 0.750000
Si Si4 0.250000 0.500000 0.072088
Si Si5 0.599458 0.273390 0.999493
Si Si6 0.506296 0.473045 0.875606
Si Si7 0.867404 0.157209 0.200127
O O1 0.239560 0.244014 0.616252
O O2 0.178196 0.888097 0.722644
O O3 0.707386 0.816207 0.138769
O O4 0.667497 0.078087 0.031164
O O5 0.057713 0.377694 0.686349
O O6 0.934233 0.074595 0.701779
O O7 0.334619 0.506656 0.020979
O O8 0.550268 0.249596 0.921498
O O9 0.531814 0.352345 0.061078
O O10 0.430672 0.377720 0.822255
#
# Coordination Sequence:
#
# PCOD9424241 Si02
#       7
#     4   4   4   4   8   8   8
#     4  11  29  46  76 116 152 204 260 324 390 466
#     4  11  23  50  72 112 150 206 254 320 392 482
#     4  12  24  48  72 110 148 198 258 334 388 474
#     4  12  26  48  76 110 158 202 256 322 390 480
#     4  11  25  48  74 111 154 201 260 323 398 469
#     4  11  26  47  77 108 147 200 262 327 391 475
#     4  11  26  45  78 105 151 202 258 321 393 467
#
# _framework density 26.339151999999999
#
# number of rings (size 3 to 8) (size 9 to 14) (size 15 to 20)
#    0.000    0.800    2.000    3.600    8.400    0.800 
#    3.600    0.000    0.000    0.000    0.000    0.000 
#    0.000    0.000    0.000    0.000    0.000    0.000 
#
# Total GULP energy -223068.418931 kJ/mol
# GULP energy per Si atom -5576.710473 kJ/mol
# Density = 2.627920 g / cm^3
# Si number density = 26.339152 Si / 1000 Ang^3
#
#
#
# Elastic Constant Matrix: (Units=GPa)
#
#
# Indices 1 2 3 4 5 6 
#
# 1 60.6997 -13.3317 13.4020 0.0000 0.0000 0.0000
# 2 -13.3317 72.8055 29.3731 0.0000 0.0000 0.0000
# 3 13.4020 29.3731 144.3892 0.0000 0.0000 0.0000
# 4 0.0000 0.0000 0.0000 30.9265 0.0000 0.0000
# 5 0.0000 0.0000 0.0000 0.0000 21.1158 0.0000
# 6 0.0000 0.0000 0.0000 0.0000 0.0000 37.2368
#
#
#
# Elastic Compliance Matrix: (Units=1/GPa)
#
#
# Indices 1 2 3 4 5 6 
#
# 1 0.017986 0.004322 -0.002549 0.000000 0.000000 0.000000
# 2 0.004322 0.016002 -0.003656 0.000000 0.000000 0.000000
# 3 -0.002549 -0.003656 0.007906 0.000000 0.000000 0.000000
# 4 0.000000 0.000000 0.000000 0.032335 0.000000 0.000000
# 5 0.000000 0.000000 0.000000 0.000000 0.047358 0.000000
# 6 0.000000 0.000000 0.000000 0.000000 0.000000 0.026855
#
#
# Mechanical properties :
#
#
# Convention : Reuss Voigt Hill
#
# Bulk Modulus (GPa) = 26.22750 37.42014 31.82382
# Shear Modulus (GPa) = 30.31814 34.41923 32.36868
#
# Velocity S-wave (km/s) = 3.39642 3.61885 3.50940
# Velocity P-wave (km/s) = 5.03588 5.63021 5.34132
#
# Compressibility (1/GPa) = 0.03812791
#
# Stress axis : x y z
#
# Youngs Moduli (GPa) = 55.59726 62.49311 126.48450
#
# Poissons Ratio (x) = -0.27008 0.32237
# Poissons Ratio (y) = -0.24028 0.46248
# Poissons Ratio (z) = 0.14170 0.22850
#
# Static dielectric constant tensor:
#      x y z
#    x 2.159820 0.000000 0.000000 
#    y 0.000000 1.423340 0.000000 
#    z 0.000000 0.000000 2.040590 
# 
# From -- ./inp_files/18443.got.cif
#   From: 2010.05.17/outbox.cif.g08.bks.cpg/sg54_10_cif.got.tgz:18443.got - 2010.06.03 13:09:01.
