data_PCOD9424903
_publ_section_title
;
Structure prediction by ZEFSAII (Michael W. Deem and Ramdas Pophale) SiO2 
 PCOD9424903
Probable space group: P B A M
;
_chemical_formula_sum "Si O2"
_cell_formula_units_Z 56
_cell_length_a 29.935421
_cell_length_b 13.835763
_cell_length_c 8.975520
_cell_angle_alpha 90.000000
_cell_angle_beta 90.000000
_cell_angle_gamma 90.000000
_cell_volume 3717.475401
_symmetry_space_group_name_H-M "P B A M"
_symmetry_group_IT_number 55
_symmetry_cell_setting 'orthorhombic'
loop_
_space_group_symop_operation_xyz
x,y,z
-x,-y,z
1/2+x,1/2-y,-z
1/2-x,1/2+y,-z
-x,-y,-z
x,y,-z
1/2-x,1/2+y,z
1/2+x,1/2-y,z
loop_
_atom_site_type_symbol
_atom_site_label
_atom_site_fract_x
_atom_site_fract_y
_atom_site_fract_z
Si Si1 0.096159 0.888512 0.820458
Si Si2 0.906758 0.899818 0.323061
Si Si3 0.314681 0.702333 0.322246
Si Si4 0.003002 0.117288 0.828498
Si Si5 0.270407 0.902919 0.323462
Si Si6 0.270346 0.107325 0.822941
Si Si7 0.180113 0.784951 0.322076
O O1 0.100419 0.997448 0.757969
O O2 0.135415 0.824653 0.752582
O O3 0.046381 0.850896 0.779096
O O4 0.098313 0.891278 0.000000
O O5 0.908268 0.916773 0.500000
O O6 0.864765 0.831185 0.290036
O O7 0.954035 0.857395 0.268586
O O8 0.306347 0.688703 0.500000
O O9 0.303717 0.814111 0.289727
O O10 0.278876 0.638129 0.234319
O O11 0.010313 0.146419 0.000000
O O12 0.000000 0.000000 0.826574
O O13 0.273171 0.924760 0.500000
O O14 0.220825 0.860248 0.294199
O O15 0.279050 0.998724 0.230832
O O16 0.303766 0.183719 0.746503
O O17 0.272877 0.115626 0.000000
O O18 0.175120 0.776680 0.500000
#
# Coordination Sequence:
#
# PCOD9424903 Si02
#       7
#     8   8   8   8   8   8   8
#     4  10  19  30  44  65  94 123 151 185 225 268
#     4  10  18  28  45  68  92 120 155 189 222 265
#     4   9  19  33  47  65  90 121 153 184 221 263
#     4   8  16  29  42  60  90 123 149 180 225 269
#     4   9  18  33  48  62  87 120 150 181 218 261
#     4  11  21  31  46  68  92 117 148 186 223 262
#     4  10  20  33  49  67  89 120 154 185 221 265
#
# _framework density 15.063986999999999
#
# number of rings (size 3 to 8) (size 9 to 14) (size 15 to 20)
#    0.000    2.429    0.000    5.143    0.000   10.571 
#    0.000    0.000    0.000    0.000    0.000    1.000 
#    0.000    8.000    0.000    0.000    0.000    0.000 
#
# Total GULP energy -312256.254788 kJ/mol
# GULP energy per Si atom -5576.004550 kJ/mol
# Density = 1.502970 g / cm^3
# Si number density = 15.063987 Si / 1000 Ang^3
#
#
#
# Elastic Constant Matrix: (Units=GPa)
#
#
# Indices 1 2 3 4 5 6 
#
# 1 143.0634 58.5971 66.0544 0.0000 0.0000 0.0000
# 2 58.5971 75.1905 48.7479 0.0000 0.0000 0.0000
# 3 66.0544 48.7479 70.3168 0.0000 0.0000 0.0000
# 4 0.0000 0.0000 0.0000 -1.7570 0.0000 0.0000
# 5 0.0000 0.0000 0.0000 0.0000 26.8767 0.0000
# 6 0.0000 0.0000 0.0000 0.0000 0.0000 20.4475
#
#
#
# Elastic Compliance Matrix: (Units=1/GPa)
#
#
# Indices 1 2 3 4 5 6 
#
# 1 0.012978 -0.004014 -0.009408 0.000000 0.000000 0.000000
# 2 -0.004014 0.025399 -0.013837 0.000000 0.000000 0.000000
# 3 -0.009408 -0.013837 0.032652 0.000000 0.000000 0.000000
# 4 0.000000 0.000000 0.000000 -0.569140 0.000000 0.000000
# 5 0.000000 0.000000 0.000000 0.000000 0.037207 0.000000
# 6 0.000000 0.000000 0.000000 0.000000 0.000000 0.048906
#
#
# Mechanical properties :
#
#
# Convention : Reuss Voigt Hill
#
# Bulk Modulus (GPa) = 60.57115 70.59661 65.58388
# Shear Modulus (GPa) = -14.20554 16.79153 1.29299
#
# Velocity S-wave (km/s) = -3.07418 3.34230 0.92747
# Velocity P-wave (km/s) = 5.26267 7.86517 6.69166
#
# Compressibility (1/GPa) = 0.01650951
#
# Stress axis : x y z
#
# Youngs Moduli (GPa) = 77.05254 39.37170 30.62577
#
# Poissons Ratio (x) = 0.15805 0.28814
# Poissons Ratio (y) = 0.30931 0.42377
# Poissons Ratio (z) = 0.72495 0.54479
#
# Static dielectric constant tensor:
#      x y z
#    x 1.508130 0.000000 0.000000 
#    y 0.000000 1.475430 0.000000 
#    z 0.000000 0.000000 1.503150 
# 
# From -- ./inp_files/10877.got.cif
#   From: 2010.05.17/outbox.cif.g08.bks.cpg/sg55_6_cif.got.tgz:10877.got - 2010.06.03 13:27:54.
