data_PCOD9424661
_publ_section_title
;
Structure prediction by ZEFSAII (Michael W. Deem and Ramdas Pophale) SiO2 
 PCOD9424661
Probable space group: P C C A
;
_chemical_formula_sum "Si O2"
_cell_formula_units_Z 48
_cell_length_a 18.000000
_cell_length_b 9.000000
_cell_length_c 15.000000
_cell_angle_alpha 90.000000
_cell_angle_beta 90.000000
_cell_angle_gamma 90.000000
_cell_volume 2430.000000
_symmetry_space_group_name_H-M "P C C A"
_symmetry_group_IT_number 54
_symmetry_cell_setting 'orthorhombic'
loop_
_space_group_symop_operation_xyz
x,y,z
1/2-x,-y,z
1/2+x,-y,1/2-z
-x,y,1/2-z
-x,-y,-z
1/2+x,y,-z
1/2-x,y,1/2+z
x,-y,1/2+z
loop_
_atom_site_type_symbol
_atom_site_label
_atom_site_fract_x
_atom_site_fract_y
_atom_site_fract_z
Si Si1 0.988474 0.942166 0.399852
Si Si2 0.917901 0.363336 0.853302
Si Si3 0.500000 0.590624 0.250000
Si Si4 0.121004 0.810455 0.677913
Si Si5 0.750000 0.000000 0.223162
Si Si6 0.670531 0.584310 0.478922
Si Si7 0.633864 0.236728 0.160710
O O1 0.938580 0.794867 0.393895
O O2 0.064691 0.877663 0.356372
O O3 0.943869 0.075139 0.352069
O O4 0.000000 0.000000 0.500000
O O5 0.874998 0.454245 0.928781
O O6 0.879279 0.323537 0.756266
O O7 0.987487 0.472598 0.830398
O O8 0.574386 0.693128 0.259129
O O9 0.186742 0.908217 0.721968
O O10 0.158060 0.718353 0.594811
O O11 0.705222 0.128186 0.170084
O O12 0.750000 0.500000 0.490093
O O13 0.644722 0.654205 0.574594
#
# Coordination Sequence:
#
# PCOD9424661 Si02
#       7
#     8   8   4   8   4   8   8
#     4  12  24  45  74 105 142 188 254 313 366 425
#     4  11  24  47  75 101 152 190 242 308 368 436
#     4  10  22  40  74 102 136 188 242 292 362 430
#     4  11  24  45  72 108 144 193 247 306 372 437
#     4  12  26  42  74 102 150 198 242 302 374 446
#     4  11  27  45  69 109 151 192 242 302 375 447
#     4  12  25  45  73 108 143 197 245 303 372 443
#
# _framework density 19.753086
#
# number of rings (size 3 to 8) (size 9 to 14) (size 15 to 20)
#    0.000    0.667    5.000    2.000    0.000    7.333 
#    0.000    0.000    0.000    0.000    0.000    0.000 
#    0.000    0.000    0.000    0.000    0.000    0.000 
#
# Total GULP energy -267626.375752 kJ/mol
# GULP energy per Si atom -5575.549495 kJ/mol
# Density = 1.970813 g / cm^3
# Si number density = 19.753086 Si / 1000 Ang^3
#
#
#
# Elastic Constant Matrix: (Units=GPa)
#
#
# Indices 1 2 3 4 5 6 
#
# 1 106.1147 52.7817 55.5182 0.0000 0.0000 0.0000
# 2 52.7817 157.4373 70.9242 0.0000 0.0000 0.0000
# 3 55.5182 70.9242 137.7868 0.0000 0.0000 0.0000
# 4 0.0000 0.0000 0.0000 54.6097 0.0000 0.0000
# 5 0.0000 0.0000 0.0000 0.0000 31.3905 0.0000
# 6 0.0000 0.0000 0.0000 0.0000 0.0000 54.2107
#
#
#
# Elastic Compliance Matrix: (Units=1/GPa)
#
#
# Indices 1 2 3 4 5 6 
#
# 1 0.012674 -0.002537 -0.003801 0.000000 0.000000 0.000000
# 2 -0.002537 0.008777 -0.003496 0.000000 0.000000 0.000000
# 3 -0.003801 -0.003496 0.010589 0.000000 0.000000 0.000000
# 4 0.000000 0.000000 0.000000 0.018312 0.000000 0.000000
# 5 0.000000 0.000000 0.000000 0.000000 0.031857 0.000000
# 6 0.000000 0.000000 0.000000 0.000000 0.000000 0.018447
#
#
# Mechanical properties :
#
#
# Convention : Reuss Voigt Hill
#
# Bulk Modulus (GPa) = 80.82317 84.42078 82.62198
# Shear Modulus (GPa) = 40.17805 42.84983 41.51394
#
# Velocity S-wave (km/s) = 4.51490 4.66260 4.58934
# Velocity P-wave (km/s) = 8.25740 8.47450 8.36666
#
# Compressibility (1/GPa) = 0.01237269
#
# Stress axis : x y z
#
# Youngs Moduli (GPa) = 78.90030 113.93424 94.44191
#
# Poissons Ratio (x) = 0.28902 0.35898
# Poissons Ratio (y) = 0.20015 0.33014
# Poissons Ratio (z) = 0.29990 0.39828
#
# Static dielectric constant tensor:
#      x y z
#    x 1.753100 0.000000 0.000000 
#    y 0.000000 1.703140 0.000000 
#    z 0.000000 0.000000 1.704090 
# 
# From -- ./inp_files/14173.got.cif
#   From: 2010.05.17/outbox.ucp.g08.bks.cvg/sg54_8_cif.got.tgz:14173.got - 2010.06.11 16:34:40.
