data_PCOD9424741
_publ_section_title
;
Structure prediction by ZEFSAII (Michael W. Deem and Ramdas Pophale) SiO2 
 PCOD9424741
Probable space group: P B A M
;
_chemical_formula_sum "Si O2"
_cell_formula_units_Z 52
_cell_length_a 14.950529
_cell_length_b 21.500492
_cell_length_c 7.565975
_cell_angle_alpha 90.000000
_cell_angle_beta 90.000000
_cell_angle_gamma 90.000000
_cell_volume 2432.035219
_symmetry_space_group_name_H-M "P B A M"
_symmetry_group_IT_number 55
_symmetry_cell_setting 'orthorhombic'
loop_
_space_group_symop_operation_xyz
x,y,z
-x,-y,z
1/2+x,1/2-y,-z
1/2-x,1/2+y,-z
-x,-y,-z
x,y,-z
1/2-x,1/2+y,z
1/2+x,1/2-y,z
loop_
_atom_site_type_symbol
_atom_site_label
_atom_site_fract_x
_atom_site_fract_y
_atom_site_fract_z
Si Si1 0.000000 0.000000 0.751517
Si Si2 0.830617 0.418977 0.705344
Si Si3 0.130493 0.103531 0.710287
Si Si4 0.166564 0.435984 0.786142
Si Si5 0.008190 0.349280 0.795275
Si Si6 0.865659 0.102971 0.783998
Si Si7 0.003552 0.790099 0.213172
O O1 0.925195 0.049965 0.691119
O O2 0.070796 0.052796 0.812752
O O3 0.833814 0.401863 0.500000
O O4 0.732559 0.399158 0.771416
O O5 0.838791 0.493203 0.722583
O O6 0.914023 0.384625 0.791208
O O7 0.126877 0.086498 0.500000
O O8 0.082571 0.169593 0.732041
O O9 0.262383 0.406377 0.739881
O O10 0.085090 0.393705 0.718879
O O11 0.162116 0.439381 0.000000
O O12 0.999215 0.280118 0.718274
O O13 0.034197 0.340257 0.000000
O O14 0.909675 0.168930 0.736039
O O15 0.875326 0.093999 0.000000
O O16 0.005308 0.788342 0.000000
#
# Coordination Sequence:
#
# PCOD9424741 Si02
#       7
#     4   8   8   8   8   8   8
#     4  10  16  32  54  78 111 148 175 226 275 334
#     4  11  23  38  56  83 113 146 187 231 277 330
#     4  10  21  35  55  83 114 145 183 227 279 332
#     4  10  20  36  57  82 109 142 184 234 282 328
#     4  10  22  39  58  80 111 150 191 230 274 327
#     4   9  17  30  53  83 111 138 178 229 278 330
#     4   9  20  37  57  84 113 146 185 224 274 334
#
# _framework density 21.381270000000001
#
# number of rings (size 3 to 8) (size 9 to 14) (size 15 to 20)
#    0.000    2.154    1.538    1.385    0.000    6.154 
#    0.000    3.077    0.000    0.000    0.000    0.000 
#    0.000    0.000    0.000    0.000    0.000    0.000 
#
# Total GULP energy -289853.648984 kJ/mol
# GULP energy per Si atom -5574.108634 kJ/mol
# Density = 2.133261 g / cm^3
# Si number density = 21.381270 Si / 1000 Ang^3
#
#
#
# Elastic Constant Matrix: (Units=GPa)
#
#
# Indices 1 2 3 4 5 6 
#
# 1 170.5934 92.8259 0.0453 0.0000 0.0000 0.0000
# 2 92.8259 160.4068 -6.1453 0.0000 0.0000 0.0000
# 3 0.0453 -6.1453 58.1410 0.0000 0.0000 0.0000
# 4 0.0000 0.0000 0.0000 -24.0350 0.0000 0.0000
# 5 0.0000 0.0000 0.0000 0.0000 -6.4927 0.0000
# 6 0.0000 0.0000 0.0000 0.0000 0.0000 2.9101
#
#
#
# Elastic Compliance Matrix: (Units=1/GPa)
#
#
# Indices 1 2 3 4 5 6 
#
# 1 0.008573 -0.004981 -0.000533 0.000000 0.000000 0.000000
# 2 -0.004981 0.009154 0.000971 0.000000 0.000000 0.000000
# 3 -0.000533 0.000971 0.017303 0.000000 0.000000 0.000000
# 4 0.000000 0.000000 0.000000 -0.041606 0.000000 0.000000
# 5 0.000000 0.000000 0.000000 0.000000 -0.154019 0.000000
# 6 0.000000 0.000000 0.000000 0.000000 0.000000 0.343626
#
#
# Mechanical properties :
#
#
# Convention : Reuss Voigt Hill
#
# Bulk Modulus (GPa) = 38.54587 62.51034 50.52811
# Shear Modulus (GPa) = 24.90486 14.63751 19.77118
#
# Velocity S-wave (km/s) = 3.41662 2.61931 3.04418
# Velocity P-wave (km/s) = 5.79926 6.20058 6.00327
#
# Compressibility (1/GPa) = 0.02594311
#
# Stress axis : x y z
#
# Youngs Moduli (GPa) = 116.65191 109.24217 57.79459
#
# Poissons Ratio (x) = 0.54416 0.03082
# Poissons Ratio (y) = 0.58107 -0.05614
# Poissons Ratio (z) = 0.06220 -0.10612
#
# Static dielectric constant tensor:
#      x y z
#    x 1.746370 0.000000 0.000000 
#    y 0.000000 1.735920 0.000000 
#    z 0.000000 0.000000 1.889680 
# 
# From -- ./inp_files/5930.got.cif
#   From: 2010.05.17/outbox.cif.g08.bks.cpg/sg55_3_cif.got.tgz:5930.got - 2010.06.03 13:27:54.
