data_PCOD9424292
_publ_section_title
;
Structure prediction by ZEFSAII (Michael W. Deem and Ramdas Pophale) SiO2 
 PCOD9424292
Probable space group: P C C A
;
_chemical_formula_sum "Si O2"
_cell_formula_units_Z 40
_cell_length_a 8.870138
_cell_length_b 19.920731
_cell_length_c 10.064851
_cell_angle_alpha 90.000000
_cell_angle_beta 90.000000
_cell_angle_gamma 90.000000
_cell_volume 1778.455478
_symmetry_space_group_name_H-M "P C C A"
_symmetry_group_IT_number 54
_symmetry_cell_setting 'orthorhombic'
loop_
_space_group_symop_operation_xyz
x,y,z
1/2-x,-y,z
1/2+x,-y,1/2-z
-x,y,1/2-z
-x,-y,-z
1/2+x,y,-z
1/2-x,y,1/2+z
x,-y,1/2+z
loop_
_atom_site_type_symbol
_atom_site_label
_atom_site_fract_x
_atom_site_fract_y
_atom_site_fract_z
Si Si1 0.583035 0.026937 0.874964
Si Si2 0.861293 0.438311 0.346396
Si Si3 0.362862 0.630740 0.855503
Si Si4 0.942250 0.826322 0.622450
Si Si5 0.110020 0.212429 0.869894
O O1 0.500000 0.996158 0.750000
O O2 0.545181 0.105960 0.874151
O O3 0.750000 0.000000 0.875224
O O4 0.500000 0.000000 0.000000
O O5 0.750000 0.500000 0.378872
O O6 0.886290 0.402300 0.494278
O O7 0.775671 0.394671 0.234083
O O8 0.000000 0.462217 0.250000
O O9 0.500000 0.621540 0.750000
O O10 0.338496 0.710578 0.868350
O O11 0.761445 0.833035 0.624202
O O12 0.000000 0.786304 0.750000
O O13 0.997619 0.791315 0.492371
O O14 0.000000 0.194097 0.750000
#
# Coordination Sequence:
#
# PCOD9424292 Si02
#       5
#     8   8   8   8   8
#     4  11  24  44  71 105 145 191 244 300 368 437
#     4  12  27  48  75 104 150 196 254 319 378 458
#     4  11  27  45  73 109 143 198 250 309 391 453
#     4  11  25  44  70 105 146 193 240 302 366 439
#     4  11  26  44  71 107 146 192 247 300 375 454
#
# _framework density 22.491426000000001
#
# number of rings (size 3 to 8) (size 9 to 14) (size 15 to 20)
#    0.000    0.800    0.000    5.400   11.200    6.400 
#    0.000    1.000    0.000    0.000    0.000    0.000 
#    0.000    0.000    0.000    0.000    0.000    0.000 
#
# Total GULP energy -222956.174746 kJ/mol
# GULP energy per Si atom -5573.904369 kJ/mol
# Density = 2.244023 g / cm^3
# Si number density = 22.491426 Si / 1000 Ang^3
#
#
#
# Elastic Constant Matrix: (Units=GPa)
#
#
# Indices 1 2 3 4 5 6 
#
# 1 172.9415 39.5808 63.4933 0.0000 0.0000 0.0000
# 2 39.5808 67.6403 8.6751 0.0000 0.0000 0.0000
# 3 63.4933 8.6751 199.4482 0.0000 0.0000 0.0000
# 4 0.0000 0.0000 0.0000 39.0123 0.0000 0.0000
# 5 0.0000 0.0000 0.0000 0.0000 40.8522 0.0000
# 6 0.0000 0.0000 0.0000 0.0000 0.0000 26.1993
#
#
#
# Elastic Compliance Matrix: (Units=1/GPa)
#
#
# Indices 1 2 3 4 5 6 
#
# 1 0.007543 -0.004129 -0.002222 0.000000 0.000000 0.000000
# 2 -0.004129 0.017127 0.000569 0.000000 0.000000 0.000000
# 3 -0.002222 0.000569 0.005696 0.000000 0.000000 0.000000
# 4 0.000000 0.000000 0.000000 0.025633 0.000000 0.000000
# 5 0.000000 0.000000 0.000000 0.000000 0.024478 0.000000
# 6 0.000000 0.000000 0.000000 0.000000 0.000000 0.038169
#
#
# Mechanical properties :
#
#
# Convention : Reuss Voigt Hill
#
# Bulk Modulus (GPa) = 53.17973 73.72536 63.45255
# Shear Modulus (GPa) = 36.63620 43.09816 39.86718
#
# Velocity S-wave (km/s) = 4.04034 4.38220 4.21473
# Velocity P-wave (km/s) = 6.74252 7.64561 7.20822
#
# Compressibility (1/GPa) = 0.01880416
#
# Stress axis : x y z
#
# Youngs Moduli (GPa) = 132.57435 58.38683 175.55197
#
# Poissons Ratio (x) = 0.24108 0.39002
# Poissons Ratio (y) = 0.54739 -0.09997
# Poissons Ratio (z) = 0.29454 -0.03325
#
# Static dielectric constant tensor:
#      x y z
#    x 1.885480 0.000000 0.000000 
#    y 0.000000 1.719650 0.000000 
#    z 0.000000 0.000000 1.883080 
# 
# From -- ./inp_files/2530.got.cif
#   From: 2010.05.17/outbox.cif.g08.bks.cpg/sg54_2_cif.got.tgz:2530.got - 2010.06.03 13:09:01.
