data_PCOD9424329
_publ_section_title
;
Structure prediction by ZEFSAII (Michael W. Deem and Ramdas Pophale) SiO2 
 PCOD9424329
Probable space group: P C C A
;
_chemical_formula_sum "Si O2"
_cell_formula_units_Z 36
_cell_length_a 19.766595
_cell_length_b 7.252216
_cell_length_c 11.262808
_cell_angle_alpha 90.000000
_cell_angle_beta 90.000000
_cell_angle_gamma 90.000000
_cell_volume 1614.541733
_symmetry_space_group_name_H-M "P C C A"
_symmetry_group_IT_number 54
_symmetry_cell_setting 'orthorhombic'
loop_
_space_group_symop_operation_xyz
x,y,z
1/2-x,-y,z
1/2+x,-y,1/2-z
-x,y,1/2-z
-x,-y,-z
1/2+x,y,-z
1/2-x,y,1/2+z
x,-y,1/2+z
loop_
_atom_site_type_symbol
_atom_site_label
_atom_site_fract_x
_atom_site_fract_y
_atom_site_fract_z
Si Si1 0.750000 0.000000 0.654155
Si Si2 0.482377 0.120733 0.615163
Si Si3 0.644504 0.770926 0.501676
Si Si4 0.442685 0.499466 0.338210
Si Si5 0.805942 0.642241 0.779815
O O1 0.690156 0.909648 0.575914
O O2 0.782597 0.839482 0.732355
O O3 0.500000 0.057320 0.750000
O O4 0.401837 0.133435 0.598721
O O5 0.520278 0.320578 0.605126
O O6 0.500000 0.000000 0.500000
O O7 0.591254 0.652587 0.578133
O O8 0.691777 0.641766 0.422446
O O9 0.500000 0.420506 0.250000
O O10 0.378689 0.578392 0.266871
O O11 0.750000 0.500000 0.734834
#
# Coordination Sequence:
#
# PCOD9424329 Si02
#       5
#     4   8   8   8   8
#     4  12  28  50  74 116 158 208 262 326 404 480
#     4  11  24  47  74 112 157 202 267 326 399 476
#     4  12  26  48  78 111 151 211 258 329 395 483
#     4  11  24  50  75 112 153 202 267 323 402 476
#     4  12  26  50  75 111 155 202 265 325 396 480
#
# _framework density 22.297346000000001
#
# number of rings (size 3 to 8) (size 9 to 14) (size 15 to 20)
#    0.000    0.444    6.667    2.667    3.111    0.889 
#    4.000    0.000    0.000    0.000    0.000    0.000 
#    0.000    0.000    0.000    0.000    0.000    0.000 
#
# Total GULP energy -201099.544726 kJ/mol
# GULP energy per Si atom -5586.098465 kJ/mol
# Density = 2.224660 g / cm^3
# Si number density = 22.297346 Si / 1000 Ang^3
#
#
#
# Elastic Constant Matrix: (Units=GPa)
#
#
# Indices 1 2 3 4 5 6 
#
# 1 171.3500 72.1023 77.8329 0.0000 0.0000 0.0000
# 2 72.1023 99.1602 71.7824 0.0000 0.0000 0.0000
# 3 77.8329 71.7824 154.0525 0.0000 0.0000 0.0000
# 4 0.0000 0.0000 0.0000 40.4327 0.0000 0.0000
# 5 0.0000 0.0000 0.0000 0.0000 57.7159 0.0000
# 6 0.0000 0.0000 0.0000 0.0000 0.0000 27.6123
#
#
#
# Elastic Compliance Matrix: (Units=1/GPa)
#
#
# Indices 1 2 3 4 5 6 
#
# 1 0.008890 -0.004848 -0.002233 0.000000 0.000000 0.000000
# 2 -0.004848 0.017862 -0.005873 0.000000 0.000000 0.000000
# 3 -0.002233 -0.005873 0.010356 0.000000 0.000000 0.000000
# 4 0.000000 0.000000 0.000000 0.024732 0.000000 0.000000
# 5 0.000000 0.000000 0.000000 0.000000 0.017326 0.000000
# 6 0.000000 0.000000 0.000000 0.000000 0.000000 0.036216
#
#
# Mechanical properties :
#
#
# Convention : Reuss Voigt Hill
#
# Bulk Modulus (GPa) = 89.28832 96.44421 92.86626
# Shear Modulus (GPa) = 34.47712 38.67520 36.57616
#
# Velocity S-wave (km/s) = 3.93650 4.16928 4.05456
# Velocity P-wave (km/s) = 7.79696 8.15627 7.97864
#
# Compressibility (1/GPa) = 0.01119967
#
# Stress axis : x y z
#
# Youngs Moduli (GPa) = 112.48382 55.98585 96.56191
#
# Poissons Ratio (x) = 0.27143 0.21559
# Poissons Ratio (y) = 0.54533 0.56715
# Poissons Ratio (z) = 0.25113 0.32883
#
# Static dielectric constant tensor:
#      x y z
#    x 1.849250 0.000000 0.000000 
#    y 0.000000 1.933870 0.000000 
#    z 0.000000 0.000000 1.899390 
# 
# From -- ./inp_files/4539.got.cif
#   From: 2010.05.17/outbox.cif.g08.bks.cpg/sg54_3_cif.got.tgz:4539.got - 2010.06.03 13:09:01.
