data_PCOD9424382
_publ_section_title
;
Structure prediction by ZEFSAII (Michael W. Deem and Ramdas Pophale) SiO2 
 PCOD9424382
Probable space group: P C C A
;
_chemical_formula_sum "Si O2"
_cell_formula_units_Z 24
_cell_length_a 7.744498
_cell_length_b 5.124233
_cell_length_c 27.576621
_cell_angle_alpha 90.000000
_cell_angle_beta 90.000000
_cell_angle_gamma 90.000000
_cell_volume 1094.367511
_symmetry_space_group_name_H-M "P C C A"
_symmetry_group_IT_number 54
_symmetry_cell_setting 'orthorhombic'
loop_
_space_group_symop_operation_xyz
x,y,z
1/2-x,-y,z
1/2+x,-y,1/2-z
-x,y,1/2-z
-x,-y,-z
1/2+x,y,-z
1/2-x,y,1/2+z
x,-y,1/2+z
loop_
_atom_site_type_symbol
_atom_site_label
_atom_site_fract_x
_atom_site_fract_y
_atom_site_fract_z
Si Si1 0.750000 0.000000 0.530955
Si Si2 0.750000 0.500000 0.462278
Si Si3 0.065993 0.649907 0.901614
Si Si4 0.627827 0.749852 0.205226
O O1 0.772964 0.249611 0.496684
O O2 0.597268 0.087481 0.567190
O O3 0.582335 0.489945 0.428350
O O4 0.250000 0.500000 0.902203
O O5 0.028705 0.708749 0.845663
O O6 0.750000 0.500000 0.213524
O O7 0.500000 0.783949 0.250000
O O8 0.750000 0.000000 0.199436
#
# Coordination Sequence:
#
# PCOD9424382 Si02
#       4
#     4   4   8   8
#     4  12  24  46  66 104 144 186 232 284 342 412
#     4  12  28  40  72 104 138 190 236 274 342 426
#     4  11  26  46  70 101 143 183 230 293 347 409
#     4  11  25  47  73 102 138 180 232 296 359 419
#
# _framework density 21.930475999999999
#
# number of rings (size 3 to 8) (size 9 to 14) (size 15 to 20)
#    0.000    0.667    3.333    3.000    7.000    0.000 
#    3.000    0.000    0.000    0.000    0.000    0.000 
#    0.000    0.000    0.000    0.000    0.000    0.000 
#
# Total GULP energy -134365.255625 kJ/mol
# GULP energy per Si atom -5598.552318 kJ/mol
# Density = 2.188056 g / cm^3
# Si number density = 21.930476 Si / 1000 Ang^3
#
#
#
# Elastic Constant Matrix: (Units=GPa)
#
#
# Indices 1 2 3 4 5 6 
#
# 1 66.7158 6.5873 54.4175 0.0000 0.0000 0.0000
# 2 6.5873 122.1694 32.9234 0.0000 0.0000 0.0000
# 3 54.4175 32.9234 207.0631 0.0000 0.0000 0.0000
# 4 0.0000 0.0000 0.0000 9.2467 0.0000 0.0000
# 5 0.0000 0.0000 0.0000 0.0000 61.1189 0.0000
# 6 0.0000 0.0000 0.0000 0.0000 0.0000 17.7022
#
#
#
# Elastic Compliance Matrix: (Units=1/GPa)
#
#
# Indices 1 2 3 4 5 6 
#
# 1 0.019092 0.000337 -0.005071 0.000000 0.000000 0.000000
# 2 0.000337 0.008558 -0.001449 0.000000 0.000000 0.000000
# 3 -0.005071 -0.001449 0.006393 0.000000 0.000000 0.000000
# 4 0.000000 0.000000 0.000000 0.108147 0.000000 0.000000
# 5 0.000000 0.000000 0.000000 0.000000 0.016362 0.000000
# 6 0.000000 0.000000 0.000000 0.000000 0.000000 0.056490
#
#
# Mechanical properties :
#
#
# Convention : Reuss Voigt Hill
#
# Bulk Modulus (GPa) = 46.13426 64.86719 55.50073
# Shear Modulus (GPa) = 21.30989 37.74821 29.52905
#
# Velocity S-wave (km/s) = 3.12060 4.15332 3.67343
# Velocity P-wave (km/s) = 5.83664 7.25554 6.58442
#
# Compressibility (1/GPa) = 0.02167586
#
# Stress axis : x y z
#
# Youngs Moduli (GPa) = 52.37803 116.85313 156.43072
#
# Poissons Ratio (x) = -0.03940 0.79328
# Poissons Ratio (y) = -0.01766 0.22672
# Poissons Ratio (z) = 0.26561 0.16936
#
# Static dielectric constant tensor:
#      x y z
#    x 1.811780 0.000000 0.000000 
#    y 0.000000 1.816020 0.000000 
#    z 0.000000 0.000000 1.792800 
# 
# From -- ./inp_files/23095.got.cif
#   From: 2010.05.17/outbox.cif.g08.bks.cpg/sg54_12_cif.got.tgz:23095.got - 2010.06.03 13:09:01.
