data_PCOD9424804
_publ_section_title
;
Structure prediction by ZEFSAII (Michael W. Deem and Ramdas Pophale) SiO2 
 PCOD9424804
Probable space group: P B A M
;
_chemical_formula_sum "Si O2"
_cell_formula_units_Z 64
_cell_length_a 15.136152
_cell_length_b 31.668253
_cell_length_c 7.657639
_cell_angle_alpha 90.000000
_cell_angle_beta 90.000000
_cell_angle_gamma 90.000000
_cell_volume 3670.578150
_symmetry_space_group_name_H-M "P B A M"
_symmetry_group_IT_number 55
_symmetry_cell_setting 'orthorhombic'
loop_
_space_group_symop_operation_xyz
x,y,z
-x,-y,z
1/2+x,1/2-y,-z
1/2-x,1/2+y,-z
-x,-y,-z
x,y,-z
1/2-x,1/2+y,z
1/2+x,1/2-y,z
loop_
_atom_site_type_symbol
_atom_site_label
_atom_site_fract_x
_atom_site_fract_y
_atom_site_fract_z
Si Si1 0.400737 0.049157 0.786913
Si Si2 0.172935 0.635173 0.211016
Si Si3 0.311137 0.869826 0.786378
Si Si4 0.203788 0.212640 0.702449
Si Si5 0.684445 0.703371 0.792878
Si Si6 0.506369 0.271916 0.208353
Si Si7 0.989664 0.676615 0.786905
Si Si8 0.105265 0.453691 0.213050
O O1 0.335020 0.086476 0.730359
O O2 0.503558 0.057173 0.736467
O O3 0.377158 0.001729 0.730429
O O4 0.400833 0.049367 0.000000
O O5 0.246741 0.668292 0.268200
O O6 0.079839 0.655086 0.267713
O O7 0.176076 0.634966 0.000000
O O8 0.235442 0.837896 0.722937
O O9 0.402837 0.847924 0.734257
O O10 0.324482 0.918350 0.730202
O O11 0.307006 0.870225 0.000000
O O12 0.200391 0.221885 0.500000
O O13 0.258764 0.252960 0.777095
O O14 0.102800 0.208602 0.764815
O O15 0.584871 0.708463 0.721908
O O16 0.677173 0.696344 0.000000
O O17 0.512912 0.224293 0.276523
O O18 0.494196 0.269006 0.000000
O O19 0.989522 0.676653 0.000000
O O20 0.105103 0.453553 0.000000
#
# Coordination Sequence:
#
# PCOD9424804 Si02
#       8
#     8   8   8   8   8   8   8   8
#     4   8  13  20  36  64  97 126 149 179 223 271
#     4  10  17  29  47  68  92 126 164 190 217 269
#     4   9  14  22  40  67  94 118 146 181 225 271
#     4  12  24  33  44  66  95 124 153 192 239 276
#     4  10  19  32  51  70  88 120 161 194 227 274
#     4  10  19  33  49  64  86 118 160 198 225 266
#     4   9  14  22  43  67  88 116 151 188 218 254
#     4   8  12  19  34  65 102 123 140 179 231 275
#
# _framework density 17.435946000000001
#
# number of rings (size 3 to 8) (size 9 to 14) (size 15 to 20)
#    0.000    2.500    3.750    1.875    0.000    0.500 
#    0.000    0.000    0.000    0.000    0.000    3.500 
#    0.000    7.000    0.000    0.000    0.000    0.000 
#
# Total GULP energy -356506.188084 kJ/mol
# GULP energy per Si atom -5570.409189 kJ/mol
# Density = 1.739626 g / cm^3
# Si number density = 17.435946 Si / 1000 Ang^3
#
#
#
# Elastic Constant Matrix: (Units=GPa)
#
#
# Indices 1 2 3 4 5 6 
#
# 1 107.2196 58.2640 -5.7854 0.0000 0.0000 0.0000
# 2 58.2640 127.4672 -8.8689 0.0000 0.0000 0.0000
# 3 -5.7854 -8.8689 24.6506 0.0000 0.0000 0.0000
# 4 0.0000 0.0000 0.0000 -11.6739 0.0000 0.0000
# 5 0.0000 0.0000 0.0000 0.0000 19.5101 0.0000
# 6 0.0000 0.0000 0.0000 0.0000 0.0000 17.5235
#
#
#
# Elastic Compliance Matrix: (Units=1/GPa)
#
#
# Indices 1 2 3 4 5 6 
#
# 1 0.012428 -0.005618 0.000895 0.000000 0.000000 0.000000
# 2 -0.005618 0.010587 0.002490 0.000000 0.000000 0.000000
# 3 0.000895 0.002490 0.041673 0.000000 0.000000 0.000000
# 4 0.000000 0.000000 0.000000 -0.085661 0.000000 0.000000
# 5 0.000000 0.000000 0.000000 0.000000 0.051255 0.000000
# 6 0.000000 0.000000 0.000000 0.000000 0.000000 0.057066
#
#
# Mechanical properties :
#
#
# Convention : Reuss Voigt Hill
#
# Bulk Modulus (GPa) = 16.60520 38.50631 27.55575
# Shear Modulus (GPa) = 44.68755 19.45379 32.07067
#
# Velocity S-wave (km/s) = 5.06806 3.34388 4.29341
# Velocity P-wave (km/s) = 6.61749 6.08614 6.35737
#
# Compressibility (1/GPa) = 0.06022209
#
# Stress axis : x y z
#
# Youngs Moduli (GPa) = 80.46295 94.45939 23.99631
#
# Poissons Ratio (x) = 0.53072 -0.02149
# Poissons Ratio (y) = 0.45208 -0.05976
# Poissons Ratio (z) = -0.07204 -0.23523
#
# Static dielectric constant tensor:
#      x y z
#    x 1.618060 0.000000 0.000000 
#    y 0.000000 1.625490 0.000000 
#    z 0.000000 0.000000 1.637980 
# 
# From -- ./inp_files/6927.got.cif
#   From: 2010.05.17/outbox.cif.g08.bks.cpg/sg55_4_cif.got.tgz:6927.got - 2010.06.03 13:27:54.
