data_PCOD9424226
_publ_section_title
;
Structure prediction by ZEFSAII (Michael W. Deem and Ramdas Pophale) SiO2 
 PCOD9424226
Probable space group: P C C A
;
_chemical_formula_sum "Si O2"
_cell_formula_units_Z 32
_cell_length_a 11.051621
_cell_length_b 11.581937
_cell_length_c 10.724541
_cell_angle_alpha 90.000000
_cell_angle_beta 90.000000
_cell_angle_gamma 90.000000
_cell_volume 1372.732434
_symmetry_space_group_name_H-M "P C C A"
_symmetry_group_IT_number 54
_symmetry_cell_setting 'orthorhombic'
loop_
_space_group_symop_operation_xyz
x,y,z
1/2-x,-y,z
1/2+x,-y,1/2-z
-x,y,1/2-z
-x,-y,-z
1/2+x,y,-z
1/2-x,y,1/2+z
x,-y,1/2+z
loop_
_atom_site_type_symbol
_atom_site_label
_atom_site_fract_x
_atom_site_fract_y
_atom_site_fract_z
Si Si1 0.657318 0.168174 0.854716
Si Si2 0.618814 0.473465 0.081029
Si Si3 0.500000 0.645345 0.250000
Si Si4 0.500000 0.034811 0.250000
Si Si5 0.167177 0.210511 0.875943
O O1 0.554392 0.268010 0.852616
O O2 0.741441 0.196237 0.737923
O O3 0.594212 0.047490 0.822001
O O4 0.720421 0.178502 0.988331
O O5 0.750000 0.500000 0.020494
O O6 0.602978 0.562202 0.195738
O O7 0.620067 0.341092 0.122259
O O8 0.500000 0.500000 0.000000
O O9 0.563460 0.117622 0.150718
#
# Coordination Sequence:
#
# PCOD9424226 Si02
#       5
#     8   8   4   4   8
#     4  11  26  48  75 109 158 204 271 332 415 488
#     4  12  26  47  79 116 161 213 274 339 414 499
#     4  11  23  46  70 110 155 209 258 340 396 489
#     4  11  27  46  76 114 151 209 276 344 404 493
#     4  12  26  49  78 111 156 213 266 338 417 492
#
# _framework density 23.311171000000002
#
# number of rings (size 3 to 8) (size 9 to 14) (size 15 to 20)
#    0.000    0.500    5.000    2.250    0.000   13.000 
#    0.000    0.000    0.000    0.000    0.000    0.000 
#    0.000    0.000    0.000    0.000    0.000    0.000 
#
# Total GULP energy -179127.345949 kJ/mol
# GULP energy per Si atom -5597.729561 kJ/mol
# Density = 2.325811 g / cm^3
# Si number density = 23.311171 Si / 1000 Ang^3
#
#
#
# Elastic Constant Matrix: (Units=GPa)
#
#
# Indices 1 2 3 4 5 6 
#
# 1 114.4554 64.2420 43.9596 0.0000 0.0000 0.0000
# 2 64.2420 210.9182 46.4080 0.0000 0.0000 0.0000
# 3 43.9596 46.4080 138.5036 0.0000 0.0000 0.0000
# 4 0.0000 0.0000 0.0000 14.2479 0.0000 0.0000
# 5 0.0000 0.0000 0.0000 0.0000 43.3692 0.0000
# 6 0.0000 0.0000 0.0000 0.0000 0.0000 30.6728
#
#
#
# Elastic Compliance Matrix: (Units=1/GPa)
#
#
# Indices 1 2 3 4 5 6 
#
# 1 0.011369 -0.002881 -0.002643 0.000000 0.000000 0.000000
# 2 -0.002881 0.005849 -0.001045 0.000000 0.000000 0.000000
# 3 -0.002643 -0.001045 0.008409 0.000000 0.000000 0.000000
# 4 0.000000 0.000000 0.000000 0.070186 0.000000 0.000000
# 5 0.000000 0.000000 0.000000 0.000000 0.023058 0.000000
# 6 0.000000 0.000000 0.000000 0.000000 0.000000 0.032602
#
#
# Mechanical properties :
#
#
# Convention : Reuss Voigt Hill
#
# Bulk Modulus (GPa) = 80.07694 85.89960 82.98827
# Shear Modulus (GPa) = 29.62522 38.27583 33.95053
#
# Velocity S-wave (km/s) = 3.56878 4.05650 3.82043
# Velocity P-wave (km/s) = 7.16990 7.67264 7.42552
#
# Compressibility (1/GPa) = 0.01248799
#
# Stress axis : x y z
#
# Youngs Moduli (GPa) = 87.95504 170.97615 118.91833
#
# Poissons Ratio (x) = 0.49265 0.31431
# Poissons Ratio (y) = 0.25343 0.12429
# Poissons Ratio (z) = 0.23247 0.17871
#
# Static dielectric constant tensor:
#      x y z
#    x 1.932890 0.000000 0.000000 
#    y 0.000000 1.852880 0.000000 
#    z 0.000000 0.000000 1.935140 
# 
# From -- ./inp_files/7312.got.cif
#   From: 2010.05.17/outbox.cif.g08.bks.cpg/sg54_4_cif.got.tgz:7312.got - 2010.06.03 13:09:01.
