data_PCOD9424402
_publ_section_title
;
Structure prediction by ZEFSAII (Michael W. Deem and Ramdas Pophale) SiO2 
 PCOD9424402
Probable space group: P C C A
;
_chemical_formula_sum "Si O2"
_cell_formula_units_Z 32
_cell_length_a 9.267044
_cell_length_b 12.357411
_cell_length_c 11.915286
_cell_angle_alpha 90.000000
_cell_angle_beta 90.000000
_cell_angle_gamma 90.000000
_cell_volume 1364.498892
_symmetry_space_group_name_H-M "P C C A"
_symmetry_group_IT_number 54
_symmetry_cell_setting 'orthorhombic'
loop_
_space_group_symop_operation_xyz
x,y,z
1/2-x,-y,z
1/2+x,-y,1/2-z
-x,y,1/2-z
-x,-y,-z
1/2+x,y,-z
1/2-x,y,1/2+z
x,-y,1/2+z
loop_
_atom_site_type_symbol
_atom_site_label
_atom_site_fract_x
_atom_site_fract_y
_atom_site_fract_z
Si Si1 0.816030 0.694552 0.930635
Si Si2 0.558191 0.163368 0.446241
Si Si3 0.250000 0.500000 0.907105
Si Si4 0.500000 0.436003 0.750000
Si Si5 0.898656 0.962811 0.664243
O O1 0.683706 0.768156 0.888276
O O2 0.899355 0.635970 0.830333
O O3 0.748190 0.604539 0.013226
O O4 0.931195 0.763043 0.002857
O O5 0.632062 0.106295 0.554060
O O6 0.489032 0.067631 0.374237
O O7 0.392108 0.502605 0.829652
O O8 0.000000 0.899419 0.750000
O O9 0.750000 0.000000 0.717580
#
# Coordination Sequence:
#
# PCOD9424402 Si02
#       5
#     8   8   4   4   8
#     4  12  26  49  71 105 146 191 242 301 356 434
#     4  11  26  46  72  98 145 187 235 299 358 420
#     4  12  28  48  72 110 148 184 244 308 354 438
#     4  12  28  46  78 106 144 198 242 294 378 428
#     4  11  26  44  69 106 142 185 239 295 360 435
#
# _framework density 23.451834000000002
#
# number of rings (size 3 to 8) (size 9 to 14) (size 15 to 20)
#    0.000    0.500    5.000    1.500    8.750    2.000 
#    0.000    0.000    0.000    0.000    0.000    0.000 
#    0.000    0.000    0.000    0.000    0.000    0.000 
#
# Total GULP energy -179363.715358 kJ/mol
# GULP energy per Si atom -5605.116105 kJ/mol
# Density = 2.339846 g / cm^3
# Si number density = 23.451834 Si / 1000 Ang^3
#
#
#
# Elastic Constant Matrix: (Units=GPa)
#
#
# Indices 1 2 3 4 5 6 
#
# 1 119.7555 12.4996 9.2672 0.0000 0.0000 0.0000
# 2 12.4996 60.2956 -1.2786 0.0000 0.0000 0.0000
# 3 9.2672 -1.2786 69.5686 0.0000 0.0000 0.0000
# 4 0.0000 0.0000 0.0000 -71.4685 0.0000 0.0000
# 5 0.0000 0.0000 0.0000 0.0000 47.7462 0.0000
# 6 0.0000 0.0000 0.0000 0.0000 0.0000 44.8851
#
#
#
# Elastic Compliance Matrix: (Units=1/GPa)
#
#
# Indices 1 2 3 4 5 6 
#
# 1 0.008631 -0.001814 -0.001183 0.000000 0.000000 0.000000
# 2 -0.001814 0.016973 0.000554 0.000000 0.000000 0.000000
# 3 -0.001183 0.000554 0.014542 0.000000 0.000000 0.000000
# 4 0.000000 0.000000 0.000000 -0.013992 0.000000 0.000000
# 5 0.000000 0.000000 0.000000 0.000000 0.020944 0.000000
# 6 0.000000 0.000000 0.000000 0.000000 0.000000 0.022279
#
#
# Mechanical properties :
#
#
# Convention : Reuss Voigt Hill
#
# Bulk Modulus (GPa) = 28.36199 32.28845 30.32522
# Shear Modulus (GPa) = 58.12754 19.50799 38.81777
#
# Velocity S-wave (km/s) = 4.98395 2.88728 4.07284
# Velocity P-wave (km/s) = 6.72604 4.99130 5.92253
#
# Compressibility (1/GPa) = 0.03525845
#
# Stress axis : x y z
#
# Youngs Moduli (GPa) = 115.85762 58.91772 68.76594
#
# Poissons Ratio (x) = 0.10690 0.08136
# Poissons Ratio (y) = 0.21021 -0.03807
# Poissons Ratio (z) = 0.13707 -0.03262
#
# Static dielectric constant tensor:
#      x y z
#    x 1.861040 0.000000 0.000000 
#    y 0.000000 1.866890 0.000000 
#    z 0.000000 0.000000 1.868950 
# 
# From -- ./inp_files/6808.got.cif
#   From: 2010.05.17/outbox.cif.g08.bks.cpg/sg54_4_cif.got.tgz:6808.got - 2010.06.03 13:09:01.
