data_PCOD9424330
_publ_section_title
;
Structure prediction by ZEFSAII (Michael W. Deem and Ramdas Pophale) SiO2 
 PCOD9424330
Probable space group: P C C A
;
_chemical_formula_sum "Si O2"
_cell_formula_units_Z 32
_cell_length_a 8.931827
_cell_length_b 14.601508
_cell_length_c 11.280422
_cell_angle_alpha 90.000000
_cell_angle_beta 90.000000
_cell_angle_gamma 90.000000
_cell_volume 1471.171694
_symmetry_space_group_name_H-M "P C C A"
_symmetry_group_IT_number 54
_symmetry_cell_setting 'orthorhombic'
loop_
_space_group_symop_operation_xyz
x,y,z
1/2-x,-y,z
1/2+x,-y,1/2-z
-x,y,1/2-z
-x,-y,-z
1/2+x,y,-z
1/2-x,y,1/2+z
x,-y,1/2+z
loop_
_atom_site_type_symbol
_atom_site_label
_atom_site_fract_x
_atom_site_fract_y
_atom_site_fract_z
Si Si1 0.750000 0.500000 0.082263
Si Si2 0.500000 0.556524 0.750000
Si Si3 0.475884 0.238564 0.621472
Si Si4 0.814951 0.671870 0.431365
Si Si5 0.575444 0.971126 0.125456
O O1 0.600825 0.502724 0.161507
O O2 0.764810 0.589745 0.002163
O O3 0.386112 0.622997 0.681620
O O4 0.500000 0.282885 0.750000
O O5 0.557540 0.290158 0.516180
O O6 0.299445 0.246850 0.598099
O O7 0.547444 0.138019 0.627849
O O8 0.500000 0.006268 0.250000
O O9 0.750000 0.000000 0.125170
O O10 0.500000 0.000000 0.000000
#
# Coordination Sequence:
#
# PCOD9424330 Si02
#       5
#     4   4   8   8   8
#     4  12  26  44  66 100 140 194 236 306 356 434
#     4  12  26  42  70  98 140 192 246 300 362 424
#     4  11  26  45  71 102 145 181 239 299 358 433
#     4  12  25  46  66 102 139 189 245 295 359 421
#     4  11  24  47  76 111 149 193 243 307 378 458
#
# _framework density 21.751369
#
# number of rings (size 3 to 8) (size 9 to 14) (size 15 to 20)
#    0.000    0.500    2.500    5.250    5.250    2.000 
#    2.250    0.000    0.000    0.000    0.000    0.000 
#    0.000    0.000    0.000    0.000    0.000    0.000 
#
# Total GULP energy -178935.420727 kJ/mol
# GULP energy per Si atom -5591.731898 kJ/mol
# Density = 2.170186 g / cm^3
# Si number density = 21.751369 Si / 1000 Ang^3
#
#
#
# Elastic Constant Matrix: (Units=GPa)
#
#
# Indices 1 2 3 4 5 6 
#
# 1 159.9333 35.4468 59.4371 0.0000 0.0000 0.0000
# 2 35.4468 78.2909 16.6557 0.0000 0.0000 0.0000
# 3 59.4371 16.6557 129.2413 0.0000 0.0000 0.0000
# 4 0.0000 0.0000 0.0000 -6.1014 0.0000 0.0000
# 5 0.0000 0.0000 0.0000 0.0000 41.6139 0.0000
# 6 0.0000 0.0000 0.0000 0.0000 0.0000 39.9289
#
#
#
# Elastic Compliance Matrix: (Units=1/GPa)
#
#
# Indices 1 2 3 4 5 6 
#
# 1 0.008166 -0.002980 -0.003371 0.000000 0.000000 0.000000
# 2 -0.002980 0.014220 -0.000462 0.000000 0.000000 0.000000
# 3 -0.003371 -0.000462 0.009348 0.000000 0.000000 0.000000
# 4 0.000000 0.000000 0.000000 -0.163897 0.000000 0.000000
# 5 0.000000 0.000000 0.000000 0.000000 0.024030 0.000000
# 6 0.000000 0.000000 0.000000 0.000000 0.000000 0.025045
#
#
# Mechanical properties :
#
#
# Convention : Reuss Voigt Hill
#
# Bulk Modulus (GPa) = 55.22791 65.61606 60.42199
# Shear Modulus (GPa) = -78.83339 32.15001 -23.34169
#
# Velocity S-wave (km/s) = -6.02674 3.84874 -3.27940
# Velocity P-wave (km/s) = 4.79408 7.06981 3.67417
#
# Compressibility (1/GPa) = 0.01810679
#
# Stress axis : x y z
#
# Youngs Moduli (GPa) = 122.45853 70.32143 106.98014
#
# Poissons Ratio (x) = 0.20956 0.36068
# Poissons Ratio (y) = 0.36492 0.04944
# Poissons Ratio (z) = 0.41286 0.03250
#
# Static dielectric constant tensor:
#      x y z
#    x 2.892930 0.000000 0.000000 
#    y 0.000000 1.832550 0.000000 
#    z 0.000000 0.000000 1.825430 
# 
# From -- ./inp_files/6736.got.cif
#   From: 2010.05.17/outbox.cif.g08.bks.cpg/sg54_4_cif.got.tgz:6736.got - 2010.06.03 13:09:01.
