data_PCOD9424156
_publ_section_title
;
Structure prediction by ZEFSAII (Michael W. Deem and Ramdas Pophale) SiO2 
 PCOD9424156
Probable space group: P C C A
;
_chemical_formula_sum "Si O2"
_cell_formula_units_Z 52
_cell_length_a 9.361023
_cell_length_b 14.075883
_cell_length_c 19.963334
_cell_angle_alpha 90.000000
_cell_angle_beta 90.000000
_cell_angle_gamma 90.000000
_cell_volume 2630.462007
_symmetry_space_group_name_H-M "P C C A"
_symmetry_group_IT_number 54
_symmetry_cell_setting 'orthorhombic'
loop_
_space_group_symop_operation_xyz
x,y,z
1/2-x,-y,z
1/2+x,-y,1/2-z
-x,y,1/2-z
-x,-y,-z
1/2+x,y,-z
1/2-x,y,1/2+z
x,-y,1/2+z
loop_
_atom_site_type_symbol
_atom_site_label
_atom_site_fract_x
_atom_site_fract_y
_atom_site_fract_z
Si Si1 0.671402 0.095588 0.688060
Si Si2 0.168822 0.288553 0.094372
Si Si3 0.884875 0.565892 0.375520
Si Si4 0.836747 0.595588 0.042375
Si Si5 0.854928 0.314254 0.156290
Si Si6 0.500000 0.550484 0.250000
Si Si7 0.660633 0.911175 0.343543
O O1 0.688776 0.204119 0.663331
O O2 0.506771 0.073199 0.670386
O O3 0.710600 0.106716 0.766875
O O4 0.750000 0.000000 0.663543
O O5 0.306589 0.333232 0.131332
O O6 0.177235 0.176613 0.106455
O O7 0.016395 0.317692 0.126394
O O8 0.168383 0.330764 0.019309
O O9 0.750000 0.500000 0.391684
O O10 0.953975 0.518103 0.310387
O O11 0.003255 0.571977 0.433363
O O12 0.750000 0.500000 0.028124
O O13 0.755970 0.639179 0.106244
O O14 0.875179 0.378593 0.222974
O O15 0.750000 0.000000 0.369044
#
# Coordination Sequence:
#
# PCOD9424156 Si02
#       7
#     8   8   8   8   8   4   8
#     4   9  19  37  64  92 124 161 205 264 327 384
#     4  11  23  42  63  91 125 174 216 262 314 378
#     4  12  26  40  63  91 127 168 212 264 315 386
#     4  12  25  42  63  92 128 175 222 258 310 380
#     4  11  23  40  64  90 129 167 210 264 322 378
#     4  12  24  40  62  92 134 170 210 262 332 386
#     4   9  19  38  65  94 124 162 207 265 327 378
#
# _framework density 19.768388999999999
#
# number of rings (size 3 to 8) (size 9 to 14) (size 15 to 20)
#    0.000    1.231    3.077    3.231    2.154    3.077 
#    0.000    2.308    0.000    4.615    0.000    0.000 
#    0.000    0.000    0.000    0.000    0.000    0.000 
#
# Total GULP energy -290102.338431 kJ/mol
# GULP energy per Si atom -5578.891124 kJ/mol
# Density = 1.972340 g / cm^3
# Si number density = 19.768389 Si / 1000 Ang^3
#
#
#
# Elastic Constant Matrix: (Units=GPa)
#
#
# Indices 1 2 3 4 5 6 
#
# 1 78.5174 67.0064 35.8984 0.0000 0.0000 0.0000
# 2 67.0064 133.5677 70.6350 0.0000 0.0000 0.0000
# 3 35.8984 70.6350 96.7031 0.0000 0.0000 0.0000
# 4 0.0000 0.0000 0.0000 27.6649 0.0000 0.0000
# 5 0.0000 0.0000 0.0000 0.0000 26.4625 0.0000
# 6 0.0000 0.0000 0.0000 0.0000 0.0000 37.8774
#
#
#
# Elastic Compliance Matrix: (Units=1/GPa)
#
#
# Indices 1 2 3 4 5 6 
#
# 1 0.022272 -0.011081 -0.000174 0.000000 0.000000 0.000000
# 2 -0.011081 0.017712 -0.008824 0.000000 0.000000 0.000000
# 3 -0.000174 -0.008824 0.016851 0.000000 0.000000 0.000000
# 4 0.000000 0.000000 0.000000 0.036147 0.000000 0.000000
# 5 0.000000 0.000000 0.000000 0.000000 0.037789 0.000000
# 6 0.000000 0.000000 0.000000 0.000000 0.000000 0.026401
#
#
# Mechanical properties :
#
#
# Convention : Reuss Voigt Hill
#
# Bulk Modulus (GPa) = 59.96254 72.87419 66.41837
# Shear Modulus (GPa) = 24.64389 27.41752 26.03070
#
# Velocity S-wave (km/s) = 3.53460 3.72820 3.63269
# Velocity P-wave (km/s) = 6.85975 7.44827 7.16006
#
# Compressibility (1/GPa) = 0.01667708
#
# Stress axis : x y z
#
# Youngs Moduli (GPa) = 44.89899 56.45755 59.34413
#
# Poissons Ratio (x) = 0.62562 0.01032
# Poissons Ratio (y) = 0.49754 0.52366
# Poissons Ratio (z) = 0.00780 0.49819
#
# Static dielectric constant tensor:
#      x y z
#    x 1.712780 0.000000 0.000000 
#    y 0.000000 1.738500 0.000000 
#    z 0.000000 0.000000 1.735110 
# 
# From -- ./inp_files/20459.got.cif
#   From: 2010.05.17/outbox.cif.g08.bks.cpg/sg54_11_cif.got.tgz:20459.got - 2010.06.03 13:09:01.
