data_PCOD9424404
_publ_section_title
;
Structure prediction by ZEFSAII (Michael W. Deem and Ramdas Pophale) SiO2 
 PCOD9424404
Probable space group: P C C A
;
_chemical_formula_sum "Si O2"
_cell_formula_units_Z 36
_cell_length_a 9.827749
_cell_length_b 8.909025
_cell_length_c 18.375698
_cell_angle_alpha 90.000000
_cell_angle_beta 90.000000
_cell_angle_gamma 90.000000
_cell_volume 1608.896395
_symmetry_space_group_name_H-M "P C C A"
_symmetry_group_IT_number 54
_symmetry_cell_setting 'orthorhombic'
loop_
_space_group_symop_operation_xyz
x,y,z
1/2-x,-y,z
1/2+x,-y,1/2-z
-x,y,1/2-z
-x,-y,-z
1/2+x,y,-z
1/2-x,y,1/2+z
x,-y,1/2+z
loop_
_atom_site_type_symbol
_atom_site_label
_atom_site_fract_x
_atom_site_fract_y
_atom_site_fract_z
Si Si1 0.232601 0.169592 0.271636
Si Si2 0.500000 0.601381 0.250000
Si Si3 0.479419 0.322126 0.346212
Si Si4 0.757006 0.835959 0.895678
Si Si5 0.873017 0.391688 0.503920
O O1 0.379359 0.245032 0.286434
O O2 0.192847 0.145895 0.186870
O O3 0.116352 0.294205 0.286899
O O4 0.250000 0.000000 0.303156
O O5 0.534489 0.481423 0.314625
O O6 0.607329 0.234139 0.381114
O O7 0.374745 0.335430 0.413562
O O8 0.856406 0.737451 0.944629
O O9 0.750000 0.000000 0.929926
O O10 0.750000 0.500000 0.489070
O O11 0.000000 0.500000 0.500000
#
# Coordination Sequence:
#
# PCOD9424404 Si02
#       5
#     8   4   8   8   8
#     4  11  26  44  71 106 147 186 240 309 365 430
#     4  12  24  42  76 102 140 190 248 302 360 428
#     4  12  25  47  74 108 142 194 254 294 371 444
#     4  11  26  46  73 103 150 193 236 308 376 434
#     4  12  25  46  72 107 147 191 245 304 367 444
#
# _framework density 22.375588
#
# number of rings (size 3 to 8) (size 9 to 14) (size 15 to 20)
#    0.000    0.444    4.444    3.333    6.222    1.778 
#    0.000    0.000    0.000    0.000    0.000    0.000 
#    0.000    0.000    0.000    0.000    0.000    0.000 
#
# Total GULP energy -200599.535403 kJ/mol
# GULP energy per Si atom -5572.209317 kJ/mol
# Density = 2.232466 g / cm^3
# Si number density = 22.375588 Si / 1000 Ang^3
#
#
#
# Elastic Constant Matrix: (Units=GPa)
#
#
# Indices 1 2 3 4 5 6 
#
# 1 126.8922 83.3498 4.6136 0.0000 0.0000 0.0000
# 2 83.3498 175.0295 27.7676 0.0000 0.0000 0.0000
# 3 4.6136 27.7676 68.5451 0.0000 0.0000 0.0000
# 4 0.0000 0.0000 0.0000 20.7449 0.0000 0.0000
# 5 0.0000 0.0000 0.0000 0.0000 25.8659 0.0000
# 6 0.0000 0.0000 0.0000 0.0000 0.0000 30.0683
#
#
#
# Elastic Compliance Matrix: (Units=1/GPa)
#
#
# Indices 1 2 3 4 5 6 
#
# 1 0.011622 -0.005782 0.001560 0.000000 0.000000 0.000000
# 2 -0.005782 0.008982 -0.003250 0.000000 0.000000 0.000000
# 3 0.001560 -0.003250 0.015800 0.000000 0.000000 0.000000
# 4 0.000000 0.000000 0.000000 0.048205 0.000000 0.000000
# 5 0.000000 0.000000 0.000000 0.000000 0.038661 0.000000
# 6 0.000000 0.000000 0.000000 0.000000 0.000000 0.033258
#
#
# Mechanical properties :
#
#
# Convention : Reuss Voigt Hill
#
# Bulk Modulus (GPa) = 46.59490 66.88095 56.73793
# Shear Modulus (GPa) = 27.99175 32.31821 30.15498
#
# Velocity S-wave (km/s) = 3.54078 3.80459 3.67505
# Velocity P-wave (km/s) = 6.13069 7.01818 6.58939
#
# Compressibility (1/GPa) = 0.02146158
#
# Stress axis : x y z
#
# Youngs Moduli (GPa) = 86.04511 111.33158 63.28988
#
# Poissons Ratio (x) = 0.64370 -0.09873
# Poissons Ratio (y) = 0.49750 0.20566
# Poissons Ratio (z) = -0.13423 0.36177
#
# Static dielectric constant tensor:
#      x y z
#    x 1.846640 0.000000 0.000000 
#    y 0.000000 1.891380 0.000000 
#    z 0.000000 0.000000 2.039500 
# 
# From -- ./inp_files/20149.got.cif
#   From: 2010.05.17/outbox.cif.g08.bks.cpg/sg54_11_cif.got.tgz:20149.got - 2010.06.03 13:09:01.
