data_PCOD9424179
_publ_section_title
;
Structure prediction by ZEFSAII (Michael W. Deem and Ramdas Pophale) SiO2 
 PCOD9424179
Probable space group: P C C A
;
_chemical_formula_sum "Si O2"
_cell_formula_units_Z 60
_cell_length_a 19.693182
_cell_length_b 7.903231
_cell_length_c 18.213746
_cell_angle_alpha 90.000000
_cell_angle_beta 90.000000
_cell_angle_gamma 90.000000
_cell_volume 2834.783174
_symmetry_space_group_name_H-M "P C C A"
_symmetry_group_IT_number 54
_symmetry_cell_setting 'orthorhombic'
loop_
_space_group_symop_operation_xyz
x,y,z
1/2-x,-y,z
1/2+x,-y,1/2-z
-x,y,1/2-z
-x,-y,-z
1/2+x,y,-z
1/2-x,y,1/2+z
x,-y,1/2+z
loop_
_atom_site_type_symbol
_atom_site_label
_atom_site_fract_x
_atom_site_fract_y
_atom_site_fract_z
Si Si1 0.881886 0.529318 0.335767
Si Si2 0.500000 0.384450 0.750000
Si Si3 0.937848 0.705025 0.460613
Si Si4 0.620913 0.081368 0.933702
Si Si5 0.473429 0.808019 0.384896
Si Si6 0.814143 0.821130 0.794137
Si Si7 0.836056 0.170408 0.736893
Si Si8 0.084603 0.817493 0.410232
O O1 0.893773 0.560174 0.421895
O O2 0.838163 0.371410 0.307069
O O3 0.859559 0.705111 0.300868
O O4 0.954738 0.496633 0.301311
O O5 0.541613 0.269901 0.693621
O O6 0.947477 0.694031 0.547804
O O7 0.014251 0.717847 0.426650
O O8 0.901022 0.886171 0.445590
O O9 0.554774 0.166942 0.894519
O O10 0.683278 0.110442 0.878704
O O11 0.626150 0.167245 0.013594
O O12 0.441822 0.992031 0.395042
O O13 0.745216 0.817456 0.746926
O O14 0.854902 0.975381 0.754923
O O15 0.869775 0.228452 0.660213
#
# Coordination Sequence:
#
# PCOD9424179 Si02
#       8
#     8   4   8   8   8   8   8   8
#     4  12  23  38  61  94 128 163 211 255 316 380
#     4  12  22  32  58  98 132 160 198 256 322 382
#     4   9  19  37  63  96 132 161 198 262 322 387
#     4   9  17  40  64  90 125 167 207 252 320 383
#     4   9  19  35  61 100 133 161 200 256 324 388
#     4  11  23  42  65  83 120 175 213 257 312 361
#     4  11  24  42  62  89 125 165 215 269 306 361
#     4   9  19  36  66  95 129 164 205 261 323 382
#
# _framework density 21.16564
#
# number of rings (size 3 to 8) (size 9 to 14) (size 15 to 20)
#    0.000    1.867    2.667    3.600    0.000    0.533 
#    2.400    2.667    2.933    1.600    0.000    0.000 
#    0.000    0.000    0.000    0.000    0.000    0.000 
#
# Total GULP energy -334452.043314 kJ/mol
# GULP energy per Si atom -5574.200722 kJ/mol
# Density = 2.111747 g / cm^3
# Si number density = 21.165640 Si / 1000 Ang^3
#
#
#
# Elastic Constant Matrix: (Units=GPa)
#
#
# Indices 1 2 3 4 5 6 
#
# 1 39.3617 18.3248 20.4687 0.0000 0.0000 0.0000
# 2 18.3248 79.1310 13.8435 0.0000 0.0000 0.0000
# 3 20.4687 13.8435 115.2032 0.0000 0.0000 0.0000
# 4 0.0000 0.0000 0.0000 19.6242 0.0000 0.0000
# 5 0.0000 0.0000 0.0000 0.0000 25.2648 0.0000
# 6 0.0000 0.0000 0.0000 0.0000 0.0000 30.7142
#
#
#
# Elastic Compliance Matrix: (Units=1/GPa)
#
#
# Indices 1 2 3 4 5 6 
#
# 1 0.030792 -0.006306 -0.004713 0.000000 0.000000 0.000000
# 2 -0.006306 0.014200 -0.000586 0.000000 0.000000 0.000000
# 3 -0.004713 -0.000586 0.009588 0.000000 0.000000 0.000000
# 4 0.000000 0.000000 0.000000 0.050957 0.000000 0.000000
# 5 0.000000 0.000000 0.000000 0.000000 0.039581 0.000000
# 6 0.000000 0.000000 0.000000 0.000000 0.000000 0.032558
#
#
# Mechanical properties :
#
#
# Convention : Reuss Voigt Hill
#
# Bulk Modulus (GPa) = 31.87774 37.66332 34.77053
# Shear Modulus (GPa) = 23.65809 27.19124 25.42467
#
# Velocity S-wave (km/s) = 3.34692 3.58814 3.46963
# Velocity P-wave (km/s) = 5.47993 5.91604 5.70215
#
# Compressibility (1/GPa) = 0.03136985
#
# Stress axis : x y z
#
# Youngs Moduli (GPa) = 32.47573 70.42183 104.29548
#
# Poissons Ratio (x) = 0.44409 0.49157
# Poissons Ratio (y) = 0.20480 0.06111
# Poissons Ratio (z) = 0.15307 0.04126
#
# Static dielectric constant tensor:
#      x y z
#    x 1.921140 0.000000 0.000000 
#    y 0.000000 1.815910 0.000000 
#    z 0.000000 0.000000 1.789880 
# 
# From -- ./inp_files/18679.got.cif
#   From: 2010.05.17/outbox.cif.g08.bks.cpg/sg54_10_cif.got.tgz:18679.got - 2010.06.03 13:09:01.
