data_PCOD9424632
_publ_section_title
;
Structure prediction by ZEFSAII (Michael W. Deem and Ramdas Pophale) SiO2 
 PCOD9424632
Probable space group: P C C A
;
_chemical_formula_sum "Si O2"
_cell_formula_units_Z 64
_cell_length_a 30.000000
_cell_length_b 12.000000
_cell_length_c 9.000000
_cell_angle_alpha 90.000000
_cell_angle_beta 90.000000
_cell_angle_gamma 90.000000
_cell_volume 3240.000000
_symmetry_space_group_name_H-M "P C C A"
_symmetry_group_IT_number 54
_symmetry_cell_setting 'orthorhombic'
loop_
_space_group_symop_operation_xyz
x,y,z
1/2-x,-y,z
1/2+x,-y,1/2-z
-x,y,1/2-z
-x,-y,-z
1/2+x,y,-z
1/2-x,y,1/2+z
x,-y,1/2+z
loop_
_atom_site_type_symbol
_atom_site_label
_atom_site_fract_x
_atom_site_fract_y
_atom_site_fract_z
Si Si1 0.688218 0.293746 0.130887
Si Si2 0.937119 0.220082 0.010594
Si Si3 0.884820 0.424821 0.438142
Si Si4 0.636468 0.369908 0.612081
Si Si5 0.269375 0.372112 0.054803
Si Si6 0.952066 0.044099 0.224986
Si Si7 0.104423 0.842107 0.288066
Si Si8 0.539959 0.752429 0.455107
O O1 0.711985 0.339404 0.281291
O O2 0.655830 0.187813 0.172260
O O3 0.649969 0.370492 0.055373
O O4 0.728926 0.295329 0.010433
O O5 0.913047 0.226696 0.852767
O O6 0.897077 0.265018 0.115944
O O7 0.947485 0.092800 0.058986
O O8 0.987316 0.270992 0.016118
O O9 0.889487 0.548008 0.499997
O O10 0.862329 0.419545 0.277108
O O11 0.931447 0.359285 0.426606
O O12 0.686686 0.358934 0.549915
O O13 0.250000 0.500000 0.053320
O O14 0.956484 0.155075 0.325525
O O15 0.000000 0.983894 0.250000
O O16 0.908676 0.969227 0.250161
O O17 0.068950 0.809248 0.414853
#
# Coordination Sequence:
#
# PCOD9424632 Si02
#       8
#     8   8   8   8   8   8   8   8
#     4  11  24  40  64  97 125 160 208 270 328 376
#     4  11  22  39  63  94 132 171 213 259 318 375
#     4  11  24  40  59  94 132 167 209 257 318 383
#     4  12  24  40  64  92 128 166 212 266 321 385
#     4  12  23  40  66  93 121 164 211 267 324 386
#     4  10  20  39  66  94 127 173 221 262 309 371
#     4  11  22  38  62  99 125 163 216 271 318 374
#     4  10  22  39  61  93 134 174 212 260 306 383
#
# _framework density 19.753086
#
# number of rings (size 3 to 8) (size 9 to 14) (size 15 to 20)
#    0.000    1.000    3.750    3.750    1.750    2.500 
#    0.000    0.000    0.000    0.750    0.000    0.000 
#    0.000    0.000    0.000    0.000    0.000    0.000 
#
# Total GULP energy -356725.980690 kJ/mol
# GULP energy per Si atom -5573.843448 kJ/mol
# Density = 1.970813 g / cm^3
# Si number density = 19.753086 Si / 1000 Ang^3
#
#
#
# Elastic Constant Matrix: (Units=GPa)
#
#
# Indices 1 2 3 4 5 6 
#
# 1 157.6188 45.3210 24.8826 0.0000 0.0000 0.0000
# 2 45.3210 55.0474 6.2358 0.0000 0.0000 0.0000
# 3 24.8826 6.2358 99.0496 0.0000 0.0000 0.0000
# 4 0.0000 0.0000 0.0000 20.0375 0.0000 0.0000
# 5 0.0000 0.0000 0.0000 0.0000 35.0560 0.0000
# 6 0.0000 0.0000 0.0000 0.0000 0.0000 40.6491
#
#
#
# Elastic Compliance Matrix: (Units=1/GPa)
#
#
# Indices 1 2 3 4 5 6 
#
# 1 0.008596 -0.006881 -0.001726 0.000000 0.000000 0.000000
# 2 -0.006881 0.023806 0.000230 0.000000 0.000000 0.000000
# 3 -0.001726 0.000230 0.010515 0.000000 0.000000 0.000000
# 4 0.000000 0.000000 0.000000 0.049906 0.000000 0.000000
# 5 0.000000 0.000000 0.000000 0.000000 0.028526 0.000000
# 6 0.000000 0.000000 0.000000 0.000000 0.000000 0.024601
#
#
# Mechanical properties :
#
#
# Convention : Reuss Voigt Hill
#
# Bulk Modulus (GPa) = 38.22432 51.62163 44.92298
# Shear Modulus (GPa) = 29.16741 34.83362 32.00051
#
# Velocity S-wave (km/s) = 3.84682 4.20390 4.02932
# Velocity P-wave (km/s) = 6.25490 7.05365 6.66625
#
# Compressibility (1/GPa) = 0.02616135
#
# Stress axis : x y z
#
# Youngs Moduli (GPa) = 116.33979 42.00707 95.10141
#
# Poissons Ratio (x) = 0.28906 0.16415
# Poissons Ratio (y) = 0.80056 -0.02187
# Poissons Ratio (z) = 0.20081 -0.00966
#
# Static dielectric constant tensor:
#      x y z
#    x 1.660380 0.000000 0.000000 
#    y 0.000000 1.772800 0.000000 
#    z 0.000000 0.000000 1.800940 
# 
# From -- ./inp_files/5982.got.cif
#   From: 2010.05.17/outbox.ucp.g08.bks.cvg/sg54_3_cif.got.tgz:5982.got - 2010.06.11 16:34:40.
