data_PCOD9424339
_publ_section_title
;
Structure prediction by ZEFSAII (Michael W. Deem and Ramdas Pophale) SiO2 
 PCOD9424339
Probable space group: P C C A
;
_chemical_formula_sum "Si O2"
_cell_formula_units_Z 36
_cell_length_a 10.848656
_cell_length_b 5.317302
_cell_length_c 23.416275
_cell_angle_alpha 90.000000
_cell_angle_beta 90.000000
_cell_angle_gamma 90.000000
_cell_volume 1350.781411
_symmetry_space_group_name_H-M "P C C A"
_symmetry_group_IT_number 54
_symmetry_cell_setting 'orthorhombic'
loop_
_space_group_symop_operation_xyz
x,y,z
1/2-x,-y,z
1/2+x,-y,1/2-z
-x,y,1/2-z
-x,-y,-z
1/2+x,y,-z
1/2-x,y,1/2+z
x,-y,1/2+z
loop_
_atom_site_type_symbol
_atom_site_label
_atom_site_fract_x
_atom_site_fract_y
_atom_site_fract_z
Si Si1 0.750000 0.000000 0.726000
Si Si2 0.875787 0.367829 0.803355
Si Si3 0.386285 0.107128 0.084369
Si Si4 0.325038 0.735623 0.471503
Si Si5 0.432420 0.710793 0.353399
O O1 0.857523 0.114646 0.766720
O O2 0.680225 0.182625 0.682783
O O3 0.750000 0.500000 0.784809
O O4 0.864104 0.325296 0.870950
O O5 0.000468 0.525927 0.808724
O O6 0.250000 0.000000 0.075157
O O7 0.475065 0.922455 0.120296
O O8 0.422927 0.196241 0.021342
O O9 0.250000 0.500000 0.497043
O O10 0.379273 0.615106 0.413509
O O11 0.250000 0.000000 0.457656
#
# Coordination Sequence:
#
# PCOD9424339 Si02
#       5
#     4   8   8   8   8
#     4  12  30  54  76 126 166 222 306 356 440 512
#     4  12  26  50  78 113 159 220 279 355 427 519
#     4  11  24  49  80 121 162 212 283 344 437 526
#     4  11  27  51  83 126 173 217 280 359 437 534
#     4  12  28  51  84 115 171 226 278 363 435 514
#
# _framework density 26.651237999999999
#
# number of rings (size 3 to 8) (size 9 to 14) (size 15 to 20)
#    0.000    0.444    4.444    1.333    6.222    8.889 
#    0.000    0.000    0.000    0.000    0.000    0.000 
#    0.000    0.000    0.000    0.000    0.000    0.000 
#
# Total GULP energy -201043.929502 kJ/mol
# GULP energy per Si atom -5584.553597 kJ/mol
# Density = 2.659058 g / cm^3
# Si number density = 26.651238 Si / 1000 Ang^3
#
#
#
# Elastic Constant Matrix: (Units=GPa)
#
#
# Indices 1 2 3 4 5 6 
#
# 1 95.8881 27.2837 37.7272 0.0000 0.0000 0.0000
# 2 27.2837 71.0687 26.6699 0.0000 0.0000 0.0000
# 3 37.7272 26.6699 221.4194 0.0000 0.0000 0.0000
# 4 0.0000 0.0000 0.0000 13.9356 0.0000 0.0000
# 5 0.0000 0.0000 0.0000 0.0000 322.6749 0.0000
# 6 0.0000 0.0000 0.0000 0.0000 0.0000 71.9583
#
#
#
# Elastic Compliance Matrix: (Units=1/GPa)
#
#
# Indices 1 2 3 4 5 6 
#
# 1 0.012219 -0.004095 -0.001589 0.000000 0.000000 0.000000
# 2 -0.004095 0.016109 -0.001243 0.000000 0.000000 0.000000
# 3 -0.001589 -0.001243 0.004937 0.000000 0.000000 0.000000
# 4 0.000000 0.000000 0.000000 0.071759 0.000000 0.000000
# 5 0.000000 0.000000 0.000000 0.000000 0.003099 0.000000
# 6 0.000000 0.000000 0.000000 0.000000 0.000000 0.013897
#
#
# Mechanical properties :
#
#
# Convention : Reuss Voigt Hill
#
# Bulk Modulus (GPa) = 51.51290 63.52643 57.51967
# Shear Modulus (GPa) = 35.12648 101.49348 68.30998
#
# Velocity S-wave (km/s) = 3.63437 6.17776 5.06821
# Velocity P-wave (km/s) = 6.08129 8.64721 7.47517
#
# Compressibility (1/GPa) = 0.01941261
#
# Stress axis : x y z
#
# Youngs Moduli (GPa) = 81.83960 62.07631 202.56453
#
# Poissons Ratio (x) = 0.25419 0.32183
# Poissons Ratio (y) = 0.33511 0.25172
# Poissons Ratio (z) = 0.13002 0.07714
#
# Static dielectric constant tensor:
#      x y z
#    x 2.685890 0.000000 0.000000 
#    y 0.000000 2.176290 0.000000 
#    z 0.000000 0.000000 2.077660 
# 
# From -- ./inp_files/23828.got.cif
#   From: 2010.05.17/outbox.cif.g08.bks.cpg/sg54_12_cif.got.tgz:23828.got - 2010.06.03 13:09:01.
