data_PCOD9424801
_publ_section_title
;
Structure prediction by ZEFSAII (Michael W. Deem and Ramdas Pophale) SiO2 
 PCOD9424801
Probable space group: P B A M
;
_chemical_formula_sum "Si O2"
_cell_formula_units_Z 64
_cell_length_a 14.829870
_cell_length_b 31.701331
_cell_length_c 7.836708
_cell_angle_alpha 90.000000
_cell_angle_beta 90.000000
_cell_angle_gamma 90.000000
_cell_volume 3684.245025
_symmetry_space_group_name_H-M "P B A M"
_symmetry_group_IT_number 55
_symmetry_cell_setting 'orthorhombic'
loop_
_space_group_symop_operation_xyz
x,y,z
-x,-y,z
1/2+x,1/2-y,-z
1/2-x,1/2+y,-z
-x,-y,-z
x,y,-z
1/2-x,1/2+y,z
1/2+x,1/2-y,z
loop_
_atom_site_type_symbol
_atom_site_label
_atom_site_fract_x
_atom_site_fract_y
_atom_site_fract_z
Si Si1 0.098048 0.048015 0.297081
Si Si2 0.674465 0.366427 0.807069
Si Si3 0.196839 0.869866 0.707859
Si Si4 0.974332 0.272130 0.294783
Si Si5 0.664924 0.198653 0.296171
Si Si6 0.891329 0.046330 0.291017
Si Si7 0.230708 0.715832 0.799945
Si Si8 0.991760 0.173404 0.704082
O O1 0.089781 0.044297 0.500000
O O2 0.165156 0.086462 0.263694
O O3 0.994826 0.056544 0.237247
O O4 0.126890 0.001631 0.234448
O O5 0.731170 0.328167 0.724168
O O6 0.572656 0.349098 0.798754
O O7 0.706958 0.370898 0.000000
O O8 0.203110 0.870643 0.500000
O O9 0.279561 0.841507 0.771589
O O10 0.178071 0.917630 0.766264
O O11 0.105334 0.844801 0.749782
O O12 0.967895 0.277143 0.500000
O O13 0.876649 0.282878 0.222167
O O14 0.993129 0.222914 0.262032
O O15 0.063027 0.296329 0.229978
O O16 0.657256 0.193557 0.500000
O O17 0.721843 0.241948 0.271340
O O18 0.890149 0.047396 0.500000
O O19 0.253654 0.716085 0.000000
O O20 0.004784 0.166314 0.500000
#
# Coordination Sequence:
#
# PCOD9424801 Si02
#       8
#     8   8   8   8   8   8   8   8
#     4   9  16  28  47  68  90 123 160 191 227 282
#     4  11  22  32  43  66  97 129 161 195 234 274
#     4   9  15  26  46  71  94 119 150 187 232 278
#     4  10  20  33  49  69  93 123 162 203 233 269
#     4  10  19  32  51  73  94 121 160 199 236 279
#     4   8  14  25  45  71  95 118 151 190 232 284
#     4  11  23  34  46  66  96 131 162 194 236 282
#     4  10  17  28  49  69  91 125 159 192 230 274
#
# _framework density 17.371265999999999
#
# number of rings (size 3 to 8) (size 9 to 14) (size 15 to 20)
#    0.000    2.250    3.750    1.500    0.000    2.500 
#    0.000    1.250    0.000    0.000    0.000    0.875 
#    0.000    7.000    0.000    0.000    0.000    0.000 
#
# Total GULP energy -356678.214122 kJ/mol
# GULP energy per Si atom -5573.097096 kJ/mol
# Density = 1.733173 g / cm^3
# Si number density = 17.371266 Si / 1000 Ang^3
#
#
#
# Elastic Constant Matrix: (Units=GPa)
#
#
# Indices 1 2 3 4 5 6 
#
# 1 54.0304 16.5876 -5.0355 0.0000 0.0000 0.0000
# 2 16.5876 91.8035 7.5549 0.0000 0.0000 0.0000
# 3 -5.0355 7.5549 9.0099 0.0000 0.0000 0.0000
# 4 0.0000 0.0000 0.0000 -7.6434 0.0000 0.0000
# 5 0.0000 0.0000 0.0000 0.0000 31.9037 0.0000
# 6 0.0000 0.0000 0.0000 0.0000 0.0000 26.4084
#
#
#
# Elastic Compliance Matrix: (Units=1/GPa)
#
#
# Indices 1 2 3 4 5 6 
#
# 1 0.021669 -0.005276 0.016534 0.000000 0.000000 0.000000
# 2 -0.005276 0.012985 -0.013837 0.000000 0.000000 0.000000
# 3 0.016534 -0.013837 0.131832 0.000000 0.000000 0.000000
# 4 0.000000 0.000000 0.000000 -0.130833 0.000000 0.000000
# 5 0.000000 0.000000 0.000000 0.000000 0.031344 0.000000
# 6 0.000000 0.000000 0.000000 0.000000 0.000000 0.037867
#
#
# Mechanical properties :
#
#
# Convention : Reuss Voigt Hill
#
# Bulk Modulus (GPa) = 6.19852 21.45088 13.82470
# Shear Modulus (GPa) = 30.52571 19.18287 24.85429
#
# Velocity S-wave (km/s) = 4.19651 3.32669 3.78666
# Velocity P-wave (km/s) = 5.20163 5.20875 5.20519
#
# Compressibility (1/GPa) = 0.16132872
#
# Stress axis : x y z
#
# Youngs Moduli (GPa) = 46.14934 77.01318 7.58543
#
# Poissons Ratio (x) = 0.40632 -0.12542
# Poissons Ratio (y) = 0.24348 0.10496
# Poissons Ratio (z) = -0.76304 1.06560
#
# Static dielectric constant tensor:
#      x y z
#    x 1.579940 0.000000 0.000000 
#    y 0.000000 1.628150 0.000000 
#    z 0.000000 0.000000 1.638790 
# 
# From -- ./inp_files/6948.got.cif
#   From: 2010.05.17/outbox.cif.g08.bks.cpg/sg55_4_cif.got.tgz:6948.got - 2010.06.03 13:27:54.
