data_PCOD9424198
_publ_section_title
;
Structure prediction by ZEFSAII (Michael W. Deem and Ramdas Pophale) SiO2 
 PCOD9424198
Probable space group: P C C A
;
_chemical_formula_sum "Si O2"
_cell_formula_units_Z 40
_cell_length_a 9.557680
_cell_length_b 20.641646
_cell_length_c 9.680216
_cell_angle_alpha 90.000000
_cell_angle_beta 90.000000
_cell_angle_gamma 90.000000
_cell_volume 1909.773486
_symmetry_space_group_name_H-M "P C C A"
_symmetry_group_IT_number 54
_symmetry_cell_setting 'orthorhombic'
loop_
_space_group_symop_operation_xyz
x,y,z
1/2-x,-y,z
1/2+x,-y,1/2-z
-x,y,1/2-z
-x,-y,-z
1/2+x,y,-z
1/2-x,y,1/2+z
x,-y,1/2+z
loop_
_atom_site_type_symbol
_atom_site_label
_atom_site_fract_x
_atom_site_fract_y
_atom_site_fract_z
Si Si1 0.707867 0.427261 0.177102
Si Si2 0.470772 0.236622 0.088905
Si Si3 0.570440 0.618322 0.954789
Si Si4 0.664836 0.935420 0.247778
Si Si5 0.774011 0.849798 0.003168
O O1 0.750000 0.500000 0.217746
O O2 0.567547 0.423901 0.081714
O O3 0.666844 0.388195 0.316138
O O4 0.836461 0.401260 0.085597
O O5 0.500000 0.244426 0.250000
O O6 0.480797 0.308029 0.025998
O O7 0.320211 0.206613 0.060637
O O8 0.578767 0.183385 0.034220
O O9 0.500000 0.948550 0.250000
O O10 0.709940 0.908057 0.395888
O O11 0.750000 0.000000 0.213744
O O12 0.703359 0.879429 0.139057
#
# Coordination Sequence:
#
# PCOD9424198 Si02
#       5
#     8   8   8   8   8
#     4  11  23  43  68  99 141 181 232 282 344 410
#     4  12  24  45  71  98 140 175 231 287 336 410
#     4  11  25  44  67 103 136 184 230 286 346 400
#     4  12  28  46  70 104 137 179 227 275 341 404
#     4  12  26  45  72 101 136 182 224 282 341 404
#
# _framework density 20.944894000000001
#
# number of rings (size 3 to 8) (size 9 to 14) (size 15 to 20)
#    0.000    0.400    6.000    3.000    2.800    4.000 
#    0.000    0.000    0.000    0.000    0.000    0.000 
#    0.000    0.000    0.000    0.000    0.000    0.000 
#
# Total GULP energy -223774.964243 kJ/mol
# GULP energy per Si atom -5594.374106 kJ/mol
# Density = 2.089722 g / cm^3
# Si number density = 20.944894 Si / 1000 Ang^3
#
#
#
# Elastic Constant Matrix: (Units=GPa)
#
#
# Indices 1 2 3 4 5 6 
#
# 1 39.8169 -3.9315 -4.2996 0.0000 0.0000 0.0000
# 2 -3.9315 75.1253 4.3274 0.0000 0.0000 0.0000
# 3 -4.2996 4.3274 45.8935 0.0000 0.0000 0.0000
# 4 0.0000 0.0000 0.0000 -67.3536 0.0000 0.0000
# 5 0.0000 0.0000 0.0000 0.0000 24.9364 0.0000
# 6 0.0000 0.0000 0.0000 0.0000 0.0000 148.3836
#
#
#
# Elastic Compliance Matrix: (Units=1/GPa)
#
#
# Indices 1 2 3 4 5 6 
#
# 1 0.025479 0.001202 0.002274 0.000000 0.000000 0.000000
# 2 0.001202 0.013441 -0.001155 0.000000 0.000000 0.000000
# 3 0.002274 -0.001155 0.022111 0.000000 0.000000 0.000000
# 4 0.000000 0.000000 0.000000 -0.014847 0.000000 0.000000
# 5 0.000000 0.000000 0.000000 0.000000 0.040102 0.000000
# 6 0.000000 0.000000 0.000000 0.000000 0.000000 0.006739
#
#
# Mechanical properties :
#
#
# Convention : Reuss Voigt Hill
#
# Bulk Modulus (GPa) = 15.22671 17.00315 16.11493
# Shear Modulus (GPa) = 45.34158 32.17590 38.75874
#
# Velocity S-wave (km/s) = 4.65779 3.92371 4.30642
# Velocity P-wave (km/s) = 6.01767 5.35379 5.69541
#
# Compressibility (1/GPa) = 0.06567405
#
# Stress axis : x y z
#
# Youngs Moduli (GPa) = 39.24765 74.40183 45.22537
#
# Poissons Ratio (x) = -0.08946 -0.10283
# Poissons Ratio (y) = -0.04719 0.05222
# Poissons Ratio (z) = -0.08924 0.08591
#
# Static dielectric constant tensor:
#      x y z
#    x 1.705220 0.000000 0.000000 
#    y 0.000000 1.745500 0.000000 
#    z 0.000000 0.000000 1.707690 
# 
# From -- ./inp_files/2522.got.cif
#   From: 2010.05.17/outbox.cif.g08.bks.cpg/sg54_2_cif.got.tgz:2522.got - 2010.06.03 13:09:01.
