data_PCOD9424365
_publ_section_title
;
Structure prediction by ZEFSAII (Michael W. Deem and Ramdas Pophale) SiO2 
 PCOD9424365
Probable space group: P C C A
;
_chemical_formula_sum "Si O2"
_cell_formula_units_Z 28
_cell_length_a 9.130834
_cell_length_b 7.877150
_cell_length_c 18.520103
_cell_angle_alpha 90.000000
_cell_angle_beta 90.000000
_cell_angle_gamma 90.000000
_cell_volume 1332.057465
_symmetry_space_group_name_H-M "P C C A"
_symmetry_group_IT_number 54
_symmetry_cell_setting 'orthorhombic'
loop_
_space_group_symop_operation_xyz
x,y,z
1/2-x,-y,z
1/2+x,-y,1/2-z
-x,y,1/2-z
-x,-y,-z
1/2+x,y,-z
1/2-x,y,1/2+z
x,-y,1/2+z
loop_
_atom_site_type_symbol
_atom_site_label
_atom_site_fract_x
_atom_site_fract_y
_atom_site_fract_z
Si Si1 0.815906 0.315756 0.937829
Si Si2 0.750000 0.000000 0.675209
Si Si3 0.407225 0.860923 0.959038
Si Si4 0.823447 0.315269 0.768527
O O1 0.750000 0.500000 0.948821
O O2 0.798633 0.273991 0.853103
O O3 0.988544 0.301632 0.951074
O O4 0.731312 0.194280 0.993695
O O5 0.874344 0.056856 0.618536
O O6 0.740312 0.167604 0.724080
O O7 0.500000 0.000000 0.000000
O O8 0.750000 0.500000 0.753917
O O9 0.000000 0.317106 0.750000
#
# Coordination Sequence:
#
# PCOD9424365 Si02
#       4
#     8   4   8   8
#     4  11  25  46  71 100 140 184 234 292 347 420
#     4  12  26  42  74 100 146 178 230 296 346 418
#     4  12  24  45  69 104 134 182 237 284 352 412
#     4  11  27  48  71 106 141 187 236 285 356 424
#
# _framework density 21.020112999999998
#
# number of rings (size 3 to 8) (size 9 to 14) (size 15 to 20)
#    0.000    0.571    5.714    0.857    4.000    6.857 
#    0.000    0.000    0.000    0.000    0.000    0.000 
#    0.000    0.000    0.000    0.000    0.000    0.000 
#
# Total GULP energy -156211.220997 kJ/mol
# GULP energy per Si atom -5578.972178 kJ/mol
# Density = 2.097227 g / cm^3
# Si number density = 21.020113 Si / 1000 Ang^3
#
#
#
# Elastic Constant Matrix: (Units=GPa)
#
#
# Indices 1 2 3 4 5 6 
#
# 1 113.2238 53.3723 40.0007 0.0000 0.0000 0.0000
# 2 53.3723 114.2727 71.9618 0.0000 0.0000 0.0000
# 3 40.0007 71.9618 123.5593 0.0000 0.0000 0.0000
# 4 0.0000 0.0000 0.0000 30.7908 0.0000 0.0000
# 5 0.0000 0.0000 0.0000 0.0000 -12.7677 0.0000
# 6 0.0000 0.0000 0.0000 0.0000 0.0000 42.3850
#
#
#
# Elastic Compliance Matrix: (Units=1/GPa)
#
#
# Indices 1 2 3 4 5 6 
#
# 1 0.011393 -0.004735 -0.000930 0.000000 0.000000 0.000000
# 2 -0.004735 0.015788 -0.007662 0.000000 0.000000 0.000000
# 3 -0.000930 -0.007662 0.012857 0.000000 0.000000 0.000000
# 4 0.000000 0.000000 0.000000 0.032477 0.000000 0.000000
# 5 0.000000 0.000000 0.000000 0.000000 -0.078322 0.000000
# 6 0.000000 0.000000 0.000000 0.000000 0.000000 0.023593
#
#
# Mechanical properties :
#
#
# Convention : Reuss Voigt Hill
#
# Bulk Modulus (GPa) = 74.72590 75.74726 75.23658
# Shear Modulus (GPa) = 102.24689 24.46300 63.35494
#
# Velocity S-wave (km/s) = 6.98198 3.41514 5.49596
# Velocity P-wave (km/s) = 10.03116 7.18782 8.72608
#
# Compressibility (1/GPa) = 0.01338224
#
# Stress axis : x y z
#
# Youngs Moduli (GPa) = 87.77384 63.34087 77.77972
#
# Poissons Ratio (x) = 0.29993 0.07237
# Poissons Ratio (y) = 0.41563 0.59594
# Poissons Ratio (z) = 0.08167 0.48531
#
# Static dielectric constant tensor:
#      x y z
#    x 1.793720 0.000000 0.000000 
#    y 0.000000 1.754030 0.000000 
#    z 0.000000 0.000000 1.772260 
# 
# From -- ./inp_files/16142.got.cif
#   From: 2010.05.17/outbox.cif.g08.bks.cpg/sg54_9_cif.got.tgz:16142.got - 2010.06.03 13:09:01.
