data_PCOD9424509
_publ_section_title
;
Structure prediction by ZEFSAII (Michael W. Deem and Ramdas Pophale) SiO2 
 PCOD9424509
Probable space group: P C C A
;
_chemical_formula_sum "Si O2"
_cell_formula_units_Z 24
_cell_length_a 4.835753
_cell_length_b 17.122160
_cell_length_c 12.850222
_cell_angle_alpha 90.000000
_cell_angle_beta 90.000000
_cell_angle_gamma 90.000000
_cell_volume 1063.979576
_symmetry_space_group_name_H-M "P C C A"
_symmetry_group_IT_number 54
_symmetry_cell_setting 'orthorhombic'
loop_
_space_group_symop_operation_xyz
x,y,z
1/2-x,-y,z
1/2+x,-y,1/2-z
-x,y,1/2-z
-x,-y,-z
1/2+x,y,-z
1/2-x,y,1/2+z
x,-y,1/2+z
loop_
_atom_site_type_symbol
_atom_site_label
_atom_site_fract_x
_atom_site_fract_y
_atom_site_fract_z
Si Si1 0.750000 0.500000 0.180948
Si Si2 0.420496 0.652701 0.931843
Si Si3 0.750000 0.000000 0.418193
Si Si4 0.000000 0.768610 0.250000
Si Si5 0.000000 0.120183 0.250000
O O1 0.500000 0.536157 0.250000
O O2 0.591149 0.434774 0.113869
O O3 0.540722 0.711092 0.846669
O O4 0.605719 0.664389 0.033550
O O5 0.852562 0.067562 0.338317
O O6 0.500000 0.000000 0.500000
O O7 0.253075 0.823330 0.284600
#
# Coordination Sequence:
#
# PCOD9424509 Si02
#       5
#     4   8   4   4   4
#     4  12  24  44  74  98 144 198 254 316 374 432
#     4  12  26  45  70 104 142 197 252 305 373 440
#     4  12  26  48  80 110 146 196 246 298 368 450
#     4  12  27  46  71 106 154 190 240 312 373 442
#     4  12  27  48  75 112 150 190 244 306 365 452
#
# _framework density 22.556823000000001
#
# number of rings (size 3 to 8) (size 9 to 14) (size 15 to 20)
#    0.000    0.000    1.667    9.000    2.333    8.000 
#    0.000    0.000    0.000    0.000    0.000    0.000 
#    0.000    0.000    0.000    0.000    0.000    0.000 
#
# Total GULP energy -133953.442570 kJ/mol
# GULP energy per Si atom -5581.393440 kJ/mol
# Density = 2.250548 g / cm^3
# Si number density = 22.556823 Si / 1000 Ang^3
#
#
#
# Elastic Constant Matrix: (Units=GPa)
#
#
# Indices 1 2 3 4 5 6 
#
# 1 137.8397 26.7179 22.0172 0.0000 0.0000 0.0000
# 2 26.7179 107.9129 50.9057 0.0000 0.0000 0.0000
# 3 22.0172 50.9057 101.1006 0.0000 0.0000 0.0000
# 4 0.0000 0.0000 0.0000 -13.8488 0.0000 0.0000
# 5 0.0000 0.0000 0.0000 0.0000 49.9859 0.0000
# 6 0.0000 0.0000 0.0000 0.0000 0.0000 75.6426
#
#
#
# Elastic Compliance Matrix: (Units=1/GPa)
#
#
# Indices 1 2 3 4 5 6 
#
# 1 0.007688 -0.001461 -0.000939 0.000000 0.000000 0.000000
# 2 -0.001461 0.012431 -0.005941 0.000000 0.000000 0.000000
# 3 -0.000939 -0.005941 0.013087 0.000000 0.000000 0.000000
# 4 0.000000 0.000000 0.000000 -0.072208 0.000000 0.000000
# 5 0.000000 0.000000 0.000000 0.000000 0.020006 0.000000
# 6 0.000000 0.000000 0.000000 0.000000 0.000000 0.013220
#
#
# Mechanical properties :
#
#
# Convention : Reuss Voigt Hill
#
# Bulk Modulus (GPa) = 60.51475 60.68164 60.59820
# Shear Modulus (GPa) = 304.64897 38.83678 171.74287
#
# Velocity S-wave (km/s) = 11.63407 4.15388 8.73517
# Velocity P-wave (km/s) = 14.39982 7.06869 11.34286
#
# Compressibility (1/GPa) = 0.01652490
#
# Stress axis : x y z
#
# Youngs Moduli (GPa) = 130.07517 80.44445 76.41155
#
# Poissons Ratio (x) = 0.11749 0.07174
# Poissons Ratio (y) = 0.18998 0.45397
# Poissons Ratio (z) = 0.12212 0.47793
#
# Static dielectric constant tensor:
#      x y z
#    x 1.797920 0.000000 0.000000 
#    y 0.000000 1.833210 0.000000 
#    z 0.000000 0.000000 1.801330 
# 
# From -- ./inp_files/6209.got.cif
#   From: 2010.05.17/outbox.cif.g08.bks.cpg/sg54_4_cif.got.tgz:6209.got - 2010.06.03 13:09:01.
