data_PCOD9424143
_publ_section_title
;
Structure prediction by ZEFSAII (Michael W. Deem and Ramdas Pophale) SiO2 
 PCOD9424143
Probable space group: P C C A
;
_chemical_formula_sum "Si O2"
_cell_formula_units_Z 32
_cell_length_a 11.784529
_cell_length_b 9.305116
_cell_length_c 14.451962
_cell_angle_alpha 90.000000
_cell_angle_beta 90.000000
_cell_angle_gamma 90.000000
_cell_volume 1584.750261
_symmetry_space_group_name_H-M "P C C A"
_symmetry_group_IT_number 54
_symmetry_cell_setting 'orthorhombic'
loop_
_space_group_symop_operation_xyz
x,y,z
1/2-x,-y,z
1/2+x,-y,1/2-z
-x,y,1/2-z
-x,-y,-z
1/2+x,y,-z
1/2-x,y,1/2+z
x,-y,1/2+z
loop_
_atom_site_type_symbol
_atom_site_label
_atom_site_fract_x
_atom_site_fract_y
_atom_site_fract_z
Si Si1 0.041347 0.337620 0.654619
Si Si2 0.758785 0.169132 0.928171
Si Si3 0.872234 0.645421 0.777857
Si Si4 0.711373 0.645134 0.594947
O O1 0.117511 0.232260 0.595589
O O2 0.109855 0.482414 0.683138
O O3 0.000000 0.264987 0.750000
O O4 0.922196 0.377040 0.609227
O O5 0.676640 0.252896 0.857192
O O6 0.750000 0.000000 0.915564
O O7 0.730451 0.217349 0.031977
O O8 0.787687 0.651608 0.688776
O O9 0.000000 0.689439 0.750000
O O10 0.750000 0.500000 0.543237
#
# Coordination Sequence:
#
# PCOD9424143 Si02
#       4
#     8   8   8   8
#     4  11  22  46  75  99 131 177 235 294 341 395
#     4  12  29  44  62 102 147 186 223 272 350 427
#     4  11  23  45  74 101 128 176 234 294 343 396
#     4  12  23  43  75 102 132 173 235 292 344 402
#
# _framework density 20.192457000000001
#
# number of rings (size 3 to 8) (size 9 to 14) (size 15 to 20)
#    0.000    0.500    7.500    2.250    3.500    5.000 
#    0.000    0.000    0.000    0.000    0.000    0.000 
#    0.000    0.000    0.000    0.000    0.000    0.000 
#
# Total GULP energy -178787.776801 kJ/mol
# GULP energy per Si atom -5587.118025 kJ/mol
# Density = 2.014650 g / cm^3
# Si number density = 20.192457 Si / 1000 Ang^3
#
#
#
# Elastic Constant Matrix: (Units=GPa)
#
#
# Indices 1 2 3 4 5 6 
#
# 1 155.9217 68.5445 48.3279 0.0000 0.0000 0.0000
# 2 68.5445 126.5347 61.4714 0.0000 0.0000 0.0000
# 3 48.3279 61.4714 92.1380 0.0000 0.0000 0.0000
# 4 0.0000 0.0000 0.0000 9.1154 0.0000 0.0000
# 5 0.0000 0.0000 0.0000 0.0000 20.2492 0.0000
# 6 0.0000 0.0000 0.0000 0.0000 0.0000 4.3346
#
#
#
# Elastic Compliance Matrix: (Units=1/GPa)
#
#
# Indices 1 2 3 4 5 6 
#
# 1 0.008683 -0.003686 -0.002095 0.000000 0.000000 0.000000
# 2 -0.003686 0.013257 -0.006912 0.000000 0.000000 0.000000
# 3 -0.002095 -0.006912 0.016564 0.000000 0.000000 0.000000
# 4 0.000000 0.000000 0.000000 0.109704 0.000000 0.000000
# 5 0.000000 0.000000 0.000000 0.000000 0.049385 0.000000
# 6 0.000000 0.000000 0.000000 0.000000 0.000000 0.230702
#
#
# Mechanical properties :
#
#
# Convention : Reuss Voigt Hill
#
# Bulk Modulus (GPa) = 76.22849 81.25356 78.74103
# Shear Modulus (GPa) = 10.91576 19.82322 15.36949
#
# Velocity S-wave (km/s) = 2.32757 3.13663 2.76189
# Velocity P-wave (km/s) = 6.71241 7.31060 7.01788
#
# Compressibility (1/GPa) = 0.01311845
#
# Stress axis : x y z
#
# Youngs Moduli (GPa) = 115.16396 75.43040 60.37347
#
# Poissons Ratio (x) = 0.27802 0.12651
# Poissons Ratio (y) = 0.42447 0.41727
# Poissons Ratio (z) = 0.24133 0.52134
#
# Static dielectric constant tensor:
#      x y z
#    x 1.774800 0.000000 0.000000 
#    y 0.000000 1.683680 0.000000 
#    z 0.000000 0.000000 1.775940 
# 
# From -- ./inp_files/12163.got.cif
#   From: 2010.05.17/outbox.cif.g08.bks.cpg/sg54_7_cif.got.tgz:12163.got - 2010.06.03 13:09:01.
