data_PCOD9424995
_publ_section_title
;
Structure prediction by ZEFSAII (Michael W. Deem and Ramdas Pophale) SiO2 
 PCOD9424995
Probable space group: P B A M
;
_chemical_formula_sum "Si O2"
_cell_formula_units_Z 48
_cell_length_a 8.325698
_cell_length_b 30.348089
_cell_length_c 10.561395
_cell_angle_alpha 90.000000
_cell_angle_beta 90.000000
_cell_angle_gamma 90.000000
_cell_volume 2668.537366
_symmetry_space_group_name_H-M "P B A M"
_symmetry_group_IT_number 55
_symmetry_cell_setting 'orthorhombic'
loop_
_space_group_symop_operation_xyz
x,y,z
-x,-y,z
1/2+x,1/2-y,-z
1/2-x,1/2+y,-z
-x,-y,-z
x,y,-z
1/2-x,1/2+y,z
1/2+x,1/2-y,z
loop_
_atom_site_type_symbol
_atom_site_label
_atom_site_fract_x
_atom_site_fract_y
_atom_site_fract_z
Si Si1 0.467889 0.450287 0.846334
Si Si2 0.231992 0.305575 0.144947
Si Si3 0.359863 0.904740 0.152300
Si Si4 0.485315 0.742978 0.721704
Si Si5 0.793566 0.317884 0.636660
Si Si6 0.215207 0.607467 0.847234
O O1 0.500000 0.500000 0.802215
O O2 0.296042 0.431371 0.799769
O O3 0.623403 0.420043 0.818835
O O4 0.458609 0.451432 0.000000
O O5 0.165362 0.353194 0.184506
O O6 0.101078 0.267064 0.160248
O O7 0.377002 0.289498 0.231102
O O8 0.284592 0.309622 0.000000
O O9 0.544778 0.916719 0.183421
O O10 0.352594 0.907940 0.000000
O O11 0.358564 0.714365 0.646219
O O12 0.558240 0.784241 0.647344
O O13 0.796641 0.340976 0.500000
O O14 0.785397 0.349771 0.757659
O O15 0.214058 0.617393 0.000000
#
# Coordination Sequence:
#
# PCOD9424995 Si02
#       6
#     8   8   8   8   8   8
#     4   9  18  32  53  82 112 139 170 216 276 335
#     4  10  18  30  48  76 108 140 177 224 270 313
#     4   9  17  30  48  75 111 139 172 218 268 319
#     4  10  21  32  49  72 103 145 186 223 264 316
#     4  11  22  37  53  74 107 145 184 225 269 317
#     4  10  20  35  56  80 108 140 178 225 274 323
#
# _framework density 17.987383000000001
#
# number of rings (size 3 to 8) (size 9 to 14) (size 15 to 20)
#    0.000    2.167    1.667    2.000    0.000    5.333 
#    0.000    3.333    0.000    0.500    0.000    1.167 
#    0.000    0.000    0.000    0.000    0.000    0.000 
#
# Total GULP energy -267261.604064 kJ/mol
# GULP energy per Si atom -5567.950085 kJ/mol
# Density = 1.794644 g / cm^3
# Si number density = 17.987383 Si / 1000 Ang^3
#
#
#
# Elastic Constant Matrix: (Units=GPa)
#
#
# Indices 1 2 3 4 5 6 
#
# 1 115.7165 42.8363 22.9482 0.0000 0.0000 0.0000
# 2 42.8363 62.0262 25.5022 0.0000 0.0000 0.0000
# 3 22.9482 25.5022 53.8891 0.0000 0.0000 0.0000
# 4 0.0000 0.0000 0.0000 3.6054 0.0000 0.0000
# 5 0.0000 0.0000 0.0000 0.0000 -7.5223 0.0000
# 6 0.0000 0.0000 0.0000 0.0000 0.0000 22.9326
#
#
#
# Elastic Compliance Matrix: (Units=1/GPa)
#
#
# Indices 1 2 3 4 5 6 
#
# 1 0.011699 -0.007488 -0.001438 0.000000 0.000000 0.000000
# 2 -0.007488 0.024810 -0.008552 0.000000 0.000000 0.000000
# 3 -0.001438 -0.008552 0.023216 0.000000 0.000000 0.000000
# 4 0.000000 0.000000 0.000000 0.277360 0.000000 0.000000
# 5 0.000000 0.000000 0.000000 0.000000 -0.132938 0.000000
# 6 0.000000 0.000000 0.000000 0.000000 0.000000 0.043606
#
#
# Mechanical properties :
#
#
# Convention : Reuss Voigt Hill
#
# Bulk Modulus (GPa) = 40.37460 46.02278 43.19869
# Shear Modulus (GPa) = 17.18411 13.15949 15.17180
#
# Velocity S-wave (km/s) = 3.09421 2.70774 2.90740
# Velocity P-wave (km/s) = 5.93804 5.95126 5.94465
#
# Compressibility (1/GPa) = 0.02476805
#
# Stress axis : x y z
#
# Youngs Moduli (GPa) = 85.47709 40.30650 43.07327
#
# Poissons Ratio (x) = 0.30182 0.06195
# Poissons Ratio (y) = 0.64007 0.36837
# Poissons Ratio (z) = 0.12294 0.34471
#
# Static dielectric constant tensor:
#      x y z
#    x 1.677050 0.000000 0.000000 
#    y 0.000000 1.602200 0.000000 
#    z 0.000000 0.000000 1.604220 
# 
# From -- ./inp_files/2869.got.cif
#   From: 2010.05.17/outbox.cif.g08.bks.cpg/sg55_2_cif.got.tgz:2869.got - 2010.06.03 13:27:54.
