data_PCOD9424882
_publ_section_title
;
Structure prediction by ZEFSAII (Michael W. Deem and Ramdas Pophale) SiO2 
 PCOD9424882
Probable space group: P B A M
;
_chemical_formula_sum "Si O2"
_cell_formula_units_Z 64
_cell_length_a 19.315335
_cell_length_b 21.710086
_cell_length_c 7.574998
_cell_angle_alpha 90.000000
_cell_angle_beta 90.000000
_cell_angle_gamma 90.000000
_cell_volume 3176.481360
_symmetry_space_group_name_H-M "P B A M"
_symmetry_group_IT_number 55
_symmetry_cell_setting 'orthorhombic'
loop_
_space_group_symop_operation_xyz
x,y,z
-x,-y,z
1/2+x,1/2-y,-z
1/2-x,1/2+y,-z
-x,-y,-z
x,y,-z
1/2-x,1/2+y,z
1/2+x,1/2-y,z
loop_
_atom_site_type_symbol
_atom_site_label
_atom_site_fract_x
_atom_site_fract_y
_atom_site_fract_z
Si Si1 0.731700 0.873867 0.784004
Si Si2 0.616351 0.334413 0.784604
Si Si3 0.221733 0.990424 0.787808
Si Si4 0.077856 0.522939 0.295954
Si Si5 0.570763 0.468516 0.784332
Si Si6 0.560736 0.204395 0.210254
Si Si7 0.912929 0.340070 0.199118
Si Si8 0.659605 0.092295 0.707152
O O1 0.803558 0.842178 0.732578
O O2 0.664094 0.836998 0.719308
O O3 0.738970 0.946124 0.729425
O O4 0.728385 0.874499 0.000000
O O5 0.577600 0.397039 0.731019
O O6 0.583635 0.270923 0.720914
O O7 0.615590 0.333384 0.000000
O O8 0.260818 0.927759 0.734049
O O9 0.142063 0.997862 0.728956
O O10 0.221510 0.992025 0.000000
O O11 0.099070 0.535274 0.500000
O O12 0.079965 0.586169 0.193178
O O13 0.120687 0.467063 0.214002
O O14 0.000000 0.500000 0.301702
O O15 0.500000 0.500000 0.724199
O O16 0.570566 0.469559 0.000000
O O17 0.485080 0.183621 0.281005
O O18 0.622222 0.154443 0.232764
O O19 0.551715 0.209303 0.000000
O O20 0.908284 0.314486 0.000000
O O21 0.645482 0.090976 0.500000
#
# Coordination Sequence:
#
# PCOD9424882 Si02
#       8
#     8   8   8   8   8   8   8   8
#     4   8  14  26  45  66  90 119 151 194 240 275
#     4   8  15  29  46  66  96 128 156 194 241 290
#     4   9  16  28  48  73  98 124 156 195 241 288
#     4  10  19  30  42  62  93 126 157 191 233 275
#     4   8  14  27  51  80 103 121 152 204 258 295
#     4  10  20  31  45  67  96 130 164 194 232 286
#     4  10  18  27  44  69  92 119 159 200 232 272
#     4  11  21  31  45  66  97 131 160 194 235 283
#
# _framework density 20.14808
#
# number of rings (size 3 to 8) (size 9 to 14) (size 15 to 20)
#    0.000    2.750    2.500    1.875    0.000    0.750 
#    0.000    1.250    0.000   10.125    0.000    1.750 
#    0.000    0.000    0.000    0.000    0.000    0.000 
#
# Total GULP energy -356484.338995 kJ/mol
# GULP energy per Si atom -5570.067797 kJ/mol
# Density = 2.010222 g / cm^3
# Si number density = 20.148080 Si / 1000 Ang^3
#
#
#
# Elastic Constant Matrix: (Units=GPa)
#
#
# Indices 1 2 3 4 5 6 
#
# 1 176.3913 100.4110 5.1192 0.0000 0.0000 0.0000
# 2 100.4110 119.3906 1.2668 0.0000 0.0000 0.0000
# 3 5.1192 1.2668 48.0783 0.0000 0.0000 0.0000
# 4 0.0000 0.0000 0.0000 -33.4911 0.0000 0.0000
# 5 0.0000 0.0000 0.0000 0.0000 -0.5084 0.0000
# 6 0.0000 0.0000 0.0000 0.0000 0.0000 25.4662
#
#
#
# Elastic Compliance Matrix: (Units=1/GPa)
#
#
# Indices 1 2 3 4 5 6 
#
# 1 0.010917 -0.009172 -0.000921 0.000000 0.000000 0.000000
# 2 -0.009172 0.016084 0.000553 0.000000 0.000000 0.000000
# 3 -0.000921 0.000553 0.020883 0.000000 0.000000 0.000000
# 4 0.000000 0.000000 0.000000 -0.029859 0.000000 0.000000
# 5 0.000000 0.000000 0.000000 0.000000 -1.967056 0.000000
# 6 0.000000 0.000000 0.000000 0.000000 0.000000 0.039268
#
#
# Mechanical properties :
#
#
# Convention : Reuss Voigt Hill
#
# Bulk Modulus (GPa) = 34.71715 61.93936 48.32826
# Shear Modulus (GPa) = -2.65804 14.09756 5.71976
#
# Velocity S-wave (km/s) = -1.14983 2.64805 1.68672
# Velocity P-wave (km/s) = 3.93771 6.33706 5.27560
#
# Compressibility (1/GPa) = 0.02880420
#
# Stress axis : x y z
#
# Youngs Moduli (GPa) = 91.60086 62.17489 47.88609
#
# Poissons Ratio (x) = 0.57025 0.04409
# Poissons Ratio (y) = 0.84013 -0.02647
# Poissons Ratio (z) = 0.08434 -0.03437
#
# Static dielectric constant tensor:
#      x y z
#    x 1.786100 0.000000 0.000000 
#    y 0.000000 1.690700 0.000000 
#    z 0.000000 0.000000 1.764250 
# 
# From -- ./inp_files/9126.got.cif
#   From: 2010.05.17/outbox.cif.g08.bks.cpg/sg55_5_cif.got.tgz:9126.got - 2010.06.03 13:27:54.
