data_PCOD9424360
_publ_section_title
;
Structure prediction by ZEFSAII (Michael W. Deem and Ramdas Pophale) SiO2 
 PCOD9424360
Probable space group: P C C A
;
_chemical_formula_sum "Si O2"
_cell_formula_units_Z 40
_cell_length_a 8.027313
_cell_length_b 9.426618
_cell_length_c 21.663117
_cell_angle_alpha 90.000000
_cell_angle_beta 90.000000
_cell_angle_gamma 90.000000
_cell_volume 1639.257015
_symmetry_space_group_name_H-M "P C C A"
_symmetry_group_IT_number 54
_symmetry_cell_setting 'orthorhombic'
loop_
_space_group_symop_operation_xyz
x,y,z
1/2-x,-y,z
1/2+x,-y,1/2-z
-x,y,1/2-z
-x,-y,-z
1/2+x,y,-z
1/2-x,y,1/2+z
x,-y,1/2+z
loop_
_atom_site_type_symbol
_atom_site_label
_atom_site_fract_x
_atom_site_fract_y
_atom_site_fract_z
Si Si1 0.702952 0.840100 0.258644
Si Si2 0.340289 0.862417 0.379552
Si Si3 0.165596 0.853450 0.554594
Si Si4 0.358075 0.357782 0.138221
Si Si5 0.161833 0.637950 0.449232
O O1 0.500000 0.818068 0.250000
O O2 0.746578 0.838295 0.186233
O O3 0.809397 0.726473 0.298059
O O4 0.750000 0.000000 0.279674
O O5 0.533984 0.889435 0.390953
O O6 0.309676 0.721616 0.416836
O O7 0.250000 0.000000 0.405177
O O8 0.295942 0.753150 0.587655
O O9 0.097491 0.754248 0.498956
O O10 0.250000 0.000000 0.534785
O O11 0.250000 0.500000 0.140450
O O12 0.536066 0.397556 0.107260
O O13 0.250000 0.500000 0.478654
#
# Coordination Sequence:
#
# PCOD9424360 Si02
#       5
#     8   8   8   8   8
#     4  11  26  48  78 111 148 195 253 315 372 445
#     4  11  25  45  74 108 148 194 252 316 379 448
#     4  12  25  48  79 112 150 201 258 317 378 450
#     4  12  27  48  76 108 154 205 253 310 381 450
#     4  12  28  47  72 108 155 202 250 312 380 455
#
# _framework density 24.401301
#
# number of rings (size 3 to 8) (size 9 to 14) (size 15 to 20)
#    0.000    0.400    2.000    5.400    5.600    5.600 
#    0.000    3.000    0.000    0.000    0.000    0.000 
#    0.000    0.000    0.000    0.000    0.000    0.000 
#
# Total GULP energy -223092.369588 kJ/mol
# GULP energy per Si atom -5577.309240 kJ/mol
# Density = 2.434576 g / cm^3
# Si number density = 24.401301 Si / 1000 Ang^3
#
#
#
# Elastic Constant Matrix: (Units=GPa)
#
#
# Indices 1 2 3 4 5 6 
#
# 1 90.4987 35.0387 30.9214 0.0000 0.0000 0.0000
# 2 35.0387 181.6705 64.9210 0.0000 0.0000 0.0000
# 3 30.9214 64.9210 149.3399 0.0000 0.0000 0.0000
# 4 0.0000 0.0000 0.0000 17.2890 0.0000 0.0000
# 5 0.0000 0.0000 0.0000 0.0000 10.8516 0.0000
# 6 0.0000 0.0000 0.0000 0.0000 0.0000 35.7546
#
#
#
# Elastic Compliance Matrix: (Units=1/GPa)
#
#
# Indices 1 2 3 4 5 6 
#
# 1 0.012337 -0.001736 -0.001800 0.000000 0.000000 0.000000
# 2 -0.001736 0.006761 -0.002580 0.000000 0.000000 0.000000
# 3 -0.001800 -0.002580 0.008190 0.000000 0.000000 0.000000
# 4 0.000000 0.000000 0.000000 0.057840 0.000000 0.000000
# 5 0.000000 0.000000 0.000000 0.000000 0.092152 0.000000
# 6 0.000000 0.000000 0.000000 0.000000 0.000000 0.027968
#
#
# Mechanical properties :
#
#
# Convention : Reuss Voigt Hill
#
# Bulk Modulus (GPa) = 66.41371 75.91902 71.16637
# Shear Modulus (GPa) = 22.47196 32.15426 27.31311
#
# Velocity S-wave (km/s) = 3.03798 3.63399 3.34927
# Velocity P-wave (km/s) = 6.29143 6.98485 6.64719
#
# Compressibility (1/GPa) = 0.01505713
#
# Stress axis : x y z
#
# Youngs Moduli (GPa) = 81.05683 147.90193 122.09702
#
# Poissons Ratio (x) = 0.25681 0.21973
# Poissons Ratio (y) = 0.14074 0.31498
# Poissons Ratio (z) = 0.14587 0.38155
#
# Static dielectric constant tensor:
#      x y z
#    x 1.926110 0.000000 0.000000 
#    y 0.000000 1.919970 0.000000 
#    z 0.000000 0.000000 2.051250 
# 
# From -- ./inp_files/23271.got.cif
#   From: 2010.05.17/outbox.cif.g08.bks.cpg/sg54_12_cif.got.tgz:23271.got - 2010.06.03 13:09:01.
