data_PCOD9424344
_publ_section_title
;
Structure prediction by ZEFSAII (Michael W. Deem and Ramdas Pophale) SiO2 
 PCOD9424344
Probable space group: P C C A
;
_chemical_formula_sum "Si O2"
_cell_formula_units_Z 36
_cell_length_a 25.375107
_cell_length_b 5.158138
_cell_length_c 11.306126
_cell_angle_alpha 90.000000
_cell_angle_beta 90.000000
_cell_angle_gamma 90.000000
_cell_volume 1479.839653
_symmetry_space_group_name_H-M "P C C A"
_symmetry_group_IT_number 54
_symmetry_cell_setting 'orthorhombic'
loop_
_space_group_symop_operation_xyz
x,y,z
1/2-x,-y,z
1/2+x,-y,1/2-z
-x,y,1/2-z
-x,-y,-z
1/2+x,y,-z
1/2-x,y,1/2+z
x,-y,1/2+z
loop_
_atom_site_type_symbol
_atom_site_label
_atom_site_fract_x
_atom_site_fract_y
_atom_site_fract_z
Si Si1 0.941262 0.473702 0.710012
Si Si2 0.205353 0.894877 0.297112
Si Si3 0.143708 0.616624 0.110913
Si Si4 0.897509 0.957191 0.588324
Si Si5 0.750000 0.500000 0.528443
O O1 0.936608 0.736834 0.635162
O O2 0.000000 0.411151 0.750000
O O3 0.919329 0.239983 0.625255
O O4 0.907551 0.516253 0.831546
O O5 0.242794 0.754239 0.391665
O O6 0.250000 0.000000 0.207624
O O7 0.157417 0.067148 0.340326
O O8 0.175392 0.672534 0.229446
O O9 0.120499 0.871888 0.043492
O O10 0.191807 0.504224 0.032889
#
# Coordination Sequence:
#
# PCOD9424344 Si02
#       5
#     8   8   8   8   4
#     4  11  27  50  74 105 143 186 249 309 354 419
#     4  11  25  41  64 102 144 184 233 291 346 436
#     4  11  25  41  73  98 142 194 231 299 365 427
#     4  11  25  46  71 106 139 183 243 290 358 434
#     4  12  24  44  64 104 142 196 238 294 356 462
#
# _framework density 24.326961000000001
#
# number of rings (size 3 to 8) (size 9 to 14) (size 15 to 20)
#    0.000    0.889    2.222    4.000    6.222    7.111 
#    0.000    0.000    0.000    0.000    0.000    0.000 
#    0.000    0.000    0.000    0.000    0.000    0.000 
#
# Total GULP energy -200489.372099 kJ/mol
# GULP energy per Si atom -5569.149225 kJ/mol
# Density = 2.427159 g / cm^3
# Si number density = 24.326961 Si / 1000 Ang^3
#
#
#
# Elastic Constant Matrix: (Units=GPa)
#
#
# Indices 1 2 3 4 5 6 
#
# 1 116.1551 -19.5843 7.4772 0.0000 0.0000 0.0000
# 2 -19.5843 76.8405 -1.7884 0.0000 0.0000 0.0000
# 3 7.4772 -1.7884 31.0073 0.0000 0.0000 0.0000
# 4 0.0000 0.0000 0.0000 78.7519 0.0000 0.0000
# 5 0.0000 0.0000 0.0000 0.0000 14.5208 0.0000
# 6 0.0000 0.0000 0.0000 0.0000 0.0000 28.3772
#
#
#
# Elastic Compliance Matrix: (Units=1/GPa)
#
#
# Indices 1 2 3 4 5 6 
#
# 1 0.009126 0.002278 -0.002069 0.000000 0.000000 0.000000
# 2 0.002278 0.013600 0.000235 0.000000 0.000000 0.000000
# 3 -0.002069 0.000235 0.032763 0.000000 0.000000 0.000000
# 4 0.000000 0.000000 0.000000 0.012698 0.000000 0.000000
# 5 0.000000 0.000000 0.000000 0.000000 0.068867 0.000000
# 6 0.000000 0.000000 0.000000 0.000000 0.000000 0.035240
#
#
# Mechanical properties :
#
#
# Convention : Reuss Voigt Hill
#
# Bulk Modulus (GPa) = 17.73783 21.80132 19.76957
# Shear Modulus (GPa) = 26.28831 40.18989 33.23910
#
# Velocity S-wave (km/s) = 3.29085 4.06898 3.70042
# Velocity P-wave (km/s) = 4.66335 5.57285 5.13827
#
# Compressibility (1/GPa) = 0.05637669
#
# Stress axis : x y z
#
# Youngs Moduli (GPa) = 109.57158 73.52937 30.52224
#
# Poissons Ratio (x) = -0.16749 0.06316
# Poissons Ratio (y) = -0.24959 -0.00718
# Poissons Ratio (z) = 0.22675 -0.01729
#
# Static dielectric constant tensor:
#      x y z
#    x -65.418270 0.000000 0.000000 
#    y 0.000000 2.082160 0.000000 
#    z 0.000000 0.000000 2.062950 
# 
# From -- ./inp_files/9738.got.cif
#   From: 2010.05.17/outbox.cif.g08.bks.cpg/sg54_5_cif.got.tgz:9738.got - 2010.06.03 13:09:01.
