data_PCOD9424293
_publ_section_title
;
Structure prediction by ZEFSAII (Michael W. Deem and Ramdas Pophale) SiO2 
 PCOD9424293
Probable space group: P C C A
;
_chemical_formula_sum "Si O2"
_cell_formula_units_Z 32
_cell_length_a 18.112337
_cell_length_b 5.471792
_cell_length_c 12.811564
_cell_angle_alpha 90.000000
_cell_angle_beta 90.000000
_cell_angle_gamma 90.000000
_cell_volume 1269.714914
_symmetry_space_group_name_H-M "P C C A"
_symmetry_group_IT_number 54
_symmetry_cell_setting 'orthorhombic'
loop_
_space_group_symop_operation_xyz
x,y,z
1/2-x,-y,z
1/2+x,-y,1/2-z
-x,y,1/2-z
-x,-y,-z
1/2+x,y,-z
1/2-x,y,1/2+z
x,-y,1/2+z
loop_
_atom_site_type_symbol
_atom_site_label
_atom_site_fract_x
_atom_site_fract_y
_atom_site_fract_z
Si Si1 0.938352 0.288929 0.986520
Si Si2 0.073380 0.989527 0.704691
Si Si3 0.324285 0.636284 0.097758
Si Si4 0.835026 0.944855 0.116421
O O1 0.882543 0.424155 0.909731
O O2 0.959386 0.070317 0.908058
O O3 0.884019 0.178387 0.075503
O O4 0.000000 0.500000 0.000000
O O5 0.144183 0.826945 0.679218
O O6 0.109972 0.161587 0.794398
O O7 0.000000 0.863306 0.750000
O O8 0.250000 0.500000 0.123946
O O9 0.323904 0.770776 0.984870
O O10 0.750000 0.000000 0.148258
#
# Coordination Sequence:
#
# PCOD9424293 Si02
#       4
#     8   8   8   8
#     4  11  24  45  74 102 148 193 243 296 375 443
#     4  11  26  44  72 108 146 191 251 305 370 444
#     4  11  24  45  71 103 146 191 237 305 374 441
#     4  11  24  44  71 105 147 193 242 309 370 435
#
# _framework density 25.202508999999999
#
# number of rings (size 3 to 8) (size 9 to 14) (size 15 to 20)
#    0.000    1.000    2.500    3.000    3.500    9.000 
#    0.000    0.000    0.000    0.000    0.000    0.000 
#    0.000    0.000    0.000    0.000    0.000    0.000 
#
# Total GULP energy -178355.951647 kJ/mol
# GULP energy per Si atom -5573.623489 kJ/mol
# Density = 2.514515 g / cm^3
# Si number density = 25.202509 Si / 1000 Ang^3
#
#
#
# Elastic Constant Matrix: (Units=GPa)
#
#
# Indices 1 2 3 4 5 6 
#
# 1 199.2487 26.6994 87.1247 0.0000 0.0000 0.0000
# 2 26.6994 39.0437 33.3305 0.0000 0.0000 0.0000
# 3 87.1247 33.3305 100.7725 0.0000 0.0000 0.0000
# 4 0.0000 0.0000 0.0000 7.9768 0.0000 0.0000
# 5 0.0000 0.0000 0.0000 0.0000 46.5613 0.0000
# 6 0.0000 0.0000 0.0000 0.0000 0.0000 39.3930
#
#
#
# Elastic Compliance Matrix: (Units=1/GPa)
#
#
# Indices 1 2 3 4 5 6 
#
# 1 0.008080 0.000610 -0.007188 0.000000 0.000000 0.000000
# 2 0.000610 0.035735 -0.012347 0.000000 0.000000 0.000000
# 3 -0.007188 -0.012347 0.020221 0.000000 0.000000 0.000000
# 4 0.000000 0.000000 0.000000 0.125364 0.000000 0.000000
# 5 0.000000 0.000000 0.000000 0.000000 0.021477 0.000000
# 6 0.000000 0.000000 0.000000 0.000000 0.000000 0.025385
#
#
# Mechanical properties :
#
#
# Convention : Reuss Voigt Hill
#
# Bulk Modulus (GPa) = 38.18551 70.37490 54.28020
# Shear Modulus (GPa) = 17.67780 31.58025 24.62902
#
# Velocity S-wave (km/s) = 2.65133 3.54370 3.12948
# Velocity P-wave (km/s) = 4.95551 6.68791 5.88580
#
# Compressibility (1/GPa) = 0.02618794
#
# Stress axis : x y z
#
# Youngs Moduli (GPa) = 123.76358 27.98346 49.45273
#
# Poissons Ratio (x) = -0.01708 0.35544
# Poissons Ratio (y) = -0.07556 0.61061
# Poissons Ratio (z) = 0.88956 0.34552
#
# Static dielectric constant tensor:
#      x y z
#    x 1.965960 0.000000 0.000000 
#    y 0.000000 2.171430 0.000000 
#    z 0.000000 0.000000 2.139580 
# 
# From -- ./inp_files/13706.got.cif
#   From: 2010.05.17/outbox.cif.g08.bks.cpg/sg54_7_cif.got.tgz:13706.got - 2010.06.03 13:09:01.
