data_PCOD9424795
_publ_section_title
;
Structure prediction by ZEFSAII (Michael W. Deem and Ramdas Pophale) SiO2 
 PCOD9424795
Probable space group: P B A M
;
_chemical_formula_sum "Si O2"
_cell_formula_units_Z 64
_cell_length_a 18.035478
_cell_length_b 17.436710
_cell_length_c 8.959968
_cell_angle_alpha 90.000000
_cell_angle_beta 90.000000
_cell_angle_gamma 90.000000
_cell_volume 2817.725357
_symmetry_space_group_name_H-M "P B A M"
_symmetry_group_IT_number 55
_symmetry_cell_setting 'orthorhombic'
loop_
_space_group_symop_operation_xyz
x,y,z
-x,-y,z
1/2+x,1/2-y,-z
1/2-x,1/2+y,-z
-x,-y,-z
x,y,-z
1/2-x,1/2+y,z
1/2+x,1/2-y,z
loop_
_atom_site_type_symbol
_atom_site_label
_atom_site_fract_x
_atom_site_fract_y
_atom_site_fract_z
Si Si1 0.131075 0.104365 0.323614
Si Si2 0.388559 0.436938 0.327528
Si Si3 0.641206 0.240623 0.180298
Si Si4 0.022426 0.364471 0.173724
Si Si5 0.805385 0.286613 0.828927
Si Si6 0.248504 0.001056 0.177035
Si Si7 0.049219 0.805373 0.837060
Si Si8 0.617106 0.929077 0.676053
O O1 0.146078 0.115487 0.500000
O O2 0.085345 0.025467 0.309031
O O3 0.103926 0.183192 0.251773
O O4 0.205068 0.078442 0.232884
O O5 0.371169 0.425476 0.500000
O O6 0.309447 0.438588 0.240273
O O7 0.447939 0.374467 0.278159
O O8 0.604243 0.160229 0.227916
O O9 0.726955 0.252217 0.219040
O O10 0.634949 0.243464 0.000000
O O11 0.987421 0.278189 0.180727
O O12 0.966490 0.418569 0.262523
O O13 0.023821 0.388493 0.000000
O O14 0.864425 0.218822 0.838830
O O15 0.842258 0.349331 0.721251
O O16 0.799699 0.318733 0.000000
O O17 0.330722 0.007953 0.244482
O O18 0.251944 0.996161 0.000000
O O19 0.026733 0.835350 0.000000
O O20 0.616875 0.940310 0.500000
#
# Coordination Sequence:
#
# PCOD9424795 Si02
#       8
#     8   8   8   8   8   8   8   8
#     4   9  18  29  44  68  94 118 151 196 232 275
#     4   9  18  30  45  68  94 120 156 198 235 281
#     4  10  18  31  51  71  94 128 164 198 235 278
#     4   9  20  34  47  68  98 131 165 196 232 282
#     4   9  17  29  48  70  92 122 160 199 236 282
#     4  10  17  28  48  69  90 118 151 194 236 273
#     4   9  17  30  46  66  95 126 158 196 234 279
#     4  11  19  29  46  71  96 123 156 195 242 283
#
# _framework density 22.713356999999998
#
# number of rings (size 3 to 8) (size 9 to 14) (size 15 to 20)
#    0.750    1.750    1.250    3.375    0.000    2.500 
#    0.000    0.625    0.000    3.750    0.000    0.875 
#    0.000    7.000    0.000    0.000    0.000    0.000 
#
# Total GULP energy -356602.833813 kJ/mol
# GULP energy per Si atom -5571.919278 kJ/mol
# Density = 2.266166 g / cm^3
# Si number density = 22.713357 Si / 1000 Ang^3
#
#
#
# Elastic Constant Matrix: (Units=GPa)
#
#
# Indices 1 2 3 4 5 6 
#
# 1 10.1634 26.6641 -8.2855 0.0000 0.0000 0.0000
# 2 26.6641 58.1670 30.9865 0.0000 0.0000 0.0000
# 3 -8.2855 30.9865 85.4825 0.0000 0.0000 0.0000
# 4 0.0000 0.0000 0.0000 9.3243 0.0000 0.0000
# 5 0.0000 0.0000 0.0000 0.0000 -0.9779 0.0000
# 6 0.0000 0.0000 0.0000 0.0000 0.0000 23.1821
#
#
#
# Elastic Compliance Matrix: (Units=1/GPa)
#
#
# Indices 1 2 3 4 5 6 
#
# 1 -0.106467 0.067298 -0.034714 0.000000 0.000000 0.000000
# 2 0.067298 -0.021233 0.014220 0.000000 0.000000 0.000000
# 3 -0.034714 0.014220 0.003179 0.000000 0.000000 0.000000
# 4 0.000000 0.000000 0.000000 0.107247 0.000000 0.000000
# 5 0.000000 0.000000 0.000000 0.000000 -1.022633 0.000000
# 6 0.000000 0.000000 0.000000 0.000000 0.000000 0.043137
#
#
# Mechanical properties :
#
#
# Convention : Reuss Voigt Hill
#
# Bulk Modulus (GPa) = -32.34768 28.06036 -2.14366
# Shear Modulus (GPa) = -4.54264 13.26887 4.36312
#
# Velocity S-wave (km/s) = -1.41574 2.41962 1.38749
# Velocity P-wave (km/s) = 4.11644 4.49300 1.27318
#
# Compressibility (1/GPa) = -0.03091412
#
# Stress axis : x y z
#
# Youngs Moduli (GPa) = -9.39257 -47.09631 314.55582
#
# Poissons Ratio (x) = 3.16949 10.91959
# Poissons Ratio (y) = 0.63210 -4.47289
# Poissons Ratio (z) = -0.32606 0.66970
#
# Static dielectric constant tensor:
#      x y z
#    x 1.999400 0.000000 0.000000 
#    y 0.000000 1.872680 0.000000 
#    z 0.000000 0.000000 1.804260 
# 
# From -- ./inp_files/9209.got.cif
#   From: 2010.05.17/outbox.cif.g08.bks.cpg/sg55_5_cif.got.tgz:9209.got - 2010.06.03 13:27:54.
