data_PCOD9424425
_publ_section_title
;
Structure prediction by ZEFSAII (Michael W. Deem and Ramdas Pophale) SiO2 
 PCOD9424425
Probable space group: P C C A
;
_chemical_formula_sum "Si O2"
_cell_formula_units_Z 40
_cell_length_a 16.768040
_cell_length_b 5.188476
_cell_length_c 16.764548
_cell_angle_alpha 90.000000
_cell_angle_beta 90.000000
_cell_angle_gamma 90.000000
_cell_volume 1458.525284
_symmetry_space_group_name_H-M "P C C A"
_symmetry_group_IT_number 54
_symmetry_cell_setting 'orthorhombic'
loop_
_space_group_symop_operation_xyz
x,y,z
1/2-x,-y,z
1/2+x,-y,1/2-z
-x,y,1/2-z
-x,-y,-z
1/2+x,y,-z
1/2-x,y,1/2+z
x,-y,1/2+z
loop_
_atom_site_type_symbol
_atom_site_label
_atom_site_fract_x
_atom_site_fract_y
_atom_site_fract_z
Si Si1 0.894808 0.489464 0.707143
Si Si2 0.635443 0.871336 0.492582
Si Si3 0.974545 0.748931 0.584043
Si Si4 0.250000 0.500000 0.906186
Si Si5 0.300376 0.772335 0.178354
Si Si6 0.000000 0.056144 0.750000
O O1 0.956123 0.492303 0.633316
O O2 0.817414 0.568837 0.657474
O O3 0.881904 0.694262 0.777243
O O4 0.920814 0.237154 0.753303
O O5 0.551805 0.728927 0.471179
O O6 0.702746 0.715908 0.542495
O O7 0.674326 0.892991 0.405963
O O8 0.600390 0.128073 0.535062
O O9 0.986675 0.926334 0.662973
O O10 0.250000 0.500000 0.170615
O O11 0.250000 0.000000 0.220066
#
# Coordination Sequence:
#
# PCOD9424425 Si02
#       6
#     8   8   8   4   8   4
#     4  12  28  49  79 111 158 216 270 346 408 508
#     4  11  26  51  76 118 157 213 269 349 412 504
#     4  11  27  48  81 111 158 215 275 337 420 502
#     4  12  26  48  78 116 162 208 276 346 424 496
#     4  12  29  49  79 119 164 214 271 342 414 489
#     4  12  24  52  78 112 156 210 276 338 416 502
#
# _framework density 27.424959999999999
#
# number of rings (size 3 to 8) (size 9 to 14) (size 15 to 20)
#    0.000    0.400    4.000    3.000   11.200    0.800 
#    3.600    0.000    0.000    0.000    0.000    0.000 
#    0.000    0.000    0.000    0.000    0.000    0.000 
#
# Total GULP energy -223119.753327 kJ/mol
# GULP energy per Si atom -5577.993833 kJ/mol
# Density = 2.736254 g / cm^3
# Si number density = 27.424960 Si / 1000 Ang^3
#
#
#
# Elastic Constant Matrix: (Units=GPa)
#
#
# Indices 1 2 3 4 5 6 
#
# 1 119.6124 22.8950 25.9613 0.0000 0.0000 0.0000
# 2 22.8950 57.0179 28.3695 0.0000 0.0000 0.0000
# 3 25.9613 28.3695 150.2516 0.0000 0.0000 0.0000
# 4 0.0000 0.0000 0.0000 31.4810 0.0000 0.0000
# 5 0.0000 0.0000 0.0000 0.0000 64.9211 0.0000
# 6 0.0000 0.0000 0.0000 0.0000 0.0000 38.7363
#
#
#
# Elastic Compliance Matrix: (Units=1/GPa)
#
#
# Indices 1 2 3 4 5 6 
#
# 1 0.009186 -0.003199 -0.000983 0.000000 0.000000 0.000000
# 2 -0.003199 0.020471 -0.003312 0.000000 0.000000 0.000000
# 3 -0.000983 -0.003312 0.007451 0.000000 0.000000 0.000000
# 4 0.000000 0.000000 0.000000 0.031765 0.000000 0.000000
# 5 0.000000 0.000000 0.000000 0.000000 0.015403 0.000000
# 6 0.000000 0.000000 0.000000 0.000000 0.000000 0.025816
#
#
# Mechanical properties :
#
#
# Convention : Reuss Voigt Hill
#
# Bulk Modulus (GPa) = 45.21177 53.48148 49.34663
# Shear Modulus (GPa) = 37.74868 43.67139 40.71003
#
# Velocity S-wave (km/s) = 3.71406 3.99481 3.85699
# Velocity P-wave (km/s) = 5.90878 6.38916 6.15366
#
# Compressibility (1/GPa) = 0.02211813
#
# Stress axis : x y z
#
# Youngs Moduli (GPa) = 108.85980 48.84916 134.21370
#
# Poissons Ratio (x) = 0.15629 0.13195
# Poissons Ratio (y) = 0.34829 0.44457
# Poissons Ratio (z) = 0.10702 0.16181
#
# Static dielectric constant tensor:
#      x y z
#    x 2.448630 0.000000 0.000000 
#    y 0.000000 2.414910 0.000000 
#    z 0.000000 0.000000 2.134110 
# 
# From -- ./inp_files/18398.got.cif
#   From: 2010.05.17/outbox.cif.g08.bks.cpg/sg54_10_cif.got.tgz:18398.got - 2010.06.03 13:09:01.
