data_PCOD9424589
_publ_section_title
;
Structure prediction by ZEFSAII (Michael W. Deem and Ramdas Pophale) SiO2 
 PCOD9424589
Probable space group: P C C A
;
_chemical_formula_sum "Si O2"
_cell_formula_units_Z 28
_cell_length_a 9.374505
_cell_length_b 11.497535
_cell_length_c 11.526301
_cell_angle_alpha 90.000000
_cell_angle_beta 90.000000
_cell_angle_gamma 90.000000
_cell_volume 1242.347362
_symmetry_space_group_name_H-M "P C C A"
_symmetry_group_IT_number 54
_symmetry_cell_setting 'orthorhombic'
loop_
_space_group_symop_operation_xyz
x,y,z
1/2-x,-y,z
1/2+x,-y,1/2-z
-x,y,1/2-z
-x,-y,-z
1/2+x,y,-z
1/2-x,y,1/2+z
x,-y,1/2+z
loop_
_atom_site_type_symbol
_atom_site_label
_atom_site_fract_x
_atom_site_fract_y
_atom_site_fract_z
Si Si1 0.500000 0.930040 0.750000
Si Si2 0.374736 0.583496 0.045570
Si Si3 0.250000 0.000000 0.089395
Si Si4 0.500000 0.260896 0.750000
Si Si5 0.731608 0.201188 0.098313
O O1 0.256069 0.885984 0.509154
O O2 0.399285 0.851102 0.829688
O O3 0.250000 0.500000 0.087123
O O4 0.427823 0.661125 0.151069
O O5 0.189095 0.328371 0.948892
O O6 0.500000 0.500000 0.000000
O O7 0.392031 0.000053 0.167336
O O8 0.371215 0.200772 0.820853
#
# Coordination Sequence:
#
# PCOD9424589 Si02
#       5
#     4   8   4   4   8
#     4  12  28  48  84 108 160 201 257 318 404 456
#     4  12  28  50  75 113 157 207 265 325 385 471
#     4  12  28  54  78 118 160 202 264 324 400 480
#     4  12  28  50  82 108 160 205 263 318 406 448
#     4  12  28  51  78 118 153 206 264 327 390 479
#
# _framework density 22.537979
#
# number of rings (size 3 to 8) (size 9 to 14) (size 15 to 20)
#    0.000    0.000    2.857    5.143    8.000    8.000 
#    0.000    0.000    0.000    0.000    0.000    0.000 
#    0.000    0.000    0.000    0.000    0.000    0.000 
#
# Total GULP energy -157004.949448 kJ/mol
# GULP energy per Si atom -5607.319623 kJ/mol
# Density = 2.248668 g / cm^3
# Si number density = 22.537979 Si / 1000 Ang^3
#
#
#
# Elastic Constant Matrix: (Units=GPa)
#
#
# Indices 1 2 3 4 5 6 
#
# 1 211.0934 72.3689 92.7767 0.0000 0.0000 0.0000
# 2 72.3689 118.8593 60.2138 0.0000 0.0000 0.0000
# 3 92.7767 60.2138 140.2125 0.0000 0.0000 0.0000
# 4 0.0000 0.0000 0.0000 40.3549 0.0000 0.0000
# 5 0.0000 0.0000 0.0000 0.0000 42.8347 0.0000
# 6 0.0000 0.0000 0.0000 0.0000 0.0000 63.6063
#
#
#
# Elastic Compliance Matrix: (Units=1/GPa)
#
#
# Indices 1 2 3 4 5 6 
#
# 1 0.007229 -0.002528 -0.003698 0.000000 0.000000 0.000000
# 2 -0.002528 0.011637 -0.003324 0.000000 0.000000 0.000000
# 3 -0.003698 -0.003324 0.011006 0.000000 0.000000 0.000000
# 4 0.000000 0.000000 0.000000 0.024780 0.000000 0.000000
# 5 0.000000 0.000000 0.000000 0.000000 0.023346 0.000000
# 6 0.000000 0.000000 0.000000 0.000000 0.000000 0.015722
#
#
# Mechanical properties :
#
#
# Convention : Reuss Voigt Hill
#
# Bulk Modulus (GPa) = 92.83718 102.32045 97.57882
# Shear Modulus (GPa) = 42.95117 45.67956 44.31536
#
# Velocity S-wave (km/s) = 4.37020 4.50686 4.43906
# Velocity P-wave (km/s) = 8.16980 8.51940 8.34643
#
# Compressibility (1/GPa) = 0.01077155
#
# Stress axis : x y z
#
# Youngs Moduli (GPa) = 138.32859 85.93364 90.85633
#
# Poissons Ratio (x) = 0.21727 0.33595
# Poissons Ratio (y) = 0.34974 0.30205
# Poissons Ratio (z) = 0.51149 0.28568
#
# Static dielectric constant tensor:
#      x y z
#    x 1.907950 0.000000 0.000000 
#    y 0.000000 1.865470 0.000000 
#    z 0.000000 0.000000 1.802060 
# 
# From -- ./inp_files/16220.got.cif
#   From: 2010.05.17/outbox.cif.g08.bks.cpg/sg54_9_cif.got.tgz:16220.got - 2010.06.03 13:09:01.
