data_PCOD9424914
_publ_section_title
;
Structure prediction by ZEFSAII (Michael W. Deem and Ramdas Pophale) SiO2 
 PCOD9424914
Probable space group: P B A M
;
_chemical_formula_sum "Si O2"
_cell_formula_units_Z 64
_cell_length_a 9.167602
_cell_length_b 18.643515
_cell_length_c 17.926552
_cell_angle_alpha 90.000000
_cell_angle_beta 90.000000
_cell_angle_gamma 90.000000
_cell_volume 3063.940395
_symmetry_space_group_name_H-M "P B A M"
_symmetry_group_IT_number 55
_symmetry_cell_setting 'orthorhombic'
loop_
_space_group_symop_operation_xyz
x,y,z
-x,-y,z
1/2+x,1/2-y,-z
1/2-x,1/2+y,-z
-x,-y,-z
x,y,-z
1/2-x,1/2+y,z
1/2+x,1/2-y,z
loop_
_atom_site_type_symbol
_atom_site_label
_atom_site_fract_x
_atom_site_fract_y
_atom_site_fract_z
Si Si1 0.649926 0.464375 0.382434
Si Si2 0.351699 0.841158 0.232008
Si Si3 0.822956 0.915787 0.788850
Si Si4 0.455365 0.417139 0.079661
Si Si5 0.664310 0.831747 0.418380
Si Si6 0.143686 0.463094 0.878684
Si Si7 0.648074 0.774414 0.740901
Si Si8 0.404269 0.935221 0.367331
O O1 0.500000 0.500000 0.406328
O O2 0.641785 0.450933 0.292058
O O3 0.700371 0.387118 0.412675
O O4 0.777822 0.519804 0.406354
O O5 0.408966 0.898622 0.173690
O O6 0.208969 0.795124 0.218325
O O7 0.477814 0.784095 0.246737
O O8 0.327504 0.887256 0.305892
O O9 0.729939 0.844955 0.771279
O O10 0.958151 0.896317 0.844395
O O11 0.724457 0.974362 0.831914
O O12 0.500000 0.500000 0.074424
O O13 0.279815 0.422853 0.082174
O O14 0.499948 0.381831 0.000000
O O15 0.659795 0.798106 0.500000
O O16 0.672022 0.777711 0.348716
O O17 0.520357 0.882948 0.407389
O O18 0.000000 0.500000 0.914207
O O19 0.500000 0.000000 0.331484
#
# Coordination Sequence:
#
# PCOD9424914 Si02
#       8
#     8   8   8   8   8   8   8   8
#     4  10  18  28  52  87 113 139 190 244 288 338
#     4  11  21  35  55  87 113 147 193 249 294 343
#     4  10  19  36  57  87 119 154 191 241 296 346
#     4   9  20  35  55  89 126 157 187 233 296 355
#     4   9  20  38  54  72 111 157 190 235 297 360
#     4  11  19  33  62  87 117 154 195 243 294 342
#     4  10  23  36  57  86 116 148 201 247 296 352
#     4   9  18  33  56  80 110 146 191 235 292 351
#
# _framework density 20.888134000000001
#
# number of rings (size 3 to 8) (size 9 to 14) (size 15 to 20)
#    0.000    2.125    2.500    2.250    1.750    3.750 
#    0.000    2.500    0.000    0.750    0.000    0.000 
#    0.000    0.000    0.000    0.000    0.000    0.000 
#
# Total GULP energy -356343.080076 kJ/mol
# GULP energy per Si atom -5567.860626 kJ/mol
# Density = 2.084059 g / cm^3
# Si number density = 20.888134 Si / 1000 Ang^3
#
#
#
# Elastic Constant Matrix: (Units=GPa)
#
#
# Indices 1 2 3 4 5 6 
#
# 1 72.7788 9.9105 12.3659 0.0000 0.0000 0.0000
# 2 9.9105 46.3645 0.3547 0.0000 0.0000 0.0000
# 3 12.3659 0.3547 94.3742 0.0000 0.0000 0.0000
# 4 0.0000 0.0000 0.0000 3.1676 0.0000 0.0000
# 5 0.0000 0.0000 0.0000 0.0000 10.2067 0.0000
# 6 0.0000 0.0000 0.0000 0.0000 0.0000 25.4149
#
#
#
# Elastic Compliance Matrix: (Units=1/GPa)
#
#
# Indices 1 2 3 4 5 6 
#
# 1 0.014480 -0.003081 -0.001886 0.000000 0.000000 0.000000
# 2 -0.003081 0.022224 0.000320 0.000000 0.000000 0.000000
# 3 -0.001886 0.000320 0.010842 0.000000 0.000000 0.000000
# 4 0.000000 0.000000 0.000000 0.315698 0.000000 0.000000
# 5 0.000000 0.000000 0.000000 0.000000 0.097975 0.000000
# 6 0.000000 0.000000 0.000000 0.000000 0.000000 0.039347
#
#
# Mechanical properties :
#
#
# Convention : Reuss Voigt Hill
#
# Bulk Modulus (GPa) = 26.14125 28.75332 27.44728
# Shear Modulus (GPa) = 9.56736 20.48359 15.02548
#
# Velocity S-wave (km/s) = 2.14248 3.13490 2.68494
# Velocity P-wave (km/s) = 4.31999 5.18640 4.77290
#
# Compressibility (1/GPa) = 0.03825372
#
# Stress axis : x y z
#
# Youngs Moduli (GPa) = 69.05981 44.99583 92.23386
#
# Poissons Ratio (x) = 0.13862 0.17393
# Poissons Ratio (y) = 0.21276 -0.02953
# Poissons Ratio (z) = 0.13023 -0.01441
#
# Static dielectric constant tensor:
#      x y z
#    x 1.801200 0.000000 0.000000 
#    y 0.000000 1.708670 0.000000 
#    z 0.000000 0.000000 1.832770 
# 
# From -- ./inp_files/21104.got.cif
#   From: 2010.05.17/outbox.cif.g08.bks.cpg/sg55_11_cif.got.tgz:21104.got - 2010.06.03 13:27:54.
