data_PCOD9424231
_publ_section_title
;
Structure prediction by ZEFSAII (Michael W. Deem and Ramdas Pophale) SiO2 
 PCOD9424231
Probable space group: P C C A
;
_chemical_formula_sum "Si O2"
_cell_formula_units_Z 40
_cell_length_a 11.495816
_cell_length_b 7.398362
_cell_length_c 18.056142
_cell_angle_alpha 90.000000
_cell_angle_beta 90.000000
_cell_angle_gamma 90.000000
_cell_volume 1535.678637
_symmetry_space_group_name_H-M "P C C A"
_symmetry_group_IT_number 54
_symmetry_cell_setting 'orthorhombic'
loop_
_space_group_symop_operation_xyz
x,y,z
1/2-x,-y,z
1/2+x,-y,1/2-z
-x,y,1/2-z
-x,-y,-z
1/2+x,y,-z
1/2-x,y,1/2+z
x,-y,1/2+z
loop_
_atom_site_type_symbol
_atom_site_label
_atom_site_fract_x
_atom_site_fract_y
_atom_site_fract_z
Si Si1 0.078657 0.164833 0.321188
Si Si2 0.418322 0.860856 0.046140
Si Si3 0.156975 0.752001 0.301607
Si Si4 0.533369 0.629169 0.568086
Si Si5 0.293072 0.706540 0.629138
O O1 0.207976 0.240388 0.322310
O O2 0.000000 0.216140 0.250000
O O3 0.012442 0.216390 0.395634
O O4 0.096602 0.946162 0.317262
O O5 0.307075 0.842400 0.101352
O O6 0.371723 0.749885 0.975061
O O7 0.500000 0.000000 0.000000
O O8 0.087503 0.604925 0.350412
O O9 0.165968 0.727590 0.213680
O O10 0.500000 0.500000 0.500000
O O11 0.410580 0.728247 0.583201
O O12 0.250000 0.500000 0.619735
#
# Coordination Sequence:
#
# PCOD9424231 Si02
#       5
#     8   8   8   8   8
#     4  11  23  46  76 113 154 207 273 342 409 506
#     4  12  27  48  79 116 156 206 270 344 417 493
#     4  11  26  47  78 113 158 214 271 336 418 506
#     4  12  27  49  78 114 164 206 278 340 427 499
#     4  12  27  50  77 111 161 219 266 338 419 521
#
# _framework density 26.047117
#
# number of rings (size 3 to 8) (size 9 to 14) (size 15 to 20)
#    0.000    0.400    6.000    1.800    2.800    2.400 
#    3.600    0.000    0.000    0.000    0.000    0.000 
#    0.000    0.000    0.000    0.000    0.000    0.000 
#
# Total GULP energy -223008.502988 kJ/mol
# GULP energy per Si atom -5575.212575 kJ/mol
# Density = 2.598783 g / cm^3
# Si number density = 26.047117 Si / 1000 Ang^3
#
#
#
# Elastic Constant Matrix: (Units=GPa)
#
#
# Indices 1 2 3 4 5 6 
#
# 1 165.4699 39.4520 92.1515 0.0000 0.0000 0.0000
# 2 39.4520 72.0090 47.5085 0.0000 0.0000 0.0000
# 3 92.1515 47.5085 229.0881 0.0000 0.0000 0.0000
# 4 0.0000 0.0000 0.0000 38.7453 0.0000 0.0000
# 5 0.0000 0.0000 0.0000 0.0000 36.0399 0.0000
# 6 0.0000 0.0000 0.0000 0.0000 0.0000 32.4214
#
#
#
# Elastic Compliance Matrix: (Units=1/GPa)
#
#
# Indices 1 2 3 4 5 6 
#
# 1 0.008214 -0.002688 -0.002747 0.000000 0.000000 0.000000
# 2 -0.002688 0.016968 -0.002438 0.000000 0.000000 0.000000
# 3 -0.002747 -0.002438 0.005975 0.000000 0.000000 0.000000
# 4 0.000000 0.000000 0.000000 0.025810 0.000000 0.000000
# 5 0.000000 0.000000 0.000000 0.000000 0.027747 0.000000
# 6 0.000000 0.000000 0.000000 0.000000 0.000000 0.030844
#
#
# Mechanical properties :
#
#
# Convention : Reuss Voigt Hill
#
# Bulk Modulus (GPa) = 64.88060 91.64344 78.26202
# Shear Modulus (GPa) = 36.64609 40.60497 38.62553
#
# Velocity S-wave (km/s) = 3.75496 3.95258 3.85503
# Velocity P-wave (km/s) = 6.61533 7.48937 7.06588
#
# Compressibility (1/GPa) = 0.01541293
#
# Stress axis : x y z
#
# Youngs Moduli (GPa) = 121.74465 58.93410 167.35082
#
# Poissons Ratio (x) = 0.15842 0.45965
# Poissons Ratio (y) = 0.32726 0.40793
# Poissons Ratio (z) = 0.33439 0.14366
#
# Static dielectric constant tensor:
#      x y z
#    x 1.981470 0.000000 0.000000 
#    y 0.000000 2.621560 0.000000 
#    z 0.000000 0.000000 1.995520 
# 
# From -- ./inp_files/17116.got.cif
#   From: 2010.05.17/outbox.cif.g08.bks.cpg/sg54_9_cif.got.tgz:17116.got - 2010.06.03 13:09:01.
