data_PCOD9424478
_publ_section_title
;
Structure prediction by ZEFSAII (Michael W. Deem and Ramdas Pophale) SiO2 
 PCOD9424478
Probable space group: P C C A
;
_chemical_formula_sum "Si O2"
_cell_formula_units_Z 32
_cell_length_a 12.653394
_cell_length_b 5.672015
_cell_length_c 18.555931
_cell_angle_alpha 90.000000
_cell_angle_beta 90.000000
_cell_angle_gamma 90.000000
_cell_volume 1331.763632
_symmetry_space_group_name_H-M "P C C A"
_symmetry_group_IT_number 54
_symmetry_cell_setting 'orthorhombic'
loop_
_space_group_symop_operation_xyz
x,y,z
1/2-x,-y,z
1/2+x,-y,1/2-z
-x,y,1/2-z
-x,-y,-z
1/2+x,y,-z
1/2-x,y,1/2+z
x,-y,1/2+z
loop_
_atom_site_type_symbol
_atom_site_label
_atom_site_fract_x
_atom_site_fract_y
_atom_site_fract_z
Si Si1 0.500000 0.414665 0.250000
Si Si2 0.192003 0.742913 0.011113
Si Si3 0.374076 0.757014 0.348159
Si Si4 0.750000 0.000000 0.271053
Si Si5 0.428972 0.083357 0.140774
O O1 0.446675 0.560562 0.312523
O O2 0.414642 0.254599 0.209447
O O3 0.250000 0.500000 0.034498
O O4 0.160814 0.700103 0.928392
O O5 0.250000 0.000000 0.010931
O O6 0.095932 0.792226 0.066127
O O7 0.281937 0.807274 0.291418
O O8 0.454517 0.979272 0.354929
O O9 0.663151 0.909146 0.332486
#
# Coordination Sequence:
#
# PCOD9424478 Si02
#       5
#     4   8   8   4   8
#     4  12  26  44  80 114 146 206 254 322 386 454
#     4  12  31  51  80 115 156 210 260 318 389 464
#     4  12  27  50  75 111 156 204 258 322 389 459
#     4  12  22  48  76 106 154 194 268 316 382 456
#     4  12  27  50  75 111 156 204 258 322 389 459
#
# _framework density 24.028289000000001
#
# number of rings (size 3 to 8) (size 9 to 14) (size 15 to 20)
#    0.000    0.000    7.500    0.750   14.000    1.000 
#    0.000    0.000    0.000    0.000    0.000    0.000 
#    0.000    0.000    0.000    0.000    0.000    0.000 
#
# Total GULP energy -178244.215679 kJ/mol
# GULP energy per Si atom -5570.131740 kJ/mol
# Density = 2.397360 g / cm^3
# Si number density = 24.028289 Si / 1000 Ang^3
#
#
#
# Elastic Constant Matrix: (Units=GPa)
#
#
# Indices 1 2 3 4 5 6 
#
# 1 69.6743 6.6623 18.1169 0.0000 0.0000 0.0000
# 2 6.6623 25.3147 16.4500 0.0000 0.0000 0.0000
# 3 18.1169 16.4500 154.7398 0.0000 0.0000 0.0000
# 4 0.0000 0.0000 0.0000 14.3798 0.0000 0.0000
# 5 0.0000 0.0000 0.0000 0.0000 60.8861 0.0000
# 6 0.0000 0.0000 0.0000 0.0000 0.0000 -18.1446
#
#
#
# Elastic Compliance Matrix: (Units=1/GPa)
#
#
# Indices 1 2 3 4 5 6 
#
# 1 0.015015 -0.003018 -0.001437 0.000000 0.000000 0.000000
# 2 -0.003018 0.043041 -0.004222 0.000000 0.000000 0.000000
# 3 -0.001437 -0.004222 0.007080 0.000000 0.000000 0.000000
# 4 0.000000 0.000000 0.000000 0.069542 0.000000 0.000000
# 5 0.000000 0.000000 0.000000 0.000000 0.016424 0.000000
# 6 0.000000 0.000000 0.000000 0.000000 0.000000 -0.055113
#
#
# Mechanical properties :
#
#
# Convention : Reuss Voigt Hill
#
# Bulk Modulus (GPa) = 20.92892 36.90969 28.91931
# Shear Modulus (GPa) = 38.67907 25.32425 32.00166
#
# Velocity S-wave (km/s) = 4.01650 3.24996 3.65339
# Velocity P-wave (km/s) = 5.49897 5.42930 5.46424
#
# Compressibility (1/GPa) = 0.04778077
#
# Stress axis : x y z
#
# Youngs Moduli (GPa) = 66.60121 23.23391 141.25151
#
# Poissons Ratio (x) = 0.07011 0.20299
# Poissons Ratio (y) = 0.20098 0.59640
# Poissons Ratio (z) = 0.09571 0.09810
#
# Static dielectric constant tensor:
#      x y z
#    x 1.415900 0.000000 0.000000 
#    y 0.000000 2.334830 0.000000 
#    z 0.000000 0.000000 1.843720 
# 
# From -- ./inp_files/17617.got.cif
#   From: 2010.05.17/outbox.cif.g08.bks.cpg/sg54_9_cif.got.tgz:17617.got - 2010.06.03 13:09:01.
