data_PCOD9424247
_publ_section_title
;
Structure prediction by ZEFSAII (Michael W. Deem and Ramdas Pophale) SiO2 
 PCOD9424247
Probable space group: P C C A
;
_chemical_formula_sum "Si O2"
_cell_formula_units_Z 28
_cell_length_a 26.841598
_cell_length_b 4.422001
_cell_length_c 8.026058
_cell_angle_alpha 90.000000
_cell_angle_beta 90.000000
_cell_angle_gamma 90.000000
_cell_volume 952.641503
_symmetry_space_group_name_H-M "P C C A"
_symmetry_group_IT_number 54
_symmetry_cell_setting 'orthorhombic'
loop_
_space_group_symop_operation_xyz
x,y,z
1/2-x,-y,z
1/2+x,-y,1/2-z
-x,y,1/2-z
-x,-y,-z
1/2+x,y,-z
1/2-x,y,1/2+z
x,-y,1/2+z
loop_
_atom_site_type_symbol
_atom_site_label
_atom_site_fract_x
_atom_site_fract_y
_atom_site_fract_z
Si Si1 0.643281 0.178599 0.220056
Si Si2 0.429052 0.795058 0.515864
Si Si3 0.500000 0.201469 0.750000
Si Si4 0.212544 0.247141 0.054323
O O1 0.605499 0.004660 0.098870
O O2 0.677573 0.939273 0.319530
O O3 0.609707 0.355824 0.355528
O O4 0.678474 0.365732 0.096901
O O5 0.464825 0.995845 0.633453
O O6 0.464311 0.626609 0.381567
O O7 0.250000 0.500000 0.122245
O O8 0.250000 0.000000 0.979264
#
# Coordination Sequence:
#
# PCOD9424247 Si02
#       4
#     8   8   4   8
#     4   9  19  35  55  84 132 172 221 277 331 389
#     4   8  14  27  49  86 130 170 214 268 329 395
#     4   8  12  22  50  86 130 168 214 264 328 402
#     4  11  24  41  62  89 126 173 225 274 327 388
#
# _framework density 29.391957999999999
#
# number of rings (size 3 to 8) (size 9 to 14) (size 15 to 20)
#    0.000    2.857    0.000    0.857    0.000    4.571 
#    0.000    4.286    0.000    0.000    0.000    0.000 
#    0.000 2112.000    0.000    0.000    0.000 1776.286 
#
# Total GULP energy -156878.051196 kJ/mol
# GULP energy per Si atom -5602.787543 kJ/mol
# Density = 2.932506 g / cm^3
# Si number density = 29.391958 Si / 1000 Ang^3
#
#
#
# Elastic Constant Matrix: (Units=GPa)
#
#
# Indices 1 2 3 4 5 6 
#
# 1 190.6448 59.1177 134.1303 0.0000 0.0000 0.0000
# 2 59.1177 71.8265 41.7655 0.0000 0.0000 0.0000
# 3 134.1303 41.7655 192.4493 0.0000 0.0000 0.0000
# 4 0.0000 0.0000 0.0000 -19.1105 0.0000 0.0000
# 5 0.0000 0.0000 0.0000 0.0000 147.6745 0.0000
# 6 0.0000 0.0000 0.0000 0.0000 0.0000 -6.0741
#
#
#
# Elastic Compliance Matrix: (Units=1/GPa)
#
#
# Indices 1 2 3 4 5 6 
#
# 1 0.012075 -0.005774 -0.007163 0.000000 0.000000 0.000000
# 2 -0.005774 0.018694 -0.000033 0.000000 0.000000 0.000000
# 3 -0.007163 -0.000033 0.010196 0.000000 0.000000 0.000000
# 4 0.000000 0.000000 0.000000 -0.052327 0.000000 0.000000
# 5 0.000000 0.000000 0.000000 0.000000 0.006772 0.000000
# 6 0.000000 0.000000 0.000000 0.000000 0.000000 -0.164633
#
#
# Mechanical properties :
#
#
# Convention : Reuss Voigt Hill
#
# Bulk Modulus (GPa) = 66.55357 102.77195 84.66276
# Shear Modulus (GPa) = -36.15966 39.15844 1.49939
#
# Velocity S-wave (km/s) = -3.51131 3.65401 0.71501
# Velocity P-wave (km/s) = 2.50072 7.26941 5.43589
#
# Compressibility (1/GPa) = 0.01502549
#
# Stress axis : x y z
#
# Youngs Moduli (GPa) = 82.81276 53.49418 98.07984
#
# Poissons Ratio (x) = 0.30886 0.70256
# Poissons Ratio (y) = 0.47813 0.00323
# Poissons Ratio (z) = 0.59320 0.00176
#
# Static dielectric constant tensor:
#      x y z
#    x 2.266900 0.000000 0.000000 
#    y 0.000000 2.185130 0.000000 
#    z 0.000000 0.000000 2.205190 
# 
# From -- ./inp_files/5355.got.cif
#   From: 2010.05.17/outbox.cif.g08.bks.cpg/sg54_3_cif.got.tgz:5355.got - 2010.06.03 13:09:01.
