data_PCOD9424606
_publ_section_title
;
Structure prediction by ZEFSAII (Michael W. Deem and Ramdas Pophale) SiO2 
 PCOD9424606
Probable space group: P C C A
;
_chemical_formula_sum "Si O2"
_cell_formula_units_Z 60
_cell_length_a 27.000000
_cell_length_b 15.000000
_cell_length_c 9.000000
_cell_angle_alpha 90.000000
_cell_angle_beta 90.000000
_cell_angle_gamma 90.000000
_cell_volume 3645.000000
_symmetry_space_group_name_H-M "P C C A"
_symmetry_group_IT_number 54
_symmetry_cell_setting 'orthorhombic'
loop_
_space_group_symop_operation_xyz
x,y,z
1/2-x,-y,z
1/2+x,-y,1/2-z
-x,y,1/2-z
-x,-y,-z
1/2+x,y,-z
1/2-x,y,1/2+z
x,-y,1/2+z
loop_
_atom_site_type_symbol
_atom_site_label
_atom_site_fract_x
_atom_site_fract_y
_atom_site_fract_z
Si Si1 0.905969 0.203109 0.615159
Si Si2 0.945558 0.390487 0.684066
Si Si3 0.320065 0.937305 0.933742
Si Si4 0.551857 0.436311 0.839226
Si Si5 0.598932 0.079423 0.628259
Si Si6 0.941591 0.238009 0.291037
Si Si7 0.551468 0.056246 0.327059
Si Si8 0.750000 0.000000 0.317148
O O1 0.909478 0.305514 0.668663
O O2 0.855848 0.148291 0.578491
O O3 0.936088 0.203369 0.460107
O O4 0.930808 0.145701 0.745530
O O5 0.924854 0.470355 0.786989
O O6 0.953813 0.428076 0.516708
O O7 0.000000 0.363426 0.750000
O O8 0.284968 0.942464 0.790106
O O9 0.352157 0.030191 0.933084
O O10 0.285287 0.941070 0.077626
O O11 0.500000 0.438618 0.750000
O O12 0.574468 0.341570 0.790381
O O13 0.592926 0.180292 0.681939
O O14 0.557029 0.065209 0.502104
O O15 0.587275 0.022331 0.774390
O O16 0.000000 0.231085 0.250000
O O17 0.500000 0.034536 0.250000
#
# Coordination Sequence:
#
# PCOD9424606 Si02
#       8
#     8   8   8   8   8   8   8   4
#     4  10  20  32  47  69  98 121 162 203 236 274
#     4  10  18  30  47  67  98 136 165 201 229 263
#     4  10  20  35  51  73  91 119 150 197 244 299
#     4   9  18  29  44  65  94 134 178 202 225 258
#     4  11  20  31  47  66  97 124 162 202 233 272
#     4  10  19  31  45  67 100 140 170 199 228 265
#     4  11  20  29  42  64  94 135 165 188 225 274
#     4  10  20  36  56  66  92 118 148 188 256 310
#
# _framework density 16.460905
#
# number of rings (size 3 to 8) (size 9 to 14) (size 15 to 20)
#    0.000    1.867    0.000    7.600    0.000    3.200 
#    0.000    0.000    0.000    0.000    0.000    0.000 
#    0.000   36.267    0.000    0.000    0.000    0.000 
#
# Total GULP energy -334204.752138 kJ/mol
# GULP energy per Si atom -5570.079202 kJ/mol
# Density = 1.642344 g / cm^3
# Si number density = 16.460905 Si / 1000 Ang^3
#
#
#
# Elastic Constant Matrix: (Units=GPa)
#
#
# Indices 1 2 3 4 5 6 
#
# 1 56.2571 51.6818 27.1813 0.0000 0.0000 0.0000
# 2 51.6818 82.0944 44.8212 0.0000 0.0000 0.0000
# 3 27.1813 44.8212 95.9753 0.0000 0.0000 0.0000
# 4 0.0000 0.0000 0.0000 21.4162 0.0000 0.0000
# 5 0.0000 0.0000 0.0000 0.0000 23.8348 0.0000
# 6 0.0000 0.0000 0.0000 0.0000 0.0000 16.2273
#
#
#
# Elastic Compliance Matrix: (Units=1/GPa)
#
#
# Indices 1 2 3 4 5 6 
#
# 1 0.042183 -0.026890 0.000611 0.000000 0.000000 0.000000
# 2 -0.026890 0.033491 -0.008025 0.000000 0.000000 0.000000
# 3 0.000611 -0.008025 0.013994 0.000000 0.000000 0.000000
# 4 0.000000 0.000000 0.000000 0.046694 0.000000 0.000000
# 5 0.000000 0.000000 0.000000 0.000000 0.041955 0.000000
# 6 0.000000 0.000000 0.000000 0.000000 0.000000 0.061625
#
#
# Mechanical properties :
#
#
# Convention : Reuss Voigt Hill
#
# Bulk Modulus (GPa) = 47.48217 53.52173 50.50195
# Shear Modulus (GPa) = 15.84440 19.67181 17.75810
#
# Velocity S-wave (km/s) = 3.10586 3.46072 3.28808
# Velocity P-wave (km/s) = 6.46296 6.96805 6.72025
#
# Compressibility (1/GPa) = 0.02106054
#
# Stress axis : x y z
#
# Youngs Moduli (GPa) = 23.70618 29.85913 71.45897
#
# Poissons Ratio (x) = 0.80290 -0.04365
# Poissons Ratio (y) = 0.63745 0.57345
# Poissons Ratio (z) = -0.01448 0.23962
#
# Static dielectric constant tensor:
#      x y z
#    x 1.568740 0.000000 0.000000 
#    y 0.000000 1.613620 0.000000 
#    z 0.000000 0.000000 1.567860 
# 
# From -- ./inp_files/5630.got.cif
#   From: 2010.05.17/outbox.ucp.g08.bks.cvg/sg54_3_cif.got.tgz:5630.got - 2010.06.11 16:34:40.
