data_PCOD9424654
_publ_section_title
;
Structure prediction by ZEFSAII (Michael W. Deem and Ramdas Pophale) SiO2 
 PCOD9424654
Probable space group: P C C A
;
_chemical_formula_sum "Si O2"
_cell_formula_units_Z 64
_cell_length_a 21.000000
_cell_length_b 9.000000
_cell_length_c 18.000000
_cell_angle_alpha 90.000000
_cell_angle_beta 90.000000
_cell_angle_gamma 90.000000
_cell_volume 3402.000000
_symmetry_space_group_name_H-M "P C C A"
_symmetry_group_IT_number 54
_symmetry_cell_setting 'orthorhombic'
loop_
_space_group_symop_operation_xyz
x,y,z
1/2-x,-y,z
1/2+x,-y,1/2-z
-x,y,1/2-z
-x,-y,-z
1/2+x,y,-z
1/2-x,y,1/2+z
x,-y,1/2+z
loop_
_atom_site_type_symbol
_atom_site_label
_atom_site_fract_x
_atom_site_fract_y
_atom_site_fract_z
Si Si1 0.152713 0.864981 0.793516
Si Si2 0.615530 0.164654 0.536412
Si Si3 0.729579 0.328801 0.455482
Si Si4 0.563112 0.345557 0.801981
Si Si5 0.698034 0.190013 0.184905
Si Si6 0.648131 0.175915 0.016490
Si Si7 0.180699 0.575452 0.200123
Si Si8 0.982678 0.667725 0.972488
O O1 0.120386 0.844109 0.874147
O O2 0.105432 0.789358 0.733876
O O3 0.225540 0.803000 0.800651
O O4 0.167617 0.038976 0.782433
O O5 0.674739 0.266153 0.509273
O O6 0.546533 0.232360 0.514752
O O7 0.629158 0.997407 0.506405
O O8 0.750000 0.500000 0.471652
O O9 0.795331 0.234229 0.461895
O O10 0.696295 0.331222 0.374472
O O11 0.500000 0.374159 0.750000
O O12 0.618977 0.470852 0.809042
O O13 0.535156 0.325158 0.884803
O O14 0.680785 0.190450 0.097895
O O15 0.667707 0.325620 0.228293
O O16 0.582530 0.270239 0.010611
O O17 0.250000 0.500000 0.212654
O O18 0.000000 0.500000 0.000000
#
# Coordination Sequence:
#
# PCOD9424654 Si02
#       8
#     8   8   8   8   8   8   8   8
#     4  10  21  43  66  98 125 171 220 273 338 404
#     4  11  22  44  66  95 133 171 220 268 334 407
#     4  11  23  41  64  95 132 167 219 277 328 393
#     4  12  25  43  67  96 137 180 222 276 350 404
#     4  10  22  41  70  94 129 165 224 278 331 409
#     4  11  24  41  68  98 128 174 219 279 336 398
#     4  11  23  41  61  94 129 169 220 274 330 396
#     4  12  26  44  67  98 135 177 226 277 336 410
#
# _framework density 18.812463000000001
#
# number of rings (size 3 to 8) (size 9 to 14) (size 15 to 20)
#    0.000    1.000    3.750    3.750    1.750    2.500 
#    2.250    1.875    0.000    0.000    0.000    0.000 
#    0.000    0.000    0.000    0.000    0.000    0.000 
#
# Total GULP energy -357149.097822 kJ/mol
# GULP energy per Si atom -5580.454653 kJ/mol
# Density = 1.876965 g / cm^3
# Si number density = 18.812463 Si / 1000 Ang^3
#
#
#
# Elastic Constant Matrix: (Units=GPa)
#
#
# Indices 1 2 3 4 5 6 
#
# 1 163.9791 43.8590 23.8611 0.0000 0.0000 0.0000
# 2 43.8590 66.4152 29.6419 0.0000 0.0000 0.0000
# 3 23.8611 29.6419 63.1832 0.0000 0.0000 0.0000
# 4 0.0000 0.0000 0.0000 28.1937 0.0000 0.0000
# 5 0.0000 0.0000 0.0000 0.0000 39.1931 0.0000
# 6 0.0000 0.0000 0.0000 0.0000 0.0000 43.3024
#
#
#
# Elastic Compliance Matrix: (Units=1/GPa)
#
#
# Indices 1 2 3 4 5 6 
#
# 1 0.007427 -0.004620 -0.000637 0.000000 0.000000 0.000000
# 2 -0.004620 0.021918 -0.008538 0.000000 0.000000 0.000000
# 3 -0.000637 -0.008538 0.020073 0.000000 0.000000 0.000000
# 4 0.000000 0.000000 0.000000 0.035469 0.000000 0.000000
# 5 0.000000 0.000000 0.000000 0.000000 0.025515 0.000000
# 6 0.000000 0.000000 0.000000 0.000000 0.000000 0.023093
#
#
# Mechanical properties :
#
#
# Convention : Reuss Voigt Hill
#
# Bulk Modulus (GPa) = 45.81350 54.25572 50.03461
# Shear Modulus (GPa) = 29.69788 35.21886 32.45837
#
# Velocity S-wave (km/s) = 3.97751 4.33147 4.15826
# Velocity P-wave (km/s) = 6.74534 7.34292 7.05047
#
# Compressibility (1/GPa) = 0.02182763
#
# Stress axis : x y z
#
# Youngs Moduli (GPa) = 134.64784 45.62371 49.81762
#
# Poissons Ratio (x) = 0.21078 0.03175
# Poissons Ratio (y) = 0.62208 0.42535
# Poissons Ratio (z) = 0.08581 0.38954
#
# Static dielectric constant tensor:
#      x y z
#    x 1.620930 0.000000 0.000000 
#    y 0.000000 1.684350 0.000000 
#    z 0.000000 0.000000 1.673330 
# 
# From -- ./inp_files/18937.got.cif
#   From: 2010.05.17/outbox.ucp.g08.bks.cvg/sg54_10_cif.got.tgz:18937.got - 2010.06.11 16:34:40.
