data_PCOD9424895
_publ_section_title
;
Structure prediction by ZEFSAII (Michael W. Deem and Ramdas Pophale) SiO2 
 PCOD9424895
Probable space group: P B A M
;
_chemical_formula_sum "Si O2"
_cell_formula_units_Z 64
_cell_length_a 27.061799
_cell_length_b 18.862020
_cell_length_c 8.711064
_cell_angle_alpha 90.000000
_cell_angle_beta 90.000000
_cell_angle_gamma 90.000000
_cell_volume 4446.477198
_symmetry_space_group_name_H-M "P B A M"
_symmetry_group_IT_number 55
_symmetry_cell_setting 'orthorhombic'
loop_
_space_group_symop_operation_xyz
x,y,z
-x,-y,z
1/2+x,1/2-y,-z
1/2-x,1/2+y,-z
-x,-y,-z
x,y,-z
1/2-x,1/2+y,z
1/2+x,1/2-y,z
loop_
_atom_site_type_symbol
_atom_site_label
_atom_site_fract_x
_atom_site_fract_y
_atom_site_fract_z
Si Si1 0.700547 0.713414 0.677848
Si Si2 0.245284 0.415336 0.815541
Si Si3 0.948408 0.580521 0.185566
Si Si4 0.444364 0.076613 0.683936
Si Si5 0.195294 0.201129 0.323598
Si Si6 0.353730 0.831353 0.816234
Si Si7 0.756216 0.428004 0.685464
Si Si8 0.350724 0.155167 0.816600
O O1 0.686867 0.703442 0.500000
O O2 0.712875 0.639406 0.759100
O O3 0.752541 0.756460 0.680605
O O4 0.662598 0.765308 0.762676
O O5 0.192469 0.380883 0.766866
O O6 0.250400 0.492262 0.741574
O O7 0.245755 0.420342 0.000000
O O8 0.935695 0.501977 0.246828
O O9 0.905218 0.634291 0.234009
O O10 0.001780 0.599120 0.254418
O O11 0.951259 0.578299 0.000000
O O12 0.444656 0.072837 0.500000
O O13 0.401326 0.127438 0.743602
O O14 0.179598 0.195110 0.500000
O O15 0.157173 0.251594 0.237391
O O16 0.210951 0.123550 0.265271
O O17 0.353334 0.832008 0.000000
O O18 0.759550 0.424329 0.500000
O O19 0.806368 0.395106 0.755297
O O20 0.352583 0.151043 0.000000
#
# Coordination Sequence:
#
# PCOD9424895 Si02
#       8
#     8   8   8   8   8   8   8   8
#     4   9  17  30  44  61  85 113 143 179 216 255
#     4  10  18  28  43  65  89 117 148 178 213 256
#     4  10  19  32  46  63  87 114 144 182 220 254
#     4  11  21  32  45  63  85 113 147 182 218 258
#     4   8  16  28  42  59  82 110 141 174 211 250
#     4   9  18  29  43  61  83 111 144 176 212 253
#     4  10  19  30  43  63  88 116 147 180 216 257
#     4  11  20  31  46  63  84 114 148 183 220 261
#
# _framework density 14.393416999999999
#
# number of rings (size 3 to 8) (size 9 to 14) (size 15 to 20)
#    0.000    2.250    0.000    6.000    0.000    6.000 
#    0.000    0.000    0.000    0.000    0.000    0.000 
#    0.000    1.000    0.000   10.500    0.000    5.750 
#
# Total GULP energy -356802.539036 kJ/mol
# GULP energy per Si atom -5575.039672 kJ/mol
# Density = 1.436066 g / cm^3
# Si number density = 14.393417 Si / 1000 Ang^3
#
#
#
# Elastic Constant Matrix: (Units=GPa)
#
#
# Indices 1 2 3 4 5 6 
#
# 1 88.9826 59.1125 36.0484 0.0000 0.0000 0.0000
# 2 59.1125 112.3650 37.1329 0.0000 0.0000 0.0000
# 3 36.0484 37.1329 77.7467 0.0000 0.0000 0.0000
# 4 0.0000 0.0000 0.0000 26.2005 0.0000 0.0000
# 5 0.0000 0.0000 0.0000 0.0000 19.3556 0.0000
# 6 0.0000 0.0000 0.0000 0.0000 0.0000 27.3132
#
#
#
# Elastic Compliance Matrix: (Units=1/GPa)
#
#
# Indices 1 2 3 4 5 6 
#
# 1 0.018615 -0.008241 -0.004695 0.000000 0.000000 0.000000
# 2 -0.008241 0.014216 -0.002969 0.000000 0.000000 0.000000
# 3 -0.004695 -0.002969 0.016457 0.000000 0.000000 0.000000
# 4 0.000000 0.000000 0.000000 0.038167 0.000000 0.000000
# 5 0.000000 0.000000 0.000000 0.000000 0.051665 0.000000
# 6 0.000000 0.000000 0.000000 0.000000 0.000000 0.036612
#
#
# Mechanical properties :
#
#
# Convention : Reuss Voigt Hill
#
# Bulk Modulus (GPa) = 57.21360 60.40912 58.81136
# Shear Modulus (GPa) = 23.43365 24.36056 23.89711
#
# Velocity S-wave (km/s) = 4.03933 4.11844 4.07907
# Velocity P-wave (km/s) = 7.84799 8.04217 7.94567
#
# Compressibility (1/GPa) = 0.01747836
#
# Stress axis : x y z
#
# Youngs Moduli (GPa) = 53.71991 70.34220 60.76434
#
# Poissons Ratio (x) = 0.57972 0.28529
# Poissons Ratio (y) = 0.44273 0.18039
# Poissons Ratio (z) = 0.25221 0.20882
#
# Static dielectric constant tensor:
#      x y z
#    x 1.462570 0.000000 0.000000 
#    y 0.000000 1.472740 0.000000 
#    z 0.000000 0.000000 1.485320 
# 
# From -- ./inp_files/9870.got.cif
#   From: 2010.05.17/outbox.cif.g08.bks.cpg/sg55_5_cif.got.tgz:9870.got - 2010.06.03 13:27:54.
