data_PCOD9424812
_publ_section_title
;
Structure prediction by ZEFSAII (Michael W. Deem and Ramdas Pophale) SiO2 
 PCOD9424812
Probable space group: P B A M
;
_chemical_formula_sum "Si O2"
_cell_formula_units_Z 32
_cell_length_a 14.656974
_cell_length_b 10.564355
_cell_length_c 7.487420
_cell_angle_alpha 90.000000
_cell_angle_beta 90.000000
_cell_angle_gamma 90.000000
_cell_volume 1159.363168
_symmetry_space_group_name_H-M "P B A M"
_symmetry_group_IT_number 55
_symmetry_cell_setting 'orthorhombic'
loop_
_space_group_symop_operation_xyz
x,y,z
-x,-y,z
1/2+x,1/2-y,-z
1/2-x,1/2+y,-z
-x,-y,-z
x,y,-z
1/2-x,1/2+y,z
1/2+x,1/2-y,z
loop_
_atom_site_type_symbol
_atom_site_label
_atom_site_fract_x
_atom_site_fract_y
_atom_site_fract_z
Si Si1 0.982182 0.167077 0.793262
Si Si2 0.150446 0.312850 0.790734
Si Si3 0.312312 0.466857 0.784156
Si Si4 0.636627 0.906871 0.709933
O O1 0.914415 0.058692 0.720243
O O2 0.916666 0.290962 0.794286
O O3 0.077289 0.215724 0.712305
O O4 0.002602 0.137186 0.000000
O O5 0.248587 0.351990 0.712579
O O6 0.106124 0.454935 0.781030
O O7 0.163001 0.282494 0.000000
O O8 0.247047 0.585307 0.741615
O O9 0.315267 0.460000 0.000000
O O10 0.619854 0.902398 0.500000
#
# Coordination Sequence:
#
# PCOD9424812 Si02
#       4
#     8   8   8   8
#     4  10  17  29  51  68  86 119 150 184 226 257
#     4   8  16  30  46  67  91 113 147 187 220 258
#     4   8  17  31  45  65  90 116 149 186 219 259
#     4  10  19  29  43  68  98 119 143 179 223 270
#
# _framework density 27.60136
#
# number of rings (size 3 to 8) (size 9 to 14) (size 15 to 20)
#    1.500    1.500    0.000    2.250    0.000    5.000 
#    0.000    0.000    0.000    1.500    0.000   10.500 
#    0.000    0.000    0.000    0.000    0.000    0.000 
#
# Total GULP energy -178625.526047 kJ/mol
# GULP energy per Si atom -5582.047689 kJ/mol
# Density = 2.753854 g / cm^3
# Si number density = 27.601360 Si / 1000 Ang^3
#
#
#
# Elastic Constant Matrix: (Units=GPa)
#
#
# Indices 1 2 3 4 5 6 
#
# 1 204.6922 45.3252 -4.3610 0.0000 0.0000 0.0000
# 2 45.3252 136.1322 -1.7464 0.0000 0.0000 0.0000
# 3 -4.3610 -1.7464 119.2861 0.0000 0.0000 0.0000
# 4 0.0000 0.0000 0.0000 45.5298 0.0000 0.0000
# 5 0.0000 0.0000 0.0000 0.0000 -26.6863 0.0000
# 6 0.0000 0.0000 0.0000 0.0000 0.0000 60.8824
#
#
#
# Elastic Compliance Matrix: (Units=1/GPa)
#
#
# Indices 1 2 3 4 5 6 
#
# 1 0.005278 -0.001755 0.000167 0.000000 0.000000 0.000000
# 2 -0.001755 0.007931 0.000052 0.000000 0.000000 0.000000
# 3 0.000167 0.000052 0.008390 0.000000 0.000000 0.000000
# 4 0.000000 0.000000 0.000000 0.021964 0.000000 0.000000
# 5 0.000000 0.000000 0.000000 0.000000 -0.037472 0.000000
# 6 0.000000 0.000000 0.000000 0.000000 0.000000 0.016425
#
#
# Mechanical properties :
#
#
# Convention : Reuss Voigt Hill
#
# Bulk Modulus (GPa) = 53.97584 59.83843 56.90714
# Shear Modulus (GPa) = 157.42090 44.00470 100.71280
#
# Velocity S-wave (km/s) = 7.56026 3.99719 6.04711
# Velocity P-wave (km/s) = 9.78816 6.55973 8.33181
#
# Compressibility (1/GPa) = 0.01852681
#
# Stress axis : x y z
#
# Youngs Moduli (GPa) = 189.48135 126.09063 119.18833
#
# Poissons Ratio (x) = 0.22129 -0.01993
# Poissons Ratio (y) = 0.33254 -0.00619
# Poissons Ratio (z) = -0.03169 -0.00655
#
# Static dielectric constant tensor:
#      x y z
#    x 2.221870 0.000000 0.000000 
#    y 0.000000 2.307970 0.000000 
#    z 0.000000 0.000000 2.007740 
# 
# From -- ./inp_files/3413.got.cif
#   From: 2010.05.17/outbox.cif.g08.bks.cpg/sg55_2_cif.got.tgz:3413.got - 2010.06.03 13:27:54.
