data_PCOD9424662
_publ_section_title
;
Structure prediction by ZEFSAII (Michael W. Deem and Ramdas Pophale) SiO2 
 PCOD9424662
Probable space group: P C C A
;
_chemical_formula_sum "Si O2"
_cell_formula_units_Z 56
_cell_length_a 9.000000
_cell_length_b 15.000000
_cell_length_c 21.000000
_cell_angle_alpha 90.000000
_cell_angle_beta 90.000000
_cell_angle_gamma 90.000000
_cell_volume 2835.000000
_symmetry_space_group_name_H-M "P C C A"
_symmetry_group_IT_number 54
_symmetry_cell_setting 'orthorhombic'
loop_
_space_group_symop_operation_xyz
x,y,z
1/2-x,-y,z
1/2+x,-y,1/2-z
-x,y,1/2-z
-x,-y,-z
1/2+x,y,-z
1/2-x,y,1/2+z
x,-y,1/2+z
loop_
_atom_site_type_symbol
_atom_site_label
_atom_site_fract_x
_atom_site_fract_y
_atom_site_fract_z
Si Si1 0.500000 0.216098 0.250000
Si Si2 0.546148 0.318260 0.617001
Si Si3 0.600483 0.304820 0.123941
Si Si4 0.313481 0.098086 0.556376
Si Si5 0.070123 0.506423 0.430232
Si Si6 0.038493 0.199756 0.508194
Si Si7 0.500000 0.226265 0.750000
Si Si8 0.237579 0.103367 0.204398
O O1 0.569398 0.277874 0.196018
O O2 0.394224 0.151179 0.209936
O O3 0.723255 0.309160 0.618782
O O4 0.510712 0.422012 0.608808
O O5 0.509844 0.267632 0.550687
O O6 0.486425 0.281028 0.684265
O O7 0.535391 0.400543 0.103727
O O8 0.536808 0.235965 0.072185
O O9 0.465308 0.110414 0.519080
O O10 0.324923 0.111000 0.632602
O O11 0.205363 0.173734 0.527008
O O12 0.250000 0.000000 0.547394
O O13 0.250000 0.500000 0.435501
O O14 0.000000 0.500000 0.500000
O O15 0.638056 0.159195 0.747002
O O16 0.250000 0.000000 0.220801
#
# Coordination Sequence:
#
# PCOD9424662 Si02
#       8
#     4   8   8   8   8   8   4   8
#     4  12  23  43  64  90 128 168 208 253 311 374
#     4  11  23  40  65  92 127 160 203 255 310 366
#     4  11  23  40  65  92 127 160 203 255 310 366
#     4  11  24  39  59  92 123 157 206 258 307 363
#     4  10  22  41  64  96 126 158 204 255 306 372
#     4  12  21  39  64  88 122 160 198 255 311 362
#     4  12  23  43  64  90 128 168 208 253 311 374
#     4  11  24  41  63  92 125 165 212 262 309 367
#
# _framework density 19.753086
#
# number of rings (size 3 to 8) (size 9 to 14) (size 15 to 20)
#    0.000    0.857    7.143    0.857    0.000    0.571 
#    2.571    1.429    0.000    0.000    0.000    0.000 
#    0.000    0.000    0.000    0.000    0.000    0.000 
#
# Total GULP energy -312322.962564 kJ/mol
# GULP energy per Si atom -5577.195760 kJ/mol
# Density = 1.970813 g / cm^3
# Si number density = 19.753086 Si / 1000 Ang^3
#
#
#
# Elastic Constant Matrix: (Units=GPa)
#
#
# Indices 1 2 3 4 5 6 
#
# 1 21.0486 10.7794 1.6088 0.0000 0.0000 0.0000
# 2 10.7794 94.2173 45.1180 0.0000 0.0000 0.0000
# 3 1.6088 45.1180 114.1779 0.0000 0.0000 0.0000
# 4 0.0000 0.0000 0.0000 42.3739 0.0000 0.0000
# 5 0.0000 0.0000 0.0000 0.0000 18.7028 0.0000
# 6 0.0000 0.0000 0.0000 0.0000 0.0000 18.5445
#
#
#
# Elastic Compliance Matrix: (Units=1/GPa)
#
#
# Indices 1 2 3 4 5 6 
#
# 1 0.050816 -0.006748 0.001950 0.000000 0.000000 0.000000
# 2 -0.006748 0.013987 -0.005432 0.000000 0.000000 0.000000
# 3 0.001950 -0.005432 0.010877 0.000000 0.000000 0.000000
# 4 0.000000 0.000000 0.000000 0.023599 0.000000 0.000000
# 5 0.000000 0.000000 0.000000 0.000000 0.053468 0.000000
# 6 0.000000 0.000000 0.000000 0.000000 0.000000 0.053924
#
#
# Mechanical properties :
#
#
# Convention : Reuss Voigt Hill
#
# Bulk Modulus (GPa) = 18.10899 38.27292 28.19096
# Shear Modulus (GPa) = 20.36349 27.38674 23.87511
#
# Velocity S-wave (km/s) = 3.21425 3.72755 3.48038
# Velocity P-wave (km/s) = 4.79195 6.15986 5.51845
#
# Compressibility (1/GPa) = 0.05522118
#
# Stress axis : x y z
#
# Youngs Moduli (GPa) = 19.67898 71.49501 91.93506
#
# Poissons Ratio (x) = 0.48244 -0.17931
# Poissons Ratio (y) = 0.13279 0.49939
# Poissons Ratio (z) = -0.03838 0.38836
#
# Static dielectric constant tensor:
#      x y z
#    x 1.736840 0.000000 0.000000 
#    y 0.000000 1.709890 0.000000 
#    z 0.000000 0.000000 1.579710 
# 
# From -- ./inp_files/20579.got.cif
#   From: 2010.05.17/outbox.ucp.g08.bks.cvg/sg54_11_cif.got.tgz:20579.got - 2010.06.11 16:34:40.
