data_PCOD9424297
_publ_section_title
;
Structure prediction by ZEFSAII (Michael W. Deem and Ramdas Pophale) SiO2 
 PCOD9424297
Probable space group: P C C A
;
_chemical_formula_sum "Si O2"
_cell_formula_units_Z 32
_cell_length_a 10.909931
_cell_length_b 7.490737
_cell_length_c 17.122876
_cell_angle_alpha 90.000000
_cell_angle_beta 90.000000
_cell_angle_gamma 90.000000
_cell_volume 1399.340052
_symmetry_space_group_name_H-M "P C C A"
_symmetry_group_IT_number 54
_symmetry_cell_setting 'orthorhombic'
loop_
_space_group_symop_operation_xyz
x,y,z
1/2-x,-y,z
1/2+x,-y,1/2-z
-x,y,1/2-z
-x,-y,-z
1/2+x,y,-z
1/2-x,y,1/2+z
x,-y,1/2+z
loop_
_atom_site_type_symbol
_atom_site_label
_atom_site_fract_x
_atom_site_fract_y
_atom_site_fract_z
Si Si1 0.935198 0.303999 0.824796
Si Si2 0.310474 0.804925 0.214602
Si Si3 0.122506 0.886722 0.013042
Si Si4 0.957889 0.313705 0.134423
O O1 0.800070 0.333158 0.792192
O O2 0.012985 0.478649 0.847979
O O3 0.000000 0.211417 0.750000
O O4 0.903247 0.198173 0.902841
O O5 0.407903 0.777429 0.144764
O O6 0.379491 0.767572 0.295077
O O7 0.250000 0.000000 0.214177
O O8 0.111045 0.734782 0.945466
O O9 0.250000 0.000000 0.007656
O O10 0.000000 0.000000 0.000000
#
# Coordination Sequence:
#
# PCOD9424297 Si02
#       4
#     8   8   8   8
#     4  12  26  46  75 110 154 196 256 316 391 452
#     4  11  24  44  73 109 151 195 252 320 380 462
#     4  12  28  51  75 114 152 205 258 318 384 461
#     4  11  25  47  75 108 150 200 257 312 390 456
#
# _framework density 22.867923999999999
#
# number of rings (size 3 to 8) (size 9 to 14) (size 15 to 20)
#    0.000    0.500    2.500    6.000   10.500    0.000 
#    0.000    2.500    0.000    0.000    0.000    0.000 
#    0.000    0.000    0.000    0.000    0.000    0.000 
#
# Total GULP energy -178776.488516 kJ/mol
# GULP energy per Si atom -5586.765266 kJ/mol
# Density = 2.281588 g / cm^3
# Si number density = 22.867924 Si / 1000 Ang^3
#
#
#
# Elastic Constant Matrix: (Units=GPa)
#
#
# Indices 1 2 3 4 5 6 
#
# 1 156.3189 44.6868 76.1200 0.0000 0.0000 0.0000
# 2 44.6868 73.4794 38.3299 0.0000 0.0000 0.0000
# 3 76.1200 38.3299 160.0187 0.0000 0.0000 0.0000
# 4 0.0000 0.0000 0.0000 19.9200 0.0000 0.0000
# 5 0.0000 0.0000 0.0000 0.0000 24.4775 0.0000
# 6 0.0000 0.0000 0.0000 0.0000 0.0000 49.9058
#
#
#
# Elastic Compliance Matrix: (Units=1/GPa)
#
#
# Indices 1 2 3 4 5 6 
#
# 1 0.009155 -0.003767 -0.003453 0.000000 0.000000 0.000000
# 2 -0.003767 0.017102 -0.002305 0.000000 0.000000 0.000000
# 3 -0.003453 -0.002305 0.008444 0.000000 0.000000 0.000000
# 4 0.000000 0.000000 0.000000 0.050201 0.000000 0.000000
# 5 0.000000 0.000000 0.000000 0.000000 0.040854 0.000000
# 6 0.000000 0.000000 0.000000 0.000000 0.000000 0.020038
#
#
# Mechanical properties :
#
#
# Convention : Reuss Voigt Hill
#
# Bulk Modulus (GPa) = 63.88658 78.67671 71.28165
# Shear Modulus (GPa) = 29.40134 34.23935 31.82035
#
# Velocity S-wave (km/s) = 3.58956 3.87365 3.73431
# Velocity P-wave (km/s) = 6.72144 7.38149 7.05918
#
# Compressibility (1/GPa) = 0.01565274
#
# Stress axis : x y z
#
# Youngs Moduli (GPa) = 109.22563 58.47185 118.42910
#
# Poissons Ratio (x) = 0.22024 0.40892
# Poissons Ratio (y) = 0.41142 0.27295
# Poissons Ratio (z) = 0.37715 0.13476
#
# Static dielectric constant tensor:
#      x y z
#    x 1.911340 0.000000 0.000000 
#    y 0.000000 1.896300 0.000000 
#    z 0.000000 0.000000 2.023780 
# 
# From -- ./inp_files/17004.got.cif
#   From: 2010.05.17/outbox.cif.g08.bks.cpg/sg54_9_cif.got.tgz:17004.got - 2010.06.03 13:09:01.
