data_PCOD9424778
_publ_section_title
;
Structure prediction by ZEFSAII (Michael W. Deem and Ramdas Pophale) SiO2 
 PCOD9424778
Probable space group: P B A M
;
_chemical_formula_sum "Si O2"
_cell_formula_units_Z 64
_cell_length_a 22.838881
_cell_length_b 21.195121
_cell_length_c 8.820663
_cell_angle_alpha 90.000000
_cell_angle_beta 90.000000
_cell_angle_gamma 90.000000
_cell_volume 4269.843445
_symmetry_space_group_name_H-M "P B A M"
_symmetry_group_IT_number 55
_symmetry_cell_setting 'orthorhombic'
loop_
_space_group_symop_operation_xyz
x,y,z
-x,-y,z
1/2+x,1/2-y,-z
1/2-x,1/2+y,-z
-x,-y,-z
x,y,-z
1/2-x,1/2+y,z
1/2+x,1/2-y,z
loop_
_atom_site_type_symbol
_atom_site_label
_atom_site_fract_x
_atom_site_fract_y
_atom_site_fract_z
Si Si1 0.253283 0.148398 0.175068
Si Si2 0.743176 0.155646 0.817257
Si Si3 0.648369 0.930780 0.681676
Si Si4 0.662391 0.266760 0.680531
Si Si5 0.440565 0.180251 0.680165
Si Si6 0.850345 0.575308 0.317816
Si Si7 0.847208 0.236177 0.175101
Si Si8 0.431549 0.815089 0.819279
O O1 0.290691 0.091966 0.246041
O O2 0.195139 0.170523 0.262189
O O3 0.298809 0.207593 0.181145
O O4 0.239544 0.136811 0.000000
O O5 0.704305 0.210226 0.739359
O O6 0.713014 0.093216 0.752262
O O7 0.810357 0.173734 0.782432
O O8 0.736505 0.159035 0.000000
O O9 0.654078 0.925707 0.500000
O O10 0.597363 0.881595 0.726460
O O11 0.634621 0.003055 0.719164
O O12 0.658720 0.265878 0.500000
O O13 0.600694 0.247203 0.753643
O O14 0.450566 0.177467 0.500000
O O15 0.400109 0.240219 0.722170
O O16 0.501659 0.182517 0.766507
O O17 0.848934 0.582870 0.500000
O O18 0.897062 0.624412 0.249098
O O19 0.866434 0.231090 0.000000
O O20 0.426082 0.815964 0.000000
#
# Coordination Sequence:
#
# PCOD9424778 Si02
#       8
#     8   8   8   8   8   8   8   8
#     4   9  16  27  44  64  85 108 137 175 218 261
#     4   9  16  27  43  63  85 108 138 176 219 262
#     4   9  19  32  45  62  86 117 150 184 217 254
#     4  10  17  27  44  63  83 107 138 175 218 262
#     4  10  19  31  45  61  83 113 149 183 217 255
#     4  10  19  31  45  62  86 116 151 185 217 253
#     4   8  15  27  42  61  83 106 134 172 217 260
#     4  11  21  32  44  60  85 115 149 184 219 257
#
# _framework density 14.98884
#
# number of rings (size 3 to 8) (size 9 to 14) (size 15 to 20)
#    0.000    2.500    0.000    6.000    0.000    5.500 
#    0.000    2.500    0.000    0.000    0.000    0.000 
#    0.000    1.000    0.000   10.500    0.000    6.250 
#
# Total GULP energy -356388.424232 kJ/mol
# GULP energy per Si atom -5568.569129 kJ/mol
# Density = 1.495472 g / cm^3
# Si number density = 14.988840 Si / 1000 Ang^3
#
#
#
# Elastic Constant Matrix: (Units=GPa)
#
#
# Indices 1 2 3 4 5 6 
#
# 1 92.8731 49.2968 50.7445 0.0000 0.0000 0.0000
# 2 49.2968 24.2065 26.2264 0.0000 0.0000 0.0000
# 3 50.7445 26.2264 82.4173 0.0000 0.0000 0.0000
# 4 0.0000 0.0000 0.0000 12.8247 0.0000 0.0000
# 5 0.0000 0.0000 0.0000 0.0000 24.9624 0.0000
# 6 0.0000 0.0000 0.0000 0.0000 0.0000 15.4747
#
#
#
# Elastic Compliance Matrix: (Units=1/GPa)
#
#
# Indices 1 2 3 4 5 6 
#
# 1 -0.130690 0.273140 -0.006452 0.000000 0.000000 0.000000
# 2 0.273140 -0.507813 -0.006579 0.000000 0.000000 0.000000
# 3 -0.006452 -0.006579 0.018199 0.000000 0.000000 0.000000
# 4 0.000000 0.000000 0.000000 0.077975 0.000000 0.000000
# 5 0.000000 0.000000 0.000000 0.000000 0.040060 0.000000
# 6 0.000000 0.000000 0.000000 0.000000 0.000000 0.064622
#
#
# Mechanical properties :
#
#
# Convention : Reuss Voigt Hill
#
# Bulk Modulus (GPa) = -9.99157 50.22581 20.11712
# Shear Modulus (GPa) = -5.04425 15.53429 5.24502
#
# Velocity S-wave (km/s) = -1.83648 3.22279 1.87267
# Velocity P-wave (km/s) = 3.34325 6.88695 4.25751
#
# Compressibility (1/GPa) = -0.10008434
#
# Stress axis : x y z
#
# Youngs Moduli (GPa) = -7.65171 -1.96923 54.94738
#
# Poissons Ratio (x) = 0.53788 0.35449
# Poissons Ratio (y) = 2.08999 0.36152
# Poissons Ratio (z) = -0.04937 -0.01296
#
# Static dielectric constant tensor:
#      x y z
#    x 1.505230 0.000000 0.000000 
#    y 0.000000 1.509340 0.000000 
#    z 0.000000 0.000000 1.502140 
# 
# From -- ./inp_files/9137.got.cif
#   From: 2010.05.17/outbox.cif.g08.bks.cpg/sg55_5_cif.got.tgz:9137.got - 2010.06.03 13:27:54.
