data_PCOD9424450
_publ_section_title
;
Structure prediction by ZEFSAII (Michael W. Deem and Ramdas Pophale) SiO2 
 PCOD9424450
Probable space group: P C C A
;
_chemical_formula_sum "Si O2"
_cell_formula_units_Z 32
_cell_length_a 12.152240
_cell_length_b 6.485445
_cell_length_c 14.947501
_cell_angle_alpha 90.000000
_cell_angle_beta 90.000000
_cell_angle_gamma 90.000000
_cell_volume 1178.052675
_symmetry_space_group_name_H-M "P C C A"
_symmetry_group_IT_number 54
_symmetry_cell_setting 'orthorhombic'
loop_
_space_group_symop_operation_xyz
x,y,z
1/2-x,-y,z
1/2+x,-y,1/2-z
-x,y,1/2-z
-x,-y,-z
1/2+x,y,-z
1/2-x,y,1/2+z
x,-y,1/2+z
loop_
_atom_site_type_symbol
_atom_site_label
_atom_site_fract_x
_atom_site_fract_y
_atom_site_fract_z
Si Si1 0.846637 0.220402 0.329155
Si Si2 0.250000 0.000000 0.836239
Si Si3 0.474417 0.891705 0.896543
Si Si4 0.750000 0.500000 0.468617
Si Si5 0.000000 0.563333 0.250000
Si Si6 0.500000 0.500000 0.000000
O O1 0.784551 0.174082 0.237019
O O2 0.762538 0.300002 0.403478
O O3 0.926067 0.415506 0.311333
O O4 0.927047 0.033738 0.357782
O O5 0.355933 0.994319 0.898702
O O6 0.449437 0.717487 0.820860
O O7 0.501770 0.753330 0.981626
O O8 0.865611 0.503946 0.517945
#
# Coordination Sequence:
#
# PCOD9424450 Si02
#       6
#     8   4   8   4   4   4
#     4  12  24  48  80 121 161 215 274 364 425 496
#     4  12  22  44  82 120 156 202 284 356 414 498
#     4  12  26  48  78 122 168 212 281 348 431 510
#     4  12  28  50  80 112 172 222 272 334 422 506
#     4  12  20  48  80 116 160 212 276 352 428 504
#     4  12  30  52  78 114 170 230 274 338 426 518
#
# _framework density 27.16347
#
# number of rings (size 3 to 8) (size 9 to 14) (size 15 to 20)
#    0.000    0.000    7.500    3.000    0.000    5.000 
#    0.000    1.250    0.000    0.000    0.000    0.000 
#    0.000    0.000    0.000    0.000    0.000    0.000 
#
# Total GULP energy -178210.122328 kJ/mol
# GULP energy per Si atom -5569.066323 kJ/mol
# Density = 2.710164 g / cm^3
# Si number density = 27.163470 Si / 1000 Ang^3
#
#
#
# Elastic Constant Matrix: (Units=GPa)
#
#
# Indices 1 2 3 4 5 6 
#
# 1 229.5686 69.7468 45.1109 0.0000 0.0000 0.0000
# 2 69.7468 114.3455 37.0442 0.0000 0.0000 0.0000
# 3 45.1109 37.0442 76.9038 0.0000 0.0000 0.0000
# 4 0.0000 0.0000 0.0000 62.8265 0.0000 0.0000
# 5 0.0000 0.0000 0.0000 0.0000 10.0555 0.0000
# 6 0.0000 0.0000 0.0000 0.0000 0.0000 -31.5468
#
#
#
# Elastic Compliance Matrix: (Units=1/GPa)
#
#
# Indices 1 2 3 4 5 6 
#
# 1 0.005580 -0.002776 -0.001936 0.000000 0.000000 0.000000
# 2 -0.002776 0.011744 -0.004028 0.000000 0.000000 0.000000
# 3 -0.001936 -0.004028 0.016079 0.000000 0.000000 0.000000
# 4 0.000000 0.000000 0.000000 0.015917 0.000000 0.000000
# 5 0.000000 0.000000 0.000000 0.000000 0.099448 0.000000
# 6 0.000000 0.000000 0.000000 0.000000 0.000000 -0.031699
#
#
# Mechanical properties :
#
#
# Convention : Reuss Voigt Hill
#
# Bulk Modulus (GPa) = 62.80618 80.51351 71.65984
# Shear Modulus (GPa) = 35.75078 26.19479 30.97279
#
# Velocity S-wave (km/s) = 3.63179 3.10875 3.38040
# Velocity P-wave (km/s) = 6.38422 6.52614 6.45557
#
# Compressibility (1/GPa) = 0.01592200
#
# Stress axis : x y z
#
# Youngs Moduli (GPa) = 179.21484 85.14971 62.19218
#
# Poissons Ratio (x) = 0.23641 0.12039
# Poissons Ratio (y) = 0.49758 0.25054
# Poissons Ratio (z) = 0.34691 0.34302
#
# Static dielectric constant tensor:
#      x y z
#    x 1.692290 0.000000 0.000000 
#    y 0.000000 2.152330 0.000000 
#    z 0.000000 0.000000 2.325610 
# 
# From -- ./inp_files/20921.got.cif
#   From: 2010.05.17/outbox.cif.g08.bks.cpg/sg54_11_cif.got.tgz:20921.got - 2010.06.03 13:09:01.
