data_PCOD9424897
_publ_section_title
;
Structure prediction by ZEFSAII (Michael W. Deem and Ramdas Pophale) SiO2 
 PCOD9424897
Probable space group: P B A M
;
_chemical_formula_sum "Si O2"
_cell_formula_units_Z 64
_cell_length_a 20.208729
_cell_length_b 20.100915
_cell_length_c 7.373478
_cell_angle_alpha 90.000000
_cell_angle_beta 90.000000
_cell_angle_gamma 90.000000
_cell_volume 2995.209579
_symmetry_space_group_name_H-M "P B A M"
_symmetry_group_IT_number 55
_symmetry_cell_setting 'orthorhombic'
loop_
_space_group_symop_operation_xyz
x,y,z
-x,-y,z
1/2+x,1/2-y,-z
1/2-x,1/2+y,-z
-x,-y,-z
x,y,-z
1/2-x,1/2+y,z
1/2+x,1/2-y,z
loop_
_atom_site_type_symbol
_atom_site_label
_atom_site_fract_x
_atom_site_fract_y
_atom_site_fract_z
Si Si1 0.384389 0.524244 0.720727
Si Si2 0.594312 0.960306 0.785099
Si Si3 0.037165 0.397852 0.219995
Si Si4 0.459681 0.654478 0.277676
Si Si5 0.761994 0.490927 0.715987
Si Si6 0.897327 0.128710 0.720458
Si Si7 0.627878 0.225860 0.707744
Si Si8 0.749655 0.142985 0.722012
O O1 0.386269 0.524503 0.500000
O O2 0.433504 0.582057 0.778520
O O3 0.308473 0.537054 0.779226
O O4 0.401228 0.449006 0.775128
O O5 0.539185 0.907949 0.721384
O O6 0.671612 0.950320 0.752988
O O7 0.573864 0.034150 0.719586
O O8 0.584907 0.963033 0.000000
O O9 0.075040 0.334145 0.291658
O O10 0.040400 0.393875 0.000000
O O11 0.459787 0.656316 0.500000
O O12 0.535610 0.664365 0.220372
O O13 0.408980 0.710528 0.212468
O O14 0.756514 0.495508 0.500000
O O15 0.768319 0.567537 0.781181
O O16 0.896494 0.129342 0.500000
O O17 0.825531 0.155485 0.777024
O O18 0.643999 0.243852 0.500000
O O19 0.695088 0.195144 0.787221
O O20 0.747281 0.142871 0.500000
#
# Coordination Sequence:
#
# PCOD9424897 Si02
#       8
#     8   8   8   8   8   8   8   8
#     4   8  14  24  40  63  90 117 147 186 229 268
#     4   9  17  29  45  65  88 114 149 189 220 252
#     4   9  18  31  45  62  86 118 152 183 218 261
#     4   9  16  25  39  63  91 119 150 186 224 265
#     4   9  15  25  43  66  91 116 142 176 225 273
#     4   8  13  23  40  60  86 119 152 181 218 267
#     4  10  18  28  43  65  93 118 146 184 226 267
#     4   8  14  24  38  59  86 116 142 174 220 264
#
# _framework density 21.367453999999999
#
# number of rings (size 3 to 8) (size 9 to 14) (size 15 to 20)
#    0.000    3.250    1.250    2.625    0.000    2.000 
#    0.000    2.500    0.000    5.250    0.000    4.375 
#    0.000    5.000    0.000    0.000    0.000    0.000 
#
# Total GULP energy -356869.650006 kJ/mol
# GULP energy per Si atom -5576.088281 kJ/mol
# Density = 2.131882 g / cm^3
# Si number density = 21.367454 Si / 1000 Ang^3
#
#
#
# Elastic Constant Matrix: (Units=GPa)
#
#
# Indices 1 2 3 4 5 6 
#
# 1 184.4448 51.2132 -0.3206 0.0000 0.0000 0.0000
# 2 51.2132 52.2181 -0.6892 0.0000 0.0000 0.0000
# 3 -0.3206 -0.6892 73.5005 0.0000 0.0000 0.0000
# 4 0.0000 0.0000 0.0000 356.2721 0.0000 0.0000
# 5 0.0000 0.0000 0.0000 0.0000 1197.2440 0.0000
# 6 0.0000 0.0000 0.0000 0.0000 0.0000 29.6182
#
#
#
# Elastic Compliance Matrix: (Units=1/GPa)
#
#
# Indices 1 2 3 4 5 6 
#
# 1 0.007451 -0.007308 -0.000036 0.000000 0.000000 0.000000
# 2 -0.007308 0.026320 0.000215 0.000000 0.000000 0.000000
# 3 -0.000036 0.000215 0.013607 0.000000 0.000000 0.000000
# 4 0.000000 0.000000 0.000000 0.002807 0.000000 0.000000
# 5 0.000000 0.000000 0.000000 0.000000 0.000835 0.000000
# 6 0.000000 0.000000 0.000000 0.000000 0.000000 0.033763
#
#
# Mechanical properties :
#
#
# Convention : Reuss Voigt Hill
#
# Bulk Modulus (GPa) = 30.19272 45.61893 37.90583
# Shear Modulus (GPa) = 45.42095 333.95753 189.68924
#
# Velocity S-wave (km/s) = 4.61554 12.51527 9.43226
# Velocity P-wave (km/s) = 6.52420 15.17362 11.67912
#
# Compressibility (1/GPa) = 0.03312056
#
# Stress axis : x y z
#
# Youngs Moduli (GPa) = 134.21547 37.99331 73.49045
#
# Poissons Ratio (x) = 0.27765 0.00265
# Poissons Ratio (y) = 0.98082 -0.01580
# Poissons Ratio (z) = 0.00484 -0.00817
#
# Static dielectric constant tensor:
#      x y z
#    x 1.809420 0.000000 0.000000 
#    y 0.000000 1.723060 0.000000 
#    z 0.000000 0.000000 1.826460 
# 
# From -- ./inp_files/9150.got.cif
#   From: 2010.05.17/outbox.cif.g08.bks.cpg/sg55_5_cif.got.tgz:9150.got - 2010.06.03 13:27:54.
