data_PCOD9424388
_publ_section_title
;
Structure prediction by ZEFSAII (Michael W. Deem and Ramdas Pophale) SiO2 
 PCOD9424388
Probable space group: P C C A
;
_chemical_formula_sum "Si O2"
_cell_formula_units_Z 32
_cell_length_a 13.216058
_cell_length_b 9.003139
_cell_length_c 12.027713
_cell_angle_alpha 90.000000
_cell_angle_beta 90.000000
_cell_angle_gamma 90.000000
_cell_volume 1431.129546
_symmetry_space_group_name_H-M "P C C A"
_symmetry_group_IT_number 54
_symmetry_cell_setting 'orthorhombic'
loop_
_space_group_symop_operation_xyz
x,y,z
1/2-x,-y,z
1/2+x,-y,1/2-z
-x,y,1/2-z
-x,-y,-z
1/2+x,y,-z
1/2-x,y,1/2+z
x,-y,1/2+z
loop_
_atom_site_type_symbol
_atom_site_label
_atom_site_fract_x
_atom_site_fract_y
_atom_site_fract_z
Si Si1 0.739590 0.255995 0.430680
Si Si2 0.500000 0.802934 0.250000
Si Si3 0.086801 0.433604 0.419528
Si Si4 0.600861 0.032365 0.929941
Si Si5 0.250000 0.500000 0.753854
O O1 0.676740 0.367017 0.506944
O O2 0.836687 0.171403 0.481650
O O3 0.767466 0.355251 0.323413
O O4 0.664481 0.117111 0.415769
O O5 0.461633 0.699186 0.348667
O O6 0.419254 0.910083 0.194177
O O7 0.148906 0.528224 0.327474
O O8 0.000000 0.500000 0.500000
O O9 0.500000 0.000000 0.000000
#
# Coordination Sequence:
#
# PCOD9424388 Si02
#       5
#     8   4   8   8   4
#     4  11  26  48  74 109 146 201 256 312 393 457
#     4  12  24  48  72 106 152 196 256 314 384 464
#     4  12  27  45  75 109 154 196 259 316 387 460
#     4  11  25  48  74 106 151 197 252 319 385 462
#     4  12  26  48  76 108 154 200 262 324 386 464
#
# _framework density 22.359960999999998
#
# number of rings (size 3 to 8) (size 9 to 14) (size 15 to 20)
#    0.000    0.500    5.000    2.250    3.500    4.000 
#    0.000    0.000    0.000    0.000    0.000    0.000 
#    0.000    0.000    0.000    0.000    0.000    0.000 
#
# Total GULP energy -178706.542090 kJ/mol
# GULP energy per Si atom -5584.579440 kJ/mol
# Density = 2.230907 g / cm^3
# Si number density = 22.359961 Si / 1000 Ang^3
#
#
#
# Elastic Constant Matrix: (Units=GPa)
#
#
# Indices 1 2 3 4 5 6 
#
# 1 141.3526 77.1844 57.6441 0.0000 0.0000 0.0000
# 2 77.1844 123.8297 59.7374 0.0000 0.0000 0.0000
# 3 57.6441 59.7374 99.9353 0.0000 0.0000 0.0000
# 4 0.0000 0.0000 0.0000 27.3139 0.0000 0.0000
# 5 0.0000 0.0000 0.0000 0.0000 50.5610 0.0000
# 6 0.0000 0.0000 0.0000 0.0000 0.0000 46.0812
#
#
#
# Elastic Compliance Matrix: (Units=1/GPa)
#
#
# Indices 1 2 3 4 5 6 
#
# 1 0.011444 -0.005549 -0.003284 0.000000 0.000000 0.000000
# 2 -0.005549 0.014038 -0.005191 0.000000 0.000000 0.000000
# 3 -0.003284 -0.005191 0.015004 0.000000 0.000000 0.000000
# 4 0.000000 0.000000 0.000000 0.036611 0.000000 0.000000
# 5 0.000000 0.000000 0.000000 0.000000 0.019778 0.000000
# 6 0.000000 0.000000 0.000000 0.000000 0.000000 0.021701
#
#
# Mechanical properties :
#
#
# Convention : Reuss Voigt Hill
#
# Bulk Modulus (GPa) = 80.39731 83.80548 82.10140
# Shear Modulus (GPa) = 33.16320 36.16133 34.66226
#
# Velocity S-wave (km/s) = 3.85535 4.02585 3.94152
# Velocity P-wave (km/s) = 7.47344 7.69230 7.58366
#
# Compressibility (1/GPa) = 0.01243823
#
# Stress axis : x y z
#
# Youngs Moduli (GPa) = 87.38566 71.23340 66.64984
#
# Poissons Ratio (x) = 0.39525 0.21888
# Poissons Ratio (y) = 0.48487 0.34598
# Poissons Ratio (z) = 0.28698 0.36978
#
# Static dielectric constant tensor:
#      x y z
#    x 1.464980 0.000000 0.000000 
#    y 0.000000 1.903980 0.000000 
#    z 0.000000 0.000000 1.899350 
# 
# From -- ./inp_files/7977.got.cif
#   From: 2010.05.17/outbox.cif.g08.bks.cpg/sg54_4_cif.got.tgz:7977.got - 2010.06.03 13:09:01.
