data_PCOD9424513
_publ_section_title
;
Structure prediction by ZEFSAII (Michael W. Deem and Ramdas Pophale) SiO2 
 PCOD9424513
Probable space group: P C C A
;
_chemical_formula_sum "Si O2"
_cell_formula_units_Z 32
_cell_length_a 22.055191
_cell_length_b 5.340431
_cell_length_c 10.308678
_cell_angle_alpha 90.000000
_cell_angle_beta 90.000000
_cell_angle_gamma 90.000000
_cell_volume 1214.199657
_symmetry_space_group_name_H-M "P C C A"
_symmetry_group_IT_number 54
_symmetry_cell_setting 'orthorhombic'
loop_
_space_group_symop_operation_xyz
x,y,z
1/2-x,-y,z
1/2+x,-y,1/2-z
-x,y,1/2-z
-x,-y,-z
1/2+x,y,-z
1/2-x,y,1/2+z
x,-y,1/2+z
loop_
_atom_site_type_symbol
_atom_site_label
_atom_site_fract_x
_atom_site_fract_y
_atom_site_fract_z
Si Si1 0.250000 0.000000 0.769764
Si Si2 0.250000 0.500000 0.439520
Si Si3 0.464675 0.153596 0.888105
Si Si4 0.381196 0.001940 0.192521
Si Si5 0.111486 0.502032 0.041083
O O1 0.309300 0.003491 0.684309
O O2 0.251372 0.750028 0.853961
O O3 0.316705 0.508014 0.506722
O O4 0.599602 0.243215 0.887367
O O5 0.402098 0.018411 0.841860
O O6 0.437973 0.424823 0.930524
O O7 0.500000 0.000000 0.000000
O O8 0.500000 0.850643 0.250000
O O9 0.401042 0.266287 0.137247
#
# Coordination Sequence:
#
# PCOD9424513 Si02
#       5
#     4   4   8   8   8
#     4  12  24  46  82 124 172 224 284 356 440 514
#     4  12  24  44  84 124 174 222 282 360 438 524
#     4  12  28  57  86 124 171 233 292 358 429 522
#     4  12  27  51  82 122 169 226 284 360 430 517
#     4  12  27  51  82 124 169 225 286 358 438 512
#
# _framework density 26.354808999999999
#
# number of rings (size 3 to 8) (size 9 to 14) (size 15 to 20)
#    0.000    0.000    5.000    4.500    0.000    1.000 
#    4.500    0.000    0.000    0.000    0.000    0.000 
#    0.000    0.000    0.000    0.000    0.000    0.000 
#
# Total GULP energy -179186.157591 kJ/mol
# GULP energy per Si atom -5599.567425 kJ/mol
# Density = 2.629482 g / cm^3
# Si number density = 26.354809 Si / 1000 Ang^3
#
#
#
# Elastic Constant Matrix: (Units=GPa)
#
#
# Indices 1 2 3 4 5 6 
#
# 1 141.3637 32.3861 52.1673 0.0000 0.0000 0.0000
# 2 32.3861 206.3548 82.9048 0.0000 0.0000 0.0000
# 3 52.1673 82.9048 125.1832 0.0000 0.0000 0.0000
# 4 0.0000 0.0000 0.0000 59.0410 0.0000 0.0000
# 5 0.0000 0.0000 0.0000 0.0000 66.5045 0.0000
# 6 0.0000 0.0000 0.0000 0.0000 0.0000 49.7019
#
#
#
# Elastic Compliance Matrix: (Units=1/GPa)
#
#
# Indices 1 2 3 4 5 6 
#
# 1 0.008362 0.000119 -0.003564 0.000000 0.000000 0.000000
# 2 0.000119 0.006605 -0.004424 0.000000 0.000000 0.000000
# 3 -0.003564 -0.004424 0.012403 0.000000 0.000000 0.000000
# 4 0.000000 0.000000 0.000000 0.016937 0.000000 0.000000
# 5 0.000000 0.000000 0.000000 0.000000 0.015037 0.000000
# 6 0.000000 0.000000 0.000000 0.000000 0.000000 0.020120
#
#
# Mechanical properties :
#
#
# Convention : Reuss Voigt Hill
#
# Bulk Modulus (GPa) = 85.95962 89.75754 87.85858
# Shear Modulus (GPa) = 50.46586 55.41239 52.93912
#
# Velocity S-wave (km/s) = 4.38066 4.59034 4.48672
# Velocity P-wave (km/s) = 7.63374 7.88836 7.76210
#
# Compressibility (1/GPa) = 0.01163337
#
# Stress axis : x y z
#
# Youngs Moduli (GPa) = 119.59332 151.41056 80.62536
#
# Poissons Ratio (x) = -0.01808 0.28732
# Poissons Ratio (y) = -0.01428 0.35667
# Poissons Ratio (z) = 0.42618 0.66980
#
# Static dielectric constant tensor:
#      x y z
#    x 2.241890 0.000000 0.000000 
#    y 0.000000 1.921090 0.000000 
#    z 0.000000 0.000000 2.142470 
# 
# From -- ./inp_files/13766.got.cif
#   From: 2010.05.17/outbox.cif.g08.bks.cpg/sg54_7_cif.got.tgz:13766.got - 2010.06.03 13:09:01.
