data_PCOD9424473
_publ_section_title
;
Structure prediction by ZEFSAII (Michael W. Deem and Ramdas Pophale) SiO2 
 PCOD9424473
Probable space group: P C C A
;
_chemical_formula_sum "Si O2"
_cell_formula_units_Z 48
_cell_length_a 8.739547
_cell_length_b 13.968080
_cell_length_c 19.138521
_cell_angle_alpha 90.000000
_cell_angle_beta 90.000000
_cell_angle_gamma 90.000000
_cell_volume 2336.329050
_symmetry_space_group_name_H-M "P C C A"
_symmetry_group_IT_number 54
_symmetry_cell_setting 'orthorhombic'
loop_
_space_group_symop_operation_xyz
x,y,z
1/2-x,-y,z
1/2+x,-y,1/2-z
-x,y,1/2-z
-x,-y,-z
1/2+x,y,-z
1/2-x,y,1/2+z
x,-y,1/2+z
loop_
_atom_site_type_symbol
_atom_site_label
_atom_site_fract_x
_atom_site_fract_y
_atom_site_fract_z
Si Si1 0.870776 0.287257 0.921145
Si Si2 0.838208 0.598725 0.288603
Si Si3 0.924103 0.966985 0.571384
Si Si4 0.443843 0.132541 0.328786
Si Si5 0.356432 0.243061 0.794729
Si Si6 0.510209 0.255190 0.931015
O O1 0.868902 0.377673 0.869716
O O2 0.693282 0.258928 0.929870
O O3 0.967270 0.206992 0.878860
O O4 0.945826 0.298062 0.997103
O O5 0.750000 0.500000 0.280261
O O6 0.737565 0.683857 0.254209
O O7 0.000000 0.596808 0.250000
O O8 0.960434 0.855588 0.573980
O O9 0.750000 0.000000 0.564289
O O10 0.975877 0.028862 0.638123
O O11 0.000000 0.000000 0.500000
O O12 0.500000 0.137974 0.250000
O O13 0.266561 0.165415 0.322361
O O14 0.500000 0.203481 0.750000
O O15 0.431228 0.297243 0.861330
#
# Coordination Sequence:
#
# PCOD9424473 Si02
#       6
#     8   8   8   8   8   8
#     4  12  24  46  72 101 142 187 234 287 366 421
#     4  12  26  47  77 106 134 177 231 295 358 433
#     4  12  25  41  61  95 138 184 239 281 337 401
#     4  12  23  44  66  98 139 188 238 296 342 409
#     4  12  22  45  73 102 140 185 237 287 363 420
#     4  12  25  41  70 101 141 192 233 287 350 422
#
# _framework density 20.545051000000001
#
# number of rings (size 3 to 8) (size 9 to 14) (size 15 to 20)
#    0.000    0.000    8.333    2.500    0.000    0.667 
#    3.000    1.667    0.000    0.000    0.000    0.000 
#    0.000    0.000    0.000    0.000    0.000    0.000 
#
# Total GULP energy -268331.151829 kJ/mol
# GULP energy per Si atom -5590.232330 kJ/mol
# Density = 2.049829 g / cm^3
# Si number density = 20.545051 Si / 1000 Ang^3
#
#
#
# Elastic Constant Matrix: (Units=GPa)
#
#
# Indices 1 2 3 4 5 6 
#
# 1 150.7578 17.4441 57.0792 0.0000 0.0000 0.0000
# 2 17.4441 51.8557 0.8890 0.0000 0.0000 0.0000
# 3 57.0792 0.8890 157.0635 0.0000 0.0000 0.0000
# 4 0.0000 0.0000 0.0000 18.8953 0.0000 0.0000
# 5 0.0000 0.0000 0.0000 0.0000 45.9245 0.0000
# 6 0.0000 0.0000 0.0000 0.0000 0.0000 22.6734
#
#
#
# Elastic Compliance Matrix: (Units=1/GPa)
#
#
# Indices 1 2 3 4 5 6 
#
# 1 0.008041 -0.002655 -0.002907 0.000000 0.000000 0.000000
# 2 -0.002655 0.020163 0.000851 0.000000 0.000000 0.000000
# 3 -0.002907 0.000851 0.007419 0.000000 0.000000 0.000000
# 4 0.000000 0.000000 0.000000 0.052923 0.000000 0.000000
# 5 0.000000 0.000000 0.000000 0.000000 0.021775 0.000000
# 6 0.000000 0.000000 0.000000 0.000000 0.000000 0.044105
#
#
# Mechanical properties :
#
#
# Convention : Reuss Voigt Hill
#
# Bulk Modulus (GPa) = 38.16884 56.72240 47.44562
# Shear Modulus (GPa) = 28.97182 36.44961 32.71072
#
# Velocity S-wave (km/s) = 3.75928 4.21661 3.99450
# Velocity P-wave (km/s) = 6.12057 7.16765 6.66470
#
# Compressibility (1/GPa) = 0.02619938
#
# Stress axis : x y z
#
# Youngs Moduli (GPa) = 124.36106 49.59605 134.79693
#
# Poissons Ratio (x) = 0.13169 0.39189
# Poissons Ratio (y) = 0.33020 -0.11469
# Poissons Ratio (z) = 0.36155 -0.04220
#
# Static dielectric constant tensor:
#      x y z
#    x 1.740610 0.000000 0.000000 
#    y 0.000000 1.724520 0.000000 
#    z 0.000000 0.000000 1.685540 
# 
# From -- ./inp_files/16596.got.cif
#   From: 2010.05.17/outbox.cif.g08.bks.cpg/sg54_9_cif.got.tgz:16596.got - 2010.06.03 13:09:01.
