data_PCOD9424527
_publ_section_title
;
Structure prediction by ZEFSAII (Michael W. Deem and Ramdas Pophale) SiO2 
 PCOD9424527
Probable space group: P C C A
;
_chemical_formula_sum "Si O2"
_cell_formula_units_Z 32
_cell_length_a 16.064241
_cell_length_b 7.978965
_cell_length_c 10.967014
_cell_angle_alpha 90.000000
_cell_angle_beta 90.000000
_cell_angle_gamma 90.000000
_cell_volume 1405.708170
_symmetry_space_group_name_H-M "P C C A"
_symmetry_group_IT_number 54
_symmetry_cell_setting 'orthorhombic'
loop_
_space_group_symop_operation_xyz
x,y,z
1/2-x,-y,z
1/2+x,-y,1/2-z
-x,y,1/2-z
-x,-y,-z
1/2+x,y,-z
1/2-x,y,1/2+z
x,-y,1/2+z
loop_
_atom_site_type_symbol
_atom_site_label
_atom_site_fract_x
_atom_site_fract_y
_atom_site_fract_z
Si Si1 0.299955 0.326014 0.149678
Si Si2 0.971602 0.690261 0.496758
Si Si3 0.614349 0.126579 0.155554
Si Si4 0.500000 0.123632 0.750000
Si Si5 0.750000 0.000000 0.976264
O O1 0.250000 0.500000 0.146248
O O2 0.379982 0.320865 0.061022
O O3 0.333531 0.276241 0.283478
O O4 0.247616 0.166782 0.104624
O O5 0.000000 0.500000 0.500000
O O6 0.034941 0.796604 0.413051
O O7 0.981344 0.767702 0.631148
O O8 0.579416 0.000404 0.258495
O O9 0.670688 0.019735 0.064404
#
# Coordination Sequence:
#
# PCOD9424527 Si02
#       5
#     8   8   8   4   4
#     4  12  27  49  75 111 158 201 258 330 392 469
#     4  12  27  47  77 113 149 202 263 319 395 476
#     4  12  25  49  79 110 152 208 263 315 402 478
#     4  12  24  48  84 108 154 208 256 328 384 478
#     4  12  26  48  72 116 156 202 256 324 402 464
#
# _framework density 22.764327000000002
#
# number of rings (size 3 to 8) (size 9 to 14) (size 15 to 20)
#    0.000    0.000    5.000    4.500    3.500    5.000 
#    0.000    0.000    0.000    0.000    0.000    0.000 
#    0.000    0.000    0.000    0.000    0.000    0.000 
#
# Total GULP energy -179166.010310 kJ/mol
# GULP energy per Si atom -5598.937822 kJ/mol
# Density = 2.271251 g / cm^3
# Si number density = 22.764327 Si / 1000 Ang^3
#
#
#
# Elastic Constant Matrix: (Units=GPa)
#
#
# Indices 1 2 3 4 5 6 
#
# 1 106.2469 67.8489 47.6282 0.0000 0.0000 0.0000
# 2 67.8489 185.9985 63.5013 0.0000 0.0000 0.0000
# 3 47.6282 63.5013 116.2892 0.0000 0.0000 0.0000
# 4 0.0000 0.0000 0.0000 32.0042 0.0000 0.0000
# 5 0.0000 0.0000 0.0000 0.0000 20.0834 0.0000
# 6 0.0000 0.0000 0.0000 0.0000 0.0000 59.1597
#
#
#
# Elastic Compliance Matrix: (Units=1/GPa)
#
#
# Indices 1 2 3 4 5 6 
#
# 1 0.013303 -0.003678 -0.003440 0.000000 0.000000 0.000000
# 2 -0.003678 0.007625 -0.002657 0.000000 0.000000 0.000000
# 3 -0.003440 -0.002657 0.011459 0.000000 0.000000 0.000000
# 4 0.000000 0.000000 0.000000 0.031246 0.000000 0.000000
# 5 0.000000 0.000000 0.000000 0.000000 0.049792 0.000000
# 6 0.000000 0.000000 0.000000 0.000000 0.000000 0.016903
#
#
# Mechanical properties :
#
#
# Convention : Reuss Voigt Hill
#
# Bulk Modulus (GPa) = 77.90338 85.16570 81.53454
# Shear Modulus (GPa) = 32.43394 37.55321 34.99358
#
# Velocity S-wave (km/s) = 3.77871 4.06600 3.92498
# Velocity P-wave (km/s) = 7.30302 7.71597 7.51234
#
# Compressibility (1/GPa) = 0.01283641
#
# Stress axis : x y z
#
# Youngs Moduli (GPa) = 75.17092 131.13983 87.26569
#
# Poissons Ratio (x) = 0.48237 0.30018
# Poissons Ratio (y) = 0.27650 0.23191
# Poissons Ratio (z) = 0.25858 0.34850
#
# Static dielectric constant tensor:
#      x y z
#    x 1.972200 0.000000 0.000000 
#    y 0.000000 1.829360 0.000000 
#    z 0.000000 0.000000 1.856360 
# 
# From -- ./inp_files/8022.got.cif
#   From: 2010.05.17/outbox.cif.g08.bks.cpg/sg54_5_cif.got.tgz:8022.got - 2010.06.03 13:09:01.
