data_PCOD9424133
_publ_section_title
;
Structure prediction by ZEFSAII (Michael W. Deem and Ramdas Pophale) SiO2 
 PCOD9424133
Probable space group: P C C A
;
_chemical_formula_sum "Si O2"
_cell_formula_units_Z 40
_cell_length_a 5.449639
_cell_length_b 10.929248
_cell_length_c 27.515914
_cell_angle_alpha 90.000000
_cell_angle_beta 90.000000
_cell_angle_gamma 90.000000
_cell_volume 1638.860389
_symmetry_space_group_name_H-M "P C C A"
_symmetry_group_IT_number 54
_symmetry_cell_setting 'orthorhombic'
loop_
_space_group_symop_operation_xyz
x,y,z
1/2-x,-y,z
1/2+x,-y,1/2-z
-x,y,1/2-z
-x,-y,-z
1/2+x,y,-z
1/2-x,y,1/2+z
x,-y,1/2+z
loop_
_atom_site_type_symbol
_atom_site_label
_atom_site_fract_x
_atom_site_fract_y
_atom_site_fract_z
Si Si1 0.250000 0.500000 0.174781
Si Si2 0.500000 0.684188 0.250000
Si Si3 0.149734 0.680513 0.974473
Si Si4 0.125143 0.130423 0.075212
Si Si5 0.800328 0.864186 0.672421
Si Si6 0.979627 0.690181 0.109093
O O1 0.374035 0.596962 0.210688
O O2 0.077659 0.577959 0.139612
O O3 0.343356 0.774984 0.282905
O O4 0.234665 0.650067 0.919439
O O5 0.082175 0.825662 0.963840
O O6 0.396029 0.636086 0.002211
O O7 0.323336 0.241996 0.074291
O O8 0.006065 0.128906 0.129464
O O9 0.250000 0.000000 0.065788
O O10 0.576440 0.802431 0.644597
O O11 0.750000 0.000000 0.689459
#
# Coordination Sequence:
#
# PCOD9424133 Si02
#       6
#     4   4   8   8   8   8
#     4  12  26  48  72 104 148 200 264 314 376 460
#     4  12  26  44  72 112 142 196 258 324 372 444
#     4  11  24  45  73 113 153 192 259 319 379 458
#     4  11  22  43  72 105 151 202 244 302 392 461
#     4  11  24  42  71 108 150 193 248 312 388 459
#     4  11  24  46  73 102 149 204 246 307 386 456
#
# _framework density 24.407205000000001
#
# number of rings (size 3 to 8) (size 9 to 14) (size 15 to 20)
#    0.000    0.800    6.000    1.200    0.000    3.200 
#    0.000    1.000    0.000    0.000    0.000    0.000 
#    0.000    0.000    0.000    0.000    0.000    0.000 
#
# Total GULP energy -223335.795230 kJ/mol
# GULP energy per Si atom -5583.394881 kJ/mol
# Density = 2.435165 g / cm^3
# Si number density = 24.407205 Si / 1000 Ang^3
#
#
#
# Elastic Constant Matrix: (Units=GPa)
#
#
# Indices 1 2 3 4 5 6 
#
# 1 128.3225 69.3634 58.2205 0.0000 0.0000 0.0000
# 2 69.3634 167.3015 62.3789 0.0000 0.0000 0.0000
# 3 58.2205 62.3789 85.1738 0.0000 0.0000 0.0000
# 4 0.0000 0.0000 0.0000 -2.9669 0.0000 0.0000
# 5 0.0000 0.0000 0.0000 0.0000 -78.8750 0.0000
# 6 0.0000 0.0000 0.0000 0.0000 0.0000 -169.1157
#
#
#
# Elastic Compliance Matrix: (Units=1/GPa)
#
#
# Indices 1 2 3 4 5 6 
#
# 1 0.012099 -0.002659 -0.006323 0.000000 0.000000 0.000000
# 2 -0.002659 0.008807 -0.004633 0.000000 0.000000 0.000000
# 3 -0.006323 -0.004633 0.019456 0.000000 0.000000 0.000000
# 4 0.000000 0.000000 0.000000 -0.337051 0.000000 0.000000
# 5 0.000000 0.000000 0.000000 0.000000 -0.012678 0.000000
# 6 0.000000 0.000000 0.000000 0.000000 0.000000 -0.005913
#
#
# Mechanical properties :
#
#
# Convention : Reuss Voigt Hill
#
# Bulk Modulus (GPa) = 76.14555 84.52481 80.33518
# Shear Modulus (GPa) = -17.62575 -37.46919 -27.54747
#
# Velocity S-wave (km/s) = -2.69021 -3.92237 -3.36320
# Velocity P-wave (km/s) = 4.64931 3.76735 4.23137
#
# Compressibility (1/GPa) = 0.01313274
#
# Stress axis : x y z
#
# Youngs Moduli (GPa) = 82.65345 113.54944 51.39929
#
# Poissons Ratio (x) = 0.30188 0.32500
# Poissons Ratio (y) = 0.21974 0.23811
# Poissons Ratio (z) = 0.52262 0.52602
#
# Static dielectric constant tensor:
#      x y z
#    x 2.020460 0.000000 0.000000 
#    y 0.000000 2.168360 0.000000 
#    z 0.000000 0.000000 2.228810 
# 
# From -- ./inp_files/25181.got.cif
#   From: 2010.05.17/outbox.cif.g08.bks.cpg/sg54_13_cif.got.tgz:25181.got - 2010.06.03 13:09:01.
