data_PCOD9424440
_publ_section_title
;
Structure prediction by ZEFSAII (Michael W. Deem and Ramdas Pophale) SiO2 
 PCOD9424440
Probable space group: P C C A
;
_chemical_formula_sum "Si O2"
_cell_formula_units_Z 32
_cell_length_a 10.676333
_cell_length_b 12.153782
_cell_length_c 8.577517
_cell_angle_alpha 90.000000
_cell_angle_beta 90.000000
_cell_angle_gamma 90.000000
_cell_volume 1112.999940
_symmetry_space_group_name_H-M "P C C A"
_symmetry_group_IT_number 54
_symmetry_cell_setting 'orthorhombic'
loop_
_space_group_symop_operation_xyz
x,y,z
1/2-x,-y,z
1/2+x,-y,1/2-z
-x,y,1/2-z
-x,-y,-z
1/2+x,y,-z
1/2-x,y,1/2+z
x,-y,1/2+z
loop_
_atom_site_type_symbol
_atom_site_label
_atom_site_fract_x
_atom_site_fract_y
_atom_site_fract_z
Si Si1 0.670123 0.175042 0.357314
Si Si2 0.972902 0.669005 0.562847
Si Si3 0.914145 0.056785 0.375078
Si Si4 0.292187 0.611217 0.856352
O O1 0.697123 0.276080 0.242270
O O2 0.636048 0.055456 0.288699
O O3 0.560403 0.216604 0.472187
O O4 0.803686 0.137530 0.430826
O O5 0.833624 0.620263 0.542052
O O6 0.000000 0.661414 0.750000
O O7 0.081854 0.612237 0.460704
O O8 0.000000 0.116423 0.250000
O O9 0.000000 0.000000 0.500000
O O10 0.250000 0.500000 0.765934
#
# Coordination Sequence:
#
# PCOD9424440 Si02
#       4
#     8   8   8   8
#     4  11  29  51  84 127 174 231 295 362 443 530
#     4  12  29  51  87 125 178 227 294 364 433 520
#     4  11  28  51  85 125 176 230 291 368 446 528
#     4  12  29  56  87 127 176 235 295 363 437 529
#
# _framework density 28.751125999999999
#
# number of rings (size 3 to 8) (size 9 to 14) (size 15 to 20)
#    0.000    0.500    0.000    4.500   14.000    8.000 
#    0.000    0.000    0.000    3.000    0.000    0.000 
#    0.000    0.000    0.000    0.000    0.000    0.000 
#
# Total GULP energy -178737.915684 kJ/mol
# GULP energy per Si atom -5585.559865 kJ/mol
# Density = 2.868569 g / cm^3
# Si number density = 28.751126 Si / 1000 Ang^3
#
#
#
# Elastic Constant Matrix: (Units=GPa)
#
#
# Indices 1 2 3 4 5 6 
#
# 1 245.2771 51.0319 92.1221 0.0000 0.0000 0.0000
# 2 51.0319 173.7046 71.4575 0.0000 0.0000 0.0000
# 3 92.1221 71.4575 135.9367 0.0000 0.0000 0.0000
# 4 0.0000 0.0000 0.0000 -1.3923 0.0000 0.0000
# 5 0.0000 0.0000 0.0000 0.0000 49.8115 0.0000
# 6 0.0000 0.0000 0.0000 0.0000 0.0000 40.5634
#
#
#
# Elastic Compliance Matrix: (Units=1/GPa)
#
#
# Indices 1 2 3 4 5 6 
#
# 1 0.005471 -0.000105 -0.003652 0.000000 0.000000 0.000000
# 2 -0.000105 0.007347 -0.003791 0.000000 0.000000 0.000000
# 3 -0.003652 -0.003791 0.011824 0.000000 0.000000 0.000000
# 4 0.000000 0.000000 0.000000 -0.718220 0.000000 0.000000
# 5 0.000000 0.000000 0.000000 0.000000 0.020076 0.000000
# 6 0.000000 0.000000 0.000000 0.000000 0.000000 0.024653
#
#
# Mechanical properties :
#
#
# Convention : Reuss Voigt Hill
#
# Bulk Modulus (GPa) = 104.75877 109.34904 107.05391
# Shear Modulus (GPa) = -7.92932 40.48365 16.27716
#
# Velocity S-wave (km/s) = -1.66250 3.75650 2.38195
# Velocity P-wave (km/s) = 5.72977 7.54524 6.69929
#
# Compressibility (1/GPa) = 0.00954574
#
# Stress axis : x y z
#
# Youngs Moduli (GPa) = 182.79759 136.10460 84.57117
#
# Poissons Ratio (x) = 0.01425 0.30887
# Poissons Ratio (y) = 0.01914 0.32063
# Poissons Ratio (z) = 0.66762 0.51601
#
# Static dielectric constant tensor:
#      x y z
#    x 2.331540 0.000000 0.000000 
#    y 0.000000 2.593040 0.000000 
#    z 0.000000 0.000000 2.307550 
# 
# From -- ./inp_files/3323.got.cif
#   From: 2010.05.17/outbox.cif.g08.bks.cpg/sg54_2_cif.got.tgz:3323.got - 2010.06.03 13:09:01.
