data_PCOD9424539
_publ_section_title
;
Structure prediction by ZEFSAII (Michael W. Deem and Ramdas Pophale) SiO2 
 PCOD9424539
Probable space group: P C C A
;
_chemical_formula_sum "Si O2"
_cell_formula_units_Z 40
_cell_length_a 26.850955
_cell_length_b 7.666491
_cell_length_c 8.170429
_cell_angle_alpha 90.000000
_cell_angle_beta 90.000000
_cell_angle_gamma 90.000000
_cell_volume 1681.904092
_symmetry_space_group_name_H-M "P C C A"
_symmetry_group_IT_number 54
_symmetry_cell_setting 'orthorhombic'
loop_
_space_group_symop_operation_xyz
x,y,z
1/2-x,-y,z
1/2+x,-y,1/2-z
-x,y,1/2-z
-x,-y,-z
1/2+x,y,-z
1/2-x,y,1/2+z
x,-y,1/2+z
loop_
_atom_site_type_symbol
_atom_site_label
_atom_site_fract_x
_atom_site_fract_y
_atom_site_fract_z
Si Si1 0.107439 0.240773 0.392679
Si Si2 0.787814 0.631330 0.068207
Si Si3 0.960538 0.907556 0.120277
Si Si4 0.893398 0.390430 0.730920
Si Si5 0.788803 0.842198 0.765934
O O1 0.073717 0.075468 0.345038
O O2 0.106112 0.305730 0.585090
O O3 0.088897 0.409037 0.287784
O O4 0.162634 0.168173 0.348322
O O5 0.750000 0.500000 0.977398
O O6 0.805185 0.781308 0.944260
O O7 0.837134 0.580478 0.165109
O O8 0.748265 0.703624 0.192542
O O9 0.000000 0.835915 0.250000
O O10 0.922648 0.743545 0.110947
O O11 0.000000 0.000000 0.000000
O O12 0.750000 0.000000 0.780236
#
# Coordination Sequence:
#
# PCOD9424539 Si02
#       5
#     8   8   8   8   8
#     4  12  28  50  79 116 153 207 264 322 397 471
#     4  12  25  45  72 108 153 201 254 314 382 473
#     4  12  29  54  80 116 158 202 267 333 398 467
#     4  12  28  50  83 113 159 208 261 326 393 471
#     4  12  26  44  72 109 153 201 255 316 388 462
#
# _framework density 23.782568000000001
#
# number of rings (size 3 to 8) (size 9 to 14) (size 15 to 20)
#    0.000    0.000    4.000    4.800    5.600    4.800 
#    0.000    1.000    0.000    0.000    0.000    0.000 
#    0.000    0.000    0.000    0.000    0.000    0.000 
#
# Total GULP energy -222769.114810 kJ/mol
# GULP energy per Si atom -5569.227870 kJ/mol
# Density = 2.372844 g / cm^3
# Si number density = 23.782568 Si / 1000 Ang^3
#
#
#
# Elastic Constant Matrix: (Units=GPa)
#
#
# Indices 1 2 3 4 5 6 
#
# 1 121.1801 58.9178 2.0977 0.0000 0.0000 0.0000
# 2 58.9178 130.1920 6.3014 0.0000 0.0000 0.0000
# 3 2.0977 6.3014 65.1437 0.0000 0.0000 0.0000
# 4 0.0000 0.0000 0.0000 14.6112 0.0000 0.0000
# 5 0.0000 0.0000 0.0000 0.0000 31.5239 0.0000
# 6 0.0000 0.0000 0.0000 0.0000 0.0000 42.8112
#
#
#
# Elastic Compliance Matrix: (Units=1/GPa)
#
#
# Indices 1 2 3 4 5 6 
#
# 1 0.010581 -0.004794 0.000123 0.000000 0.000000 0.000000
# 2 -0.004794 0.009889 -0.000802 0.000000 0.000000 0.000000
# 3 0.000123 -0.000802 0.015424 0.000000 0.000000 0.000000
# 4 0.000000 0.000000 0.000000 0.068440 0.000000 0.000000
# 5 0.000000 0.000000 0.000000 0.000000 0.031722 0.000000
# 6 0.000000 0.000000 0.000000 0.000000 0.000000 0.023358
#
#
# Mechanical properties :
#
#
# Convention : Reuss Voigt Hill
#
# Bulk Modulus (GPa) = 40.08383 50.12775 45.10579
# Shear Modulus (GPa) = 27.98319 34.40253 31.19286
#
# Velocity S-wave (km/s) = 3.43392 3.80747 3.62551
# Velocity P-wave (km/s) = 5.71080 6.36022 6.04424
#
# Compressibility (1/GPa) = 0.02494772
#
# Stress axis : x y z
#
# Youngs Moduli (GPa) = 94.50839 101.11777 64.83272
#
# Poissons Ratio (x) = 0.48480 -0.00798
# Poissons Ratio (y) = 0.45311 0.05201
# Poissons Ratio (z) = -0.01163 0.08112
#
# Static dielectric constant tensor:
#      x y z
#    x 1.799010 0.000000 0.000000 
#    y 0.000000 1.862560 0.000000 
#    z 0.000000 0.000000 2.021380 
# 
# From -- ./inp_files/5011.got.cif
#   From: 2010.05.17/outbox.cif.g08.bks.cpg/sg54_3_cif.got.tgz:5011.got - 2010.06.03 13:09:01.
