data_PCOD9424874
_publ_section_title
;
Structure prediction by ZEFSAII (Michael W. Deem and Ramdas Pophale) SiO2 
 PCOD9424874
Probable space group: P B A M
;
_chemical_formula_sum "Si O2"
_cell_formula_units_Z 64
_cell_length_a 27.123447
_cell_length_b 18.901223
_cell_length_c 8.928108
_cell_angle_alpha 90.000000
_cell_angle_beta 90.000000
_cell_angle_gamma 90.000000
_cell_volume 4577.140275
_symmetry_space_group_name_H-M "P B A M"
_symmetry_group_IT_number 55
_symmetry_cell_setting 'orthorhombic'
loop_
_space_group_symop_operation_xyz
x,y,z
-x,-y,z
1/2+x,1/2-y,-z
1/2-x,1/2+y,-z
-x,-y,-z
x,y,-z
1/2-x,1/2+y,z
1/2+x,1/2-y,z
loop_
_atom_site_type_symbol
_atom_site_label
_atom_site_fract_x
_atom_site_fract_y
_atom_site_fract_z
Si Si1 0.649506 0.662516 0.680745
Si Si2 0.743521 0.585237 0.179968
Si Si3 0.051401 0.922392 0.679825
Si Si4 0.198494 0.699465 0.327439
Si Si5 0.149558 0.164594 0.820015
Si Si6 0.746603 0.422939 0.179727
Si Si7 0.052900 0.076707 0.180351
Si Si8 0.200359 0.291676 0.327180
O O1 0.657085 0.660355 0.500000
O O2 0.691971 0.615301 0.756228
O O3 0.596141 0.630556 0.713482
O O4 0.657916 0.744209 0.727660
O O5 0.750275 0.504064 0.229190
O O6 0.786274 0.636822 0.240312
O O7 0.742090 0.588093 0.000000
O O8 0.046454 0.928755 0.500000
O O9 0.999451 0.899930 0.751757
O O10 0.062990 0.999350 0.749741
O O11 0.188444 0.681446 0.500000
O O12 0.210618 0.628661 0.238247
O O13 0.248912 0.745807 0.322276
O O14 0.194147 0.111706 0.773817
O O15 0.097550 0.129178 0.781821
O O16 0.160185 0.240351 0.746523
O O17 0.152244 0.171896 0.000000
O O18 0.747440 0.422424 0.000000
O O19 0.049601 0.070561 0.000000
O O20 0.189057 0.306238 0.500000
#
# Coordination Sequence:
#
# PCOD9424874 Si02
#       8
#     8   8   8   8   8   8   8   8
#     4   9  18  30  42  58  80 107 140 172 202 239
#     4  10  18  27  41  60  83 109 136 166 200 239
#     4  10  19  30  43  59  82 110 140 174 209 243
#     4   8  15  27  40  55  76 102 131 164 199 232
#     4   9  17  29  43  58  79 108 139 170 204 239
#     4   9  17  27  39  58  81 105 134 164 196 236
#     4  10  19  30  43  60  83 108 139 176 208 242
#     4   9  17  28  41  58  80 105 135 168 200 238
#
# _framework density 13.982530000000001
#
# number of rings (size 3 to 8) (size 9 to 14) (size 15 to 20)
#    0.000    2.750    0.000    3.750    0.000    7.000 
#    0.000    2.500    0.000    0.000    0.000    0.000 
#    0.000    1.000    0.000   11.250    0.000    5.000 
#
# Total GULP energy -356470.467966 kJ/mol
# GULP energy per Si atom -5569.851062 kJ/mol
# Density = 1.395070 g / cm^3
# Si number density = 13.982530 Si / 1000 Ang^3
#
#
#
# Elastic Constant Matrix: (Units=GPa)
#
#
# Indices 1 2 3 4 5 6 
#
# 1 91.0953 62.6495 35.7008 0.0000 0.0000 0.0000
# 2 62.6495 117.5081 41.7814 0.0000 0.0000 0.0000
# 3 35.7008 41.7814 41.3669 0.0000 0.0000 0.0000
# 4 0.0000 0.0000 0.0000 18.6385 0.0000 0.0000
# 5 0.0000 0.0000 0.0000 0.0000 17.6768 0.0000
# 6 0.0000 0.0000 0.0000 0.0000 0.0000 27.6323
#
#
#
# Elastic Compliance Matrix: (Units=1/GPa)
#
#
# Indices 1 2 3 4 5 6 
#
# 1 0.019648 -0.006938 -0.009950 0.000000 0.000000 0.000000
# 2 -0.006938 0.015728 -0.009899 0.000000 0.000000 0.000000
# 3 -0.009950 -0.009899 0.042759 0.000000 0.000000 0.000000
# 4 0.000000 0.000000 0.000000 0.053652 0.000000 0.000000
# 5 0.000000 0.000000 0.000000 0.000000 0.056571 0.000000
# 6 0.000000 0.000000 0.000000 0.000000 0.000000 0.036190
#
#
# Mechanical properties :
#
#
# Convention : Reuss Voigt Hill
#
# Bulk Modulus (GPa) = 40.71138 58.91485 49.81312
# Shear Modulus (GPa) = 17.46370 20.11209 18.78789
#
# Velocity S-wave (km/s) = 3.53790 3.79670 3.66959
# Velocity P-wave (km/s) = 6.77260 7.83875 7.32510
#
# Compressibility (1/GPa) = 0.02456316
#
# Stress axis : x y z
#
# Youngs Moduli (GPa) = 50.89533 63.57895 23.38713
#
# Poissons Ratio (x) = 0.44109 0.23269
# Poissons Ratio (y) = 0.35310 0.23150
# Poissons Ratio (z) = 0.50639 0.62934
#
# Static dielectric constant tensor:
#      x y z
#    x 1.448680 0.000000 0.000000 
#    y 0.000000 1.458220 0.000000 
#    z 0.000000 0.000000 1.473350 
# 
# From -- ./inp_files/10301.got.cif
#   From: 2010.05.17/outbox.cif.g08.bks.cpg/sg55_6_cif.got.tgz:10301.got - 2010.06.03 13:27:54.
