data_PCOD9424900
_publ_section_title
;
Structure prediction by ZEFSAII (Michael W. Deem and Ramdas Pophale) SiO2 
 PCOD9424900
Probable space group: P B A M
;
_chemical_formula_sum "Si O2"
_cell_formula_units_Z 64
_cell_length_a 19.835655
_cell_length_b 24.024503
_cell_length_c 7.512966
_cell_angle_alpha 90.000000
_cell_angle_beta 90.000000
_cell_angle_gamma 90.000000
_cell_volume 3580.241988
_symmetry_space_group_name_H-M "P B A M"
_symmetry_group_IT_number 55
_symmetry_cell_setting 'orthorhombic'
loop_
_space_group_symop_operation_xyz
x,y,z
-x,-y,z
1/2+x,1/2-y,-z
1/2-x,1/2+y,-z
-x,-y,-z
x,y,-z
1/2-x,1/2+y,z
1/2+x,1/2-y,z
loop_
_atom_site_type_symbol
_atom_site_label
_atom_site_fract_x
_atom_site_fract_y
_atom_site_fract_z
Si Si1 0.653023 0.056308 0.782366
Si Si2 0.747508 0.152960 0.782119
Si Si3 0.621760 0.711018 0.202933
Si Si4 0.333066 0.736864 0.214416
Si Si5 0.985340 0.616567 0.782659
Si Si6 0.300885 0.179484 0.704654
Si Si7 0.373991 0.066748 0.211924
Si Si8 0.517430 0.245849 0.218388
O O1 0.715321 0.094849 0.725236
O O2 0.583420 0.086400 0.728847
O O3 0.651598 0.992646 0.720282
O O4 0.654214 0.056511 0.000000
O O5 0.821929 0.170015 0.717730
O O6 0.697375 0.203279 0.729501
O O7 0.749310 0.153739 0.000000
O O8 0.658073 0.771648 0.197217
O O9 0.548129 0.720870 0.282648
O O10 0.611047 0.692257 0.000000
O O11 0.278189 0.691429 0.270363
O O12 0.409879 0.731145 0.274804
O O13 0.333984 0.737236 0.000000
O O14 0.987417 0.681061 0.728228
O O15 0.052149 0.584582 0.720361
O O16 0.985847 0.616506 0.000000
O O17 0.318371 0.187567 0.500000
O O18 0.324358 0.118403 0.758158
O O19 0.381712 0.060175 0.000000
O O20 0.515578 0.246060 0.000000
#
# Coordination Sequence:
#
# PCOD9424900 Si02
#       8
#     8   8   8   8   8   8   8   8
#     4   9  15  23  39  66  92 117 148 184 219 252
#     4   8  13  22  38  63  90 111 136 175 219 258
#     4   9  16  28  47  68  90 116 145 179 222 269
#     4   9  16  28  47  65  85 112 143 181 223 267
#     4   9  14  22  38  66  94 113 144 183 211 246
#     4  11  21  31  42  60  88 119 151 186 221 257
#     4  10  18  28  44  63  87 119 156 188 214 253
#     4   9  14  23  44  70  91 112 141 177 220 267
#
# _framework density 17.875885
#
# number of rings (size 3 to 8) (size 9 to 14) (size 15 to 20)
#    0.000    2.750    2.500    2.250    0.000    1.500 
#    0.000    0.625    0.000    4.500    0.000    0.875 
#    0.000    7.000    0.000    0.000    0.000    0.000 
#
# Total GULP energy -356893.259588 kJ/mol
# GULP energy per Si atom -5576.457181 kJ/mol
# Density = 1.783520 g / cm^3
# Si number density = 17.875885 Si / 1000 Ang^3
#
#
#
# Elastic Constant Matrix: (Units=GPa)
#
#
# Indices 1 2 3 4 5 6 
#
# 1 89.2017 17.7239 -13.1571 0.0000 0.0000 0.0000
# 2 17.7239 53.2212 -13.4174 0.0000 0.0000 0.0000
# 3 -13.1571 -13.4174 42.0318 0.0000 0.0000 0.0000
# 4 0.0000 0.0000 0.0000 -25.5497 0.0000 0.0000
# 5 0.0000 0.0000 0.0000 0.0000 -22.3590 0.0000
# 6 0.0000 0.0000 0.0000 0.0000 0.0000 15.9649
#
#
#
# Elastic Compliance Matrix: (Units=1/GPa)
#
#
# Indices 1 2 3 4 5 6 
#
# 1 0.012293 -0.003397 0.002764 0.000000 0.000000 0.000000
# 2 -0.003397 0.021373 0.005759 0.000000 0.000000 0.000000
# 3 0.002764 0.005759 0.026495 0.000000 0.000000 0.000000
# 4 0.000000 0.000000 0.000000 -0.039139 0.000000 0.000000
# 5 0.000000 0.000000 0.000000 0.000000 -0.044725 0.000000
# 6 0.000000 0.000000 0.000000 0.000000 0.000000 0.062637
#
#
# Mechanical properties :
#
#
# Convention : Reuss Voigt Hill
#
# Bulk Modulus (GPa) = 14.20205 18.52817 16.36511
# Shear Modulus (GPa) = 95.87018 6.49825 51.18421
#
# Velocity S-wave (km/s) = 7.33126 1.90869 5.35680
# Velocity P-wave (km/s) = 8.92330 3.90447 6.88731
#
# Compressibility (1/GPa) = 0.07041236
#
# Stress axis : x y z
#
# Youngs Moduli (GPa) = 81.34593 46.78849 37.74290
#
# Poissons Ratio (x) = 0.15895 -0.10431
# Poissons Ratio (y) = 0.27635 -0.21737
# Poissons Ratio (z) = -0.22481 -0.26946
#
# Static dielectric constant tensor:
#      x y z
#    x 1.624620 0.000000 0.000000 
#    y 0.000000 1.592620 0.000000 
#    z 0.000000 0.000000 1.662590 
# 
# From -- ./inp_files/9202.got.cif
#   From: 2010.05.17/outbox.cif.g08.bks.cpg/sg55_5_cif.got.tgz:9202.got - 2010.06.03 13:27:54.
