data_PCOD9424323
_publ_section_title
;
Structure prediction by ZEFSAII (Michael W. Deem and Ramdas Pophale) SiO2 
 PCOD9424323
Probable space group: P C C A
;
_chemical_formula_sum "Si O2"
_cell_formula_units_Z 32
_cell_length_a 11.634989
_cell_length_b 4.787765
_cell_length_c 22.999473
_cell_angle_alpha 90.000000
_cell_angle_beta 90.000000
_cell_angle_gamma 90.000000
_cell_volume 1281.199285
_symmetry_space_group_name_H-M "P C C A"
_symmetry_group_IT_number 54
_symmetry_cell_setting 'orthorhombic'
loop_
_space_group_symop_operation_xyz
x,y,z
1/2-x,-y,z
1/2+x,-y,1/2-z
-x,y,1/2-z
-x,-y,-z
1/2+x,y,-z
1/2-x,y,1/2+z
x,-y,1/2+z
loop_
_atom_site_type_symbol
_atom_site_label
_atom_site_fract_x
_atom_site_fract_y
_atom_site_fract_z
Si Si1 0.375963 0.170652 0.488910
Si Si2 0.121700 0.535005 0.872223
Si Si3 0.820759 0.747021 0.890249
Si Si4 0.493802 0.037602 0.318453
O O1 0.383547 0.391790 0.435695
O O2 0.374389 0.353573 0.549018
O O3 0.250000 0.000000 0.476124
O O4 0.500000 0.000000 0.500000
O O5 0.250000 0.500000 0.849642
O O6 0.093445 0.856799 0.858865
O O7 0.031124 0.356776 0.834330
O O8 0.750000 0.500000 0.863378
O O9 0.890654 0.911154 0.842973
O O10 0.750000 0.000000 0.916176
O O11 0.500000 0.998337 0.250000
#
# Coordination Sequence:
#
# PCOD9424323 Si02
#       4
#     8   8   8   8
#     4  11  24  46  77 116 155 202 254 327 403 486
#     4  12  26  47  75 109 150 198 256 326 400 470
#     4  11  25  45  70 103 146 194 245 315 386 465
#     4  12  27  47  73 106 148 201 265 321 388 469
#
# _framework density 24.976597999999999
#
# number of rings (size 3 to 8) (size 9 to 14) (size 15 to 20)
#    0.000    0.500    2.500    5.250    3.500    6.000 
#    0.000    0.000    0.000    0.000    0.000    0.000 
#    0.000    0.000    0.000    0.000    0.000    0.000 
#
# Total GULP energy -178276.220902 kJ/mol
# GULP energy per Si atom -5571.131903 kJ/mol
# Density = 2.491975 g / cm^3
# Si number density = 24.976598 Si / 1000 Ang^3
#
#
#
# Elastic Constant Matrix: (Units=GPa)
#
#
# Indices 1 2 3 4 5 6 
#
# 1 90.4135 16.4623 -2.7839 0.0000 0.0000 0.0000
# 2 16.4623 74.3181 -5.5793 0.0000 0.0000 0.0000
# 3 -2.7839 -5.5793 170.1009 0.0000 0.0000 0.0000
# 4 0.0000 0.0000 0.0000 55.5317 0.0000 0.0000
# 5 0.0000 0.0000 0.0000 0.0000 86.2011 0.0000
# 6 0.0000 0.0000 0.0000 0.0000 0.0000 61.8457
#
#
#
# Elastic Compliance Matrix: (Units=1/GPa)
#
#
# Indices 1 2 3 4 5 6 
#
# 1 0.011527 -0.002545 0.000105 0.000000 0.000000 0.000000
# 2 -0.002545 0.014051 0.000419 0.000000 0.000000 0.000000
# 3 0.000105 0.000419 0.005894 0.000000 0.000000 0.000000
# 4 0.000000 0.000000 0.000000 0.018008 0.000000 0.000000
# 5 0.000000 0.000000 0.000000 0.000000 0.011601 0.000000
# 6 0.000000 0.000000 0.000000 0.000000 0.000000 0.016169
#
#
# Mechanical properties :
#
#
# Convention : Reuss Voigt Hill
#
# Bulk Modulus (GPa) = 36.45625 39.00342 37.72983
# Shear Modulus (GPa) = 55.28793 62.49794 58.89293
#
# Velocity S-wave (km/s) = 4.70998 5.00769 4.86111
# Velocity P-wave (km/s) = 6.64879 7.00612 6.82980
#
# Compressibility (1/GPa) = 0.02743014
#
# Stress axis : x y z
#
# Youngs Moduli (GPa) = 86.75282 71.16940 169.65445
#
# Poissons Ratio (x) = 0.18116 -0.01784
# Poissons Ratio (y) = 0.22083 -0.07112
# Poissons Ratio (z) = -0.00912 -0.02984
#
# Static dielectric constant tensor:
#      x y z
#    x 2.450630 0.000000 0.000000 
#    y 0.000000 2.685780 0.000000 
#    z 0.000000 0.000000 1.920690 
# 
# From -- ./inp_files/23762.got.cif
#   From: 2010.05.17/outbox.cif.g08.bks.cpg/sg54_12_cif.got.tgz:23762.got - 2010.06.03 13:09:01.
