data_PCOD9424842
_publ_section_title
;
Structure prediction by ZEFSAII (Michael W. Deem and Ramdas Pophale) SiO2 
 PCOD9424842
Probable space group: P B A M
;
_chemical_formula_sum "Si O2"
_cell_formula_units_Z 52
_cell_length_a 19.365529
_cell_length_b 13.868816
_cell_length_c 7.310971
_cell_angle_alpha 90.000000
_cell_angle_beta 90.000000
_cell_angle_gamma 90.000000
_cell_volume 1963.558354
_symmetry_space_group_name_H-M "P B A M"
_symmetry_group_IT_number 55
_symmetry_cell_setting 'orthorhombic'
loop_
_space_group_symop_operation_xyz
x,y,z
-x,-y,z
1/2+x,1/2-y,-z
1/2-x,1/2+y,-z
-x,-y,-z
x,y,-z
1/2-x,1/2+y,z
1/2+x,1/2-y,z
loop_
_atom_site_type_symbol
_atom_site_label
_atom_site_fract_x
_atom_site_fract_y
_atom_site_fract_z
Si Si1 0.727322 0.842605 0.699696
Si Si2 0.894038 0.643041 0.775813
Si Si3 0.017379 0.760879 0.777537
Si Si4 0.865144 0.903251 0.500000
Si Si5 0.407210 0.066105 0.787762
Si Si6 0.240870 0.865927 0.203431
Si Si7 0.599050 0.546845 0.777720
O O1 0.698758 0.817831 0.500000
O O2 0.719375 0.745573 0.811299
O O3 0.806062 0.870715 0.659024
O O4 0.676097 0.923939 0.772860
O O5 0.925837 0.540172 0.718130
O O6 0.815764 0.640982 0.707324
O O7 0.940063 0.732946 0.713574
O O8 0.892209 0.646481 0.000000
O O9 0.060621 0.665770 0.718592
O O10 0.053242 0.860272 0.727185
O O11 0.016751 0.762303 0.000000
O O12 0.913722 0.952022 0.338030
O O13 0.426667 0.064177 0.000000
O O14 0.177227 0.923353 0.284756
O O15 0.249588 0.905951 0.000000
O O16 0.595941 0.534230 0.000000
#
# Coordination Sequence:
#
# PCOD9424842 Si02
#       7
#     8   8   8   4   8   8   8
#     4  10  22  35  50  80 111 151 188 238 291 335
#     4   9  18  30  53  87 115 144 185 234 287 346
#     4   9  17  31  55  85 116 151 184 226 288 351
#     4  10  24  36  56  85 110 148 193 251 289 328
#     4  10  17  32  55  81 116 150 187 224 278 357
#     4  10  19  34  57  83 111 149 195 241 289 348
#     4  10  20  36  60  85 114 151 196 239 287 350
#
# _framework density 26.482534000000001
#
# number of rings (size 3 to 8) (size 9 to 14) (size 15 to 20)
#    0.462    1.846    1.538    1.846    1.077    4.308 
#    0.000    0.000    3.385    2.769    0.000    4.308 
#    0.000    0.000    0.000    0.000    0.000    0.000 
#
# Total GULP energy -289548.894757 kJ/mol
# GULP energy per Si atom -5568.247976 kJ/mol
# Density = 2.642226 g / cm^3
# Si number density = 26.482534 Si / 1000 Ang^3
#
#
#
# Elastic Constant Matrix: (Units=GPa)
#
#
# Indices 1 2 3 4 5 6 
#
# 1 136.7248 28.7165 0.8377 0.0000 0.0000 0.0000
# 2 28.7165 92.3468 7.8611 0.0000 0.0000 0.0000
# 3 0.8377 7.8611 122.3481 0.0000 0.0000 0.0000
# 4 0.0000 0.0000 0.0000 -30.1049 0.0000 0.0000
# 5 0.0000 0.0000 0.0000 0.0000 20.9431 0.0000
# 6 0.0000 0.0000 0.0000 0.0000 0.0000 54.2641
#
#
#
# Elastic Compliance Matrix: (Units=1/GPa)
#
#
# Indices 1 2 3 4 5 6 
#
# 1 0.007826 -0.002442 0.000103 0.000000 0.000000 0.000000
# 2 -0.002442 0.011651 -0.000732 0.000000 0.000000 0.000000
# 3 0.000103 -0.000732 0.008220 0.000000 0.000000 0.000000
# 4 0.000000 0.000000 0.000000 -0.033217 0.000000 0.000000
# 5 0.000000 0.000000 0.000000 0.000000 0.047748 0.000000
# 6 0.000000 0.000000 0.000000 0.000000 0.000000 0.018428
#
#
# Mechanical properties :
#
#
# Convention : Reuss Voigt Hill
#
# Bulk Modulus (GPa) = 46.39374 47.36112 46.87743
# Shear Modulus (GPa) = 67.58304 29.95409 48.76857
#
# Velocity S-wave (km/s) = 5.05720 3.36681 4.29597
# Velocity P-wave (km/s) = 7.18728 5.74775 6.50744
#
# Compressibility (1/GPa) = 0.02155463
#
# Stress axis : x y z
#
# Youngs Moduli (GPa) = 127.77380 85.83270 121.65871
#
# Poissons Ratio (x) = 0.20965 -0.01257
# Poissons Ratio (y) = 0.31209 0.08904
# Poissons Ratio (z) = -0.01321 0.06282
#
# Static dielectric constant tensor:
#      x y z
#    x 2.176450 0.000000 0.000000 
#    y 0.000000 2.098060 0.000000 
#    z 0.000000 0.000000 1.993000 
# 
# From -- ./inp_files/8623.got.cif
#   From: 2010.05.17/outbox.cif.g08.bks.cpg/sg55_5_cif.got.tgz:8623.got - 2010.06.03 13:27:54.
