data_PCOD9424188
_publ_section_title
;
Structure prediction by ZEFSAII (Michael W. Deem and Ramdas Pophale) SiO2 
 PCOD9424188
Probable space group: P C C A
;
_chemical_formula_sum "Si O2"
_cell_formula_units_Z 32
_cell_length_a 11.330055
_cell_length_b 8.181780
_cell_length_c 15.163519
_cell_angle_alpha 90.000000
_cell_angle_beta 90.000000
_cell_angle_gamma 90.000000
_cell_volume 1405.658475
_symmetry_space_group_name_H-M "P C C A"
_symmetry_group_IT_number 54
_symmetry_cell_setting 'orthorhombic'
loop_
_space_group_symop_operation_xyz
x,y,z
1/2-x,-y,z
1/2+x,-y,1/2-z
-x,y,1/2-z
-x,-y,-z
1/2+x,y,-z
1/2-x,y,1/2+z
x,-y,1/2+z
loop_
_atom_site_type_symbol
_atom_site_label
_atom_site_fract_x
_atom_site_fract_y
_atom_site_fract_z
Si Si1 0.469043 0.817842 0.526962
Si Si2 0.093335 0.685733 0.318233
Si Si3 0.740548 0.196419 0.332024
Si Si4 0.494174 0.321969 0.654274
O O1 0.581113 0.758584 0.584984
O O2 0.360506 0.789833 0.593526
O O3 0.442665 0.734930 0.433989
O O4 0.500000 0.000000 0.500000
O O5 0.209941 0.714886 0.261233
O O6 0.000000 0.769587 0.250000
O O7 0.046543 0.501670 0.329662
O O8 0.856464 0.289835 0.366781
O O9 0.750000 0.000000 0.317236
O O10 0.500000 0.233552 0.750000
#
# Coordination Sequence:
#
# PCOD9424188 Si02
#       4
#     8   8   8   8
#     4  11  23  42  71 106 147 190 249 304 368 442
#     4   9  23  44  69  99 143 187 244 306 363 439
#     4  11  24  45  76 108 147 199 244 308 379 445
#     4  11  25  45  70 105 148 193 243 310 370 445
#
# _framework density 22.765129999999999
#
# number of rings (size 3 to 8) (size 9 to 14) (size 15 to 20)
#    0.000    1.500    2.500    0.750    3.500   11.000 
#    0.000    5.000    0.000    0.000    0.000    0.000 
#    0.000    0.000    0.000    0.000    0.000    0.000 
#
# Total GULP energy -178292.615885 kJ/mol
# GULP energy per Si atom -5571.644246 kJ/mol
# Density = 2.271332 g / cm^3
# Si number density = 22.765130 Si / 1000 Ang^3
#
#
#
# Elastic Constant Matrix: (Units=GPa)
#
#
# Indices 1 2 3 4 5 6 
#
# 1 72.5652 26.9594 30.0756 0.0000 0.0000 0.0000
# 2 26.9594 115.6328 72.2988 0.0000 0.0000 0.0000
# 3 30.0756 72.2988 217.2451 0.0000 0.0000 0.0000
# 4 0.0000 0.0000 0.0000 36.2728 0.0000 0.0000
# 5 0.0000 0.0000 0.0000 0.0000 38.5010 0.0000
# 6 0.0000 0.0000 0.0000 0.0000 0.0000 62.3024
#
#
#
# Elastic Compliance Matrix: (Units=1/GPa)
#
#
# Indices 1 2 3 4 5 6 
#
# 1 0.015322 -0.002836 -0.001177 0.000000 0.000000 0.000000
# 2 -0.002836 0.011445 -0.003416 0.000000 0.000000 0.000000
# 3 -0.001177 -0.003416 0.005903 0.000000 0.000000 0.000000
# 4 0.000000 0.000000 0.000000 0.027569 0.000000 0.000000
# 5 0.000000 0.000000 0.000000 0.000000 0.025973 0.000000
# 6 0.000000 0.000000 0.000000 0.000000 0.000000 0.016051
#
#
# Mechanical properties :
#
#
# Convention : Reuss Voigt Hill
#
# Bulk Modulus (GPa) = 56.14522 73.79008 64.96765
# Shear Modulus (GPa) = 40.63037 45.82252 43.22645
#
# Velocity S-wave (km/s) = 4.22923 4.49133 4.36225
# Velocity P-wave (km/s) = 6.96885 7.70585 7.34660
#
# Compressibility (1/GPa) = 0.01781095
#
# Stress axis : x y z
#
# Youngs Moduli (GPa) = 65.26390 87.37144 169.40395
#
# Poissons Ratio (x) = 0.24781 0.19945
# Poissons Ratio (y) = 0.18510 0.57874
# Poissons Ratio (z) = 0.07684 0.29849
#
# Static dielectric constant tensor:
#      x y z
#    x 2.092950 0.000000 0.000000 
#    y 0.000000 1.473130 0.000000 
#    z 0.000000 0.000000 2.014760 
# 
# From -- ./inp_files/12199.got.cif
#   From: 2010.05.17/outbox.cif.g08.bks.cpg/sg54_7_cif.got.tgz:12199.got - 2010.06.03 13:09:01.
