data_PCOD9424676
_publ_section_title
;
Structure prediction by ZEFSAII (Michael W. Deem and Ramdas Pophale) SiO2 
 PCOD9424676
Probable space group: P C C A
;
_chemical_formula_sum "Si O2"
_cell_formula_units_Z 40
_cell_length_a 15.000000
_cell_length_b 9.000000
_cell_length_c 15.000000
_cell_angle_alpha 90.000000
_cell_angle_beta 90.000000
_cell_angle_gamma 90.000000
_cell_volume 2025.000000
_symmetry_space_group_name_H-M "P C C A"
_symmetry_group_IT_number 54
_symmetry_cell_setting 'orthorhombic'
loop_
_space_group_symop_operation_xyz
x,y,z
1/2-x,-y,z
1/2+x,-y,1/2-z
-x,y,1/2-z
-x,-y,-z
1/2+x,y,-z
1/2-x,y,1/2+z
x,-y,1/2+z
loop_
_atom_site_type_symbol
_atom_site_label
_atom_site_fract_x
_atom_site_fract_y
_atom_site_fract_z
Si Si1 0.678243 0.126706 0.314656
Si Si2 0.878201 0.818491 0.116540
Si Si3 0.228482 0.678714 0.017644
Si Si4 0.491129 0.076049 0.644951
Si Si5 0.018445 0.674814 0.996727
O O1 0.648685 0.200795 0.220548
O O2 0.723563 0.239570 0.385506
O O3 0.750000 0.000000 0.291796
O O4 0.593546 0.037445 0.357450
O O5 0.798046 0.764407 0.049696
O O6 0.919179 0.986996 0.113463
O O7 0.965604 0.728583 0.084870
O O8 0.250000 0.500000 0.021874
O O9 0.124938 0.692327 0.989037
O O10 0.500000 0.114666 0.750000
O O11 0.479220 0.220026 0.582342
O O12 0.000000 0.500000 0.000000
#
# Coordination Sequence:
#
# PCOD9424676 Si02
#       5
#     8   8   8   8   8
#     4  11  26  44  75 106 141 186 243 299 351 431
#     4  11  25  47  71 103 141 186 241 296 356 426
#     4  12  27  45  71 106 144 190 236 291 366 429
#     4  10  24  46  71 106 138 185 241 294 360 419
#     4  12  25  46  70 101 146 191 233 295 366 431
#
# _framework density 19.753086
#
# number of rings (size 3 to 8) (size 9 to 14) (size 15 to 20)
#    0.000    0.800    4.000    1.800    8.400    0.800 
#    3.600    0.000    0.000    0.000    0.000    0.000 
#    0.000    0.000    0.000    0.000    0.000    0.000 
#
# Total GULP energy -223205.259229 kJ/mol
# GULP energy per Si atom -5580.131481 kJ/mol
# Density = 1.970813 g / cm^3
# Si number density = 19.753086 Si / 1000 Ang^3
#
#
#
# Elastic Constant Matrix: (Units=GPa)
#
#
# Indices 1 2 3 4 5 6 
#
# 1 145.1530 40.8691 50.1793 0.0000 0.0000 0.0000
# 2 40.8691 139.9661 91.4399 0.0000 0.0000 0.0000
# 3 50.1793 91.4399 134.4441 0.0000 0.0000 0.0000
# 4 0.0000 0.0000 0.0000 23.3140 0.0000 0.0000
# 5 0.0000 0.0000 0.0000 0.0000 47.7980 0.0000
# 6 0.0000 0.0000 0.0000 0.0000 0.0000 43.7970
#
#
#
# Elastic Compliance Matrix: (Units=1/GPa)
#
#
# Indices 1 2 3 4 5 6 
#
# 1 0.007947 -0.000689 -0.002498 0.000000 0.000000 0.000000
# 2 -0.000689 0.012917 -0.008528 0.000000 0.000000 0.000000
# 3 -0.002498 -0.008528 0.014171 0.000000 0.000000 0.000000
# 4 0.000000 0.000000 0.000000 0.042893 0.000000 0.000000
# 5 0.000000 0.000000 0.000000 0.000000 0.020921 0.000000
# 6 0.000000 0.000000 0.000000 0.000000 0.000000 0.022833
#
#
# Mechanical properties :
#
#
# Convention : Reuss Voigt Hill
#
# Bulk Modulus (GPa) = 86.16818 87.17110 86.66964
# Shear Modulus (GPa) = 33.56176 38.78680 36.17428
#
# Velocity S-wave (km/s) = 4.12644 4.43604 4.28404
# Velocity P-wave (km/s) = 8.14989 8.39429 8.27299
#
# Compressibility (1/GPa) = 0.01160521
#
# Stress axis : x y z
#
# Youngs Moduli (GPa) = 125.84016 77.41532 70.56817
#
# Poissons Ratio (x) = 0.05332 0.17625
# Poissons Ratio (y) = 0.08667 0.60184
# Poissons Ratio (z) = 0.31429 0.66023
#
# Static dielectric constant tensor:
#      x y z
#    x 1.734300 0.000000 0.000000 
#    y 0.000000 1.703010 0.000000 
#    z 0.000000 0.000000 1.709150 
# 
# From -- ./inp_files/13197.got.cif
#   From: 2010.05.17/outbox.ucp.g08.bks.cvg/sg54_7_cif.got.tgz:13197.got - 2010.06.11 16:34:40.
