data_PCOD9424064
_publ_section_title
;
Structure prediction by ZEFSAII (Michael W. Deem and Ramdas Pophale) SiO2 
 PCOD9424064
Probable space group: P C C A
;
_chemical_formula_sum "Si O2"
_cell_formula_units_Z 48
_cell_length_a 8.966638
_cell_length_b 14.042600
_cell_length_c 17.832609
_cell_angle_alpha 90.000000
_cell_angle_beta 90.000000
_cell_angle_gamma 90.000000
_cell_volume 2245.391371
_symmetry_space_group_name_H-M "P C C A"
_symmetry_group_IT_number 54
_symmetry_cell_setting 'orthorhombic'
loop_
_space_group_symop_operation_xyz
x,y,z
1/2-x,-y,z
1/2+x,-y,1/2-z
-x,y,1/2-z
-x,-y,-z
1/2+x,y,-z
1/2-x,y,1/2+z
x,-y,1/2+z
loop_
_atom_site_type_symbol
_atom_site_label
_atom_site_fract_x
_atom_site_fract_y
_atom_site_fract_z
Si Si1 0.622614 0.762941 0.603507
Si Si2 0.792522 0.101965 0.210336
Si Si3 0.666174 0.827958 0.972517
Si Si4 0.131534 0.283461 0.194047
Si Si5 0.451824 0.869710 0.097299
Si Si6 0.662152 0.407979 0.221844
O O1 0.673105 0.856798 0.650474
O O2 0.449682 0.770252 0.579466
O O3 0.730345 0.767180 0.530382
O O4 0.653068 0.673644 0.657980
O O5 0.803776 0.185168 0.271121
O O6 0.949759 0.091827 0.165934
O O7 0.750000 0.000000 0.240919
O O8 0.782649 0.890266 0.925140
O O9 0.555082 0.886654 0.025526
O O10 0.061480 0.245067 0.117194
O O11 0.253705 0.363080 0.205621
O O12 0.000000 0.312553 0.250000
O O13 0.750000 0.500000 0.194459
O O14 0.500000 0.434992 0.250000
#
# Coordination Sequence:
#
# PCOD9424064 Si02
#       6
#     8   8   8   8   8   8
#     4   9  19  36  56  80 110 141 180 220 262 318
#     4   9  18  34  55  81 110 140 178 224 272 318
#     4   9  17  33  56  76 104 146 179 215 260 310
#     4   9  18  35  57  79 107 140 176 223 274 321
#     4   9  17  32  52  76 104 139 178 214 261 312
#     4  11  22  36  57  84 109 136 175 224 277 327
#
# _framework density 21.377119
#
# number of rings (size 3 to 8) (size 9 to 14) (size 15 to 20)
#    0.000    2.667    0.000    2.500    0.000    0.000 
#    0.000   30.000    0.000    5.000    0.000    0.000 
#    0.000    0.000    0.000    0.000    0.000    0.000 
#
# Total GULP energy -267532.805034 kJ/mol
# GULP energy per Si atom -5573.600105 kJ/mol
# Density = 2.132846 g / cm^3
# Si number density = 21.377119 Si / 1000 Ang^3
#
#
#
# Elastic Constant Matrix: (Units=GPa)
#
#
# Indices 1 2 3 4 5 6 
#
# 1 135.7538 31.6652 24.9995 0.0000 0.0000 0.0000
# 2 31.6652 83.7437 7.7508 0.0000 0.0000 0.0000
# 3 24.9995 7.7508 63.0465 0.0000 0.0000 0.0000
# 4 0.0000 0.0000 0.0000 -2.6299 0.0000 0.0000
# 5 0.0000 0.0000 0.0000 0.0000 33.0261 0.0000
# 6 0.0000 0.0000 0.0000 0.0000 0.0000 16.8512
#
#
#
# Elastic Compliance Matrix: (Units=1/GPa)
#
#
# Indices 1 2 3 4 5 6 
#
# 1 0.008623 -0.002978 -0.003053 0.000000 0.000000 0.000000
# 2 -0.002978 0.013107 -0.000431 0.000000 0.000000 0.000000
# 3 -0.003053 -0.000431 0.017125 0.000000 0.000000 0.000000
# 4 0.000000 0.000000 0.000000 -0.380248 0.000000 0.000000
# 5 0.000000 0.000000 0.000000 0.000000 0.030279 0.000000
# 6 0.000000 0.000000 0.000000 0.000000 0.000000 0.059343
#
#
# Mechanical properties :
#
#
# Convention : Reuss Voigt Hill
#
# Bulk Modulus (GPa) = 38.56278 45.70834 42.13556
# Shear Modulus (GPa) = -21.71993 23.99137 1.13572
#
# Velocity S-wave (km/s) = -3.19099 3.35370 0.72968
# Velocity P-wave (km/s) = 2.12176 6.03529 4.52364
#
# Compressibility (1/GPa) = 0.02593174
#
# Stress axis : x y z
#
# Youngs Moduli (GPa) = 115.96667 76.29460 58.39453
#
# Poissons Ratio (x) = 0.22721 0.17829
# Poissons Ratio (y) = 0.34535 0.02514
# Poissons Ratio (z) = 0.35407 0.03285
#
# Static dielectric constant tensor:
#      x y z
#    x 1.862390 0.000000 0.000000 
#    y 0.000000 1.743260 0.000000 
#    z 0.000000 0.000000 1.867790 
# 
# From -- ./inp_files/20397.got.cif
#   From: 2010.05.17/outbox.cif.g08.bks.cpg/sg54_11_cif.got.tgz:20397.got - 2010.06.03 13:09:01.
