data_PCOD9424097
_publ_section_title
;
Structure prediction by ZEFSAII (Michael W. Deem and Ramdas Pophale) SiO2 
 PCOD9424097
Probable space group: P C C A
;
_chemical_formula_sum "Si O2"
_cell_formula_units_Z 64
_cell_length_a 9.241259
_cell_length_b 22.693095
_cell_length_c 13.921565
_cell_angle_alpha 90.000000
_cell_angle_beta 90.000000
_cell_angle_gamma 90.000000
_cell_volume 2919.529937
_symmetry_space_group_name_H-M "P C C A"
_symmetry_group_IT_number 54
_symmetry_cell_setting 'orthorhombic'
loop_
_space_group_symop_operation_xyz
x,y,z
1/2-x,-y,z
1/2+x,-y,1/2-z
-x,y,1/2-z
-x,-y,-z
1/2+x,y,-z
1/2-x,y,1/2+z
x,-y,1/2+z
loop_
_atom_site_type_symbol
_atom_site_label
_atom_site_fract_x
_atom_site_fract_y
_atom_site_fract_z
Si Si1 0.888198 0.232227 0.335416
Si Si2 0.826039 0.641857 0.104193
Si Si3 0.046203 0.085036 0.955800
Si Si4 0.625711 0.456850 0.959353
Si Si5 0.234469 0.838847 0.036783
Si Si6 0.419007 0.016926 0.657604
Si Si7 0.577829 0.715498 0.993683
Si Si8 0.839532 0.357531 0.293292
O O1 0.820138 0.169856 0.363688
O O2 0.791482 0.290027 0.314865
O O3 0.000000 0.223315 0.250000
O O4 0.971623 0.256662 0.427817
O O5 0.692137 0.674002 0.049301
O O6 0.777436 0.627217 0.212354
O O7 0.838205 0.579674 0.053492
O O8 0.973274 0.679550 0.080471
O O9 0.890834 0.114437 0.962864
O O10 0.025365 0.038360 0.870798
O O11 0.159520 0.139168 0.952299
O O12 0.082067 0.052843 0.056747
O O13 0.750000 0.500000 0.924644
O O14 0.628626 0.404319 0.878424
O O15 0.500000 0.500000 0.000000
O O16 0.166298 0.773953 0.033026
O O17 0.500000 0.044438 0.750000
O O18 0.250000 0.000000 0.676547
O O19 0.000000 0.350775 0.250000
#
# Coordination Sequence:
#
# PCOD9424097 Si02
#       8
#     8   8   8   8   8   8   8   8
#     4  11  22  40  69  99 140 185 233 283 359 441
#     4  12  23  44  73  99 135 192 234 290 362 445
#     4  11  25  47  71 101 149 190 241 303 367 427
#     4  12  26  44  67  98 135 176 230 298 365 423
#     4  12  23  44  70 105 142 188 231 298 368 428
#     4  11  26  47  75 106 140 197 252 298 364 443
#     4  12  21  42  73  99 139 186 234 286 363 442
#     4  11  22  43  70  96 134 182 235 287 352 439
#
# _framework density 21.921336
#
# number of rings (size 3 to 8) (size 9 to 14) (size 15 to 20)
#    0.000    0.500    7.500    1.500    1.750    2.000 
#    2.250    5.000    0.000    0.000    0.000    0.000 
#    0.000    0.000    0.000    0.000    0.000    0.000 
#
# Total GULP energy -356389.607786 kJ/mol
# GULP energy per Si atom -5568.587622 kJ/mol
# Density = 2.187144 g / cm^3
# Si number density = 21.921336 Si / 1000 Ang^3
#
#
#
# Elastic Constant Matrix: (Units=GPa)
#
#
# Indices 1 2 3 4 5 6 
#
# 1 66.3196 15.9475 8.5702 0.0000 0.0000 0.0000
# 2 15.9475 40.0980 6.3075 0.0000 0.0000 0.0000
# 3 8.5702 6.3075 64.6603 0.0000 0.0000 0.0000
# 4 0.0000 0.0000 0.0000 17.5799 0.0000 0.0000
# 5 0.0000 0.0000 0.0000 0.0000 18.3873 0.0000
# 6 0.0000 0.0000 0.0000 0.0000 0.0000 43.5027
#
#
#
# Elastic Compliance Matrix: (Units=1/GPa)
#
#
# Indices 1 2 3 4 5 6 
#
# 1 0.016835 -0.006443 -0.001603 0.000000 0.000000 0.000000
# 2 -0.006443 0.027794 -0.001857 0.000000 0.000000 0.000000
# 3 -0.001603 -0.001857 0.015859 0.000000 0.000000 0.000000
# 4 0.000000 0.000000 0.000000 0.056883 0.000000 0.000000
# 5 0.000000 0.000000 0.000000 0.000000 0.054385 0.000000
# 6 0.000000 0.000000 0.000000 0.000000 0.000000 0.022987
#
#
# Mechanical properties :
#
#
# Convention : Reuss Voigt Hill
#
# Bulk Modulus (GPa) = 24.58153 25.85870 25.22011
# Shear Modulus (GPa) = 21.91921 25.24415 23.58168
#
# Velocity S-wave (km/s) = 3.16555 3.39717 3.28341
# Velocity P-wave (km/s) = 4.95972 5.21627 5.08961
#
# Compressibility (1/GPa) = 0.04068095
#
# Stress axis : x y z
#
# Youngs Moduli (GPa) = 59.40003 35.97944 63.05550
#
# Poissons Ratio (x) = 0.23183 0.10107
# Poissons Ratio (y) = 0.38274 0.11711
# Poissons Ratio (z) = 0.09521 0.06682
#
# Static dielectric constant tensor:
#      x y z
#    x 1.911100 0.000000 0.000000 
#    y 0.000000 1.909780 0.000000 
#    z 0.000000 0.000000 1.774420 
# 
# From -- ./inp_files/11940.got.cif
#   From: 2010.05.17/outbox.cif.g08.bks.cpg/sg54_6_cif.got.tgz:11940.got - 2010.06.03 13:09:01.
