data_PCOD9424642
_publ_section_title
;
Structure prediction by ZEFSAII (Michael W. Deem and Ramdas Pophale) SiO2 
 PCOD9424642
Probable space group: P C C A
;
_chemical_formula_sum "Si O2"
_cell_formula_units_Z 64
_cell_length_a 15.000000
_cell_length_b 9.000000
_cell_length_c 24.000000
_cell_angle_alpha 90.000000
_cell_angle_beta 90.000000
_cell_angle_gamma 90.000000
_cell_volume 3240.000000
_symmetry_space_group_name_H-M "P C C A"
_symmetry_group_IT_number 54
_symmetry_cell_setting 'orthorhombic'
loop_
_space_group_symop_operation_xyz
x,y,z
1/2-x,-y,z
1/2+x,-y,1/2-z
-x,y,1/2-z
-x,-y,-z
1/2+x,y,-z
1/2-x,y,1/2+z
x,-y,1/2+z
loop_
_atom_site_type_symbol
_atom_site_label
_atom_site_fract_x
_atom_site_fract_y
_atom_site_fract_z
Si Si1 0.342445 0.818541 0.845619
Si Si2 0.645161 0.984985 0.544191
Si Si3 0.011401 0.623925 0.617760
Si Si4 0.398862 0.109222 0.225463
Si Si5 0.404856 0.778132 0.218120
Si Si6 0.318046 0.362168 0.823770
Si Si7 0.996902 0.775192 0.502942
Si Si8 0.534493 0.703317 0.875551
O O1 0.344599 0.836623 0.779051
O O2 0.244185 0.756260 0.855949
O O3 0.429689 0.720341 0.859082
O O4 0.358239 0.951843 0.889195
O O5 0.578909 0.119574 0.529973
O O6 0.750000 0.000000 0.529002
O O7 0.592432 0.852978 0.511192
O O8 0.069442 0.734958 0.655326
O O9 0.011202 0.654867 0.551716
O O10 0.055969 0.467394 0.631519
O O11 0.910210 0.621995 0.642074
O O12 0.500000 0.105364 0.250000
O O13 0.408411 0.199584 0.168022
O O14 0.367288 0.943092 0.215170
O O15 0.500000 0.781198 0.250000
O O16 0.345253 0.680681 0.260295
O O17 0.250000 0.500000 0.821875
O O18 0.960425 0.737939 0.441206
#
# Coordination Sequence:
#
# PCOD9424642 Si02
#       8
#     8   8   8   8   8   8   8   8
#     4  10  21  35  61  90 123 157 203 267 327 379
#     4  10  22  39  65  93 124 161 218 278 329 379
#     4  11  22  39  64  89 127 171 215 259 318 398
#     4   9  20  35  59  86 122 155 205 248 313 376
#     4   9  22  35  57  87 121 159 198 253 308 377
#     4  11  22  37  60  96 128 158 210 268 334 385
#     4  10  23  39  67  92 126 172 224 266 318 388
#     4  10  21  39  61  89 122 172 208 257 317 384
#
# _framework density 19.753086
#
# number of rings (size 3 to 8) (size 9 to 14) (size 15 to 20)
#    0.000    2.000    1.250    1.125   14.000    1.500 
#    0.000    1.250    0.000    0.000    0.000    0.000 
#    0.000    0.000    0.000    0.000    0.000    0.000 
#
# Total GULP energy -356322.473961 kJ/mol
# GULP energy per Si atom -5567.538656 kJ/mol
# Density = 1.970813 g / cm^3
# Si number density = 19.753086 Si / 1000 Ang^3
#
#
#
# Elastic Constant Matrix: (Units=GPa)
#
#
# Indices 1 2 3 4 5 6 
#
# 1 63.8590 9.0887 13.7482 0.0000 0.0000 0.0000
# 2 9.0887 56.6891 39.0932 0.0000 0.0000 0.0000
# 3 13.7482 39.0932 142.6476 0.0000 0.0000 0.0000
# 4 0.0000 0.0000 0.0000 23.5309 0.0000 0.0000
# 5 0.0000 0.0000 0.0000 0.0000 25.9285 0.0000
# 6 0.0000 0.0000 0.0000 0.0000 0.0000 22.8312
#
#
#
# Elastic Compliance Matrix: (Units=1/GPa)
#
#
# Indices 1 2 3 4 5 6 
#
# 1 0.016150 -0.001869 -0.001044 0.000000 0.000000 0.000000
# 2 -0.001869 0.021967 -0.005840 0.000000 0.000000 0.000000
# 3 -0.001044 -0.005840 0.008711 0.000000 0.000000 0.000000
# 4 0.000000 0.000000 0.000000 0.042497 0.000000 0.000000
# 5 0.000000 0.000000 0.000000 0.000000 0.038568 0.000000
# 6 0.000000 0.000000 0.000000 0.000000 0.000000 0.043800
#
#
# Mechanical properties :
#
#
# Convention : Reuss Voigt Hill
#
# Bulk Modulus (GPa) = 34.10422 43.00621 38.55522
# Shear Modulus (GPa) = 25.12886 27.87583 26.50235
#
# Velocity S-wave (km/s) = 3.57059 3.76069 3.66687
# Velocity P-wave (km/s) = 5.85675 6.37779 6.12282
#
# Compressibility (1/GPa) = 0.02932188
#
# Stress axis : x y z
#
# Youngs Moduli (GPa) = 61.91816 45.52274 114.79197
#
# Poissons Ratio (x) = 0.08509 0.11988
# Poissons Ratio (y) = 0.11573 0.67039
# Poissons Ratio (z) = 0.06466 0.26585
#
# Static dielectric constant tensor:
#      x y z
#    x 1.663850 0.000000 0.000000 
#    y 0.000000 1.812260 0.000000 
#    z 0.000000 0.000000 1.676640 
# 
# From -- ./inp_files/24535.got.cif
#   From: 2010.05.17/outbox.ucp.g08.bks.cvg/sg54_13_cif.got.tgz:24535.got - 2010.06.11 16:34:40.
