data_PCOD9424485
_publ_section_title
;
Structure prediction by ZEFSAII (Michael W. Deem and Ramdas Pophale) SiO2 
 PCOD9424485
Probable space group: P C C A
;
_chemical_formula_sum "Si O2"
_cell_formula_units_Z 36
_cell_length_a 9.335806
_cell_length_b 9.816199
_cell_length_c 18.964275
_cell_angle_alpha 90.000000
_cell_angle_beta 90.000000
_cell_angle_gamma 90.000000
_cell_volume 1737.926546
_symmetry_space_group_name_H-M "P C C A"
_symmetry_group_IT_number 54
_symmetry_cell_setting 'orthorhombic'
loop_
_space_group_symop_operation_xyz
x,y,z
1/2-x,-y,z
1/2+x,-y,1/2-z
-x,y,1/2-z
-x,-y,-z
1/2+x,y,-z
1/2-x,y,1/2+z
x,-y,1/2+z
loop_
_atom_site_type_symbol
_atom_site_label
_atom_site_fract_x
_atom_site_fract_y
_atom_site_fract_z
Si Si1 0.090484 0.992277 0.928829
Si Si2 0.714482 0.343141 0.933259
Si Si3 0.526749 0.736609 0.171635
Si Si4 0.046148 0.719913 0.426322
Si Si5 0.250000 0.500000 0.853657
O O1 0.068379 0.860368 0.880576
O O2 0.250000 0.000000 0.955632
O O3 0.073204 0.136093 0.888392
O O4 0.000000 0.000000 0.000000
O O5 0.750000 0.500000 0.948423
O O6 0.617665 0.325891 0.863578
O O7 0.874602 0.285182 0.930336
O O8 0.618835 0.282338 0.996282
O O9 0.500000 0.789388 0.250000
O O10 0.649643 0.619954 0.178395
O O11 0.127087 0.590931 0.392304
#
# Coordination Sequence:
#
# PCOD9424485 Si02
#       5
#     8   8   8   8   4
#     4  12  25  46  73 109 142 187 242 298 361 426
#     4  12  23  41  71 111 142 182 243 302 365 416
#     4  12  29  49  70 102 150 194 242 294 361 440
#     4  12  23  40  74 108 139 186 238 310 357 417
#     4  12  24  46  72 102 144 188 244 298 360 422
#
# _framework density 20.714338999999999
#
# number of rings (size 3 to 8) (size 9 to 14) (size 15 to 20)
#    0.000    0.000    7.778    3.333    1.556    0.000 
#    4.000    1.111    0.000    0.000    0.000    0.000 
#    0.000    0.000    0.000    0.000    0.000    0.000 
#
# Total GULP energy -200669.381592 kJ/mol
# GULP energy per Si atom -5574.149489 kJ/mol
# Density = 2.066719 g / cm^3
# Si number density = 20.714339 Si / 1000 Ang^3
#
#
#
# Elastic Constant Matrix: (Units=GPa)
#
#
# Indices 1 2 3 4 5 6 
#
# 1 186.1578 32.4688 41.7592 0.0000 0.0000 0.0000
# 2 32.4688 138.4330 32.8913 0.0000 0.0000 0.0000
# 3 41.7592 32.8913 79.9870 0.0000 0.0000 0.0000
# 4 0.0000 0.0000 0.0000 15.0403 0.0000 0.0000
# 5 0.0000 0.0000 0.0000 0.0000 11.2611 0.0000
# 6 0.0000 0.0000 0.0000 0.0000 0.0000 37.8804
#
#
#
# Elastic Compliance Matrix: (Units=1/GPa)
#
#
# Indices 1 2 3 4 5 6 
#
# 1 0.006154 -0.000754 -0.002903 0.000000 0.000000 0.000000
# 2 -0.000754 0.008098 -0.002937 0.000000 0.000000 0.000000
# 3 -0.002903 -0.002937 0.015225 0.000000 0.000000 0.000000
# 4 0.000000 0.000000 0.000000 0.066488 0.000000 0.000000
# 5 0.000000 0.000000 0.000000 0.000000 0.088802 0.000000
# 6 0.000000 0.000000 0.000000 0.000000 0.000000 0.026399
#
#
# Mechanical properties :
#
#
# Convention : Reuss Voigt Hill
#
# Bulk Modulus (GPa) = 61.38338 68.75739 65.07039
# Shear Modulus (GPa) = 21.75959 32.66692 27.21325
#
# Velocity S-wave (km/s) = 3.24460 3.97548 3.62849
# Velocity P-wave (km/s) = 6.61318 7.37142 7.00257
#
# Compressibility (1/GPa) = 0.01629105
#
# Stress axis : x y z
#
# Youngs Moduli (GPa) = 162.48296 123.48414 65.68046
#
# Poissons Ratio (x) = 0.09307 0.19068
# Poissons Ratio (y) = 0.12247 0.19287
# Poissons Ratio (z) = 0.47172 0.36262
#
# Static dielectric constant tensor:
#      x y z
#    x 1.861680 0.000000 0.000000 
#    y 0.000000 1.847610 0.000000 
#    z 0.000000 0.000000 1.726880 
# 
# From -- ./inp_files/20126.got.cif
#   From: 2010.05.17/outbox.cif.g08.bks.cpg/sg54_11_cif.got.tgz:20126.got - 2010.06.03 13:09:01.
