data_PCOD9424386
_publ_section_title
;
Structure prediction by ZEFSAII (Michael W. Deem and Ramdas Pophale) SiO2 
 PCOD9424386
Probable space group: P C C A
;
_chemical_formula_sum "Si O2"
_cell_formula_units_Z 40
_cell_length_a 17.730813
_cell_length_b 8.271691
_cell_length_c 12.314665
_cell_angle_alpha 90.000000
_cell_angle_beta 90.000000
_cell_angle_gamma 90.000000
_cell_volume 1806.115642
_symmetry_space_group_name_H-M "P C C A"
_symmetry_group_IT_number 54
_symmetry_cell_setting 'orthorhombic'
loop_
_space_group_symop_operation_xyz
x,y,z
1/2-x,-y,z
1/2+x,-y,1/2-z
-x,y,1/2-z
-x,-y,-z
1/2+x,y,-z
1/2-x,y,1/2+z
x,-y,1/2+z
loop_
_atom_site_type_symbol
_atom_site_label
_atom_site_fract_x
_atom_site_fract_y
_atom_site_fract_z
Si Si1 0.210773 0.673068 0.149980
Si Si2 0.057946 0.714619 0.499138
Si Si3 0.392555 0.350866 0.947842
Si Si4 0.086042 0.163302 0.781407
Si Si5 0.637795 0.190577 0.783233
O O1 0.250000 0.500000 0.165518
O O2 0.141394 0.704476 0.230223
O O3 0.275808 0.800119 0.178593
O O4 0.176804 0.680209 0.029057
O O5 0.083154 0.539071 0.454400
O O6 0.090960 0.838571 0.411753
O O7 0.090093 0.732507 0.619163
O O8 0.968074 0.734656 0.506936
O O9 0.373973 0.289185 0.828005
O O10 0.000000 0.200961 0.750000
O O11 0.109435 0.990510 0.734909
#
# Coordination Sequence:
#
# PCOD9424386 Si02
#       5
#     8   8   8   8   8
#     4  12  26  50  73 111 150 205 254 322 382 453
#     4  11  25  47  79 112 148 197 262 316 381 456
#     4  11  25  47  78 109 148 198 261 319 376 463
#     4  12  27  49  78 111 158 200 253 316 392 465
#     4  12  28  47  78 113 155 199 255 316 396 452
#
# _framework density 22.146978000000001
#
# number of rings (size 3 to 8) (size 9 to 14) (size 15 to 20)
#    0.000    0.400    4.000    3.600    5.600    2.400 
#    0.000    0.000    0.000    0.000    0.000    0.000 
#    0.000    0.000    0.000    0.000    0.000    0.000 
#
# Total GULP energy -224029.319754 kJ/mol
# GULP energy per Si atom -5600.732994 kJ/mol
# Density = 2.209657 g / cm^3
# Si number density = 22.146978 Si / 1000 Ang^3
#
#
#
# Elastic Constant Matrix: (Units=GPa)
#
#
# Indices 1 2 3 4 5 6 
#
# 1 158.3910 48.7425 55.0168 0.0000 0.0000 0.0000
# 2 48.7425 58.0184 54.9356 0.0000 0.0000 0.0000
# 3 55.0168 54.9356 138.5237 0.0000 0.0000 0.0000
# 4 0.0000 0.0000 0.0000 17.7785 0.0000 0.0000
# 5 0.0000 0.0000 0.0000 0.0000 35.9978 0.0000
# 6 0.0000 0.0000 0.0000 0.0000 0.0000 34.6805
#
#
#
# Elastic Compliance Matrix: (Units=1/GPa)
#
#
# Indices 1 2 3 4 5 6 
#
# 1 0.008581 -0.006377 -0.000879 0.000000 0.000000 0.000000
# 2 -0.006377 0.032338 -0.010292 0.000000 0.000000 0.000000
# 3 -0.000879 -0.010292 0.011650 0.000000 0.000000 0.000000
# 4 0.000000 0.000000 0.000000 0.056248 0.000000 0.000000
# 5 0.000000 0.000000 0.000000 0.000000 0.027779 0.000000
# 6 0.000000 0.000000 0.000000 0.000000 0.000000 0.028835
#
#
# Mechanical properties :
#
#
# Convention : Reuss Voigt Hill
#
# Bulk Modulus (GPa) = 57.23050 74.70255 65.96653
# Shear Modulus (GPa) = 24.23045 30.77391 27.50218
#
# Velocity S-wave (km/s) = 3.31127 3.73169 3.52775
# Velocity P-wave (km/s) = 6.36527 7.23677 6.81497
#
# Compressibility (1/GPa) = 0.01747320
#
# Stress axis : x y z
#
# Youngs Moduli (GPa) = 116.53304 30.92302 85.83801
#
# Poissons Ratio (x) = 0.19719 0.07548
# Poissons Ratio (y) = 0.74310 0.88345
# Poissons Ratio (z) = 0.10247 0.31826
#
# Static dielectric constant tensor:
#      x y z
#    x 1.804630 0.000000 0.000000 
#    y 0.000000 1.822670 0.000000 
#    z 0.000000 0.000000 1.786810 
# 
# From -- ./inp_files/8711.got.cif
#   From: 2010.05.17/outbox.cif.g08.bks.cpg/sg54_5_cif.got.tgz:8711.got - 2010.06.03 13:09:01.
