data_PCOD9424754
_publ_section_title
;
Structure prediction by ZEFSAII (Michael W. Deem and Ramdas Pophale) SiO2 
 PCOD9424754
Probable space group: P B A M
;
_chemical_formula_sum "Si O2"
_cell_formula_units_Z 64
_cell_length_a 23.364364
_cell_length_b 13.709538
_cell_length_c 8.139790
_cell_angle_alpha 90.000000
_cell_angle_beta 90.000000
_cell_angle_gamma 90.000000
_cell_volume 2607.293872
_symmetry_space_group_name_H-M "P B A M"
_symmetry_group_IT_number 55
_symmetry_cell_setting 'orthorhombic'
loop_
_space_group_symop_operation_xyz
x,y,z
-x,-y,z
1/2+x,1/2-y,-z
1/2-x,1/2+y,-z
-x,-y,-z
x,y,-z
1/2-x,1/2+y,z
1/2+x,1/2-y,z
loop_
_atom_site_type_symbol
_atom_site_label
_atom_site_fract_x
_atom_site_fract_y
_atom_site_fract_z
Si Si1 0.579658 0.360835 0.812574
Si Si2 0.698284 0.595791 0.814109
Si Si3 0.680723 0.126904 0.196350
Si Si4 0.804257 0.841669 0.318094
Si Si5 0.427143 0.427443 0.202707
Si Si6 0.557994 0.796044 0.802837
Si Si7 0.816777 0.329907 0.813842
Si Si8 0.939846 0.645236 0.689039
O O1 0.648113 0.377406 0.808630
O O2 0.552678 0.462480 0.754618
O O3 0.569829 0.262503 0.712095
O O4 0.561227 0.340906 0.000000
O O5 0.761709 0.569922 0.753266
O O6 0.638309 0.572965 0.730271
O O7 0.694460 0.713536 0.825542
O O8 0.695480 0.558113 0.000000
O O9 0.688563 0.225396 0.300118
O O10 0.615297 0.094828 0.226454
O O11 0.685713 0.146804 0.000000
O O12 0.820245 0.873573 0.500000
O O13 0.738803 0.865261 0.281234
O O14 0.449806 0.318970 0.248987
O O15 0.427557 0.427939 0.000000
O O16 0.619273 0.836674 0.741806
O O17 0.504021 0.862790 0.758119
O O18 0.563471 0.792705 0.000000
O O19 0.816158 0.370973 0.000000
O O20 0.939209 0.618584 0.500000
#
# Coordination Sequence:
#
# PCOD9424754 Si02
#       8
#     8   8   8   8   8   8   8   8
#     4  10  18  29  44  59  79 110 146 174 200 237
#     4   7  11  22  41  63  79  92 121 168 214 244
#     4   9  15  26  44  60  76 101 134 170 208 248
#     4  10  17  25  39  59  83 105 129 165 207 246
#     4   8  15  27  44  63  80 103 138 178 208 236
#     4   9  17  31  47  61  79 106 143 178 208 242
#     4   8  14  26  44  61  77  99 129 167 207 249
#     4  11  21  30  39  56  85 114 142 174 206 240
#
# _framework density 24.546524000000002
#
# number of rings (size 3 to 8) (size 9 to 14) (size 15 to 20)
#    0.000    3.000    0.000    6.750    0.000    1.000 
#    0.000    3.750    0.000    7.500    0.000    0.000 
#    0.000    1.000    0.000   11.500    0.000    3.750 
#
# Total GULP energy -356606.388008 kJ/mol
# GULP energy per Si atom -5571.974813 kJ/mol
# Density = 2.449066 g / cm^3
# Si number density = 24.546524 Si / 1000 Ang^3
#
#
#
# Elastic Constant Matrix: (Units=GPa)
#
#
# Indices 1 2 3 4 5 6 
#
# 1 140.0271 -23.7574 7.4704 0.0000 0.0000 0.0000
# 2 -23.7574 41.2401 -1.0552 0.0000 0.0000 0.0000
# 3 7.4704 -1.0552 41.5117 0.0000 0.0000 0.0000
# 4 0.0000 0.0000 0.0000 17.9725 0.0000 0.0000
# 5 0.0000 0.0000 0.0000 0.0000 -14.8331 0.0000
# 6 0.0000 0.0000 0.0000 0.0000 0.0000 -22.2984
#
#
#
# Elastic Compliance Matrix: (Units=1/GPa)
#
#
# Indices 1 2 3 4 5 6 
#
# 1 0.007987 0.004567 -0.001321 0.000000 0.000000 0.000000
# 2 0.004567 0.026876 -0.000139 0.000000 0.000000 0.000000
# 3 -0.001321 -0.000139 0.024324 0.000000 0.000000 0.000000
# 4 0.000000 0.000000 0.000000 0.055641 0.000000 0.000000
# 5 0.000000 0.000000 0.000000 0.000000 -0.067417 0.000000
# 6 0.000000 0.000000 0.000000 0.000000 0.000000 -0.044846
#
#
# Mechanical properties :
#
#
# Convention : Reuss Voigt Hill
#
# Bulk Modulus (GPa) = 15.29026 20.89936 18.09481
# Shear Modulus (GPa) = 275.48785 12.17628 143.83206
#
# Velocity S-wave (km/s) = 10.60540 2.22963 7.66309
# Velocity P-wave (km/s) = 12.49835 3.89371 9.25661
#
# Compressibility (1/GPa) = 0.06540113
#
# Stress axis : x y z
#
# Youngs Moduli (GPa) = 125.20582 37.20820 41.11192
#
# Poissons Ratio (x) = -0.16994 0.05432
# Poissons Ratio (y) = -0.57184 0.00570
# Poissons Ratio (z) = 0.16542 0.00516
#
# Static dielectric constant tensor:
#      x y z
#    x 2.089660 0.000000 0.000000 
#    y 0.000000 2.008550 0.000000 
#    z 0.000000 0.000000 1.854750 
# 
# From -- ./inp_files/9893.got.cif
#   From: 2010.05.17/outbox.cif.g08.bks.cpg/sg55_5_cif.got.tgz:9893.got - 2010.06.03 13:27:54.
