data_PCOD9424116
_publ_section_title
;
Structure prediction by ZEFSAII (Michael W. Deem and Ramdas Pophale) SiO2 
 PCOD9424116
Probable space group: P C C A
;
_chemical_formula_sum "Si O2"
_cell_formula_units_Z 40
_cell_length_a 13.112673
_cell_length_b 9.038854
_cell_length_c 12.812189
_cell_angle_alpha 90.000000
_cell_angle_beta 90.000000
_cell_angle_gamma 90.000000
_cell_volume 1518.545954
_symmetry_space_group_name_H-M "P C C A"
_symmetry_group_IT_number 54
_symmetry_cell_setting 'orthorhombic'
loop_
_space_group_symop_operation_xyz
x,y,z
1/2-x,-y,z
1/2+x,-y,1/2-z
-x,y,1/2-z
-x,-y,-z
1/2+x,y,-z
1/2-x,y,1/2+z
x,-y,1/2+z
loop_
_atom_site_type_symbol
_atom_site_label
_atom_site_fract_x
_atom_site_fract_y
_atom_site_fract_z
Si Si1 0.438529 0.174912 0.013935
Si Si2 0.250000 0.000000 0.298991
Si Si3 0.196533 0.660506 0.340863
Si Si4 0.253446 0.343522 0.558751
Si Si5 0.615022 0.909743 0.376377
Si Si6 0.500000 0.764958 0.750000
O O1 0.357801 0.305119 0.014867
O O2 0.492701 0.170202 0.129543
O O3 0.373578 0.022798 0.026300
O O4 0.508922 0.165298 0.911608
O O5 0.245247 0.829930 0.342817
O O6 0.356054 0.994024 0.230161
O O7 0.250000 0.500000 0.326060
O O8 0.167778 0.646792 0.462855
O O9 0.102920 0.670764 0.262022
O O10 0.250000 0.500000 0.611123
O O11 0.297585 0.213370 0.626761
#
# Coordination Sequence:
#
# PCOD9424116 Si02
#       6
#     8   4   8   8   8   4
#     4  11  24  41  73 103 141 187 247 302 370 447
#     4  12  24  44  76 102 150 198 244 310 372 432
#     4  11  27  49  70 109 151 194 246 309 366 439
#     4  11  24  46  71 103 150 194 240 310 374 443
#     4  11  22  42  66 105 136 186 244 295 371 438
#     4  12  22  48  78 102 150 196 244 314 366 442
#
# _framework density 26.340987999999999
#
# number of rings (size 3 to 8) (size 9 to 14) (size 15 to 20)
#    0.000    0.800    6.000    0.000    2.800    4.000 
#    7.200    0.000    0.000    0.000    0.000    0.000 
#    0.000    0.000    0.000    0.000    0.000    0.000 
#
# Total GULP energy -222697.715832 kJ/mol
# GULP energy per Si atom -5567.442896 kJ/mol
# Density = 2.628103 g / cm^3
# Si number density = 26.340988 Si / 1000 Ang^3
#
#
#
# Elastic Constant Matrix: (Units=GPa)
#
#
# Indices 1 2 3 4 5 6 
#
# 1 73.3573 44.9547 4.4340 0.0000 0.0000 0.0000
# 2 44.9547 177.3814 21.5440 0.0000 0.0000 0.0000
# 3 4.4340 21.5440 105.6458 0.0000 0.0000 0.0000
# 4 0.0000 0.0000 0.0000 9.8057 0.0000 0.0000
# 5 0.0000 0.0000 0.0000 0.0000 46.6752 0.0000
# 6 0.0000 0.0000 0.0000 0.0000 0.0000 38.7230
#
#
#
# Elastic Compliance Matrix: (Units=1/GPa)
#
#
# Indices 1 2 3 4 5 6 
#
# 1 0.016141 -0.004110 0.000161 0.000000 0.000000 0.000000
# 2 -0.004110 0.006827 -0.001220 0.000000 0.000000 0.000000
# 3 0.000161 -0.001220 0.009708 0.000000 0.000000 0.000000
# 4 0.000000 0.000000 0.000000 0.101982 0.000000 0.000000
# 5 0.000000 0.000000 0.000000 0.000000 0.021425 0.000000
# 6 0.000000 0.000000 0.000000 0.000000 0.000000 0.025824
#
#
# Mechanical properties :
#
#
# Convention : Reuss Voigt Hill
#
# Bulk Modulus (GPa) = 44.76785 55.36111 50.06448
# Shear Modulus (GPa) = 25.03866 38.07089 31.55478
#
# Velocity S-wave (km/s) = 3.08646 3.80585 3.46487
# Velocity P-wave (km/s) = 5.45289 6.35416 5.92070
#
# Compressibility (1/GPa) = 0.02233746
#
# Stress axis : x y z
#
# Youngs Moduli (GPa) = 61.95401 146.46880 103.01213
#
# Poissons Ratio (x) = 0.60202 -0.01656
# Poissons Ratio (y) = 0.25464 0.12565
# Poissons Ratio (z) = -0.00996 0.17866
#
# Static dielectric constant tensor:
#      x y z
#    x 2.204630 0.000000 0.000000 
#    y 0.000000 2.141600 0.000000 
#    z 0.000000 0.000000 2.104640 
# 
# From -- ./inp_files/13261.got.cif
#   From: 2010.05.17/outbox.cif.g08.bks.cpg/sg54_7_cif.got.tgz:13261.got - 2010.06.03 13:09:01.
