data_PCOD9424597
_publ_section_title
;
Structure prediction by ZEFSAII (Michael W. Deem and Ramdas Pophale) SiO2 
 PCOD9424597
Probable space group: P C C A
;
_chemical_formula_sum "Si O2"
_cell_formula_units_Z 24
_cell_length_a 8.122871
_cell_length_b 12.605647
_cell_length_c 8.366766
_cell_angle_alpha 90.000000
_cell_angle_beta 90.000000
_cell_angle_gamma 90.000000
_cell_volume 856.707010
_symmetry_space_group_name_H-M "P C C A"
_symmetry_group_IT_number 54
_symmetry_cell_setting 'orthorhombic'
loop_
_space_group_symop_operation_xyz
x,y,z
1/2-x,-y,z
1/2+x,-y,1/2-z
-x,y,1/2-z
-x,-y,-z
1/2+x,y,-z
1/2-x,y,1/2+z
x,-y,1/2+z
loop_
_atom_site_type_symbol
_atom_site_label
_atom_site_fract_x
_atom_site_fract_y
_atom_site_fract_z
Si Si1 0.886202 0.424424 0.612237
Si Si2 0.640278 0.095489 0.364908
Si Si3 0.644227 0.754247 0.139695
O O1 0.750000 0.500000 0.692145
O O2 0.766833 0.329935 0.554529
O O3 0.000000 0.378315 0.750000
O O4 0.000000 0.500000 0.500000
O O5 0.500000 0.050569 0.250000
O O6 0.750180 0.171273 0.254555
O O7 0.570342 0.169215 0.504813
O O8 0.750000 0.000000 0.430938
O O9 0.500000 0.704652 0.250000
#
# Coordination Sequence:
#
# PCOD9424597 Si02
#       3
#     8   8   8
#     4  12  30  53  82 121 165 223 288 353 425 509
#     4  12  28  53  85 125 171 225 287 352 430 523
#     4  12  29  51  85 124 173 225 285 356 431 514
#
# _framework density 28.014247000000001
#
# number of rings (size 3 to 8) (size 9 to 14) (size 15 to 20)
#    0.000    0.000    0.000    7.000   18.667    4.000 
#    0.000    3.333    0.000    0.000    0.000    0.000 
#    0.000    0.000    0.000    0.000    0.000    0.000 
#
# Total GULP energy -134667.170221 kJ/mol
# GULP energy per Si atom -5611.132093 kJ/mol
# Density = 2.795049 g / cm^3
# Si number density = 28.014247 Si / 1000 Ang^3
#
#
#
# Elastic Constant Matrix: (Units=GPa)
#
#
# Indices 1 2 3 4 5 6 
#
# 1 147.4068 64.2792 57.0734 0.0000 0.0000 0.0000
# 2 64.2792 136.7063 44.5907 0.0000 0.0000 0.0000
# 3 57.0734 44.5907 111.5917 0.0000 0.0000 0.0000
# 4 0.0000 0.0000 0.0000 48.2789 0.0000 0.0000
# 5 0.0000 0.0000 0.0000 0.0000 61.4886 0.0000
# 6 0.0000 0.0000 0.0000 0.0000 0.0000 67.7716
#
#
#
# Elastic Compliance Matrix: (Units=1/GPa)
#
#
# Indices 1 2 3 4 5 6 
#
# 1 0.009639 -0.003362 -0.003586 0.000000 0.000000 0.000000
# 2 -0.003362 0.009584 -0.002110 0.000000 0.000000 0.000000
# 3 -0.003586 -0.002110 0.011638 0.000000 0.000000 0.000000
# 4 0.000000 0.000000 0.000000 0.020713 0.000000 0.000000
# 5 0.000000 0.000000 0.000000 0.000000 0.016263 0.000000
# 6 0.000000 0.000000 0.000000 0.000000 0.000000 0.014755
#
#
# Mechanical properties :
#
#
# Convention : Reuss Voigt Hill
#
# Bulk Modulus (GPa) = 78.46657 80.84349 79.65503
# Shear Modulus (GPa) = 47.63806 50.82525 49.23166
#
# Velocity S-wave (km/s) = 4.12818 4.26404 4.19666
# Velocity P-wave (km/s) = 7.12691 7.29132 7.20958
#
# Compressibility (1/GPa) = 0.01274428
#
# Stress axis : x y z
#
# Youngs Moduli (GPa) = 103.74894 104.33854 85.92173
#
# Poissons Ratio (x) = 0.35083 0.30813
# Poissons Ratio (y) = 0.34884 0.18130
# Poissons Ratio (z) = 0.37206 0.22016
#
# Static dielectric constant tensor:
#      x y z
#    x 2.098830 0.000000 0.000000 
#    y 0.000000 2.119230 0.000000 
#    z 0.000000 0.000000 2.085910 
# 
# From -- ./inp_files/2425.got.cif
#   From: 2010.05.17/outbox.cif.g08.bks.cpg/sg54_2_cif.got.tgz:2425.got - 2010.06.03 13:09:01.
