data_PCOD9424752
_publ_section_title
;
Structure prediction by ZEFSAII (Michael W. Deem and Ramdas Pophale) SiO2 
 PCOD9424752
Probable space group: P B A M
;
_chemical_formula_sum "Si O2"
_cell_formula_units_Z 64
_cell_length_a 21.912784
_cell_length_b 14.784417
_cell_length_c 9.299676
_cell_angle_alpha 90.000000
_cell_angle_beta 90.000000
_cell_angle_gamma 90.000000
_cell_volume 3012.794982
_symmetry_space_group_name_H-M "P B A M"
_symmetry_group_IT_number 55
_symmetry_cell_setting 'orthorhombic'
loop_
_space_group_symop_operation_xyz
x,y,z
-x,-y,z
1/2+x,1/2-y,-z
1/2-x,1/2+y,-z
-x,-y,-z
x,y,-z
1/2-x,1/2+y,z
1/2+x,1/2-y,z
loop_
_atom_site_type_symbol
_atom_site_label
_atom_site_fract_x
_atom_site_fract_y
_atom_site_fract_z
Si Si1 0.303538 0.522369 0.663370
Si Si2 0.685608 0.969866 0.829104
Si Si3 0.316449 0.224451 0.674288
Si Si4 0.067523 0.514159 0.662538
Si Si5 0.184957 0.243945 0.335890
Si Si6 0.946742 0.272182 0.659177
Si Si7 0.066536 0.231719 0.168938
Si Si8 0.565206 0.452743 0.667008
O O1 0.285894 0.498305 0.500000
O O2 0.250052 0.493971 0.769829
O O3 0.309386 0.633153 0.668410
O O4 0.372766 0.490599 0.690996
O O5 0.685405 0.865944 0.771001
O O6 0.625807 0.013422 0.755263
O O7 0.681731 0.973490 0.000000
O O8 0.314853 0.203863 0.500000
O O9 0.253130 0.275902 0.703456
O O10 0.381754 0.270905 0.701937
O O11 0.068985 0.474604 0.500000
O O12 0.070110 0.622394 0.647595
O O13 0.000000 0.500000 0.725764
O O14 0.171704 0.269633 0.500000
O O15 0.128494 0.270881 0.237505
O O16 0.964241 0.237946 0.500000
O O17 0.003885 0.266907 0.762828
O O18 0.066362 0.127552 0.219144
O O19 0.067077 0.242737 0.000000
O O20 0.500000 0.500000 0.678239
O O21 0.570645 0.420052 0.500000
#
# Coordination Sequence:
#
# PCOD9424752 Si02
#       8
#     8   8   8   8   8   8   8   8
#     4   8  14  26  44  65  89 116 150 192 230 267
#     4  10  17  24  40  67  96 122 148 183 228 277
#     4   8  15  28  46  66  87 115 154 197 233 265
#     4   9  18  33  52  71  91 119 157 198 235 271
#     4   8  14  27  46  66  88 116 154 197 233 265
#     4   9  17  31  50  70  93 121 154 193 233 273
#     4  11  21  30  44  70 101 129 154 183 227 282
#     4   9  18  33  52  71  91 120 159 199 235 270
#
# _framework density 21.242733999999999
#
# number of rings (size 3 to 8) (size 9 to 14) (size 15 to 20)
#    0.000    3.000    0.000    4.500    0.000    7.000 
#    0.000    0.000    0.000    1.500    0.000    5.250 
#    0.000    0.000    0.000    0.000    0.000    0.000 
#
# Total GULP energy -356685.180162 kJ/mol
# GULP energy per Si atom -5573.205940 kJ/mol
# Density = 2.119438 g / cm^3
# Si number density = 21.242734 Si / 1000 Ang^3
#
#
#
# Elastic Constant Matrix: (Units=GPa)
#
#
# Indices 1 2 3 4 5 6 
#
# 1 241.3672 12.5861 109.2678 0.0000 0.0000 0.0000
# 2 12.5861 34.3009 8.9581 0.0000 0.0000 0.0000
# 3 109.2678 8.9581 122.7078 0.0000 0.0000 0.0000
# 4 0.0000 0.0000 0.0000 5.7761 0.0000 0.0000
# 5 0.0000 0.0000 0.0000 0.0000 92.2594 0.0000
# 6 0.0000 0.0000 0.0000 0.0000 0.0000 16.3962
#
#
#
# Elastic Compliance Matrix: (Units=1/GPa)
#
#
# Indices 1 2 3 4 5 6 
#
# 1 0.006972 -0.000955 -0.006138 0.000000 0.000000 0.000000
# 2 -0.000955 0.029851 -0.001329 0.000000 0.000000 0.000000
# 3 -0.006138 -0.001329 0.013713 0.000000 0.000000 0.000000
# 4 0.000000 0.000000 0.000000 0.173127 0.000000 0.000000
# 5 0.000000 0.000000 0.000000 0.000000 0.010839 0.000000
# 6 0.000000 0.000000 0.000000 0.000000 0.000000 0.060990
#
#
# Mechanical properties :
#
#
# Convention : Reuss Voigt Hill
#
# Bulk Modulus (GPa) = 29.68153 73.33330 51.50742
# Shear Modulus (GPa) = 15.45277 40.72394 28.08836
#
# Velocity S-wave (km/s) = 2.70003 4.38319 3.64023
# Velocity P-wave (km/s) = 4.87064 7.75971 6.47828
#
# Compressibility (1/GPa) = 0.03369098
#
# Stress axis : x y z
#
# Youngs Moduli (GPa) = 143.43603 33.49947 72.92597
#
# Poissons Ratio (x) = 0.03199 0.44765
# Poissons Ratio (y) = 0.13699 0.09690
# Poissons Ratio (z) = 0.88047 0.04451
#
# Static dielectric constant tensor:
#      x y z
#    x 1.859870 0.000000 0.000000 
#    y 0.000000 1.883860 0.000000 
#    z 0.000000 0.000000 1.707600 
# 
# From -- ./inp_files/9047.got.cif
#   From: 2010.05.17/outbox.cif.g08.bks.cpg/sg55_5_cif.got.tgz:9047.got - 2010.06.03 13:27:54.
