data_PCOD9424326
_publ_section_title
;
Structure prediction by ZEFSAII (Michael W. Deem and Ramdas Pophale) SiO2 
 PCOD9424326
Probable space group: P C C A
;
_chemical_formula_sum "Si O2"
_cell_formula_units_Z 32
_cell_length_a 15.518814
_cell_length_b 6.600349
_cell_length_c 13.989853
_cell_angle_alpha 90.000000
_cell_angle_beta 90.000000
_cell_angle_gamma 90.000000
_cell_volume 1432.974885
_symmetry_space_group_name_H-M "P C C A"
_symmetry_group_IT_number 54
_symmetry_cell_setting 'orthorhombic'
loop_
_space_group_symop_operation_xyz
x,y,z
1/2-x,-y,z
1/2+x,-y,1/2-z
-x,y,1/2-z
-x,-y,-z
1/2+x,y,-z
1/2-x,y,1/2+z
x,-y,1/2+z
loop_
_atom_site_type_symbol
_atom_site_label
_atom_site_fract_x
_atom_site_fract_y
_atom_site_fract_z
Si Si1 0.500000 0.439694 0.250000
Si Si2 0.250000 0.000000 0.129486
Si Si3 0.017300 0.716958 0.455027
Si Si4 0.179752 0.678756 0.779108
Si Si5 0.133159 0.058313 0.458214
O O1 0.510563 0.301971 0.344491
O O2 0.585829 0.576216 0.236238
O O3 0.293875 0.826676 0.192649
O O4 0.182323 0.902347 0.056300
O O5 0.000000 0.500000 0.500000
O O6 0.960010 0.844112 0.528896
O O7 0.112084 0.818714 0.450411
O O8 0.250000 0.500000 0.789202
O O9 0.176848 0.827173 0.870889
#
# Coordination Sequence:
#
# PCOD9424326 Si02
#       5
#     4   4   8   8   8
#     4  12  26  46  82 104 154 194 256 306 392 450
#     4  12  28  46  72 106 150 194 244 318 372 458
#     4  11  24  47  72 109 144 193 244 315 373 459
#     4  12  29  49  74 114 148 202 254 314 381 458
#     4  11  27  45  76 106 148 193 254 308 389 452
#
# _framework density 22.331168000000002
#
# number of rings (size 3 to 8) (size 9 to 14) (size 15 to 20)
#    0.000    0.500    2.500    3.750   14.000    3.000 
#    0.000    0.000    0.000    0.000    0.000    0.000 
#    0.000    0.000    0.000    0.000    0.000    0.000 
#
# Total GULP energy -178679.501421 kJ/mol
# GULP energy per Si atom -5583.734419 kJ/mol
# Density = 2.228034 g / cm^3
# Si number density = 22.331168 Si / 1000 Ang^3
#
#
#
# Elastic Constant Matrix: (Units=GPa)
#
#
# Indices 1 2 3 4 5 6 
#
# 1 119.6480 40.4353 24.8488 0.0000 0.0000 0.0000
# 2 40.4353 56.8651 18.0892 0.0000 0.0000 0.0000
# 3 24.8488 18.0892 155.0384 0.0000 0.0000 0.0000
# 4 0.0000 0.0000 0.0000 44.9052 0.0000 0.0000
# 5 0.0000 0.0000 0.0000 0.0000 14.9943 0.0000
# 6 0.0000 0.0000 0.0000 0.0000 0.0000 36.9167
#
#
#
# Elastic Compliance Matrix: (Units=1/GPa)
#
#
# Indices 1 2 3 4 5 6 
#
# 1 0.011119 -0.007623 -0.000893 0.000000 0.000000 0.000000
# 2 -0.007623 0.023489 -0.001519 0.000000 0.000000 0.000000
# 3 -0.000893 -0.001519 0.006770 0.000000 0.000000 0.000000
# 4 0.000000 0.000000 0.000000 0.022269 0.000000 0.000000
# 5 0.000000 0.000000 0.000000 0.000000 0.066692 0.000000
# 6 0.000000 0.000000 0.000000 0.000000 0.000000 0.027088
#
#
# Mechanical properties :
#
#
# Convention : Reuss Voigt Hill
#
# Bulk Modulus (GPa) = 46.92637 55.36644 51.14640
# Shear Modulus (GPa) = 27.08564 35.90846 31.49705
#
# Velocity S-wave (km/s) = 3.48646 4.01433 3.75967
# Velocity P-wave (km/s) = 6.10464 6.80688 6.46531
#
# Compressibility (1/GPa) = 0.02130998
#
# Stress axis : x y z
#
# Youngs Moduli (GPa) = 89.93312 42.57319 147.70355
#
# Poissons Ratio (x) = 0.32452 0.13187
# Poissons Ratio (y) = 0.68553 0.22434
# Poissons Ratio (z) = 0.08029 0.06466
#
# Static dielectric constant tensor:
#      x y z
#    x 1.995900 0.000000 0.000000 
#    y 0.000000 1.238470 0.000000 
#    z 0.000000 0.000000 1.655680 
# 
# From -- ./inp_files/13759.got.cif
#   From: 2010.05.17/outbox.cif.g08.bks.cpg/sg54_7_cif.got.tgz:13759.got - 2010.06.03 13:09:01.
