data_PCOD9424389
_publ_section_title
;
Structure prediction by ZEFSAII (Michael W. Deem and Ramdas Pophale) SiO2 
 PCOD9424389
Probable space group: P C C A
;
_chemical_formula_sum "Si O2"
_cell_formula_units_Z 20
_cell_length_a 5.186070
_cell_length_b 5.126404
_cell_length_c 28.834885
_cell_angle_alpha 90.000000
_cell_angle_beta 90.000000
_cell_angle_gamma 90.000000
_cell_volume 766.601081
_symmetry_space_group_name_H-M "P C C A"
_symmetry_group_IT_number 54
_symmetry_cell_setting 'orthorhombic'
loop_
_space_group_symop_operation_xyz
x,y,z
1/2-x,-y,z
1/2+x,-y,1/2-z
-x,y,1/2-z
-x,-y,-z
1/2+x,y,-z
1/2-x,y,1/2+z
x,-y,1/2+z
loop_
_atom_site_type_symbol
_atom_site_label
_atom_site_fract_x
_atom_site_fract_y
_atom_site_fract_z
Si Si1 0.420066 0.730094 0.401114
Si Si2 0.750000 0.000000 0.967402
Si Si3 0.000394 0.815723 0.700386
O O1 0.250000 0.500000 0.421723
O O2 0.486250 0.663617 0.347781
O O3 0.250000 0.000000 0.401229
O O4 0.674689 0.775982 0.430977
O O5 0.500000 0.000000 0.000000
O O6 0.000000 0.670269 0.750000
O O7 0.750000 0.000000 0.701769
O O8 0.250000 0.000000 0.697483
#
# Coordination Sequence:
#
# PCOD9424389 Si02
#       3
#     8   4   8
#     4  11  25  48  74 107 148 194 245 310 378 452
#     4  12  26  50  76 108 146 196 254 318 380 444
#     4   9  18  38  67 101 141 187 236 293 365 447
#
# _framework density 26.089186999999999
#
# number of rings (size 3 to 8) (size 9 to 14) (size 15 to 20)
#    0.000    1.600    4.000    0.000    0.000    3.200 
#    0.000   16.000    0.000    0.000    0.000    0.000 
#    0.000    0.000    0.000    0.000    0.000    0.000 
#
# Total GULP energy -111924.193485 kJ/mol
# GULP energy per Si atom -5596.209674 kJ/mol
# Density = 2.602981 g / cm^3
# Si number density = 26.089187 Si / 1000 Ang^3
#
#
#
# Elastic Constant Matrix: (Units=GPa)
#
#
# Indices 1 2 3 4 5 6 
#
# 1 220.9147 56.0580 51.5118 0.0000 0.0000 0.0000
# 2 56.0580 110.7790 13.5997 0.0000 0.0000 0.0000
# 3 51.5118 13.5997 211.2164 0.0000 0.0000 0.0000
# 4 0.0000 0.0000 0.0000 -61.1435 0.0000 0.0000
# 5 0.0000 0.0000 0.0000 0.0000 253.5129 0.0000
# 6 0.0000 0.0000 0.0000 0.0000 0.0000 64.0404
#
#
#
# Elastic Compliance Matrix: (Units=1/GPa)
#
#
# Indices 1 2 3 4 5 6 
#
# 1 0.005463 -0.002622 -0.001164 0.000000 0.000000 0.000000
# 2 -0.002622 0.010357 -0.000027 0.000000 0.000000 0.000000
# 3 -0.001164 -0.000027 0.005020 0.000000 0.000000 0.000000
# 4 0.000000 0.000000 0.000000 -0.016355 0.000000 0.000000
# 5 0.000000 0.000000 0.000000 0.000000 0.003945 0.000000
# 6 0.000000 0.000000 0.000000 0.000000 0.000000 0.015615
#
#
# Mechanical properties :
#
#
# Convention : Reuss Voigt Hill
#
# Bulk Modulus (GPa) = 75.67315 87.24992 81.46153
# Shear Modulus (GPa) = 138.59814 79.39799 108.99807
#
# Velocity S-wave (km/s) = 7.29658 5.52262 6.47068
# Velocity P-wave (km/s) = 10.00276 8.61286 9.33372
#
# Compressibility (1/GPa) = 0.01321473
#
# Stress axis : x y z
#
# Youngs Moduli (GPa) = 183.04199 96.55267 199.20224
#
# Poissons Ratio (x) = 0.25314 0.23179
# Poissons Ratio (y) = 0.47989 0.00547
# Poissons Ratio (z) = 0.21298 0.00265
#
# Static dielectric constant tensor:
#      x y z
#    x 2.030990 0.000000 0.000000 
#    y 0.000000 1.861600 0.000000 
#    z 0.000000 0.000000 2.112690 
# 
# From -- ./inp_files/24924.got.cif
#   From: 2010.05.17/outbox.cif.g08.bks.cpg/sg54_13_cif.got.tgz:24924.got - 2010.06.03 13:09:01.
