data_PCOD9424549
_publ_section_title
;
Structure prediction by ZEFSAII (Michael W. Deem and Ramdas Pophale) SiO2 
 PCOD9424549
Probable space group: P C C A
;
_chemical_formula_sum "Si O2"
_cell_formula_units_Z 24
_cell_length_a 17.592417
_cell_length_b 4.724261
_cell_length_c 11.782092
_cell_angle_alpha 90.000000
_cell_angle_beta 90.000000
_cell_angle_gamma 90.000000
_cell_volume 979.223446
_symmetry_space_group_name_H-M "P C C A"
_symmetry_group_IT_number 54
_symmetry_cell_setting 'orthorhombic'
loop_
_space_group_symop_operation_xyz
x,y,z
1/2-x,-y,z
1/2+x,-y,1/2-z
-x,y,1/2-z
-x,-y,-z
1/2+x,y,-z
1/2-x,y,1/2+z
x,-y,1/2+z
loop_
_atom_site_type_symbol
_atom_site_label
_atom_site_fract_x
_atom_site_fract_y
_atom_site_fract_z
Si Si1 0.698048 0.749429 0.377448
Si Si2 0.584034 0.533565 0.701675
Si Si3 0.083669 0.962568 0.948432
O O1 0.750000 0.500000 0.429891
O O2 0.646105 0.582674 0.287759
O O3 0.645662 0.914853 0.466683
O O4 0.750000 0.000000 0.325137
O O5 0.500000 0.478355 0.750000
O O6 0.589291 0.861197 0.668723
O O7 0.593083 0.362844 0.584267
O O8 0.000000 0.000000 0.000000
#
# Coordination Sequence:
#
# PCOD9424549 Si02
#       3
#     8   8   8
#     4  12  28  47  71 109 151 188 238 310 365 424
#     4  12  26  45  77 106 141 191 246 292 358 437
#     4  12  26  46  76 107 140 193 245 294 358 436
#
# _framework density 24.509218000000001
#
# number of rings (size 3 to 8) (size 9 to 14) (size 15 to 20)
#    0.000    0.000    3.333    6.000    4.667    8.000 
#    0.000    0.000    0.000    0.000    0.000    0.000 
#    0.000    0.000    0.000    0.000    0.000    0.000 
#
# Total GULP energy -134627.016606 kJ/mol
# GULP energy per Si atom -5609.459025 kJ/mol
# Density = 2.445343 g / cm^3
# Si number density = 24.509218 Si / 1000 Ang^3
#
#
#
# Elastic Constant Matrix: (Units=GPa)
#
#
# Indices 1 2 3 4 5 6 
#
# 1 143.6052 29.0442 34.2166 0.0000 0.0000 0.0000
# 2 29.0442 102.1802 -2.8878 0.0000 0.0000 0.0000
# 3 34.2166 -2.8878 51.9502 0.0000 0.0000 0.0000
# 4 0.0000 0.0000 0.0000 55.9454 0.0000 0.0000
# 5 0.0000 0.0000 0.0000 0.0000 39.0641 0.0000
# 6 0.0000 0.0000 0.0000 0.0000 0.0000 49.2586
#
#
#
# Elastic Compliance Matrix: (Units=1/GPa)
#
#
# Indices 1 2 3 4 5 6 
#
# 1 0.008954 -0.002716 -0.006048 0.000000 0.000000 0.000000
# 2 -0.002716 0.010626 0.002380 0.000000 0.000000 0.000000
# 3 -0.006048 0.002380 0.023365 0.000000 0.000000 0.000000
# 4 0.000000 0.000000 0.000000 0.017875 0.000000 0.000000
# 5 0.000000 0.000000 0.000000 0.000000 0.025599 0.000000
# 6 0.000000 0.000000 0.000000 0.000000 0.000000 0.020301
#
#
# Mechanical properties :
#
#
# Convention : Reuss Voigt Hill
#
# Bulk Modulus (GPa) = 33.13972 46.49796 39.81884
# Shear Modulus (GPa) = 38.59569 44.67778 41.63673
#
# Velocity S-wave (km/s) = 3.97261 4.27417 4.12615
# Velocity P-wave (km/s) = 5.88157 6.58566 6.24354
#
# Compressibility (1/GPa) = 0.03017527
#
# Stress axis : x y z
#
# Youngs Moduli (GPa) = 111.68151 94.10954 42.79856
#
# Poissons Ratio (x) = 0.25561 0.25887
# Poissons Ratio (y) = 0.30334 -0.10184
# Poissons Ratio (z) = 0.67550 -0.22394
#
# Static dielectric constant tensor:
#      x y z
#    x 1.919370 0.000000 0.000000 
#    y 0.000000 1.867460 0.000000 
#    z 0.000000 0.000000 1.938350 
# 
# From -- ./inp_files/7755.got.cif
#   From: 2010.05.17/outbox.cif.g08.bks.cpg/sg54_4_cif.got.tgz:7755.got - 2010.06.03 13:09:01.
