data_PCOD9424665
_publ_section_title
;
Structure prediction by ZEFSAII (Michael W. Deem and Ramdas Pophale) SiO2 
 PCOD9424665
Probable space group: P C C A
;
_chemical_formula_sum "Si O2"
_cell_formula_units_Z 32
_cell_length_a 9.000000
_cell_length_b 6.000000
_cell_length_c 30.000000
_cell_angle_alpha 90.000000
_cell_angle_beta 90.000000
_cell_angle_gamma 90.000000
_cell_volume 1620.000000
_symmetry_space_group_name_H-M "P C C A"
_symmetry_group_IT_number 54
_symmetry_cell_setting 'orthorhombic'
loop_
_space_group_symop_operation_xyz
x,y,z
1/2-x,-y,z
1/2+x,-y,1/2-z
-x,y,1/2-z
-x,-y,-z
1/2+x,y,-z
1/2-x,y,1/2+z
x,-y,1/2+z
loop_
_atom_site_type_symbol
_atom_site_label
_atom_site_fract_x
_atom_site_fract_y
_atom_site_fract_z
Si Si1 0.849122 0.255192 0.217251
Si Si2 0.250000 0.000000 0.441162
Si Si3 0.250000 0.000000 0.578411
Si Si4 0.504264 0.666602 0.957477
Si Si5 0.020613 0.714060 0.883947
O O1 0.750000 0.500000 0.224893
O O2 0.919971 0.286618 0.167297
O O3 0.000000 0.244047 0.250000
O O4 0.750000 0.000000 0.219521
O O5 0.364143 0.168989 0.464542
O O6 0.144916 0.151484 0.410881
O O7 0.351449 0.826084 0.549767
O O8 0.133793 0.851500 0.607859
O O9 0.492045 0.520384 0.911475
O O10 0.500000 0.500000 0.000000
#
# Coordination Sequence:
#
# PCOD9424665 Si02
#       5
#     8   4   4   8   8
#     4  12  28  51  82 119 159 205 261 325 397 477
#     4  10  22  43  69  96 136 194 239 300 368 451
#     4  10  26  43  67 106 138 194 247 312 378 451
#     4  11  25  44  68 102 144 194 250 313 372 454
#     4  11  24  44  73 103 146 188 251 298 386 452
#
# _framework density 19.753086
#
# number of rings (size 3 to 8) (size 9 to 14) (size 15 to 20)
#    0.000    1.000    1.250    3.750    5.250   12.000 
#    0.000    3.750    0.000    0.000    0.000    0.000 
#    0.000    0.000    0.000    0.000    0.000    0.000 
#
# Total GULP energy -178241.773105 kJ/mol
# GULP energy per Si atom -5570.055410 kJ/mol
# Density = 1.970813 g / cm^3
# Si number density = 19.753086 Si / 1000 Ang^3
#
#
#
# Elastic Constant Matrix: (Units=GPa)
#
#
# Indices 1 2 3 4 5 6 
#
# 1 175.7299 75.9025 56.2498 0.0000 0.0000 0.0000
# 2 75.9025 162.5200 60.8717 0.0000 0.0000 0.0000
# 3 56.2498 60.8717 136.3435 0.0000 0.0000 0.0000
# 4 0.0000 0.0000 0.0000 36.4057 0.0000 0.0000
# 5 0.0000 0.0000 0.0000 0.0000 39.0789 0.0000
# 6 0.0000 0.0000 0.0000 0.0000 0.0000 58.4060
#
#
#
# Elastic Compliance Matrix: (Units=1/GPa)
#
#
# Indices 1 2 3 4 5 6 
#
# 1 0.007493 -0.002812 -0.001836 0.000000 0.000000 0.000000
# 2 -0.002812 0.008444 -0.002610 0.000000 0.000000 0.000000
# 3 -0.001836 -0.002610 0.009257 0.000000 0.000000 0.000000
# 4 0.000000 0.000000 0.000000 0.027468 0.000000 0.000000
# 5 0.000000 0.000000 0.000000 0.000000 0.025589 0.000000
# 6 0.000000 0.000000 0.000000 0.000000 0.000000 0.017122
#
#
# Mechanical properties :
#
#
# Convention : Reuss Voigt Hill
#
# Bulk Modulus (GPa) = 93.64457 95.62684 94.63570
# Shear Modulus (GPa) = 44.07359 45.54941 44.81150
#
# Velocity S-wave (km/s) = 4.72871 4.80723 4.76813
# Velocity P-wave (km/s) = 8.79345 8.90667 8.85024
#
# Compressibility (1/GPa) = 0.01067868
#
# Stress axis : x y z
#
# Youngs Moduli (GPa) = 133.46419 118.43081 108.02666
#
# Poissons Ratio (x) = 0.33299 0.19832
# Poissons Ratio (y) = 0.37526 0.28193
# Poissons Ratio (z) = 0.24502 0.30908
#
# Static dielectric constant tensor:
#      x y z
#    x 1.753410 0.000000 0.000000 
#    y 0.000000 1.835060 0.000000 
#    z 0.000000 0.000000 1.714530 
# 
# From -- ./inp_files/27426.got.cif
#   From: 2010.05.17/outbox.ucp.g08.bks.cvg/sg54_14_cif.got.tgz:27426.got - 2010.06.11 16:34:40.
