data_PCOD9424296
_publ_section_title
;
Structure prediction by ZEFSAII (Michael W. Deem and Ramdas Pophale) SiO2 
 PCOD9424296
Probable space group: P C C A
;
_chemical_formula_sum "Si O2"
_cell_formula_units_Z 28
_cell_length_a 16.841745
_cell_length_b 5.369633
_cell_length_c 13.130114
_cell_angle_alpha 90.000000
_cell_angle_beta 90.000000
_cell_angle_gamma 90.000000
_cell_volume 1187.408595
_symmetry_space_group_name_H-M "P C C A"
_symmetry_group_IT_number 54
_symmetry_cell_setting 'orthorhombic'
loop_
_space_group_symop_operation_xyz
x,y,z
1/2-x,-y,z
1/2+x,-y,1/2-z
-x,y,1/2-z
-x,-y,-z
1/2+x,y,-z
1/2-x,y,1/2+z
x,-y,1/2+z
loop_
_atom_site_type_symbol
_atom_site_label
_atom_site_fract_x
_atom_site_fract_y
_atom_site_fract_z
Si Si1 0.000000 0.123619 0.250000
Si Si2 0.578192 0.441312 0.609284
Si Si3 0.801151 0.749254 0.210023
Si Si4 0.919372 0.260615 0.894702
O O1 0.984900 0.517459 0.391945
O O2 0.076486 0.273526 0.289883
O O3 0.629462 0.689195 0.627440
O O4 0.470075 0.963713 0.653791
O O5 0.604016 0.280440 0.512517
O O6 0.750000 0.500000 0.199630
O O7 0.844543 0.735391 0.319858
O O8 0.750000 0.000000 0.197416
#
# Coordination Sequence:
#
# PCOD9424296 Si02
#       4
#     4   8   8   8
#     4  12  18  44  74 112 144 190 256 336 374 444
#     4  11  24  44  75 108 147 198 266 317 381 456
#     4  12  26  48  72 106 159 203 244 315 390 466
#     4  11  24  44  73 108 142 201 263 322 374 456
#
# _framework density 23.580762
#
# number of rings (size 3 to 8) (size 9 to 14) (size 15 to 20)
#    0.000    0.571    5.714    2.571    0.000    1.143 
#    0.000    5.714    0.000    0.000    0.000    0.000 
#    0.000    0.000    0.000    0.000    0.000    0.000 
#
# Total GULP energy -156185.968197 kJ/mol
# GULP energy per Si atom -5578.070293 kJ/mol
# Density = 2.352709 g / cm^3
# Si number density = 23.580762 Si / 1000 Ang^3
#
#
#
# Elastic Constant Matrix: (Units=GPa)
#
#
# Indices 1 2 3 4 5 6 
#
# 1 71.5096 32.7239 37.8104 0.0000 0.0000 0.0000
# 2 32.7239 132.4975 61.2866 0.0000 0.0000 0.0000
# 3 37.8104 61.2866 143.9137 0.0000 0.0000 0.0000
# 4 0.0000 0.0000 0.0000 42.4288 0.0000 0.0000
# 5 0.0000 0.0000 0.0000 0.0000 22.2535 0.0000
# 6 0.0000 0.0000 0.0000 0.0000 0.0000 180.0496
#
#
#
# Elastic Compliance Matrix: (Units=1/GPa)
#
#
# Indices 1 2 3 4 5 6 
#
# 1 0.016955 -0.002649 -0.003327 0.000000 0.000000 0.000000
# 2 -0.002649 0.009812 -0.003483 0.000000 0.000000 0.000000
# 3 -0.003327 -0.003483 0.009306 0.000000 0.000000 0.000000
# 4 0.000000 0.000000 0.000000 0.023569 0.000000 0.000000
# 5 0.000000 0.000000 0.000000 0.000000 0.044937 0.000000
# 6 0.000000 0.000000 0.000000 0.000000 0.000000 0.005554
#
#
# Mechanical properties :
#
#
# Convention : Reuss Voigt Hill
#
# Bulk Modulus (GPa) = 58.28522 67.95141 63.11832
# Shear Modulus (GPa) = 37.10064 63.35304 50.22684
#
# Velocity S-wave (km/s) = 3.97084 5.18890 4.62019
# Velocity P-wave (km/s) = 6.76716 8.04852 7.43549
#
# Compressibility (1/GPa) = 0.01715701
#
# Stress axis : x y z
#
# Youngs Moduli (GPa) = 58.97883 101.91108 107.46020
#
# Poissons Ratio (x) = 0.26995 0.35748
# Poissons Ratio (y) = 0.15623 0.37426
# Poissons Ratio (z) = 0.19620 0.35493
#
# Static dielectric constant tensor:
#      x y z
#    x 2.033390 0.000000 0.000000 
#    y 0.000000 2.010670 0.000000 
#    z 0.000000 0.000000 1.934080 
# 
# From -- ./inp_files/13666.got.cif
#   From: 2010.05.17/outbox.cif.g08.bks.cpg/sg54_7_cif.got.tgz:13666.got - 2010.06.03 13:09:01.
