data_PCOD9424044
_publ_section_title
;
Structure prediction by ZEFSAII (Michael W. Deem and Ramdas Pophale) SiO2 
 PCOD9424044
Probable space group: P C C A
;
_chemical_formula_sum "Si O2"
_cell_formula_units_Z 48
_cell_length_a 8.923557
_cell_length_b 16.800655
_cell_length_c 14.899603
_cell_angle_alpha 90.000000
_cell_angle_beta 90.000000
_cell_angle_gamma 90.000000
_cell_volume 2233.772359
_symmetry_space_group_name_H-M "P C C A"
_symmetry_group_IT_number 54
_symmetry_cell_setting 'orthorhombic'
loop_
_space_group_symop_operation_xyz
x,y,z
1/2-x,-y,z
1/2+x,-y,1/2-z
-x,y,1/2-z
-x,-y,-z
1/2+x,y,-z
1/2-x,y,1/2+z
x,-y,1/2+z
loop_
_atom_site_type_symbol
_atom_site_label
_atom_site_fract_x
_atom_site_fract_y
_atom_site_fract_z
Si Si1 0.212039 0.179381 0.408336
Si Si2 0.932294 0.083749 0.473313
Si Si3 0.750000 0.500000 0.052235
Si Si4 0.234278 0.710044 0.065080
Si Si5 0.165185 0.832577 0.222641
Si Si6 0.497281 0.610582 0.461756
Si Si7 0.250000 0.000000 0.177944
O O1 0.332466 0.115212 0.445165
O O2 0.253980 0.256940 0.464055
O O3 0.221405 0.189193 0.302677
O O4 0.054831 0.147668 0.445163
O O5 0.843629 0.058552 0.385309
O O6 0.000000 0.000000 0.500000
O O7 0.633891 0.564757 0.093604
O O8 0.872023 0.550861 0.996187
O O9 0.199697 0.783910 0.131287
O O10 0.395957 0.673003 0.089765
O O11 0.093724 0.650152 0.046670
O O12 0.000000 0.805045 0.250000
O O13 0.161746 0.929816 0.226652
#
# Coordination Sequence:
#
# PCOD9424044 Si02
#       7
#     8   8   4   8   8   8   4
#     4  12  25  41  64  86 126 165 220 275 328 395
#     4  12  22  42  62  85 115 162 217 287 345 383
#     4   8  16  34  62 116 126 164 214 236 306 384
#     4  11  21  42  62  95 130 174 211 263 329 383
#     4  12  27  42  61  89 126 171 232 281 337 392
#     4   9  18  34  68  97 141 162 205 261 299 388
#     4  12  26  40  60  86 120 168 232 292 340 388
#
# _framework density 21.488313000000002
#
# number of rings (size 3 to 8) (size 9 to 14) (size 15 to 20)
#    0.000    1.000    3.333    4.000    4.667    0.000 
#    0.000    0.000    0.000    0.000    0.000  154.000 
#    0.000    0.000    0.000    0.000    0.000    0.000 
#
# Total GULP energy -267256.017228 kJ/mol
# GULP energy per Si atom -5567.833692 kJ/mol
# Density = 2.143940 g / cm^3
# Si number density = 21.488313 Si / 1000 Ang^3
#
#
#
# Elastic Constant Matrix: (Units=GPa)
#
#
# Indices 1 2 3 4 5 6 
#
# 1 121.1093 39.3159 13.0843 0.0000 0.0000 0.0000
# 2 39.3159 97.1368 15.6968 0.0000 0.0000 0.0000
# 3 13.0843 15.6968 69.6157 0.0000 0.0000 0.0000
# 4 0.0000 0.0000 0.0000 4.8037 0.0000 0.0000
# 5 0.0000 0.0000 0.0000 0.0000 41.6901 0.0000
# 6 0.0000 0.0000 0.0000 0.0000 0.0000 7.4336
#
#
#
# Elastic Compliance Matrix: (Units=1/GPa)
#
#
# Indices 1 2 3 4 5 6 
#
# 1 0.009567 -0.003717 -0.000960 0.000000 0.000000 0.000000
# 2 -0.003717 0.012128 -0.002036 0.000000 0.000000 0.000000
# 3 -0.000960 -0.002036 0.015004 0.000000 0.000000 0.000000
# 4 0.000000 0.000000 0.000000 0.208172 0.000000 0.000000
# 5 0.000000 0.000000 0.000000 0.000000 0.023986 0.000000
# 6 0.000000 0.000000 0.000000 0.000000 0.000000 0.134524
#
#
# Mechanical properties :
#
#
# Convention : Reuss Voigt Hill
#
# Bulk Modulus (GPa) = 42.96782 47.11731 45.04256
# Shear Modulus (GPa) = 11.77672 25.43649 18.60660
#
# Velocity S-wave (km/s) = 2.34359 3.44428 2.94580
# Velocity P-wave (km/s) = 5.23092 6.14752 5.70765
#
# Compressibility (1/GPa) = 0.02327323
#
# Stress axis : x y z
#
# Youngs Moduli (GPa) = 104.52085 82.45162 66.64847
#
# Poissons Ratio (x) = 0.30649 0.06399
# Poissons Ratio (y) = 0.38853 0.13570
# Poissons Ratio (z) = 0.10034 0.16787
#
# Static dielectric constant tensor:
#      x y z
#    x 1.823290 0.000000 0.000000 
#    y 0.000000 1.920300 0.000000 
#    z 0.000000 0.000000 2.104340 
# 
# From -- ./inp_files/11754.got.cif
#   From: 2010.05.17/outbox.cif.g08.bks.cpg/sg54_6_cif.got.tgz:11754.got - 2010.06.03 13:09:01.
