data_PCOD9424090
_publ_section_title
;
Structure prediction by ZEFSAII (Michael W. Deem and Ramdas Pophale) SiO2 
 PCOD9424090
Probable space group: P C C A
;
_chemical_formula_sum "Si O2"
_cell_formula_units_Z 60
_cell_length_a 11.296749
_cell_length_b 12.225469
_cell_length_c 21.760376
_cell_angle_alpha 90.000000
_cell_angle_beta 90.000000
_cell_angle_gamma 90.000000
_cell_volume 3005.283199
_symmetry_space_group_name_H-M "P C C A"
_symmetry_group_IT_number 54
_symmetry_cell_setting 'orthorhombic'
loop_
_space_group_symop_operation_xyz
x,y,z
1/2-x,-y,z
1/2+x,-y,1/2-z
-x,y,1/2-z
-x,-y,-z
1/2+x,y,-z
1/2-x,y,1/2+z
x,-y,1/2+z
loop_
_atom_site_type_symbol
_atom_site_label
_atom_site_fract_x
_atom_site_fract_y
_atom_site_fract_z
Si Si1 0.250000 0.000000 0.223413
Si Si2 0.298902 0.811298 0.521437
Si Si3 0.641664 0.419817 0.764334
Si Si4 0.166271 0.892080 0.410090
Si Si5 0.807153 0.614034 0.909129
Si Si6 0.183254 0.200508 0.309562
Si Si7 0.093226 0.013563 0.607955
Si Si8 0.500130 0.218425 0.919693
O O1 0.303619 0.905328 0.266246
O O2 0.146317 0.967731 0.175657
O O3 0.190045 0.831982 0.474436
O O4 0.280742 0.709488 0.567214
O O5 0.331640 0.916332 0.560590
O O6 0.408131 0.795849 0.474589
O O7 0.750000 0.500000 0.743472
O O8 0.500000 0.447555 0.750000
O O9 0.666321 0.402668 0.836850
O O10 0.670950 0.305568 0.732255
O O11 0.205818 0.811421 0.355648
O O12 0.037346 0.937784 0.398819
O O13 0.250000 0.000000 0.408992
O O14 0.750000 0.500000 0.931646
O O15 0.931638 0.667832 0.929820
O O16 0.073082 0.210079 0.356045
O O17 0.085620 0.886053 0.589928
#
# Coordination Sequence:
#
# PCOD9424090 Si02
#       8
#     4   8   8   8   8   8   8   8
#     4  12  26  36  64 104 138 178 226 280 352 422
#     4  11  24  40  66  99 133 182 228 276 346 409
#     4  11  24  47  76 100 134 185 241 297 351 421
#     4  11  23  41  62  98 140 176 219 269 331 422
#     4  11  25  45  67  96 132 176 241 293 342 410
#     4  11  22  44  63  99 135 177 223 270 352 418
#     4  12  23  38  62 100 138 174 222 274 339 422
#     4  11  22  39  70  90 134 186 214 283 350 416
#
# _framework density 19.964839999999999
#
# number of rings (size 3 to 8) (size 9 to 14) (size 15 to 20)
#    0.000    0.800    4.667    3.600    2.800    2.133 
#    7.200    2.667    0.000    0.000    0.000    0.000 
#    0.000    0.000    0.000    0.000    0.000    0.000 
#
# Total GULP energy -334725.864344 kJ/mol
# GULP energy per Si atom -5578.764406 kJ/mol
# Density = 1.991940 g / cm^3
# Si number density = 19.964840 Si / 1000 Ang^3
#
#
#
# Elastic Constant Matrix: (Units=GPa)
#
#
# Indices 1 2 3 4 5 6 
#
# 1 132.9513 58.1597 32.7305 0.0000 0.0000 0.0000
# 2 58.1597 125.8654 32.3193 0.0000 0.0000 0.0000
# 3 32.7305 32.3193 89.7101 0.0000 0.0000 0.0000
# 4 0.0000 0.0000 0.0000 223.4548 0.0000 0.0000
# 5 0.0000 0.0000 0.0000 0.0000 13.1175 0.0000
# 6 0.0000 0.0000 0.0000 0.0000 0.0000 33.9788
#
#
#
# Elastic Compliance Matrix: (Units=1/GPa)
#
#
# Indices 1 2 3 4 5 6 
#
# 1 0.009786 -0.003973 -0.002139 0.000000 0.000000 0.000000
# 2 -0.003973 0.010368 -0.002286 0.000000 0.000000 0.000000
# 3 -0.002139 -0.002286 0.012751 0.000000 0.000000 0.000000
# 4 0.000000 0.000000 0.000000 0.004475 0.000000 0.000000
# 5 0.000000 0.000000 0.000000 0.000000 0.076234 0.000000
# 6 0.000000 0.000000 0.000000 0.000000 0.000000 0.029430
#
#
# Mechanical properties :
#
#
# Convention : Reuss Voigt Hill
#
# Bulk Modulus (GPa) = 62.07496 66.10507 64.09001
# Shear Modulus (GPa) = 30.26477 69.13139 49.69808
#
# Velocity S-wave (km/s) = 3.89768 5.89082 4.99468
# Velocity P-wave (km/s) = 7.17046 8.91356 8.08910
#
# Compressibility (1/GPa) = 0.01610956
#
# Stress axis : x y z
#
# Youngs Moduli (GPa) = 102.18664 96.45479 78.42557
#
# Poissons Ratio (x) = 0.38318 0.16777
# Poissons Ratio (y) = 0.40595 0.17925
# Poissons Ratio (z) = 0.21860 0.22046
#
# Static dielectric constant tensor:
#      x y z
#    x 1.786000 0.000000 0.000000 
#    y 0.000000 1.694820 0.000000 
#    z 0.000000 0.000000 1.728050 
# 
# From -- ./inp_files/21236.got.cif
#   From: 2010.05.17/outbox.cif.g08.bks.cpg/sg54_11_cif.got.tgz:21236.got - 2010.06.03 13:09:01.
