data_PCOD9424689
_publ_section_title
;
Structure prediction by ZEFSAII (Michael W. Deem and Ramdas Pophale) SiO2 
 PCOD9424689
Probable space group: P B A M
;
_chemical_formula_sum "Si O2"
_cell_formula_units_Z 48
_cell_length_a 5.458813
_cell_length_b 12.634851
_cell_length_c 27.604898
_cell_angle_alpha 90.000000
_cell_angle_beta 90.000000
_cell_angle_gamma 90.000000
_cell_volume 1903.945395
_symmetry_space_group_name_H-M "P B A M"
_symmetry_group_IT_number 55
_symmetry_cell_setting 'orthorhombic'
loop_
_space_group_symop_operation_xyz
x,y,z
-x,-y,z
1/2+x,1/2-y,-z
1/2-x,1/2+y,-z
-x,-y,-z
x,y,-z
1/2-x,1/2+y,z
1/2+x,1/2-y,z
loop_
_atom_site_type_symbol
_atom_site_label
_atom_site_fract_x
_atom_site_fract_y
_atom_site_fract_z
Si Si1 0.859259 0.372653 0.357781
Si Si2 0.359007 0.379529 0.791098
Si Si3 0.257677 0.319996 0.104983
Si Si4 0.745915 0.179804 0.000000
Si Si5 0.141548 0.866179 0.604466
Si Si6 0.358553 0.134859 0.246185
Si Si7 0.249911 0.931851 0.500000
O O1 0.633732 0.411435 0.390871
O O2 0.895417 0.251713 0.375459
O O3 0.779794 0.367817 0.302000
O O4 0.137206 0.414421 0.363526
O O5 0.272060 0.387772 0.846474
O O6 0.638242 0.415951 0.784420
O O7 0.387098 0.253896 0.775494
O O8 0.132251 0.409934 0.757226
O O9 0.506113 0.248442 0.107062
O O10 0.256301 0.376471 0.052320
O O11 0.488327 0.244715 0.000000
O O12 0.236194 0.866119 0.549519
O O13 0.500000 0.000000 0.500000
O O14 0.000000 0.000000 0.500000
#
# Coordination Sequence:
#
# PCOD9424689 Si02
#       7
#     8   8   8   4   8   8   4
#     4  10  19  32  52  78  95 117 144 178 231 269
#     4  10  14  20  31  46  72 102 122 155 204 270
#     4  10  14  22  26  39  54  87 130 167 211 251
#     4   8  16  20  28  32  50  76 124 184 210 238
#     4  10  20  35  54  73  98 118 145 182 213 263
#     4  10  16  23  36  58  84 101 123 157 204 274
#     4  12  26  42  56  74  96 126 156 180 212 252
#
# _framework density 25.210806999999999
#
# number of rings (size 3 to 8) (size 9 to 14) (size 15 to 20)
#    0.000    2.000    3.333    6.000    0.000    2.667 
#    0.000    0.000    0.000    0.000    0.000    0.000 
#    0.000    0.000    0.000    0.000    0.000    0.000 
#
# Total GULP energy -268174.415156 kJ/mol
# GULP energy per Si atom -5586.966982 kJ/mol
# Density = 2.515343 g / cm^3
# Si number density = 25.210807 Si / 1000 Ang^3
#
#
#
# Elastic Constant Matrix: (Units=GPa)
#
#
# Indices 1 2 3 4 5 6 
#
# 1 192.5439 19.9902 -6.8101 0.0000 0.0000 0.0000
# 2 19.9902 19.9971 -18.9164 0.0000 0.0000 0.0000
# 3 -6.8101 -18.9164 201.9940 0.0000 0.0000 0.0000
# 4 0.0000 0.0000 0.0000 8.6443 0.0000 0.0000
# 5 0.0000 0.0000 0.0000 0.0000 44.1998 0.0000
# 6 0.0000 0.0000 0.0000 0.0000 0.0000 18.5671
#
#
#
# Elastic Compliance Matrix: (Units=1/GPa)
#
#
# Indices 1 2 3 4 5 6 
#
# 1 0.005822 -0.006182 -0.000383 0.000000 0.000000 0.000000
# 2 -0.006182 0.061432 0.005545 0.000000 0.000000 0.000000
# 3 -0.000383 0.005545 0.005457 0.000000 0.000000 0.000000
# 4 0.000000 0.000000 0.000000 0.115683 0.000000 0.000000
# 5 0.000000 0.000000 0.000000 0.000000 0.022625 0.000000
# 6 0.000000 0.000000 0.000000 0.000000 0.000000 0.053859
#
#
# Mechanical properties :
#
#
# Convention : Reuss Voigt Hill
#
# Bulk Modulus (GPa) = 14.15007 44.78473 29.46740
# Shear Modulus (GPa) = 17.21326 42.30033 29.75679
#
# Velocity S-wave (km/s) = 2.61583 4.10062 3.43930
# Velocity P-wave (km/s) = 3.84035 6.34214 5.24266
#
# Compressibility (1/GPa) = 0.07067102
#
# Stress axis : x y z
#
# Youngs Moduli (GPa) = 171.76533 16.27817 183.25150
#
# Poissons Ratio (x) = 0.10063 0.07012
# Poissons Ratio (y) = 1.06183 -1.01605
# Poissons Ratio (z) = 0.06572 -0.09026
#
# Static dielectric constant tensor:
#      x y z
#    x 2.007610 0.000000 0.000000 
#    y 0.000000 4.389190 0.000000 
#    z 0.000000 0.000000 1.903730 
# 
# From -- ./inp_files/23828.got.cif
#   From: 2010.05.17/outbox.cif.g08.bks.cpg/sg55_12_cif.got.tgz:23828.got - 2010.06.03 13:27:54.
