data_PCOD9424763
_publ_section_title
;
Structure prediction by ZEFSAII (Michael W. Deem and Ramdas Pophale) SiO2 
 PCOD9424763
Probable space group: P B A M
;
_chemical_formula_sum "Si O2"
_cell_formula_units_Z 52
_cell_length_a 9.918970
_cell_length_b 25.075913
_cell_length_c 7.946861
_cell_angle_alpha 90.000000
_cell_angle_beta 90.000000
_cell_angle_gamma 90.000000
_cell_volume 1976.600714
_symmetry_space_group_name_H-M "P B A M"
_symmetry_group_IT_number 55
_symmetry_cell_setting 'orthorhombic'
loop_
_space_group_symop_operation_xyz
x,y,z
-x,-y,z
1/2+x,1/2-y,-z
1/2-x,1/2+y,-z
-x,-y,-z
x,y,-z
1/2-x,1/2+y,z
1/2+x,1/2-y,z
loop_
_atom_site_type_symbol
_atom_site_label
_atom_site_fract_x
_atom_site_fract_y
_atom_site_fract_z
Si Si1 0.830859 0.141487 0.181989
Si Si2 0.568333 0.423628 0.698708
Si Si3 0.651855 0.228331 0.692006
Si Si4 0.723674 0.006279 0.203122
Si Si5 0.209835 0.661086 0.300796
Si Si6 0.001223 0.418659 0.201517
Si Si7 0.995859 0.230831 0.000000
O O1 0.923576 0.090971 0.224938
O O2 0.731540 0.172592 0.304718
O O3 0.939923 0.188178 0.142740
O O4 0.762894 0.132915 0.000000
O O5 0.554217 0.415709 0.500000
O O6 0.639535 0.480328 0.728604
O O7 0.676524 0.379789 0.769109
O O8 0.601308 0.237939 0.500000
O O9 0.751742 0.278414 0.743319
O O10 0.553699 0.231146 0.849865
O O11 0.609548 0.962783 0.256242
O O12 0.649408 0.061298 0.257493
O O13 0.733994 0.006088 0.000000
O O14 0.219968 0.658684 0.500000
O O15 0.065593 0.636230 0.257569
O O16 0.998429 0.420950 0.000000
#
# Coordination Sequence:
#
# PCOD9424763 Si02
#       7
#     8   8   8   8   8   8   4
#     4  10  20  31  48  66  89 117 158 193 230 277
#     4  10  17  26  40  59  83 116 148 185 227 266
#     4  11  21  33  49  71  93 120 159 200 233 277
#     4   8  14  23  34  51  76 105 146 181 214 255
#     4   9  17  26  39  57  82 113 147 182 224 264
#     4   8  14  22  35  52  72 107 145 182 211 255
#     4  10  20  36  50  66  89 126 157 190 242 280
#
# _framework density 26.307793
#
# number of rings (size 3 to 8) (size 9 to 14) (size 15 to 20)
#    0.462    2.154    2.308    1.846    1.077    1.846 
#    0.000    3.077    0.000    0.000    0.000    0.000 
#    0.000    0.000    0.000    2.769    0.000   11.385 
#
# Total GULP energy -289543.249281 kJ/mol
# GULP energy per Si atom -5568.139409 kJ/mol
# Density = 2.624791 g / cm^3
# Si number density = 26.307793 Si / 1000 Ang^3
#
#
#
# Elastic Constant Matrix: (Units=GPa)
#
#
# Indices 1 2 3 4 5 6 
#
# 1 104.9034 24.0506 0.4909 0.0000 0.0000 0.0000
# 2 24.0506 144.8278 14.6292 0.0000 0.0000 0.0000
# 3 0.4909 14.6292 62.7666 0.0000 0.0000 0.0000
# 4 0.0000 0.0000 0.0000 -68.4846 0.0000 0.0000
# 5 0.0000 0.0000 0.0000 0.0000 -0.8010 0.0000
# 6 0.0000 0.0000 0.0000 0.0000 0.0000 56.9841
#
#
#
# Elastic Compliance Matrix: (Units=1/GPa)
#
#
# Indices 1 2 3 4 5 6 
#
# 1 0.009916 -0.001678 0.000314 0.000000 0.000000 0.000000
# 2 -0.001678 0.007355 -0.001701 0.000000 0.000000 0.000000
# 3 0.000314 -0.001701 0.016326 0.000000 0.000000 0.000000
# 4 0.000000 0.000000 0.000000 -0.014602 0.000000 0.000000
# 5 0.000000 0.000000 0.000000 0.000000 -1.248497 0.000000
# 6 0.000000 0.000000 0.000000 0.000000 0.000000 0.017549
#
#
# Mechanical properties :
#
#
# Convention : Reuss Voigt Hill
#
# Bulk Modulus (GPa) = 36.40938 43.42658 39.91798
# Shear Modulus (GPa) = -4.17827 15.76153 5.79163
#
# Velocity S-wave (km/s) = -1.26162 2.45035 1.48535
# Velocity P-wave (km/s) = 3.42747 4.95465 4.26006
#
# Compressibility (1/GPa) = 0.02746545
#
# Stress axis : x y z
#
# Youngs Moduli (GPa) = 100.84811 135.95638 61.25169
#
# Poissons Ratio (x) = 0.22818 -0.01921
# Poissons Ratio (y) = 0.16926 0.10420
# Poissons Ratio (z) = -0.03163 0.23129
#
# Static dielectric constant tensor:
#      x y z
#    x 2.177490 0.000000 0.000000 
#    y 0.000000 2.137570 0.000000 
#    z 0.000000 0.000000 1.985430 
# 
# From -- ./inp_files/4406.got.cif
#   From: 2010.05.17/outbox.cif.g08.bks.cpg/sg55_3_cif.got.tgz:4406.got - 2010.06.03 13:27:54.
