data_PCOD9424314
_publ_section_title
;
Structure prediction by ZEFSAII (Michael W. Deem and Ramdas Pophale) SiO2 
 PCOD9424314
Probable space group: P C C A
;
_chemical_formula_sum "Si O2"
_cell_formula_units_Z 24
_cell_length_a 14.353308
_cell_length_b 7.321970
_cell_length_c 8.543122
_cell_angle_alpha 90.000000
_cell_angle_beta 90.000000
_cell_angle_gamma 90.000000
_cell_volume 897.835055
_symmetry_space_group_name_H-M "P C C A"
_symmetry_group_IT_number 54
_symmetry_cell_setting 'orthorhombic'
loop_
_space_group_symop_operation_xyz
x,y,z
1/2-x,-y,z
1/2+x,-y,1/2-z
-x,y,1/2-z
-x,-y,-z
1/2+x,y,-z
1/2-x,y,1/2+z
x,-y,1/2+z
loop_
_atom_site_type_symbol
_atom_site_label
_atom_site_fract_x
_atom_site_fract_y
_atom_site_fract_z
Si Si1 0.548635 0.766826 0.410348
Si Si2 0.716064 0.809557 0.599153
Si Si3 0.381012 0.348459 0.101351
O O1 0.500000 0.825270 0.250000
O O2 0.641749 0.864593 0.465383
O O3 0.584643 0.557277 0.392319
O O4 0.470681 0.765212 0.545100
O O5 0.838893 0.701122 0.231655
O O6 0.800022 0.693766 0.524795
O O7 0.750000 0.000000 0.667235
#
# Coordination Sequence:
#
# PCOD9424314 Si02
#       3
#     8   8   8
#     4  11  24  46  76 105 140 191 248 298 347 422
#     4  12  26  46  74 110 151 190 233 299 372 431
#     4  11  24  45  74 107 145 193 245 295 351 424
#
# _framework density 26.730968000000001
#
# number of rings (size 3 to 8) (size 9 to 14) (size 15 to 20)
#    0.000    0.667    0.000    9.000    0.000    4.000 
#    0.000    6.667    0.000    0.000    0.000    0.000 
#    0.000    0.000    0.000    0.000    0.000    0.000 
#
# Total GULP energy -134902.586776 kJ/mol
# GULP energy per Si atom -5620.941116 kJ/mol
# Density = 2.667013 g / cm^3
# Si number density = 26.730968 Si / 1000 Ang^3
#
#
#
# Elastic Constant Matrix: (Units=GPa)
#
#
# Indices 1 2 3 4 5 6 
#
# 1 183.8324 23.3815 70.9396 0.0000 0.0000 0.0000
# 2 23.3815 71.2141 22.2582 0.0000 0.0000 0.0000
# 3 70.9396 22.2582 143.2043 0.0000 0.0000 0.0000
# 4 0.0000 0.0000 0.0000 24.6214 0.0000 0.0000
# 5 0.0000 0.0000 0.0000 0.0000 73.3390 0.0000
# 6 0.0000 0.0000 0.0000 0.0000 0.0000 32.2481
#
#
#
# Elastic Compliance Matrix: (Units=1/GPa)
#
#
# Indices 1 2 3 4 5 6 
#
# 1 0.006829 -0.001245 -0.003189 0.000000 0.000000 0.000000
# 2 -0.001245 0.014986 -0.001712 0.000000 0.000000 0.000000
# 3 -0.003189 -0.001712 0.008829 0.000000 0.000000 0.000000
# 4 0.000000 0.000000 0.000000 0.040615 0.000000 0.000000
# 5 0.000000 0.000000 0.000000 0.000000 0.013635 0.000000
# 6 0.000000 0.000000 0.000000 0.000000 0.000000 0.031010
#
#
# Mechanical properties :
#
#
# Convention : Reuss Voigt Hill
#
# Bulk Modulus (GPa) = 54.49528 70.15657 62.32592
# Shear Modulus (GPa) = 37.22599 44.81981 41.02290
#
# Velocity S-wave (km/s) = 3.73583 4.09919 3.92172
# Velocity P-wave (km/s) = 6.24815 6.97904 6.62368
#
# Compressibility (1/GPa) = 0.01835021
#
# Stress axis : x y z
#
# Youngs Moduli (GPa) = 146.43775 66.72782 113.26221
#
# Poissons Ratio (x) = 0.08309 0.36122
# Poissons Ratio (y) = 0.18236 0.19395
# Poissons Ratio (z) = 0.46703 0.11427
#
# Static dielectric constant tensor:
#      x y z
#    x 2.028370 0.000000 0.000000 
#    y 0.000000 2.094380 0.000000 
#    z 0.000000 0.000000 2.042550 
# 
# From -- ./inp_files/3818.got.cif
#   From: 2010.05.17/outbox.cif.g08.bks.cpg/sg54_2_cif.got.tgz:3818.got - 2010.06.03 13:09:01.
