data_PCOD9424072
_publ_section_title
;
Structure prediction by ZEFSAII (Michael W. Deem and Ramdas Pophale) SiO2 
 PCOD9424072
Probable space group: P C C A
;
_chemical_formula_sum "Si O2"
_cell_formula_units_Z 52
_cell_length_a 17.668263
_cell_length_b 5.236491
_cell_length_c 26.076475
_cell_angle_alpha 90.000000
_cell_angle_beta 90.000000
_cell_angle_gamma 90.000000
_cell_volume 2412.587649
_symmetry_space_group_name_H-M "P C C A"
_symmetry_group_IT_number 54
_symmetry_cell_setting 'orthorhombic'
loop_
_space_group_symop_operation_xyz
x,y,z
1/2-x,-y,z
1/2+x,-y,1/2-z
-x,y,1/2-z
-x,-y,-z
1/2+x,y,-z
1/2-x,y,1/2+z
x,-y,1/2+z
loop_
_atom_site_type_symbol
_atom_site_label
_atom_site_fract_x
_atom_site_fract_y
_atom_site_fract_z
Si Si1 0.750000 0.000000 0.059090
Si Si2 0.501458 0.630130 0.310691
Si Si3 0.974729 0.074138 0.444168
Si Si4 0.911942 0.133440 0.847787
Si Si5 0.250000 0.000000 0.130765
Si Si6 0.114424 0.698079 0.895306
Si Si7 0.250000 0.500000 0.063048
Si Si8 0.367537 0.379031 0.493376
O O1 0.698504 0.811121 0.095200
O O2 0.811759 0.850588 0.024426
O O3 0.500000 0.595294 0.250000
O O4 0.540199 0.903726 0.322258
O O5 0.419621 0.615165 0.340138
O O6 0.554439 0.405908 0.332998
O O7 0.922006 0.903836 0.408864
O O8 0.926953 0.318311 0.461873
O O9 0.051578 0.098275 0.412538
O O10 0.000000 0.000000 0.500000
O O11 0.823650 0.085090 0.837346
O O12 0.269446 0.747320 0.097007
O O13 0.102841 0.486431 0.939753
O O14 0.185004 0.578429 0.022963
#
# Coordination Sequence:
#
# PCOD9424072 Si02
#       8
#     4   8   8   8   4   8   4   8
#     4  12  23  42  59  96 144 182 227 276 339 400
#     4  11  26  51  76  97 128 177 239 300 363 409
#     4  11  22  37  62  96 140 180 231 263 322 409
#     4  11  25  44  72 105 134 179 225 289 344 417
#     4  12  25  42  67 102 150 180 227 272 345 408
#     4  11  25  40  66  95 134 179 233 286 338 407
#     4  12  24  36  62  92 146 198 212 256 326 414
#     4  12  23  38  60  96 143 191 223 264 326 414
#
# _framework density 21.553619999999999
#
# number of rings (size 3 to 8) (size 9 to 14) (size 15 to 20)
#    0.000    0.615    4.615    3.231    6.462    0.000 
#    0.000    0.769    3.385    0.000    0.000    0.000 
#    0.000    0.000    0.000    0.000    0.000    0.000 
#
# Total GULP energy -289931.012158 kJ/mol
# GULP energy per Si atom -5575.596388 kJ/mol
# Density = 2.150456 g / cm^3
# Si number density = 21.553620 Si / 1000 Ang^3
#
#
#
# Elastic Constant Matrix: (Units=GPa)
#
#
# Indices 1 2 3 4 5 6 
#
# 1 91.6130 11.4641 16.7662 0.0000 0.0000 0.0000
# 2 11.4641 68.4974 11.5960 0.0000 0.0000 0.0000
# 3 16.7662 11.5960 111.7388 0.0000 0.0000 0.0000
# 4 0.0000 0.0000 0.0000 17.9731 0.0000 0.0000
# 5 0.0000 0.0000 0.0000 0.0000 14.6216 0.0000
# 6 0.0000 0.0000 0.0000 0.0000 0.0000 36.9553
#
#
#
# Elastic Compliance Matrix: (Units=1/GPa)
#
#
# Indices 1 2 3 4 5 6 
#
# 1 0.011404 -0.001648 -0.001540 0.000000 0.000000 0.000000
# 2 -0.001648 0.015098 -0.001320 0.000000 0.000000 0.000000
# 3 -0.001540 -0.001320 0.009317 0.000000 0.000000 0.000000
# 4 0.000000 0.000000 0.000000 0.055639 0.000000 0.000000
# 5 0.000000 0.000000 0.000000 0.000000 0.068392 0.000000
# 6 0.000000 0.000000 0.000000 0.000000 0.000000 0.027060
#
#
# Mechanical properties :
#
#
# Convention : Reuss Voigt Hill
#
# Bulk Modulus (GPa) = 37.30750 39.05575 38.18163
# Shear Modulus (GPa) = 24.40698 29.37820 26.89259
#
# Velocity S-wave (km/s) = 3.36874 3.69593 3.53612
# Velocity P-wave (km/s) = 5.69894 6.03099 5.86731
#
# Compressibility (1/GPa) = 0.02680426
#
# Stress axis : x y z
#
# Youngs Moduli (GPa) = 87.69215 66.23271 107.32523
#
# Poissons Ratio (x) = 0.10914 0.16529
# Poissons Ratio (y) = 0.14450 0.14163
# Poissons Ratio (z) = 0.13505 0.08740
#
# Static dielectric constant tensor:
#      x y z
#    x 2.083290 0.000000 0.000000 
#    y 0.000000 2.068780 0.000000 
#    z 0.000000 0.000000 1.820560 
# 
# From -- ./inp_files/26624.got.cif
#   From: 2010.05.17/outbox.cif.g08.bks.cpg/sg54_14_cif.got.tgz:26624.got - 2010.06.03 13:09:01.
