data_PCOD9424061
_publ_section_title
;
Structure prediction by ZEFSAII (Michael W. Deem and Ramdas Pophale) SiO2 
 PCOD9424061
Probable space group: P C C A
;
_chemical_formula_sum "Si O2"
_cell_formula_units_Z 32
_cell_length_a 17.471235
_cell_length_b 5.470636
_cell_length_c 12.988676
_cell_angle_alpha 90.000000
_cell_angle_beta 90.000000
_cell_angle_gamma 90.000000
_cell_volume 1241.441639
_symmetry_space_group_name_H-M "P C C A"
_symmetry_group_IT_number 54
_symmetry_cell_setting 'orthorhombic'
loop_
_space_group_symop_operation_xyz
x,y,z
1/2-x,-y,z
1/2+x,-y,1/2-z
-x,y,1/2-z
-x,-y,-z
1/2+x,y,-z
1/2-x,y,1/2+z
x,-y,1/2+z
loop_
_atom_site_type_symbol
_atom_site_label
_atom_site_fract_x
_atom_site_fract_y
_atom_site_fract_z
Si Si1 0.537732 0.294668 0.576645
Si Si2 0.385600 0.016917 0.097540
Si Si3 0.912920 0.665956 0.219452
Si Si4 0.794643 0.243221 0.547383
O O1 0.500000 0.500000 0.500000
O O2 0.601836 0.182712 0.503556
O O3 0.575476 0.385380 0.683434
O O4 0.467538 0.118462 0.604584
O O5 0.367967 0.205748 0.188386
O O6 0.322557 0.815157 0.069114
O O7 0.871455 0.751129 0.116099
O O8 0.000000 0.730853 0.250000
O O9 0.750000 0.500000 0.557737
O O10 0.750000 0.000000 0.581055
#
# Coordination Sequence:
#
# PCOD9424061 Si02
#       4
#     8   8   8   8
#     4  11  21  46  76 119 157 200 269 352 419 509
#     4  11  25  47  76 113 161 216 267 343 437 501
#     4  12  25  48  81 122 157 213 279 361 421 509
#     4  12  29  53  78 113 167 225 287 349 424 527
#
# _framework density 25.776485999999998
#
# number of rings (size 3 to 8) (size 9 to 14) (size 15 to 20)
#    0.000    0.500    5.000    3.000    0.000    6.000 
#    0.000    5.000    0.000    0.000    0.000    0.000 
#    0.000    0.000    0.000    0.000    0.000    0.000 
#
# Total GULP energy -178572.010836 kJ/mol
# GULP energy per Si atom -5580.375339 kJ/mol
# Density = 2.571782 g / cm^3
# Si number density = 25.776486 Si / 1000 Ang^3
#
#
#
# Elastic Constant Matrix: (Units=GPa)
#
#
# Indices 1 2 3 4 5 6 
#
# 1 67.7251 29.1394 16.1516 0.0000 0.0000 0.0000
# 2 29.1394 129.2770 66.1417 0.0000 0.0000 0.0000
# 3 16.1516 66.1417 135.3950 0.0000 0.0000 0.0000
# 4 0.0000 0.0000 0.0000 56.2128 0.0000 0.0000
# 5 0.0000 0.0000 0.0000 0.0000 27.1584 0.0000
# 6 0.0000 0.0000 0.0000 0.0000 0.0000 43.5127
#
#
#
# Elastic Compliance Matrix: (Units=1/GPa)
#
#
# Indices 1 2 3 4 5 6 
#
# 1 0.016355 -0.003584 -0.000200 0.000000 0.000000 0.000000
# 2 -0.003584 0.011098 -0.004994 0.000000 0.000000 0.000000
# 3 -0.000200 -0.004994 0.009849 0.000000 0.000000 0.000000
# 4 0.000000 0.000000 0.000000 0.017790 0.000000 0.000000
# 5 0.000000 0.000000 0.000000 0.000000 0.036821 0.000000
# 6 0.000000 0.000000 0.000000 0.000000 0.000000 0.022982
#
#
# Mechanical properties :
#
#
# Convention : Reuss Voigt Hill
#
# Bulk Modulus (GPa) = 50.64246 61.69582 56.16914
# Shear Modulus (GPa) = 35.96236 40.10774 38.03505
#
# Velocity S-wave (km/s) = 3.73924 3.94887 3.84548
# Velocity P-wave (km/s) = 6.19128 6.69166 6.44633
#
# Compressibility (1/GPa) = 0.01974628
#
# Stress axis : x y z
#
# Youngs Moduli (GPa) = 61.14180 90.10389 101.52982
#
# Poissons Ratio (x) = 0.32294 0.02033
# Poissons Ratio (y) = 0.21914 0.50705
# Poissons Ratio (z) = 0.01224 0.44998
#
# Static dielectric constant tensor:
#      x y z
#    x 2.019180 0.000000 0.000000 
#    y 0.000000 2.164810 0.000000 
#    z 0.000000 0.000000 2.057630 
# 
# From -- ./inp_files/9242.got.cif
#   From: 2010.05.17/outbox.cif.g08.bks.cpg/sg54_5_cif.got.tgz:9242.got - 2010.06.03 13:09:01.
