data_PCOD9424121
_publ_section_title
;
Structure prediction by ZEFSAII (Michael W. Deem and Ramdas Pophale) SiO2 
 PCOD9424121
Probable space group: P C C A
;
_chemical_formula_sum "Si O2"
_cell_formula_units_Z 56
_cell_length_a 13.325591
_cell_length_b 8.346027
_cell_length_c 18.332698
_cell_angle_alpha 90.000000
_cell_angle_beta 90.000000
_cell_angle_gamma 90.000000
_cell_volume 2038.884616
_symmetry_space_group_name_H-M "P C C A"
_symmetry_group_IT_number 54
_symmetry_cell_setting 'orthorhombic'
loop_
_space_group_symop_operation_xyz
x,y,z
1/2-x,-y,z
1/2+x,-y,1/2-z
-x,y,1/2-z
-x,-y,-z
1/2+x,y,-z
1/2-x,y,1/2+z
x,-y,1/2+z
loop_
_atom_site_type_symbol
_atom_site_label
_atom_site_fract_x
_atom_site_fract_y
_atom_site_fract_z
Si Si1 0.882359 0.376611 0.760381
Si Si2 0.376777 0.292886 0.574344
Si Si3 0.592364 0.248859 0.549829
Si Si4 0.674054 0.734645 0.257643
Si Si5 0.644587 0.912468 0.563376
Si Si6 0.250000 0.500000 0.968948
Si Si7 0.459033 0.779426 0.618416
Si Si8 0.500000 0.022481 0.750000
O O1 0.859671 0.555567 0.735825
O O2 0.791603 0.259996 0.736647
O O3 0.000000 0.345854 0.750000
O O4 0.889208 0.359918 0.847600
O O5 0.494208 0.335109 0.579078
O O6 0.333859 0.263467 0.654190
O O7 0.356580 0.139663 0.521311
O O8 0.330732 0.426596 0.522870
O O9 0.692275 0.350357 0.569056
O O10 0.584567 0.217153 0.463012
O O11 0.576977 0.067881 0.576114
O O12 0.594631 0.863824 0.229857
O O13 0.580843 0.771969 0.604187
O O14 0.750000 0.000000 0.581400
O O15 0.456393 0.918195 0.681480
#
# Coordination Sequence:
#
# PCOD9424121 Si02
#       8
#     8   8   8   8   8   4   8   4
#     4  11  24  47  69 102 141 186 234 294 358 409
#     4  11  22  42  69 104 134 182 234 285 352 425
#     4  11  23  43  67 102 144 177 233 289 353 419
#     4  11  24  44  75  99 138 183 238 299 341 431
#     4  11  23  43  67  98 148 183 226 287 357 420
#     4  12  22  38  70 104 134 182 226 284 352 420
#     4  11  24  43  68  98 136 186 225 296 347 415
#     4  12  24  44  70 106 130 182 250 286 356 418
#
# _framework density 27.465997999999999
#
# number of rings (size 3 to 8) (size 9 to 14) (size 15 to 20)
#    0.000    0.857    2.857    6.429    0.000    2.857 
#    0.000    0.000    0.000    0.000    0.000    0.000 
#    0.000    0.000    0.000    0.000    0.000    0.000 
#
# Total GULP energy -312449.102779 kJ/mol
# GULP energy per Si atom -5579.448264 kJ/mol
# Density = 2.740348 g / cm^3
# Si number density = 27.465998 Si / 1000 Ang^3
#
#
#
# Elastic Constant Matrix: (Units=GPa)
#
#
# Indices 1 2 3 4 5 6 
#
# 1 153.8106 27.4445 9.2572 0.0000 0.0000 0.0000
# 2 27.4445 96.7389 17.4781 0.0000 0.0000 0.0000
# 3 9.2572 17.4781 104.3533 0.0000 0.0000 0.0000
# 4 0.0000 0.0000 0.0000 12.3275 0.0000 0.0000
# 5 0.0000 0.0000 0.0000 0.0000 29.5253 0.0000
# 6 0.0000 0.0000 0.0000 0.0000 0.0000 37.2914
#
#
#
# Elastic Compliance Matrix: (Units=1/GPa)
#
#
# Indices 1 2 3 4 5 6 
#
# 1 0.006857 -0.001893 -0.000291 0.000000 0.000000 0.000000
# 2 -0.001893 0.011182 -0.001705 0.000000 0.000000 0.000000
# 3 -0.000291 -0.001705 0.009894 0.000000 0.000000 0.000000
# 4 0.000000 0.000000 0.000000 0.081119 0.000000 0.000000
# 5 0.000000 0.000000 0.000000 0.000000 0.033869 0.000000
# 6 0.000000 0.000000 0.000000 0.000000 0.000000 0.026816
#
#
# Mechanical properties :
#
#
# Convention : Reuss Voigt Hill
#
# Bulk Modulus (GPa) = 49.61471 51.47359 50.54415
# Shear Modulus (GPa) = 27.13945 35.87705 31.50825
#
# Velocity S-wave (km/s) = 3.14683 3.61811 3.39067
# Velocity P-wave (km/s) = 5.59524 6.01962 5.81130
#
# Compressibility (1/GPa) = 0.02015531
#
# Stress axis : x y z
#
# Youngs Moduli (GPa) = 145.84207 89.42880 101.06897
#
# Poissons Ratio (x) = 0.16925 0.02944
# Poissons Ratio (y) = 0.27602 0.17232
# Poissons Ratio (z) = 0.04248 0.15248
#
# Static dielectric constant tensor:
#      x y z
#    x 2.266360 0.000000 0.000000 
#    y 0.000000 2.206830 0.000000 
#    z 0.000000 0.000000 2.294890 
# 
# From -- ./inp_files/21672.got.cif
#   From: 2010.05.17/outbox.cif.g08.bks.cpg/sg54_11_cif.got.tgz:21672.got - 2010.06.03 13:09:01.
