data_PCOD9424225
_publ_section_title
;
Structure prediction by ZEFSAII (Michael W. Deem and Ramdas Pophale) SiO2 
 PCOD9424225
Probable space group: P C C A
;
_chemical_formula_sum "Si O2"
_cell_formula_units_Z 40
_cell_length_a 9.339519
_cell_length_b 19.677797
_cell_length_c 8.396463
_cell_angle_alpha 90.000000
_cell_angle_beta 90.000000
_cell_angle_gamma 90.000000
_cell_volume 1543.111701
_symmetry_space_group_name_H-M "P C C A"
_symmetry_group_IT_number 54
_symmetry_cell_setting 'orthorhombic'
loop_
_space_group_symop_operation_xyz
x,y,z
1/2-x,-y,z
1/2+x,-y,1/2-z
-x,y,1/2-z
-x,-y,-z
1/2+x,y,-z
1/2-x,y,1/2+z
x,-y,1/2+z
loop_
_atom_site_type_symbol
_atom_site_label
_atom_site_fract_x
_atom_site_fract_y
_atom_site_fract_z
Si Si1 0.136799 0.650071 0.090898
Si Si2 0.306020 0.253620 0.809257
Si Si3 0.070257 0.431204 0.072683
Si Si4 0.859694 0.942954 0.182502
Si Si5 0.690381 0.152741 0.931514
O O1 0.138552 0.686301 0.917249
O O2 0.981166 0.617744 0.072737
O O3 0.174683 0.709684 0.214683
O O4 0.262621 0.591732 0.095780
O O5 0.381124 0.214531 0.663364
O O6 0.275339 0.193448 0.932880
O O7 0.000000 0.425984 0.250000
O O8 0.000000 0.500000 0.000000
O O9 0.906669 0.897419 0.032903
O O10 0.786235 0.894137 0.315312
O O11 0.000000 0.977372 0.250000
O O12 0.750000 0.000000 0.129890
#
# Coordination Sequence:
#
# PCOD9424225 Si02
#       5
#     8   8   8   8   8
#     4  11  23  46  70 102 139 183 236 288 358 411
#     4   9  20  44  68  98 137 182 223 296 344 415
#     4  12  28  46  70 104 140 186 237 291 348 420
#     4  11  24  44  72 104 141 188 232 285 344 411
#     4   9  21  44  64 102 137 179 234 278 348 407
#
# _framework density 25.921648999999999
#
# number of rings (size 3 to 8) (size 9 to 14) (size 15 to 20)
#    0.000    1.600    2.000    1.200    2.800    4.800 
#   36.000    2.000    0.000    0.000    0.000    0.000 
#    0.000    0.000    0.000    0.000    0.000    0.000 
#
# Total GULP energy -222878.928393 kJ/mol
# GULP energy per Si atom -5571.973210 kJ/mol
# Density = 2.586265 g / cm^3
# Si number density = 25.921649 Si / 1000 Ang^3
#
#
#
# Elastic Constant Matrix: (Units=GPa)
#
#
# Indices 1 2 3 4 5 6 
#
# 1 79.3590 12.7166 -6.2821 0.0000 0.0000 0.0000
# 2 12.7166 102.7806 35.7654 0.0000 0.0000 0.0000
# 3 -6.2821 35.7654 105.4637 0.0000 0.0000 0.0000
# 4 0.0000 0.0000 0.0000 36.6088 0.0000 0.0000
# 5 0.0000 0.0000 0.0000 0.0000 21.2815 0.0000
# 6 0.0000 0.0000 0.0000 0.0000 0.0000 4.9499
#
#
#
# Elastic Compliance Matrix: (Units=1/GPa)
#
#
# Indices 1 2 3 4 5 6 
#
# 1 0.013063 -0.002139 0.001504 0.000000 0.000000 0.000000
# 2 -0.002139 0.011382 -0.003987 0.000000 0.000000 0.000000
# 3 0.001504 -0.003987 0.010924 0.000000 0.000000 0.000000
# 4 0.000000 0.000000 0.000000 0.027316 0.000000 0.000000
# 5 0.000000 0.000000 0.000000 0.000000 0.046989 0.000000
# 6 0.000000 0.000000 0.000000 0.000000 0.000000 0.202023
#
#
# Mechanical properties :
#
#
# Convention : Reuss Voigt Hill
#
# Bulk Modulus (GPa) = 38.28182 41.33369 39.80776
# Shear Modulus (GPa) = 15.16762 28.92827 22.04795
#
# Velocity S-wave (km/s) = 2.42158 3.34427 2.91960
# Velocity P-wave (km/s) = 4.75595 5.55809 5.17259
#
# Compressibility (1/GPa) = 0.02612206
#
# Stress axis : x y z
#
# Youngs Moduli (GPa) = 76.55311 87.86079 91.54425
#
# Poissons Ratio (x) = 0.18797 -0.13765
# Poissons Ratio (y) = 0.16378 0.36501
# Poissons Ratio (z) = -0.11511 0.35032
#
# Static dielectric constant tensor:
#      x y z
#    x 2.048570 0.000000 0.000000 
#    y 0.000000 2.039060 0.000000 
#    z 0.000000 0.000000 2.054010 
# 
# From -- ./inp_files/2932.got.cif
#   From: 2010.05.17/outbox.cif.g08.bks.cpg/sg54_2_cif.got.tgz:2932.got - 2010.06.03 13:09:01.
