data_PCOD9424309
_publ_section_title
;
Structure prediction by ZEFSAII (Michael W. Deem and Ramdas Pophale) SiO2 
 PCOD9424309
Probable space group: P C C A
;
_chemical_formula_sum "Si O2"
_cell_formula_units_Z 36
_cell_length_a 20.809155
_cell_length_b 5.644831
_cell_length_c 13.988851
_cell_angle_alpha 90.000000
_cell_angle_beta 90.000000
_cell_angle_gamma 90.000000
_cell_volume 1643.188677
_symmetry_space_group_name_H-M "P C C A"
_symmetry_group_IT_number 54
_symmetry_cell_setting 'orthorhombic'
loop_
_space_group_symop_operation_xyz
x,y,z
1/2-x,-y,z
1/2+x,-y,1/2-z
-x,y,1/2-z
-x,-y,-z
1/2+x,y,-z
1/2-x,y,1/2+z
x,-y,1/2+z
loop_
_atom_site_type_symbol
_atom_site_label
_atom_site_fract_x
_atom_site_fract_y
_atom_site_fract_z
Si Si1 0.105742 0.871194 0.575745
Si Si2 0.821425 0.593117 0.764772
Si Si3 0.932264 0.207354 0.765019
Si Si4 0.500000 0.500000 0.000000
Si Si5 0.392807 0.161706 0.895735
O O1 0.157883 0.766946 0.648974
O O2 0.056880 0.669305 0.542985
O O3 0.066802 0.071171 0.634688
O O4 0.132080 0.002247 0.482811
O O5 0.750000 0.500000 0.774452
O O6 0.872477 0.379834 0.766731
O O7 0.835754 0.717998 0.663816
O O8 0.000000 0.338356 0.750000
O O9 0.925436 0.015141 0.681362
O O10 0.555411 0.652597 0.063501
#
# Coordination Sequence:
#
# PCOD9424309 Si02
#       5
#     8   8   8   4   8
#     4  11  25  43  74 109 147 189 246 307 366 436
#     4  11  28  50  72 105 155 203 240 297 372 443
#     4  11  24  45  71 107 146 193 242 306 368 424
#     4  12  22  42  70 114 146 176 244 308 370 426
#     4  11  25  43  74 109 147 189 246 307 366 436
#
# _framework density 21.908619999999999
#
# number of rings (size 3 to 8) (size 9 to 14) (size 15 to 20)
#    0.000    0.889    2.222    3.333    9.333    3.556 
#    0.000   16.667    0.000    0.000    0.000    0.000 
#    0.000    0.000    0.000    0.000    0.000    0.000 
#
# Total GULP energy -200491.730952 kJ/mol
# GULP energy per Si atom -5569.214749 kJ/mol
# Density = 2.185876 g / cm^3
# Si number density = 21.908620 Si / 1000 Ang^3
#
#
#
# Elastic Constant Matrix: (Units=GPa)
#
#
# Indices 1 2 3 4 5 6 
#
# 1 117.9060 18.2290 17.4945 0.0000 0.0000 0.0000
# 2 18.2290 42.1701 41.4846 0.0000 0.0000 0.0000
# 3 17.4945 41.4846 141.6128 0.0000 0.0000 0.0000
# 4 0.0000 0.0000 0.0000 69.9125 0.0000 0.0000
# 5 0.0000 0.0000 0.0000 0.0000 7.2486 0.0000
# 6 0.0000 0.0000 0.0000 0.0000 0.0000 18.4894
#
#
#
# Elastic Compliance Matrix: (Units=1/GPa)
#
#
# Indices 1 2 3 4 5 6 
#
# 1 0.009089 -0.003968 0.000040 0.000000 0.000000 0.000000
# 2 -0.003968 0.035046 -0.009776 0.000000 0.000000 0.000000
# 3 0.000040 -0.009776 0.009921 0.000000 0.000000 0.000000
# 4 0.000000 0.000000 0.000000 0.014304 0.000000 0.000000
# 5 0.000000 0.000000 0.000000 0.000000 0.137957 0.000000
# 6 0.000000 0.000000 0.000000 0.000000 0.000000 0.054085
#
#
# Mechanical properties :
#
#
# Convention : Reuss Voigt Hill
#
# Bulk Modulus (GPa) = 37.52864 50.67834 44.10349
# Shear Modulus (GPa) = 16.85244 34.09548 25.47396
#
# Velocity S-wave (km/s) = 2.77648 3.94922 3.41359
# Velocity P-wave (km/s) = 5.23882 6.63152 5.97588
#
# Compressibility (1/GPa) = 0.02664632
#
# Stress axis : x y z
#
# Youngs Moduli (GPa) = 110.02421 28.53386 100.80071
#
# Poissons Ratio (x) = 0.11322 -0.00398
# Poissons Ratio (y) = 0.43655 0.98547
# Poissons Ratio (z) = -0.00435 0.27896
#
# Static dielectric constant tensor:
#      x y z
#    x 1.749240 0.000000 0.000000 
#    y 0.000000 1.859860 0.000000 
#    z 0.000000 0.000000 1.879540 
# 
# From -- ./inp_files/14469.got.cif
#   From: 2010.05.17/outbox.cif.g08.bks.cpg/sg54_8_cif.got.tgz:14469.got - 2010.06.03 13:09:01.
