data_PCOD9424604
_publ_section_title
;
Structure prediction by ZEFSAII (Michael W. Deem and Ramdas Pophale) SiO2 
 PCOD9424604
Probable space group: P C C A
;
_chemical_formula_sum "Si O2"
_cell_formula_units_Z 64
_cell_length_a 30.000000
_cell_length_b 12.000000
_cell_length_c 9.000000
_cell_angle_alpha 90.000000
_cell_angle_beta 90.000000
_cell_angle_gamma 90.000000
_cell_volume 3240.000000
_symmetry_space_group_name_H-M "P C C A"
_symmetry_group_IT_number 54
_symmetry_cell_setting 'orthorhombic'
loop_
_space_group_symop_operation_xyz
x,y,z
1/2-x,-y,z
1/2+x,-y,1/2-z
-x,y,1/2-z
-x,-y,-z
1/2+x,y,-z
1/2-x,y,1/2+z
x,-y,1/2+z
loop_
_atom_site_type_symbol
_atom_site_label
_atom_site_fract_x
_atom_site_fract_y
_atom_site_fract_z
Si Si1 0.004492 0.670568 0.086299
Si Si2 0.578416 0.999001 0.153094
Si Si3 0.457361 0.158857 0.598348
Si Si4 0.073591 0.516341 0.945986
Si Si5 0.689411 0.814228 0.338879
Si Si6 0.642867 0.948210 0.900180
Si Si7 0.269033 0.125790 0.977441
Si Si8 0.887101 0.355170 0.338074
O O1 0.000000 0.722933 0.250000
O O2 0.965919 0.574266 0.085945
O O3 0.050265 0.606568 0.053963
O O4 0.997679 0.761627 0.955891
O O5 0.548428 0.919192 0.256333
O O6 0.609940 0.070894 0.262788
O O7 0.613441 0.933228 0.048414
O O8 0.551598 0.076575 0.040127
O O9 0.419307 0.252304 0.618838
O O10 0.092239 0.581500 0.804090
O O11 0.110910 0.445359 0.030327
O O12 0.728354 0.802489 0.460476
O O13 0.713341 0.844436 0.184551
O O14 0.659920 0.704759 0.318004
O O15 0.658911 0.921916 0.385175
O O16 0.687965 0.878084 0.913822
O O17 0.250000 0.000000 0.972607
#
# Coordination Sequence:
#
# PCOD9424604 Si02
#       8
#     8   8   8   8   8   8   8   8
#     4  10  20  42  65  99 117 160 208 285 326 378
#     4  10  18  36  55  92 127 181 196 258 293 390
#     4  10  22  36  64  86 138 164 216 245 321 381
#     4  10  22  39  73  90 120 147 218 283 343 363
#     4  11  21  34  57  90 125 159 208 260 309 370
#     4  10  17  32  57  84 130 169 213 247 293 356
#     4  10  20  32  54  90 126 168 208 249 295 366
#     4  11  21  42  64  99 115 164 209 279 318 387
#
# _framework density 19.753086
#
# number of rings (size 3 to 8) (size 9 to 14) (size 15 to 20)
#    0.000    1.750    5.000    1.125    1.750    0.000 
#    6.750    1.875    0.000    2.250    0.000    0.000 
#    0.000    0.000    0.000    0.000    0.000    0.000 
#
# Total GULP energy -357262.385819 kJ/mol
# GULP energy per Si atom -5582.224778 kJ/mol
# Density = 1.970813 g / cm^3
# Si number density = 19.753086 Si / 1000 Ang^3
#
#
#
# Elastic Constant Matrix: (Units=GPa)
#
#
# Indices 1 2 3 4 5 6 
#
# 1 72.5418 31.1673 24.0476 0.0000 0.0000 0.0000
# 2 31.1673 80.5778 38.1139 0.0000 0.0000 0.0000
# 3 24.0476 38.1139 97.6949 0.0000 0.0000 0.0000
# 4 0.0000 0.0000 0.0000 39.1799 0.0000 0.0000
# 5 0.0000 0.0000 0.0000 0.0000 26.6072 0.0000
# 6 0.0000 0.0000 0.0000 0.0000 0.0000 29.2710
#
#
#
# Elastic Compliance Matrix: (Units=1/GPa)
#
#
# Indices 1 2 3 4 5 6 
#
# 1 0.016835 -0.005582 -0.001966 0.000000 0.000000 0.000000
# 2 -0.005582 0.017069 -0.005285 0.000000 0.000000 0.000000
# 3 -0.001966 -0.005285 0.012782 0.000000 0.000000 0.000000
# 4 0.000000 0.000000 0.000000 0.025523 0.000000 0.000000
# 5 0.000000 0.000000 0.000000 0.000000 0.037584 0.000000
# 6 0.000000 0.000000 0.000000 0.000000 0.000000 0.034164
#
#
# Mechanical properties :
#
#
# Convention : Reuss Voigt Hill
#
# Bulk Modulus (GPa) = 47.57460 48.60801 48.09131
# Shear Modulus (GPa) = 28.30767 29.51066 28.90916
#
# Velocity S-wave (km/s) = 3.78971 3.86939 3.82976
# Velocity P-wave (km/s) = 6.57922 6.68013 6.62987
#
# Compressibility (1/GPa) = 0.02101962
#
# Stress axis : x y z
#
# Youngs Moduli (GPa) = 59.39946 58.58444 78.23519
#
# Poissons Ratio (x) = 0.32700 0.15384
# Poissons Ratio (y) = 0.33155 0.41350
# Poissons Ratio (z) = 0.11680 0.30964
#
# Static dielectric constant tensor:
#      x y z
#    x 1.720630 0.000000 0.000000 
#    y 0.000000 1.667140 0.000000 
#    z 0.000000 0.000000 1.743590 
# 
# From -- ./inp_files/5965.got.cif
#   From: 2010.05.17/outbox.ucp.g08.bks.cvg/sg54_3_cif.got.tgz:5965.got - 2010.06.11 16:34:40.
