data_PCOD9424562
_publ_section_title
;
Structure prediction by ZEFSAII (Michael W. Deem and Ramdas Pophale) SiO2 
 PCOD9424562
Probable space group: P C C A
;
_chemical_formula_sum "Si O2"
_cell_formula_units_Z 20
_cell_length_a 4.976386
_cell_length_b 5.171683
_cell_length_c 28.663776
_cell_angle_alpha 90.000000
_cell_angle_beta 90.000000
_cell_angle_gamma 90.000000
_cell_volume 737.699277
_symmetry_space_group_name_H-M "P C C A"
_symmetry_group_IT_number 54
_symmetry_cell_setting 'orthorhombic'
loop_
_space_group_symop_operation_xyz
x,y,z
1/2-x,-y,z
1/2+x,-y,1/2-z
-x,y,1/2-z
-x,-y,-z
1/2+x,y,-z
1/2-x,y,1/2+z
x,-y,1/2+z
loop_
_atom_site_type_symbol
_atom_site_label
_atom_site_fract_x
_atom_site_fract_y
_atom_site_fract_z
Si Si1 0.750000 0.000000 0.343849
Si Si2 0.483406 0.679543 0.418773
Si Si3 0.750000 0.500000 0.282367
Si Si4 0.500000 0.000000 0.000000
O O1 0.528462 0.891222 0.379345
O O2 0.824249 0.750950 0.313134
O O3 0.750000 0.500000 0.426048
O O4 0.250000 0.500000 0.399313
O O5 0.341127 0.781348 0.468103
O O6 0.500000 0.572536 0.250000
O O7 0.250000 0.000000 0.036469
#
# Coordination Sequence:
#
# PCOD9424562 Si02
#       4
#     4   8   4   4
#     4  12  28  58  84 124 166 212 278 342 426 502
#     4  12  29  51  80 118 165 221 279 340 405 489
#     4  12  30  54  88 122 162 210 268 348 432 516
#     4  12  26  48  72 112 160 216 274 330 394 466
#
# _framework density 27.111318000000001
#
# number of rings (size 3 to 8) (size 9 to 14) (size 15 to 20)
#    0.000    0.000    4.000    3.600    2.800    8.000 
#    3.600    0.000    0.000    0.000    0.000    0.000 
#    0.000    0.000    0.000    0.000    0.000    0.000 
#
# Total GULP energy -111417.054165 kJ/mol
# GULP energy per Si atom -5570.852708 kJ/mol
# Density = 2.704961 g / cm^3
# Si number density = 27.111318 Si / 1000 Ang^3
#
#
#
# Elastic Constant Matrix: (Units=GPa)
#
#
# Indices 1 2 3 4 5 6 
#
# 1 114.2528 42.9133 28.6669 0.0000 0.0000 0.0000
# 2 42.9133 233.1979 96.5128 0.0000 0.0000 0.0000
# 3 28.6669 96.5128 174.1469 0.0000 0.0000 0.0000
# 4 0.0000 0.0000 0.0000 -96.6869 0.0000 0.0000
# 5 0.0000 0.0000 0.0000 0.0000 -7.9574 0.0000
# 6 0.0000 0.0000 0.0000 0.0000 0.0000 62.8563
#
#
#
# Elastic Compliance Matrix: (Units=1/GPa)
#
#
# Indices 1 2 3 4 5 6 
#
# 1 0.009481 -0.001426 -0.000771 0.000000 0.000000 0.000000
# 2 -0.001426 0.005779 -0.002968 0.000000 0.000000 0.000000
# 3 -0.000771 -0.002968 0.007514 0.000000 0.000000 0.000000
# 4 0.000000 0.000000 0.000000 -0.010343 0.000000 0.000000
# 5 0.000000 0.000000 0.000000 0.000000 -0.125669 0.000000
# 6 0.000000 0.000000 0.000000 0.000000 0.000000 0.015909
#
#
# Mechanical properties :
#
#
# Convention : Reuss Voigt Hill
#
# Bulk Modulus (GPa) = 80.35014 95.30930 87.82972
# Shear Modulus (GPa) = -60.34942 15.20936 -22.57003
#
# Velocity S-wave (km/s) = -4.72315 2.37111 -2.88843
# Velocity P-wave (km/s) = 0.20686 6.53661 4.61977
#
# Compressibility (1/GPa) = 0.01244553
#
# Stress axis : x y z
#
# Youngs Moduli (GPa) = 105.46945 173.04179 133.08497
#
# Poissons Ratio (x) = 0.24674 0.10255
# Poissons Ratio (y) = 0.15039 0.39500
# Poissons Ratio (z) = 0.08127 0.51359
#
# Static dielectric constant tensor:
#      x y z
#    x 0.756880 0.000000 0.000000 
#    y 0.000000 0.028230 0.000000 
#    z 0.000000 0.000000 1.765860 
# 
# From -- ./inp_files/24934.got.cif
#   From: 2010.05.17/outbox.cif.g08.bks.cpg/sg54_13_cif.got.tgz:24934.got - 2010.06.03 13:09:01.
