data_PCOD9424736
_publ_section_title
;
Structure prediction by ZEFSAII (Michael W. Deem and Ramdas Pophale) SiO2 
 PCOD9424736
Probable space group: P B A M
;
_chemical_formula_sum "Si O2"
_cell_formula_units_Z 48
_cell_length_a 15.332866
_cell_length_b 20.305587
_cell_length_c 8.247856
_cell_angle_alpha 90.000000
_cell_angle_beta 90.000000
_cell_angle_gamma 90.000000
_cell_volume 2567.910948
_symmetry_space_group_name_H-M "P B A M"
_symmetry_group_IT_number 55
_symmetry_cell_setting 'orthorhombic'
loop_
_space_group_symop_operation_xyz
x,y,z
-x,-y,z
1/2+x,1/2-y,-z
1/2-x,1/2+y,-z
-x,-y,-z
x,y,-z
1/2-x,1/2+y,z
1/2+x,1/2-y,z
loop_
_atom_site_type_symbol
_atom_site_label
_atom_site_fract_x
_atom_site_fract_y
_atom_site_fract_z
Si Si1 0.157341 0.597075 0.500000
Si Si2 0.838128 0.648684 0.500000
Si Si3 0.648846 0.677900 0.178024
Si Si4 0.594946 0.966479 0.819955
Si Si5 0.159135 0.390822 0.824150
Si Si6 0.792491 0.020625 0.500000
Si Si7 0.591067 0.537712 0.817316
Si Si8 0.688926 0.750562 0.500000
O O1 0.106913 0.580095 0.333535
O O2 0.235132 0.544440 0.500000
O O3 0.189200 0.671498 0.500000
O O4 0.888404 0.638444 0.667230
O O5 0.767740 0.587201 0.500000
O O6 0.784346 0.716078 0.500000
O O7 0.744701 0.642001 0.178538
O O8 0.582302 0.617004 0.190182
O O9 0.645035 0.723350 0.335167
O O10 0.639853 0.709658 0.000000
O O11 0.659111 0.030128 0.808591
O O12 0.500000 0.000000 0.813165
O O13 0.606482 0.936874 0.000000
O O14 0.119569 0.376153 0.000000
O O15 0.850679 0.020639 0.337778
O O16 0.500000 0.500000 0.806196
O O17 0.627890 0.523958 0.000000
#
# Coordination Sequence:
#
# PCOD9424736 Si02
#       8
#     4   4   8   8   8   4   8   4
#     4  12  23  34  52  80 109 135 169 224 268 298
#     4  10  16  30  51  72  93 131 172 206 249 301
#     4   9  16  30  51  72  96 133 175 210 251 311
#     4  10  20  34  53  78 106 134 169 216 267 312
#     4   9  15  27  50  74  94 123 168 213 249 295
#     4  12  19  32  53  78 104 136 173 216 258 304
#     4  10  19  31  53  83 106 130 170 217 259 305
#     4  10  20  32  48  74 104 134 174 213 257 310
#
# _framework density 18.692236999999999
#
# number of rings (size 3 to 8) (size 9 to 14) (size 15 to 20)
#    0.000    2.000    5.000    0.500    0.000    1.333 
#    0.000    0.000    0.000    8.000    0.000   11.667 
#    0.000    0.000    0.000    0.000    0.000    0.000 
#
# Total GULP energy -267333.868313 kJ/mol
# GULP energy per Si atom -5569.455590 kJ/mol
# Density = 1.864969 g / cm^3
# Si number density = 18.692237 Si / 1000 Ang^3
#
#
#
# Elastic Constant Matrix: (Units=GPa)
#
#
# Indices 1 2 3 4 5 6 
#
# 1 31.2410 19.3787 29.6527 0.0000 0.0000 0.0000
# 2 19.3787 95.6755 58.5681 0.0000 0.0000 0.0000
# 3 29.6527 58.5681 213.2280 0.0000 0.0000 0.0000
# 4 0.0000 0.0000 0.0000 7.6015 0.0000 0.0000
# 5 0.0000 0.0000 0.0000 0.0000 13.8720 0.0000
# 6 0.0000 0.0000 0.0000 0.0000 0.0000 9.6654
#
#
#
# Elastic Compliance Matrix: (Units=1/GPa)
#
#
# Indices 1 2 3 4 5 6 
#
# 1 0.039167 -0.005528 -0.003928 0.000000 0.000000 0.000000
# 2 -0.005528 0.013345 -0.002897 0.000000 0.000000 0.000000
# 3 -0.003928 -0.002897 0.006032 0.000000 0.000000 0.000000
# 4 0.000000 0.000000 0.000000 0.131553 0.000000 0.000000
# 5 0.000000 0.000000 0.000000 0.000000 0.072087 0.000000
# 6 0.000000 0.000000 0.000000 0.000000 0.000000 0.103461
#
#
# Mechanical properties :
#
#
# Convention : Reuss Voigt Hill
#
# Bulk Modulus (GPa) = 29.55347 61.70483 45.62915
# Shear Modulus (GPa) = 12.44922 21.73079 17.09001
#
# Velocity S-wave (km/s) = 2.58352 3.41333 3.02699
# Velocity P-wave (km/s) = 4.97436 6.97259 6.05646
#
# Compressibility (1/GPa) = 0.03383698
#
# Stress axis : x y z
#
# Youngs Moduli (GPa) = 25.53169 74.93454 165.78920
#
# Poissons Ratio (x) = 0.41427 0.65127
# Poissons Ratio (y) = 0.14115 0.48024
# Poissons Ratio (z) = 0.10030 0.21706
#
# Static dielectric constant tensor:
#      x y z
#    x 1.664950 0.000000 0.000000 
#    y 0.000000 1.609280 0.000000 
#    z 0.000000 0.000000 1.759250 
# 
# From -- ./inp_files/5750.got.cif
#   From: 2010.05.17/outbox.cif.g08.bks.cpg/sg55_3_cif.got.tgz:5750.got - 2010.06.03 13:27:54.
