data_PCOD9424947
_publ_section_title
;
Structure prediction by ZEFSAII (Michael W. Deem and Ramdas Pophale) SiO2 
 PCOD9424947
Probable space group: P B A M
;
_chemical_formula_sum "Si O2"
_cell_formula_units_Z 56
_cell_length_a 13.913307
_cell_length_b 17.373036
_cell_length_c 14.795924
_cell_angle_alpha 90.000000
_cell_angle_beta 90.000000
_cell_angle_gamma 90.000000
_cell_volume 3576.417238
_symmetry_space_group_name_H-M "P B A M"
_symmetry_group_IT_number 55
_symmetry_cell_setting 'orthorhombic'
loop_
_space_group_symop_operation_xyz
x,y,z
-x,-y,z
1/2+x,1/2-y,-z
1/2-x,1/2+y,-z
-x,-y,-z
x,y,-z
1/2-x,1/2+y,z
1/2+x,1/2-y,z
loop_
_atom_site_type_symbol
_atom_site_label
_atom_site_fract_x
_atom_site_fract_y
_atom_site_fract_z
Si Si1 0.841790 0.017263 0.600192
Si Si2 0.515298 0.369488 0.600162
Si Si3 0.613985 0.621812 0.107752
Si Si4 0.707365 0.477413 0.792472
Si Si5 0.076914 0.174488 0.210115
Si Si6 0.318933 0.808369 0.105044
Si Si7 0.107744 0.482696 0.893525
O O1 0.796846 0.021136 0.500000
O O2 0.910720 0.091398 0.611880
O O3 0.912410 0.942863 0.599986
O O4 0.779245 0.006230 0.689369
O O5 0.520497 0.333926 0.500000
O O6 0.543275 0.318481 0.685651
O O7 0.643992 0.541799 0.155457
O O8 0.517288 0.654348 0.151309
O O9 0.705502 0.678081 0.121815
O O10 0.603838 0.610156 0.000000
O O11 0.648632 0.398409 0.794204
O O12 0.809518 0.472177 0.841031
O O13 0.131243 0.247666 0.170086
O O14 0.366928 0.892456 0.115516
O O15 0.331079 0.784649 0.000000
O O16 0.000000 0.500000 0.862726
O O17 0.114169 0.501796 0.000000
#
# Coordination Sequence:
#
# PCOD9424947 Si02
#       7
#     8   8   8   8   8   8   8
#     4   8  13  24  43  69  99 124 151 188 233 290
#     4   8  14  25  43  69  99 126 152 188 234 288
#     4  10  20  32  44  65 100 128 150 195 245 283
#     4  10  18  29  48  75  97 119 158 200 246 293
#     4  11  19  29  50  74  96 125 157 197 245 292
#     4   9  20  34  45  65  96 127 160 198 238 284
#     4   9  19  36  53  66  90 132 174 205 231 280
#
# _framework density 15.658128
#
# number of rings (size 3 to 8) (size 9 to 14) (size 15 to 20)
#    0.000    2.714    1.429    3.000    0.000    4.000 
#    0.000    2.857    0.000    4.714    0.000    2.000 
#    0.000    0.000    0.000    0.000    0.000    0.000 
#
# Total GULP energy -311923.169808 kJ/mol
# GULP energy per Si atom -5570.056604 kJ/mol
# Density = 1.562249 g / cm^3
# Si number density = 15.658128 Si / 1000 Ang^3
#
#
#
# Elastic Constant Matrix: (Units=GPa)
#
#
# Indices 1 2 3 4 5 6 
#
# 1 90.5942 23.9573 51.6728 0.0000 0.0000 0.0000
# 2 23.9573 23.1741 28.8161 0.0000 0.0000 0.0000
# 3 51.6728 28.8161 109.3851 0.0000 0.0000 0.0000
# 4 0.0000 0.0000 0.0000 16.6988 0.0000 0.0000
# 5 0.0000 0.0000 0.0000 0.0000 17.3207 0.0000
# 6 0.0000 0.0000 0.0000 0.0000 0.0000 12.8103
#
#
#
# Elastic Compliance Matrix: (Units=1/GPa)
#
#
# Indices 1 2 3 4 5 6 
#
# 1 0.016859 -0.011192 -0.005016 0.000000 0.000000 0.000000
# 2 -0.011192 0.071603 -0.013576 0.000000 0.000000 0.000000
# 3 -0.005016 -0.013576 0.015088 0.000000 0.000000 0.000000
# 4 0.000000 0.000000 0.000000 0.059884 0.000000 0.000000
# 5 0.000000 0.000000 0.000000 0.000000 0.057734 0.000000
# 6 0.000000 0.000000 0.000000 0.000000 0.000000 0.078062
#
#
# Mechanical properties :
#
#
# Convention : Reuss Voigt Hill
#
# Bulk Modulus (GPa) = 22.73629 48.00511 35.37070
# Shear Modulus (GPa) = 13.38840 17.27976 15.33408
#
# Velocity S-wave (km/s) = 2.92729 3.32560 3.13278
# Velocity P-wave (km/s) = 5.09679 6.74322 5.97697
#
# Compressibility (1/GPa) = 0.04398256
#
# Stress axis : x y z
#
# Youngs Moduli (GPa) = 59.31684 13.96598 66.27885
#
# Poissons Ratio (x) = 0.15630 0.33243
# Poissons Ratio (y) = 0.66385 0.89980
# Poissons Ratio (z) = 0.29751 0.18960
#
# Static dielectric constant tensor:
#      x y z
#    x 1.509810 0.000000 0.000000 
#    y 0.000000 1.502010 0.000000 
#    z 0.000000 0.000000 1.548310 
# 
# From -- ./inp_files/19050.got.cif
#   From: 2010.05.17/outbox.cif.g08.bks.cpg/sg55_10_cif.got.tgz:19050.got - 2010.06.03 13:27:54.
