data_PCOD9424477
_publ_section_title
;
Structure prediction by ZEFSAII (Michael W. Deem and Ramdas Pophale) SiO2 
 PCOD9424477
Probable space group: P C C A
;
_chemical_formula_sum "Si O2"
_cell_formula_units_Z 60
_cell_length_a 17.180940
_cell_length_b 9.422939
_cell_length_c 17.476772
_cell_angle_alpha 90.000000
_cell_angle_beta 90.000000
_cell_angle_gamma 90.000000
_cell_volume 2829.401122
_symmetry_space_group_name_H-M "P C C A"
_symmetry_group_IT_number 54
_symmetry_cell_setting 'orthorhombic'
loop_
_space_group_symop_operation_xyz
x,y,z
1/2-x,-y,z
1/2+x,-y,1/2-z
-x,y,1/2-z
-x,-y,-z
1/2+x,y,-z
1/2-x,y,1/2+z
x,-y,1/2+z
loop_
_atom_site_type_symbol
_atom_site_label
_atom_site_fract_x
_atom_site_fract_y
_atom_site_fract_z
Si Si1 0.652898 0.704953 0.725261
Si Si2 0.250000 0.500000 0.024706
Si Si3 0.866838 0.680785 0.554354
Si Si4 0.957485 0.582377 0.099468
Si Si5 0.580028 0.984474 0.782861
Si Si6 0.125586 0.481511 0.153528
Si Si7 0.035780 0.873527 0.050427
Si Si8 0.167139 0.756991 0.776267
O O1 0.608813 0.608483 0.663581
O O2 0.600125 0.842715 0.736326
O O3 0.656513 0.623748 0.805879
O O4 0.741399 0.740671 0.706953
O O5 0.179754 0.453068 0.080484
O O6 0.282588 0.375456 0.971115
O O7 0.922147 0.541711 0.547031
O O8 0.894942 0.801068 0.496908
O O9 0.872074 0.735996 0.640954
O O10 0.036430 0.516493 0.134346
O O11 0.978278 0.738533 0.066279
O O12 0.500000 0.047720 0.750000
O O13 0.565783 0.939272 0.870035
O O14 0.647357 0.095058 0.764078
O O15 0.137169 0.359936 0.216258
O O16 0.000000 0.000000 0.000000
#
# Coordination Sequence:
#
# PCOD9424477 Si02
#       8
#     8   4   8   8   8   8   8   8
#     4  12  22  47  73 107 141 192 253 304 363 443
#     4  12  24  44  72 106 162 182 236 316 390 446
#     4  12  27  46  74 114 148 190 245 323 387 447
#     4  12  25  46  78 106 144 195 250 309 376 451
#     4  12  25  47  74 100 145 199 250 304 366 462
#     4  12  24  45  75 110 138 194 251 302 367 458
#     4  12  27  47  70 106 151 195 253 309 383 459
#     4  12  28  43  76 110 145 191 256 313 367 443
#
# _framework density 21.2059
#
# number of rings (size 3 to 8) (size 9 to 14) (size 15 to 20)
#    0.000    0.000    6.667    2.800    3.733    0.000 
#    0.000    0.000    0.000    0.000    0.000    0.000 
#    0.000    0.000    0.000    0.000    0.000    0.000 
#
# Total GULP energy -335617.945374 kJ/mol
# GULP energy per Si atom -5593.632423 kJ/mol
# Density = 2.115763 g / cm^3
# Si number density = 21.205900 Si / 1000 Ang^3
#
#
#
# Elastic Constant Matrix: (Units=GPa)
#
#
# Indices 1 2 3 4 5 6 
#
# 1 81.2131 47.1390 47.4798 0.0000 0.0000 0.0000
# 2 47.1390 69.9169 42.8676 0.0000 0.0000 0.0000
# 3 47.4798 42.8676 125.2051 0.0000 0.0000 0.0000
# 4 0.0000 0.0000 0.0000 21.8680 0.0000 0.0000
# 5 0.0000 0.0000 0.0000 0.0000 43.3396 0.0000
# 6 0.0000 0.0000 0.0000 0.0000 0.0000 26.3846
#
#
#
# Elastic Compliance Matrix: (Units=1/GPa)
#
#
# Indices 1 2 3 4 5 6 
#
# 1 0.021766 -0.012169 -0.004088 0.000000 0.000000 0.000000
# 2 -0.012169 0.024906 -0.003913 0.000000 0.000000 0.000000
# 3 -0.004088 -0.003913 0.010877 0.000000 0.000000 0.000000
# 4 0.000000 0.000000 0.000000 0.045729 0.000000 0.000000
# 5 0.000000 0.000000 0.000000 0.000000 0.023074 0.000000
# 6 0.000000 0.000000 0.000000 0.000000 0.000000 0.037901
#
#
# Mechanical properties :
#
#
# Convention : Reuss Voigt Hill
#
# Bulk Modulus (GPa) = 58.10435 61.25643 59.68039
# Shear Modulus (GPa) = 23.77236 27.57501 25.67369
#
# Velocity S-wave (km/s) = 3.35180 3.60994 3.48327
# Velocity P-wave (km/s) = 6.51452 6.80623 6.66198
#
# Compressibility (1/GPa) = 0.01721042
#
# Stress axis : x y z
#
# Youngs Moduli (GPa) = 45.94227 40.15075 91.93992
#
# Poissons Ratio (x) = 0.48859 0.37583
# Poissons Ratio (y) = 0.55907 0.35973
# Poissons Ratio (z) = 0.18780 0.15710
#
# Static dielectric constant tensor:
#      x y z
#    x 1.848460 0.000000 0.000000 
#    y 0.000000 1.773320 0.000000 
#    z 0.000000 0.000000 1.791140 
# 
# From -- ./inp_files/18683.got.cif
#   From: 2010.05.17/outbox.cif.g08.bks.cpg/sg54_10_cif.got.tgz:18683.got - 2010.06.03 13:09:01.
