data_PCOD9424338
_publ_section_title
;
Structure prediction by ZEFSAII (Michael W. Deem and Ramdas Pophale) SiO2 
 PCOD9424338
Probable space group: P C C A
;
_chemical_formula_sum "Si O2"
_cell_formula_units_Z 32
_cell_length_a 21.065202
_cell_length_b 6.065236
_cell_length_c 10.777362
_cell_angle_alpha 90.000000
_cell_angle_beta 90.000000
_cell_angle_gamma 90.000000
_cell_volume 1376.974199
_symmetry_space_group_name_H-M "P C C A"
_symmetry_group_IT_number 54
_symmetry_cell_setting 'orthorhombic'
loop_
_space_group_symop_operation_xyz
x,y,z
1/2-x,-y,z
1/2+x,-y,1/2-z
-x,y,1/2-z
-x,-y,-z
1/2+x,y,-z
1/2-x,y,1/2+z
x,-y,1/2+z
loop_
_atom_site_type_symbol
_atom_site_label
_atom_site_fract_x
_atom_site_fract_y
_atom_site_fract_z
Si Si1 0.404717 0.991965 0.395130
Si Si2 0.182172 0.379249 0.957934
Si Si3 0.973990 0.694376 0.413104
Si Si4 0.884273 0.606812 0.774752
O O1 0.420820 0.830865 0.510296
O O2 0.404436 0.849662 0.269102
O O3 0.466416 0.147691 0.391455
O O4 0.339606 0.129552 0.416533
O O5 0.250000 0.500000 0.968700
O O6 0.059908 0.563425 0.196644
O O7 0.153488 0.388824 0.096384
O O8 0.151933 0.516185 0.844760
O O9 0.000000 0.500000 0.500000
#
# Coordination Sequence:
#
# PCOD9424338 Si02
#       4
#     8   8   8   8
#     4  11  26  48  83 122 164 222 267 341 441 485
#     4  12  29  53  80 112 164 217 287 348 406 506
#     4  11  24  49  78 125 172 208 269 347 422 512
#     4  12  26  52  78 124 163 214 280 345 421 501
#
# _framework density 23.239362
#
# number of rings (size 3 to 8) (size 9 to 14) (size 15 to 20)
#    0.000    0.500    5.000    0.750    3.500    7.000 
#    0.000    2.500    0.000    0.000    0.000    0.000 
#    0.000    0.000    0.000    0.000    0.000    0.000 
#
# Total GULP energy -178836.473500 kJ/mol
# GULP energy per Si atom -5588.639797 kJ/mol
# Density = 2.318647 g / cm^3
# Si number density = 23.239362 Si / 1000 Ang^3
#
#
#
# Elastic Constant Matrix: (Units=GPa)
#
#
# Indices 1 2 3 4 5 6 
#
# 1 123.3123 73.0055 72.5789 0.0000 0.0000 0.0000
# 2 73.0055 157.1575 78.1222 0.0000 0.0000 0.0000
# 3 72.5789 78.1222 184.8412 0.0000 0.0000 0.0000
# 4 0.0000 0.0000 0.0000 75.5817 0.0000 0.0000
# 5 0.0000 0.0000 0.0000 0.0000 39.6272 0.0000
# 6 0.0000 0.0000 0.0000 0.0000 0.0000 36.5568
#
#
#
# Elastic Compliance Matrix: (Units=1/GPa)
#
#
# Indices 1 2 3 4 5 6 
#
# 1 0.012441 -0.004242 -0.003092 0.000000 0.000000 0.000000
# 2 -0.004242 0.009502 -0.002350 0.000000 0.000000 0.000000
# 3 -0.003092 -0.002350 0.007617 0.000000 0.000000 0.000000
# 4 0.000000 0.000000 0.000000 0.013231 0.000000 0.000000
# 5 0.000000 0.000000 0.000000 0.000000 0.025235 0.000000
# 6 0.000000 0.000000 0.000000 0.000000 0.000000 0.027355
#
#
# Mechanical properties :
#
#
# Convention : Reuss Voigt Hill
#
# Bulk Modulus (GPa) = 98.12203 101.41380 99.76791
# Shear Modulus (GPa) = 42.32004 46.46008 44.39006
#
# Velocity S-wave (km/s) = 4.27201 4.47609 4.37524
# Velocity P-wave (km/s) = 8.16378 8.39329 8.27933
#
# Compressibility (1/GPa) = 0.01019139
#
# Stress axis : x y z
#
# Youngs Moduli (GPa) = 80.37957 105.24080 131.27707
#
# Poissons Ratio (x) = 0.44646 0.40592
# Poissons Ratio (y) = 0.34099 0.30853
# Poissons Ratio (z) = 0.24854 0.24734
#
# Static dielectric constant tensor:
#      x y z
#    x 2.061090 0.000000 0.000000 
#    y 0.000000 1.950370 0.000000 
#    z 0.000000 0.000000 1.952650 
# 
# From -- ./inp_files/9670.got.cif
#   From: 2010.05.17/outbox.cif.g08.bks.cpg/sg54_5_cif.got.tgz:9670.got - 2010.06.03 13:09:01.
