data_PCOD9424435
_publ_section_title
;
Structure prediction by ZEFSAII (Michael W. Deem and Ramdas Pophale) SiO2 
 PCOD9424435
Probable space group: P C C A
;
_chemical_formula_sum "Si O2"
_cell_formula_units_Z 40
_cell_length_a 9.641544
_cell_length_b 19.692423
_cell_length_c 9.611803
_cell_angle_alpha 90.000000
_cell_angle_beta 90.000000
_cell_angle_gamma 90.000000
_cell_volume 1824.948464
_symmetry_space_group_name_H-M "P C C A"
_symmetry_group_IT_number 54
_symmetry_cell_setting 'orthorhombic'
loop_
_space_group_symop_operation_xyz
x,y,z
1/2-x,-y,z
1/2+x,-y,1/2-z
-x,y,1/2-z
-x,-y,-z
1/2+x,y,-z
1/2-x,y,1/2+z
x,-y,1/2+z
loop_
_atom_site_type_symbol
_atom_site_label
_atom_site_fract_x
_atom_site_fract_y
_atom_site_fract_z
Si Si1 0.839633 0.250704 0.757525
Si Si2 0.421870 0.567794 0.050263
Si Si3 0.480395 0.066744 0.590971
Si Si4 0.237312 0.159128 0.488467
Si Si5 0.190343 0.614601 0.833945
O O1 0.800004 0.218634 0.904640
O O2 0.813943 0.192474 0.642672
O O3 0.741182 0.313957 0.724950
O O4 0.000000 0.271912 0.750000
O O5 0.548534 0.620071 0.077162
O O6 0.345646 0.567091 0.200678
O O7 0.500000 0.500000 0.000000
O O8 0.310642 0.586964 0.933866
O O9 0.500000 0.046797 0.750000
O O10 0.335182 0.103363 0.560563
O O11 0.597728 0.122024 0.557165
O O12 0.500000 0.000000 0.500000
#
# Coordination Sequence:
#
# PCOD9424435 Si02
#       5
#     8   8   8   8   8
#     4  12  27  48  78 108 152 195 259 314 384 463
#     4  11  27  51  77 110 156 201 261 316 391 466
#     4  12  28  46  74 109 152 196 255 316 379 456
#     4  12  26  48  75 109 146 201 251 314 385 451
#     4  11  28  49  77 115 151 203 256 323 389 460
#
# _framework density 21.918426
#
# number of rings (size 3 to 8) (size 9 to 14) (size 15 to 20)
#    0.000    0.400    4.000    2.400    8.400   11.200 
#    0.000    0.000    0.000    0.000    0.000    0.000 
#    0.000    0.000    0.000    0.000    0.000    0.000 
#
# Total GULP energy -224112.579565 kJ/mol
# GULP energy per Si atom -5602.814489 kJ/mol
# Density = 2.186854 g / cm^3
# Si number density = 21.918426 Si / 1000 Ang^3
#
#
#
# Elastic Constant Matrix: (Units=GPa)
#
#
# Indices 1 2 3 4 5 6 
#
# 1 111.9427 37.2116 41.3573 0.0000 0.0000 0.0000
# 2 37.2116 61.0749 34.2105 0.0000 0.0000 0.0000
# 3 41.3573 34.2105 137.9083 0.0000 0.0000 0.0000
# 4 0.0000 0.0000 0.0000 101.4233 0.0000 0.0000
# 5 0.0000 0.0000 0.0000 0.0000 46.7730 0.0000
# 6 0.0000 0.0000 0.0000 0.0000 0.0000 167.6912
#
#
#
# Elastic Compliance Matrix: (Units=1/GPa)
#
#
# Indices 1 2 3 4 5 6 
#
# 1 0.011665 -0.005978 -0.002015 0.000000 0.000000 0.000000
# 2 -0.005978 0.022080 -0.003684 0.000000 0.000000 0.000000
# 3 -0.002015 -0.003684 0.008769 0.000000 0.000000 0.000000
# 4 0.000000 0.000000 0.000000 0.009860 0.000000 0.000000
# 5 0.000000 0.000000 0.000000 0.000000 0.021380 0.000000
# 6 0.000000 0.000000 0.000000 0.000000 0.000000 0.005963
#
#
# Mechanical properties :
#
#
# Convention : Reuss Voigt Hill
#
# Bulk Modulus (GPa) = 52.19700 59.60941 55.90321
# Shear Modulus (GPa) = 45.67922 76.38727 61.03325
#
# Velocity S-wave (km/s) = 4.57010 5.90985 5.28262
# Velocity P-wave (km/s) = 7.19122 8.59206 7.92266
#
# Compressibility (1/GPa) = 0.01915819
#
# Stress axis : x y z
#
# Youngs Moduli (GPa) = 85.72669 45.29059 114.03181
#
# Poissons Ratio (x) = 0.27077 0.22979
# Poissons Ratio (y) = 0.51251 0.42013
# Poissons Ratio (z) = 0.17275 0.16687
#
# Static dielectric constant tensor:
#      x y z
#    x 1.792770 0.000000 0.000000 
#    y 0.000000 1.767200 0.000000 
#    z 0.000000 0.000000 1.784030 
# 
# From -- ./inp_files/2541.got.cif
#   From: 2010.05.17/outbox.cif.g08.bks.cpg/sg54_2_cif.got.tgz:2541.got - 2010.06.03 13:09:01.
