data_PCOD9424561
_publ_section_title
;
Structure prediction by ZEFSAII (Michael W. Deem and Ramdas Pophale) SiO2 
 PCOD9424561
Probable space group: P C C A
;
_chemical_formula_sum "Si O2"
_cell_formula_units_Z 40
_cell_length_a 16.794906
_cell_length_b 10.745399
_cell_length_c 9.958850
_cell_angle_alpha 90.000000
_cell_angle_beta 90.000000
_cell_angle_gamma 90.000000
_cell_volume 1797.253405
_symmetry_space_group_name_H-M "P C C A"
_symmetry_group_IT_number 54
_symmetry_cell_setting 'orthorhombic'
loop_
_space_group_symop_operation_xyz
x,y,z
1/2-x,-y,z
1/2+x,-y,1/2-z
-x,y,1/2-z
-x,-y,-z
1/2+x,y,-z
1/2-x,y,1/2+z
x,-y,1/2+z
loop_
_atom_site_type_symbol
_atom_site_label
_atom_site_fract_x
_atom_site_fract_y
_atom_site_fract_z
Si Si1 0.901962 0.354984 0.580804
Si Si2 0.296592 0.872879 0.553479
Si Si3 0.583349 0.579317 0.275978
Si Si4 0.234681 0.733267 0.800711
Si Si5 0.016728 0.113819 0.598549
O O1 0.904022 0.422648 0.436038
O O2 0.926181 0.450143 0.697347
O O3 0.813189 0.317361 0.625579
O O4 0.960333 0.234610 0.573393
O O5 0.255262 0.772014 0.649696
O O6 0.289367 0.847583 0.395464
O O7 0.389298 0.862446 0.588307
O O8 0.250000 0.000000 0.583295
O O9 0.500000 0.650468 0.250000
O O10 0.659888 0.642349 0.208439
O O11 0.000000 0.073307 0.750000
O O12 0.000000 0.000000 0.500000
#
# Coordination Sequence:
#
# PCOD9424561 Si02
#       5
#     8   8   8   8   8
#     4  12  27  52  74 119 153 209 264 324 394 474
#     4  12  27  48  76 110 156 203 263 329 390 476
#     4  12  28  47  80 109 158 204 261 321 395 470
#     4  12  26  47  77 110 158 203 264 323 398 463
#     4  12  28  49  81 114 158 203 263 329 396 473
#
# _framework density 22.256183
#
# number of rings (size 3 to 8) (size 9 to 14) (size 15 to 20)
#    0.000    0.000    4.000    4.800    5.600    2.400 
#    0.000    0.000    0.000    0.000    0.000    0.000 
#    0.000    0.000    0.000    0.000    0.000    0.000 
#
# Total GULP energy -223734.858533 kJ/mol
# GULP energy per Si atom -5593.371463 kJ/mol
# Density = 2.220553 g / cm^3
# Si number density = 22.256183 Si / 1000 Ang^3
#
#
#
# Elastic Constant Matrix: (Units=GPa)
#
#
# Indices 1 2 3 4 5 6 
#
# 1 190.4487 57.2807 34.4615 0.0000 0.0000 0.0000
# 2 57.2807 88.7249 75.6979 0.0000 0.0000 0.0000
# 3 34.4615 75.6979 146.0476 0.0000 0.0000 0.0000
# 4 0.0000 0.0000 0.0000 56.9174 0.0000 0.0000
# 5 0.0000 0.0000 0.0000 0.0000 15.8902 0.0000
# 6 0.0000 0.0000 0.0000 0.0000 0.0000 9.2017
#
#
#
# Elastic Compliance Matrix: (Units=1/GPa)
#
#
# Indices 1 2 3 4 5 6 
#
# 1 0.006626 -0.005278 0.001172 0.000000 0.000000 0.000000
# 2 -0.005278 0.024410 -0.011407 0.000000 0.000000 0.000000
# 3 0.001172 -0.011407 0.012483 0.000000 0.000000 0.000000
# 4 0.000000 0.000000 0.000000 0.017569 0.000000 0.000000
# 5 0.000000 0.000000 0.000000 0.000000 0.062932 0.000000
# 6 0.000000 0.000000 0.000000 0.000000 0.000000 0.108676
#
#
# Mechanical properties :
#
#
# Convention : Reuss Voigt Hill
#
# Bulk Modulus (GPa) = 80.03786 84.45573 82.24679
# Shear Modulus (GPa) = 18.66477 33.58726 26.12601
#
# Velocity S-wave (km/s) = 2.89906 3.88895 3.42991
# Velocity P-wave (km/s) = 6.87359 7.62855 7.26089
#
# Compressibility (1/GPa) = 0.01249409
#
# Stress axis : x y z
#
# Youngs Moduli (GPa) = 150.91974 40.96709 80.11114
#
# Poissons Ratio (x) = 0.21621 -0.09389
# Poissons Ratio (y) = 0.79650 0.91379
# Poissons Ratio (z) = -0.17688 0.46729
#
# Static dielectric constant tensor:
#      x y z
#    x 1.568690 0.000000 0.000000 
#    y 0.000000 1.896870 0.000000 
#    z 0.000000 0.000000 1.799070 
# 
# From -- ./inp_files/3960.got.cif
#   From: 2010.05.17/outbox.cif.g08.bks.cpg/sg54_2_cif.got.tgz:3960.got - 2010.06.03 13:09:01.
