data_PCOD9424705
_publ_section_title
;
Structure prediction by ZEFSAII (Michael W. Deem and Ramdas Pophale) SiO2 
 PCOD9424705
Probable space group: P B A M
;
_chemical_formula_sum "Si O2"
_cell_formula_units_Z 48
_cell_length_a 5.505577
_cell_length_b 13.743789
_cell_length_c 25.707062
_cell_angle_alpha 90.000000
_cell_angle_beta 90.000000
_cell_angle_gamma 90.000000
_cell_volume 1945.188821
_symmetry_space_group_name_H-M "P B A M"
_symmetry_group_IT_number 55
_symmetry_cell_setting 'orthorhombic'
loop_
_space_group_symop_operation_xyz
x,y,z
-x,-y,z
1/2+x,1/2-y,-z
1/2-x,1/2+y,-z
-x,-y,-z
x,y,-z
1/2-x,1/2+y,z
1/2+x,1/2-y,z
loop_
_atom_site_type_symbol
_atom_site_label
_atom_site_fract_x
_atom_site_fract_y
_atom_site_fract_z
Si Si1 0.889888 0.645938 0.938528
Si Si2 0.609054 0.367279 0.102707
Si Si3 0.996929 0.882063 0.559008
Si Si4 0.107498 0.353019 0.734486
Si Si5 0.108815 0.132992 0.775220
Si Si6 0.996132 0.617619 0.617323
O O1 0.879399 0.751311 0.910260
O O2 0.132219 0.596346 0.917378
O O3 0.632656 0.597827 0.926011
O O4 0.914965 0.661485 0.000000
O O5 0.577675 0.382856 0.163798
O O6 0.971695 0.845501 0.500000
O O7 0.757496 0.856371 0.592601
O O8 0.261009 0.857298 0.582418
O O9 0.000000 0.000000 0.557049
O O10 0.125126 0.248887 0.763274
O O11 0.870000 0.404670 0.757237
O O12 0.369839 0.400352 0.744238
O O13 0.050707 0.338032 0.673924
O O14 0.000000 0.500000 0.623821
#
# Coordination Sequence:
#
# PCOD9424705 Si02
#       6
#     8   8   8   8   8   8
#     4  10  16  22  33  51  75 105 136 166 212 258
#     4  10  16  25  36  51  75 102 145 178 196 242
#     4   9  17  30  47  68  92 114 138 168 208 262
#     4  10  18  30  44  64  87 110 148 185 208 244
#     4  10  19  30  45  62  80 117 160 183 204 234
#     4  10  19  30  47  71  94 114 136 171 220 260
#
# _framework density 24.676269000000001
#
# number of rings (size 3 to 8) (size 9 to 14) (size 15 to 20)
#    0.000    2.167    0.000    9.000    0.000    2.000 
#    0.000    0.000    0.000    0.000    0.000   46.667 
#    0.000    0.000    0.000    0.000    0.000  469.167 
#
# Total GULP energy -268619.205380 kJ/mol
# GULP energy per Si atom -5596.233445 kJ/mol
# Density = 2.462011 g / cm^3
# Si number density = 24.676269 Si / 1000 Ang^3
#
#
#
# Elastic Constant Matrix: (Units=GPa)
#
#
# Indices 1 2 3 4 5 6 
#
# 1 254.1489 25.2694 51.5262 0.0000 0.0000 0.0000
# 2 25.2694 93.6069 -11.1549 0.0000 0.0000 0.0000
# 3 51.5262 -11.1549 160.4510 0.0000 0.0000 0.0000
# 4 0.0000 0.0000 0.0000 -314.0059 0.0000 0.0000
# 5 0.0000 0.0000 0.0000 0.0000 52.4564 0.0000
# 6 0.0000 0.0000 0.0000 0.0000 0.0000 18.2435
#
#
#
# Elastic Compliance Matrix: (Units=1/GPa)
#
#
# Indices 1 2 3 4 5 6 
#
# 1 0.004374 -0.001359 -0.001499 0.000000 0.000000 0.000000
# 2 -0.001359 0.011195 0.001215 0.000000 0.000000 0.000000
# 3 -0.001499 0.001215 0.006798 0.000000 0.000000 0.000000
# 4 0.000000 0.000000 0.000000 -0.003185 0.000000 0.000000
# 5 0.000000 0.000000 0.000000 0.000000 0.019063 0.000000
# 6 0.000000 0.000000 0.000000 0.000000 0.000000 0.054814
#
#
# Mechanical properties :
#
#
# Convention : Reuss Voigt Hill
#
# Bulk Modulus (GPa) = 52.41214 71.05424 61.73319
# Shear Modulus (GPa) = 48.68227 -19.15679 14.76274
#
# Velocity S-wave (km/s) = 4.44648 -2.78928 2.44858
# Velocity P-wave (km/s) = 6.90272 4.29926 5.75027
#
# Compressibility (1/GPa) = 0.01907955
#
# Stress axis : x y z
#
# Youngs Moduli (GPa) = 228.63513 89.32801 147.09580
#
# Poissons Ratio (x) = 0.12143 0.22051
# Poissons Ratio (y) = 0.31080 -0.17869
# Poissons Ratio (z) = 0.34274 -0.10852
#
# Static dielectric constant tensor:
#      x y z
#    x 1.976900 0.000000 0.000000 
#    y 0.000000 2.169160 0.000000 
#    z 0.000000 0.000000 1.844070 
# 
# From -- ./inp_files/22333.got.cif
#   From: 2010.05.17/outbox.cif.g08.bks.cpg/sg55_12_cif.got.tgz:22333.got - 2010.06.03 13:27:54.
