data_PCOD9424775
_publ_section_title
;
Structure prediction by ZEFSAII (Michael W. Deem and Ramdas Pophale) SiO2 
 PCOD9424775
Probable space group: P B A M
;
_chemical_formula_sum "Si O2"
_cell_formula_units_Z 56
_cell_length_a 18.400359
_cell_length_b 22.869055
_cell_length_c 8.677866
_cell_angle_alpha 90.000000
_cell_angle_beta 90.000000
_cell_angle_gamma 90.000000
_cell_volume 3651.635790
_symmetry_space_group_name_H-M "P B A M"
_symmetry_group_IT_number 55
_symmetry_cell_setting 'orthorhombic'
loop_
_space_group_symop_operation_xyz
x,y,z
-x,-y,z
1/2+x,1/2-y,-z
1/2-x,1/2+y,-z
-x,-y,-z
x,y,-z
1/2-x,1/2+y,z
1/2+x,1/2-y,z
loop_
_atom_site_type_symbol
_atom_site_label
_atom_site_fract_x
_atom_site_fract_y
_atom_site_fract_z
Si Si1 0.280759 0.677795 0.821825
Si Si2 0.616670 0.157262 0.682868
Si Si3 0.997017 0.567659 0.185804
Si Si4 0.873469 0.346442 0.187216
Si Si5 0.414173 0.280825 0.316425
Si Si6 0.068698 0.217344 0.186044
Si Si7 0.733934 0.685036 0.178159
O O1 0.209867 0.645253 0.757068
O O2 0.362184 0.679144 0.756364
O O3 0.256608 0.746110 0.819426
O O4 0.011351 0.429326 0.000000
O O5 0.612792 0.164015 0.500000
O O6 0.568811 0.102971 0.738336
O O7 0.583973 0.216069 0.760245
O O8 0.700345 0.152892 0.736351
O O9 0.071360 0.601844 0.225429
O O10 0.000000 0.500000 0.231092
O O11 0.128233 0.660001 0.000000
O O12 0.902803 0.285618 0.255617
O O13 0.712329 0.340606 0.000000
O O14 0.415274 0.280473 0.500000
O O15 0.491138 0.301710 0.250184
O O16 0.344864 0.317006 0.255708
O O17 0.068214 0.216972 0.000000
O O18 0.730364 0.667226 0.000000
#
# Coordination Sequence:
#
# PCOD9424775 Si02
#       7
#     8   8   8   8   8   8   8
#     4   7  13  24  40  59  76 105 145 178 210 254
#     4  11  20  30  44  63  87 114 147 191 234 265
#     4  10  20  32  47  65  86 119 161 196 227 269
#     4   9  16  29  45  58  81 116 152 187 224 264
#     4  11  19  26  40  65  91 114 145 181 220 262
#     4  10  17  27  42  60  86 119 151 177 213 269
#     4   9  17  30  45  60  82 115 148 176 215 269
#
# _framework density 15.335594
#
# number of rings (size 3 to 8) (size 9 to 14) (size 15 to 20)
#    0.000    2.429    1.429    5.143    0.000    0.286 
#    0.000    0.714    0.000    0.000    0.000    0.000 
#    0.000    1.143    0.000   13.429    0.000    2.571 
#
# Total GULP energy -311909.948862 kJ/mol
# GULP energy per Si atom -5569.820515 kJ/mol
# Density = 1.530069 g / cm^3
# Si number density = 15.335594 Si / 1000 Ang^3
#
#
#
# Elastic Constant Matrix: (Units=GPa)
#
#
# Indices 1 2 3 4 5 6 
#
# 1 176.1301 41.5145 44.6700 0.0000 0.0000 0.0000
# 2 41.5145 43.9491 18.6839 0.0000 0.0000 0.0000
# 3 44.6700 18.6839 59.0670 0.0000 0.0000 0.0000
# 4 0.0000 0.0000 0.0000 2.6308 0.0000 0.0000
# 5 0.0000 0.0000 0.0000 0.0000 14.5881 0.0000
# 6 0.0000 0.0000 0.0000 0.0000 0.0000 12.5820
#
#
#
# Elastic Compliance Matrix: (Units=1/GPa)
#
#
# Indices 1 2 3 4 5 6 
#
# 1 0.008154 -0.005870 -0.004310 0.000000 0.000000 0.000000
# 2 -0.005870 0.030515 -0.005213 0.000000 0.000000 0.000000
# 3 -0.004310 -0.005213 0.021838 0.000000 0.000000 0.000000
# 4 0.000000 0.000000 0.000000 0.380105 0.000000 0.000000
# 5 0.000000 0.000000 0.000000 0.000000 0.068549 0.000000
# 6 0.000000 0.000000 0.000000 0.000000 0.000000 0.079478
#
#
# Mechanical properties :
#
#
# Convention : Reuss Voigt Hill
#
# Bulk Modulus (GPa) = 33.64599 54.32034 43.98317
# Shear Modulus (GPa) = 7.94491 17.57871 12.76181
#
# Velocity S-wave (km/s) = 2.27858 3.38933 2.88786
# Velocity P-wave (km/s) = 5.37680 7.12845 6.31367
#
# Compressibility (1/GPa) = 0.02972122
#
# Stress axis : x y z
#
# Youngs Moduli (GPa) = 122.63359 32.77084 45.79119
#
# Poissons Ratio (x) = 0.19238 0.19736
# Poissons Ratio (y) = 0.71991 0.23870
# Poissons Ratio (z) = 0.52854 0.17083
#
# Static dielectric constant tensor:
#      x y z
#    x 1.563550 0.000000 0.000000 
#    y 0.000000 1.469270 0.000000 
#    z 0.000000 0.000000 1.510730 
# 
# From -- ./inp_files/7890.got.cif
#   From: 2010.05.17/outbox.cif.g08.bks.cpg/sg55_4_cif.got.tgz:7890.got - 2010.06.03 13:27:54.
