data_PCOD9424999
_publ_section_title
;
Structure prediction by ZEFSAII (Michael W. Deem and Ramdas Pophale) SiO2 
 PCOD9424999
Probable space group: P B A M
;
_chemical_formula_sum "Si O2"
_cell_formula_units_Z 64
_cell_length_a 19.882653
_cell_length_b 17.740427
_cell_length_c 7.293117
_cell_angle_alpha 90.000000
_cell_angle_beta 90.000000
_cell_angle_gamma 90.000000
_cell_volume 2572.477487
_symmetry_space_group_name_H-M "P B A M"
_symmetry_group_IT_number 55
_symmetry_cell_setting 'orthorhombic'
loop_
_space_group_symop_operation_xyz
x,y,z
-x,-y,z
1/2+x,1/2-y,-z
1/2-x,1/2+y,-z
-x,-y,-z
x,y,-z
1/2-x,1/2+y,z
1/2+x,1/2-y,z
loop_
_atom_site_type_symbol
_atom_site_label
_atom_site_fract_x
_atom_site_fract_y
_atom_site_fract_z
Si Si1 0.691265 0.819501 0.776139
Si Si2 0.394927 0.495623 0.722630
Si Si3 0.487003 0.619349 0.279815
Si Si4 0.869783 0.477715 0.206573
Si Si5 0.757419 0.078156 0.277855
Si Si6 0.447268 0.224241 0.787454
Si Si7 0.810863 0.728317 0.207631
Si Si8 0.064513 0.375454 0.225592
O O1 0.659852 0.899857 0.717068
O O2 0.628750 0.765487 0.717584
O O3 0.765946 0.796286 0.709852
O O4 0.698267 0.820234 0.000000
O O5 0.393500 0.496667 0.500000
O O6 0.452816 0.436553 0.775322
O O7 0.418685 0.578623 0.782432
O O8 0.324821 0.462651 0.783581
O O9 0.485465 0.620949 0.500000
O O10 0.506726 0.702130 0.222326
O O11 0.804107 0.530199 0.203621
O O12 0.921514 0.538974 0.287248
O O13 0.893635 0.460362 0.000000
O O14 0.755095 0.079835 0.500000
O O15 0.745427 0.162266 0.208348
O O16 0.492755 0.156389 0.712980
O O17 0.437907 0.207276 0.000000
O O18 0.876681 0.684500 0.284865
O O19 0.829905 0.748902 0.000000
O O20 0.067331 0.376375 0.000000
#
# Coordination Sequence:
#
# PCOD9424999 Si02
#       8
#     8   8   8   8   8   8   8   8
#     4   9  18  31  51  74  96 122 160 202 239 279
#     4   8  16  30  48  67  93 126 157 188 232 285
#     4   9  17  32  49  66  91 127 161 188 227 290
#     4   9  18  34  51  69  93 127 162 194 238 291
#     4  10  18  30  49  73  96 122 157 199 237 279
#     4  10  19  31  47  72  98 122 157 205 242 272
#     4   9  17  32  50  70  96 127 156 191 240 294
#     4   8  16  30  48  67  94 126 155 187 234 285
#
# _framework density 24.878738999999999
#
# number of rings (size 3 to 8) (size 9 to 14) (size 15 to 20)
#    0.000    3.000    0.000    2.625    0.000    1.500 
#    0.000   10.625    0.000    0.000    0.000    4.375 
#    0.000    0.000    0.000    0.000    0.000    0.000 
#
# Total GULP energy -356969.550921 kJ/mol
# GULP energy per Si atom -5577.649233 kJ/mol
# Density = 2.482211 g / cm^3
# Si number density = 24.878739 Si / 1000 Ang^3
#
#
#
# Elastic Constant Matrix: (Units=GPa)
#
#
# Indices 1 2 3 4 5 6 
#
# 1 63.1559 -3.1176 -1.5149 0.0000 0.0000 0.0000
# 2 -3.1176 68.8002 -7.2954 0.0000 0.0000 0.0000
# 3 -1.5149 -7.2954 112.1552 0.0000 0.0000 0.0000
# 4 0.0000 0.0000 0.0000 21.2202 0.0000 0.0000
# 5 0.0000 0.0000 0.0000 0.0000 15.9845 0.0000
# 6 0.0000 0.0000 0.0000 0.0000 0.0000 39.1064
#
#
#
# Elastic Compliance Matrix: (Units=1/GPa)
#
#
# Indices 1 2 3 4 5 6 
#
# 1 0.015877 0.000747 0.000263 0.000000 0.000000 0.000000
# 2 0.000747 0.014671 0.000964 0.000000 0.000000 0.000000
# 3 0.000263 0.000964 0.008982 0.000000 0.000000 0.000000
# 4 0.000000 0.000000 0.000000 0.047125 0.000000 0.000000
# 5 0.000000 0.000000 0.000000 0.000000 0.062561 0.000000
# 6 0.000000 0.000000 0.000000 0.000000 0.000000 0.025571
#
#
# Mechanical properties :
#
#
# Convention : Reuss Voigt Hill
#
# Bulk Modulus (GPa) = 22.99901 24.47283 23.73592
# Shear Modulus (GPa) = 26.97875 32.33150 29.65513
#
# Velocity S-wave (km/s) = 3.29661 3.60886 3.45626
# Velocity P-wave (km/s) = 4.87388 5.21760 5.04866
#
# Compressibility (1/GPa) = 0.04348013
#
# Stress axis : x y z
#
# Youngs Moduli (GPa) = 62.98404 68.16184 111.32759
#
# Poissons Ratio (x) = -0.05094 -0.02929
# Poissons Ratio (y) = -0.04707 -0.10736
# Poissons Ratio (z) = -0.01657 -0.06574
#
# Static dielectric constant tensor:
#      x y z
#    x 1.977020 0.000000 0.000000 
#    y 0.000000 2.016790 0.000000 
#    z 0.000000 0.000000 2.301690 
# 
# From -- ./inp_files/8940.got.cif
#   From: 2010.05.17/outbox.cif.g08.bks.cpg/sg55_5_cif.got.tgz:8940.got - 2010.06.03 13:27:54.
