data_PCOD9424269
_publ_section_title
;
Structure prediction by ZEFSAII (Michael W. Deem and Ramdas Pophale) SiO2 
 PCOD9424269
Probable space group: P C C A
;
_chemical_formula_sum "Si O2"
_cell_formula_units_Z 56
_cell_length_a 10.968347
_cell_length_b 15.182637
_cell_length_c 14.279938
_cell_angle_alpha 90.000000
_cell_angle_beta 90.000000
_cell_angle_gamma 90.000000
_cell_volume 2378.015670
_symmetry_space_group_name_H-M "P C C A"
_symmetry_group_IT_number 54
_symmetry_cell_setting 'orthorhombic'
loop_
_space_group_symop_operation_xyz
x,y,z
1/2-x,-y,z
1/2+x,-y,1/2-z
-x,y,1/2-z
-x,-y,-z
1/2+x,y,-z
1/2-x,y,1/2+z
x,-y,1/2+z
loop_
_atom_site_type_symbol
_atom_site_label
_atom_site_fract_x
_atom_site_fract_y
_atom_site_fract_z
Si Si1 0.023498 0.032620 0.104048
Si Si2 0.832361 0.206249 0.371275
Si Si3 0.820234 0.831931 0.657507
Si Si4 0.595115 0.262232 0.475066
Si Si5 0.612902 0.384141 0.822569
Si Si6 0.538841 0.149844 0.154319
Si Si7 0.897371 0.412910 0.831405
O O1 0.907828 0.084983 0.143815
O O2 0.123938 0.108294 0.105024
O O3 0.038816 0.940219 0.155824
O O4 0.000000 0.000000 0.000000
O O5 0.840681 0.208534 0.259000
O O6 0.699382 0.216449 0.411222
O O7 0.896117 0.301105 0.394057
O O8 0.857170 0.760681 0.578339
O O9 0.682540 0.864771 0.653791
O O10 0.481592 0.204479 0.440548
O O11 0.582713 0.357014 0.426651
O O12 0.500000 0.374253 0.750000
O O13 0.759329 0.387686 0.794740
O O14 0.597514 0.484006 0.858301
O O15 0.500000 0.198925 0.250000
O O16 0.000000 0.399075 0.750000
#
# Coordination Sequence:
#
# PCOD9424269 Si02
#       7
#     8   8   8   8   8   8   8
#     4  12  25  44  66  99 138 182 237 291 349 426
#     4  11  24  44  71 100 138 183 234 292 360 429
#     4  12  25  44  68 102 141 185 235 292 361 425
#     4  11  24  42  68 101 140 185 229 293 355 430
#     4   9  18  37  67 102 135 185 238 296 361 437
#     4  12  24  44  66  97 139 183 238 294 352 420
#     4   9  19  37  68 102 138 186 238 294 366 436
#
# _framework density 23.549046000000001
#
# number of rings (size 3 to 8) (size 9 to 14) (size 15 to 20)
#    0.000    1.143    2.857    3.857    2.000    0.571 
#    0.000    0.000    0.000   21.429    3.714    0.000 
#    0.000    0.000    0.000    0.000    0.000    0.000 
#
# Total GULP energy -312545.395555 kJ/mol
# GULP energy per Si atom -5581.167778 kJ/mol
# Density = 2.349545 g / cm^3
# Si number density = 23.549046 Si / 1000 Ang^3
#
#
#
# Elastic Constant Matrix: (Units=GPa)
#
#
# Indices 1 2 3 4 5 6 
#
# 1 50.7564 7.5339 -32.1393 0.0000 0.0000 0.0000
# 2 7.5339 162.9579 17.1582 0.0000 0.0000 0.0000
# 3 -32.1393 17.1582 107.9950 0.0000 0.0000 0.0000
# 4 0.0000 0.0000 0.0000 -26.1746 0.0000 0.0000
# 5 0.0000 0.0000 0.0000 0.0000 17.8096 0.0000
# 6 0.0000 0.0000 0.0000 0.0000 0.0000 30.2857
#
#
#
# Elastic Compliance Matrix: (Units=1/GPa)
#
#
# Indices 1 2 3 4 5 6 
#
# 1 0.024879 -0.001963 0.007716 0.000000 0.000000 0.000000
# 2 -0.001963 0.006396 -0.001600 0.000000 0.000000 0.000000
# 3 0.007716 -0.001600 0.011810 0.000000 0.000000 0.000000
# 4 0.000000 0.000000 0.000000 -0.038205 0.000000 0.000000
# 5 0.000000 0.000000 0.000000 0.000000 0.056149 0.000000
# 6 0.000000 0.000000 0.000000 0.000000 0.000000 0.033019
#
#
# Mechanical properties :
#
#
# Convention : Reuss Voigt Hill
#
# Bulk Modulus (GPa) = 19.45872 34.09052 26.77462
# Shear Modulus (GPa) = 48.60377 26.32791 37.46584
#
# Velocity S-wave (km/s) = 4.54799 3.34728 3.99302
# Velocity P-wave (km/s) = 5.98831 5.42650 5.71432
#
# Compressibility (1/GPa) = 0.05139085
#
# Stress axis : x y z
#
# Youngs Moduli (GPa) = 40.19457 156.35303 84.67284
#
# Poissons Ratio (x) = 0.30686 -0.65332
# Poissons Ratio (y) = 0.07889 0.13550
# Poissons Ratio (z) = -0.31013 0.25020
#
# Static dielectric constant tensor:
#      x y z
#    x 1.949600 0.000000 0.000000 
#    y 0.000000 1.903150 0.000000 
#    z 0.000000 0.000000 1.982470 
# 
# From -- ./inp_files/12686.got.cif
#   From: 2010.05.17/outbox.cif.g08.bks.cpg/sg54_7_cif.got.tgz:12686.got - 2010.06.03 13:09:01.
