data_PCOD9424142
_publ_section_title
;
Structure prediction by ZEFSAII (Michael W. Deem and Ramdas Pophale) SiO2 
 PCOD9424142
Probable space group: P C C A
;
_chemical_formula_sum "Si O2"
_cell_formula_units_Z 60
_cell_length_a 24.204797
_cell_length_b 9.114521
_cell_length_c 10.989714
_cell_angle_alpha 90.000000
_cell_angle_beta 90.000000
_cell_angle_gamma 90.000000
_cell_volume 2424.497189
_symmetry_space_group_name_H-M "P C C A"
_symmetry_group_IT_number 54
_symmetry_cell_setting 'orthorhombic'
loop_
_space_group_symop_operation_xyz
x,y,z
1/2-x,-y,z
1/2+x,-y,1/2-z
-x,y,1/2-z
-x,-y,-z
1/2+x,y,-z
1/2-x,y,1/2+z
x,-y,1/2+z
loop_
_atom_site_type_symbol
_atom_site_label
_atom_site_fract_x
_atom_site_fract_y
_atom_site_fract_z
Si Si1 0.399043 0.906528 0.114760
Si Si2 0.699062 0.103371 0.439754
Si Si3 0.500000 0.061608 0.250000
Si Si4 0.449729 0.302249 0.424820
Si Si5 0.684839 0.479683 0.046818
Si Si6 0.805598 0.593423 0.297948
Si Si7 0.850415 0.779997 0.657882
Si Si8 0.538180 0.634226 0.129189
O O1 0.356140 0.833629 0.207599
O O2 0.363563 0.046808 0.078015
O O3 0.457548 0.963237 0.169877
O O4 0.408349 0.782283 0.014290
O O5 0.705004 0.253746 0.366614
O O6 0.694440 0.128488 0.584388
O O7 0.750000 0.000000 0.410943
O O8 0.464026 0.176173 0.328631
O O9 0.437766 0.466464 0.374441
O O10 0.502413 0.336722 0.509877
O O11 0.750000 0.500000 0.023714
O O12 0.676080 0.363371 0.158093
O O13 0.667653 0.617735 0.127961
O O14 0.661006 0.503024 0.907818
O O15 0.750000 0.500000 0.280007
O O16 0.915712 0.761152 0.626161
O O17 0.500000 0.642264 0.250000
#
# Coordination Sequence:
#
# PCOD9424142 Si02
#       8
#     8   8   4   8   8   8   8   8
#     4  12  25  43  71 104 150 203 248 314 391 471
#     4  11  27  48  69 104 154 198 259 313 383 471
#     4  12  24  44  72 110 148 196 256 306 394 474
#     4  11  24  43  74 105 146 193 245 313 386 460
#     4   9  20  39  67  95 132 174 243 297 364 431
#     4   9  20  43  69  99 132 189 243 314 370 442
#     4  11  24  45  68 102 141 195 240 314 379 446
#     4  11  22  46  73 107 147 184 251 324 382 458
#
# _framework density 24.747399999999999
#
# number of rings (size 3 to 8) (size 9 to 14) (size 15 to 20)
#    0.000    1.333    2.000    2.800    3.733    3.733 
#   12.000    0.000    0.000    0.000    0.000    0.000 
#    0.000    0.000    0.000    0.000    0.000    0.000 
#
# Total GULP energy -334246.589348 kJ/mol
# GULP energy per Si atom -5570.776489 kJ/mol
# Density = 2.469107 g / cm^3
# Si number density = 24.747400 Si / 1000 Ang^3
#
#
#
# Elastic Constant Matrix: (Units=GPa)
#
#
# Indices 1 2 3 4 5 6 
#
# 1 72.6859 37.4812 7.5474 0.0000 0.0000 0.0000
# 2 37.4812 86.3529 12.2931 0.0000 0.0000 0.0000
# 3 7.5474 12.2931 96.5275 0.0000 0.0000 0.0000
# 4 0.0000 0.0000 0.0000 21.7276 0.0000 0.0000
# 5 0.0000 0.0000 0.0000 0.0000 26.6045 0.0000
# 6 0.0000 0.0000 0.0000 0.0000 0.0000 -23.1421
#
#
#
# Elastic Compliance Matrix: (Units=1/GPa)
#
#
# Indices 1 2 3 4 5 6 
#
# 1 0.017741 -0.007642 -0.000414 0.000000 0.000000 0.000000
# 2 -0.007642 0.015086 -0.001324 0.000000 0.000000 0.000000
# 3 -0.000414 -0.001324 0.010561 0.000000 0.000000 0.000000
# 4 0.000000 0.000000 0.000000 0.046025 0.000000 0.000000
# 5 0.000000 0.000000 0.000000 0.000000 0.037588 0.000000
# 6 0.000000 0.000000 0.000000 0.000000 0.000000 -0.043211
#
#
# Mechanical properties :
#
#
# Convention : Reuss Voigt Hill
#
# Bulk Modulus (GPa) = 40.60258 41.13442 40.86850
# Shear Modulus (GPa) = 45.14394 18.25429 31.69911
#
# Velocity S-wave (km/s) = 4.27569 2.71887 3.58286
# Velocity P-wave (km/s) = 6.38888 5.14919 5.80224
#
# Compressibility (1/GPa) = 0.02462898
#
# Stress axis : x y z
#
# Youngs Moduli (GPa) = 56.36567 66.28814 94.69076
#
# Poissons Ratio (x) = 0.50655 0.03920
# Poissons Ratio (y) = 0.43072 0.12534
# Poissons Ratio (z) = 0.02334 0.08775
#
# Static dielectric constant tensor:
#      x y z
#    x 2.074990 0.000000 0.000000 
#    y 0.000000 1.948040 0.000000 
#    z 0.000000 0.000000 2.355530 
# 
# From -- ./inp_files/10336.got.cif
#   From: 2010.05.17/outbox.cif.g08.bks.cpg/sg54_6_cif.got.tgz:10336.got - 2010.06.03 13:09:01.
