data_PCOD9424374
_publ_section_title
;
Structure prediction by ZEFSAII (Michael W. Deem and Ramdas Pophale) SiO2 
 PCOD9424374
Probable space group: P C C A
;
_chemical_formula_sum "Si O2"
_cell_formula_units_Z 32
_cell_length_a 15.554025
_cell_length_b 5.198566
_cell_length_c 15.644589
_cell_angle_alpha 90.000000
_cell_angle_beta 90.000000
_cell_angle_gamma 90.000000
_cell_volume 1264.999963
_symmetry_space_group_name_H-M "P C C A"
_symmetry_group_IT_number 54
_symmetry_cell_setting 'orthorhombic'
loop_
_space_group_symop_operation_xyz
x,y,z
1/2-x,-y,z
1/2+x,-y,1/2-z
-x,y,1/2-z
-x,-y,-z
1/2+x,y,-z
1/2-x,y,1/2+z
x,-y,1/2+z
loop_
_atom_site_type_symbol
_atom_site_label
_atom_site_fract_x
_atom_site_fract_y
_atom_site_fract_z
Si Si1 0.500000 0.731444 0.750000
Si Si2 0.157237 0.418805 0.312651
Si Si3 0.402843 0.948904 0.604935
Si Si4 0.250000 0.000000 0.736507
Si Si5 0.850784 0.465674 0.490291
O O1 0.579670 0.535868 0.739426
O O2 0.483198 0.910760 0.667926
O O3 0.250000 0.500000 0.273121
O O4 0.149210 0.529590 0.407126
O O5 0.178649 0.119416 0.303036
O O6 0.320484 0.908614 0.666276
O O7 0.610258 0.783813 0.444278
O O8 0.402644 0.715396 0.539008
O O9 0.750000 0.500000 0.466225
#
# Coordination Sequence:
#
# PCOD9424374 Si02
#       5
#     4   8   8   4   8
#     4  12  28  50  80 122 162 218 268 338 398 492
#     4  11  27  49  78 116 160 211 271 331 407 475
#     4  12  26  46  78 114 159 207 270 325 402 474
#     4  12  24  46  82 112 156 212 266 334 394 484
#     4  11  25  46  77 115 154 213 263 333 400 478
#
# _framework density 25.296444999999999
#
# number of rings (size 3 to 8) (size 9 to 14) (size 15 to 20)
#    0.000    0.500    5.000    1.500    7.000    6.000 
#    0.000    0.000    0.000    0.000    0.000    0.000 
#    0.000    0.000    0.000    0.000    0.000    0.000 
#
# Total GULP energy -178713.976626 kJ/mol
# GULP energy per Si atom -5584.811770 kJ/mol
# Density = 2.523887 g / cm^3
# Si number density = 25.296445 Si / 1000 Ang^3
#
#
#
# Elastic Constant Matrix: (Units=GPa)
#
#
# Indices 1 2 3 4 5 6 
#
# 1 125.0701 39.8080 46.8144 0.0000 0.0000 0.0000
# 2 39.8080 139.0861 54.8041 0.0000 0.0000 0.0000
# 3 46.8144 54.8041 77.1568 0.0000 0.0000 0.0000
# 4 0.0000 0.0000 0.0000 2.8805 0.0000 0.0000
# 5 0.0000 0.0000 0.0000 0.0000 38.6991 0.0000
# 6 0.0000 0.0000 0.0000 0.0000 0.0000 10.8860
#
#
#
# Elastic Compliance Matrix: (Units=1/GPa)
#
#
# Indices 1 2 3 4 5 6 
#
# 1 0.010391 -0.000680 -0.005822 0.000000 0.000000 0.000000
# 2 -0.000680 0.010029 -0.006711 0.000000 0.000000 0.000000
# 3 -0.005822 -0.006711 0.021259 0.000000 0.000000 0.000000
# 4 0.000000 0.000000 0.000000 0.347167 0.000000 0.000000
# 5 0.000000 0.000000 0.000000 0.000000 0.025840 0.000000
# 6 0.000000 0.000000 0.000000 0.000000 0.000000 0.091861
#
#
# Mechanical properties :
#
#
# Convention : Reuss Voigt Hill
#
# Bulk Modulus (GPa) = 65.55520 69.35175 67.45348
# Shear Modulus (GPa) = 9.29271 23.81889 16.55580
#
# Velocity S-wave (km/s) = 1.91872 3.07186 2.56104
# Velocity P-wave (km/s) = 5.55695 6.32905 5.95553
#
# Compressibility (1/GPa) = 0.01525432
#
# Stress axis : x y z
#
# Youngs Moduli (GPa) = 96.23660 99.71444 47.03816
#
# Poissons Ratio (x) = 0.06782 0.27384
# Poissons Ratio (y) = 0.06546 0.31565
# Poissons Ratio (z) = 0.56025 0.66914
#
# Static dielectric constant tensor:
#      x y z
#    x 2.011430 0.000000 0.000000 
#    y 0.000000 0.774900 0.000000 
#    z 0.000000 0.000000 1.994540 
# 
# From -- ./inp_files/20859.got.cif
#   From: 2010.05.17/outbox.cif.g08.bks.cpg/sg54_11_cif.got.tgz:20859.got - 2010.06.03 13:09:01.
