data_PCOD9424516
_publ_section_title
;
Structure prediction by ZEFSAII (Michael W. Deem and Ramdas Pophale) SiO2 
 PCOD9424516
Probable space group: P C C A
;
_chemical_formula_sum "Si O2"
_cell_formula_units_Z 48
_cell_length_a 9.848351
_cell_length_b 14.751150
_cell_length_c 15.128881
_cell_angle_alpha 90.000000
_cell_angle_beta 90.000000
_cell_angle_gamma 90.000000
_cell_volume 2197.840666
_symmetry_space_group_name_H-M "P C C A"
_symmetry_group_IT_number 54
_symmetry_cell_setting 'orthorhombic'
loop_
_space_group_symop_operation_xyz
x,y,z
1/2-x,-y,z
1/2+x,-y,1/2-z
-x,y,1/2-z
-x,-y,-z
1/2+x,y,-z
1/2-x,y,1/2+z
x,-y,1/2+z
loop_
_atom_site_type_symbol
_atom_site_label
_atom_site_fract_x
_atom_site_fract_y
_atom_site_fract_z
Si Si1 0.909726 0.504946 0.167808
Si Si2 0.131657 0.064199 0.507660
Si Si3 0.195211 0.212178 0.654547
Si Si4 0.960582 0.311614 0.587311
Si Si5 0.277248 0.182851 0.845212
Si Si6 0.983928 0.693436 0.884409
O O1 0.750000 0.500000 0.191170
O O2 0.918533 0.583903 0.095340
O O3 0.000000 0.534881 0.250000
O O4 0.978382 0.409702 0.139891
O O5 0.136298 0.144000 0.580118
O O6 0.176061 0.104193 0.412087
O O7 0.250000 0.000000 0.540057
O O8 0.000000 0.000000 0.500000
O O9 0.219401 0.162047 0.747908
O O10 0.333549 0.265735 0.629862
O O11 0.078482 0.287597 0.656405
O O12 0.834914 0.245325 0.606801
O O13 0.012090 0.296284 0.488366
O O14 0.409239 0.244885 0.832807
#
# Coordination Sequence:
#
# PCOD9424516 Si02
#       6
#     8   8   8   8   8   8
#     4  12  27  44  68 110 151 196 257 309 359 432
#     4  12  26  48  78 107 149 186 238 312 374 447
#     4  12  26  46  78 108 145 197 242 302 373 446
#     4  12  24  46  72 104 150 197 250 302 364 437
#     4  12  24  48  74 108 145 193 246 300 372 449
#     4  12  24  46  72 104 150 199 249 303 364 439
#
# _framework density 21.839617000000001
#
# number of rings (size 3 to 8) (size 9 to 14) (size 15 to 20)
#    0.000    0.000    5.000    5.500    2.333    0.667 
#    0.000    1.667    0.000    0.000    0.000    0.000 
#    0.000    0.000    0.000    0.000    0.000    0.000 
#
# Total GULP energy -268240.592368 kJ/mol
# GULP energy per Si atom -5588.345674 kJ/mol
# Density = 2.178991 g / cm^3
# Si number density = 21.839617 Si / 1000 Ang^3
#
#
#
# Elastic Constant Matrix: (Units=GPa)
#
#
# Indices 1 2 3 4 5 6 
#
# 1 123.5552 33.1427 11.7593 0.0000 0.0000 0.0000
# 2 33.1427 111.8231 27.0991 0.0000 0.0000 0.0000
# 3 11.7593 27.0991 123.7353 0.0000 0.0000 0.0000
# 4 0.0000 0.0000 0.0000 14.5786 0.0000 0.0000
# 5 0.0000 0.0000 0.0000 0.0000 28.9953 0.0000
# 6 0.0000 0.0000 0.0000 0.0000 0.0000 51.7330
#
#
#
# Elastic Compliance Matrix: (Units=1/GPa)
#
#
# Indices 1 2 3 4 5 6 
#
# 1 0.008802 -0.002541 -0.000280 0.000000 0.000000 0.000000
# 2 -0.002541 0.010177 -0.001987 0.000000 0.000000 0.000000
# 3 -0.000280 -0.001987 0.008544 0.000000 0.000000 0.000000
# 4 0.000000 0.000000 0.000000 0.068594 0.000000 0.000000
# 5 0.000000 0.000000 0.000000 0.000000 0.034488 0.000000
# 6 0.000000 0.000000 0.000000 0.000000 0.000000 0.019330
#
#
# Mechanical properties :
#
#
# Convention : Reuss Voigt Hill
#
# Bulk Modulus (GPa) = 55.84672 55.90175 55.87423
# Shear Modulus (GPa) = 30.20776 38.20220 34.20498
#
# Velocity S-wave (km/s) = 3.72313 4.18690 3.96180
# Velocity P-wave (km/s) = 6.64146 7.00183 6.82402
#
# Compressibility (1/GPa) = 0.01790615
#
# Stress axis : x y z
#
# Youngs Moduli (GPa) = 113.61360 98.25681 117.04596
#
# Poissons Ratio (x) = 0.24966 0.03277
# Poissons Ratio (y) = 0.28868 0.23263
# Poissons Ratio (z) = 0.03181 0.19528
#
# Static dielectric constant tensor:
#      x y z
#    x 1.800500 0.000000 0.000000 
#    y 0.000000 1.857450 0.000000 
#    z 0.000000 0.000000 1.906380 
# 
# From -- ./inp_files/11738.got.cif
#   From: 2010.05.17/outbox.cif.g08.bks.cpg/sg54_6_cif.got.tgz:11738.got - 2010.06.03 13:09:01.
