data_PCOD9424881
_publ_section_title
;
Structure prediction by ZEFSAII (Michael W. Deem and Ramdas Pophale) SiO2 
 PCOD9424881
Probable space group: P B A M
;
_chemical_formula_sum "Si O2"
_cell_formula_units_Z 56
_cell_length_a 21.981266
_cell_length_b 18.095558
_cell_length_c 8.990662
_cell_angle_alpha 90.000000
_cell_angle_beta 90.000000
_cell_angle_gamma 90.000000
_cell_volume 3576.155151
_symmetry_space_group_name_H-M "P B A M"
_symmetry_group_IT_number 55
_symmetry_cell_setting 'orthorhombic'
loop_
_space_group_symop_operation_xyz
x,y,z
-x,-y,z
1/2+x,1/2-y,-z
1/2-x,1/2+y,-z
-x,-y,-z
x,y,-z
1/2-x,1/2+y,z
1/2+x,1/2-y,z
loop_
_atom_site_type_symbol
_atom_site_label
_atom_site_fract_x
_atom_site_fract_y
_atom_site_fract_z
Si Si1 0.349793 0.887425 0.326953
Si Si2 0.679860 0.257456 0.829569
Si Si3 0.650985 0.866192 0.322420
Si Si4 0.676124 0.716346 0.171822
Si Si5 0.071496 0.511889 0.825041
Si Si6 0.292707 0.431635 0.324846
Si Si7 0.720903 0.414635 0.178881
O O1 0.365843 0.894595 0.500000
O O2 0.351952 0.802591 0.273804
O O3 0.391809 0.940002 0.229026
O O4 0.279660 0.913953 0.309817
O O5 0.751880 0.237304 0.828012
O O6 0.678992 0.343443 0.785647
O O7 0.658780 0.249305 0.000000
O O8 0.655676 0.865726 0.500000
O O9 0.644716 0.783370 0.259031
O O10 0.713501 0.899334 0.253682
O O11 0.597473 0.919191 0.267007
O O12 0.672495 0.637374 0.251619
O O13 0.656679 0.713209 0.000000
O O14 0.000000 0.500000 0.802384
O O15 0.082979 0.524486 0.000000
O O16 0.305755 0.437338 0.500000
O O17 0.303743 0.508458 0.241139
O O18 0.728436 0.416925 0.000000
#
# Coordination Sequence:
#
# PCOD9424881 Si02
#       7
#     8   8   8   8   8   8   8
#     4  10  19  30  45  64  87 117 149 188 234 270
#     4   8  16  28  42  61  85 117 152 183 218 266
#     4  11  20  31  46  64  88 117 150 192 235 272
#     4   9  17  29  44  62  86 119 153 184 221 271
#     4  11  23  36  50  66  86 118 159 197 232 275
#     4  10  18  27  42  67  94 121 152 186 226 269
#     4  10  18  28  44  65  91 123 155 184 221 271
#
# _framework density 15.659274999999999
#
# number of rings (size 3 to 8) (size 9 to 14) (size 15 to 20)
#    0.000    2.143    1.429    4.286    0.000    6.286 
#    0.000    0.000    0.000    0.000    0.000    0.000 
#    0.000    1.143    0.000   12.000    0.000    5.714 
#
# Total GULP energy -312290.288159 kJ/mol
# GULP energy per Si atom -5576.612289 kJ/mol
# Density = 1.562363 g / cm^3
# Si number density = 15.659275 Si / 1000 Ang^3
#
#
#
# Elastic Constant Matrix: (Units=GPa)
#
#
# Indices 1 2 3 4 5 6 
#
# 1 18.0798 11.3630 24.3970 0.0000 0.0000 0.0000
# 2 11.3630 135.1133 60.8601 0.0000 0.0000 0.0000
# 3 24.3970 60.8601 106.7662 0.0000 0.0000 0.0000
# 4 0.0000 0.0000 0.0000 22.3185 0.0000 0.0000
# 5 0.0000 0.0000 0.0000 0.0000 10.5772 0.0000
# 6 0.0000 0.0000 0.0000 0.0000 0.0000 7.5122
#
#
#
# Elastic Compliance Matrix: (Units=1/GPa)
#
#
# Indices 1 2 3 4 5 6 
#
# 1 0.080383 0.002036 -0.019529 0.000000 0.000000 0.000000
# 2 0.002036 0.010010 -0.006171 0.000000 0.000000 0.000000
# 3 -0.019529 -0.006171 0.017347 0.000000 0.000000 0.000000
# 4 0.000000 0.000000 0.000000 0.044806 0.000000 0.000000
# 5 0.000000 0.000000 0.000000 0.000000 0.094543 0.000000
# 6 0.000000 0.000000 0.000000 0.000000 0.000000 0.133117
#
#
# Mechanical properties :
#
#
# Convention : Reuss Voigt Hill
#
# Bulk Modulus (GPa) = 16.55304 50.35550 33.45427
# Shear Modulus (GPa) = 11.16893 18.97085 15.06989
#
# Velocity S-wave (km/s) = 2.67357 3.48440 3.10556
# Velocity P-wave (km/s) = 4.48601 6.95808 5.85402
#
# Compressibility (1/GPa) = 0.06041187
#
# Stress axis : x y z
#
# Youngs Moduli (GPa) = 12.44040 99.90348 57.64829
#
# Poissons Ratio (x) = -0.20344 1.12582
# Poissons Ratio (y) = -0.02533 0.35576
# Poissons Ratio (z) = 0.24295 0.61652
#
# Static dielectric constant tensor:
#      x y z
#    x 1.485970 0.000000 0.000000 
#    y 0.000000 1.541760 0.000000 
#    z 0.000000 0.000000 1.522640 
# 
# From -- ./inp_files/8113.got.cif
#   From: 2010.05.17/outbox.cif.g08.bks.cpg/sg55_5_cif.got.tgz:8113.got - 2010.06.03 13:27:54.
