data_PCOD9424659
_publ_section_title
;
Structure prediction by ZEFSAII (Michael W. Deem and Ramdas Pophale) SiO2 
 PCOD9424659
Probable space group: P C C A
;
_chemical_formula_sum "Si O2"
_cell_formula_units_Z 64
_cell_length_a 18.000000
_cell_length_b 15.000000
_cell_length_c 12.000000
_cell_angle_alpha 90.000000
_cell_angle_beta 90.000000
_cell_angle_gamma 90.000000
_cell_volume 3240.000000
_symmetry_space_group_name_H-M "P C C A"
_symmetry_group_IT_number 54
_symmetry_cell_setting 'orthorhombic'
loop_
_space_group_symop_operation_xyz
x,y,z
1/2-x,-y,z
1/2+x,-y,1/2-z
-x,y,1/2-z
-x,-y,-z
1/2+x,y,-z
1/2-x,y,1/2+z
x,-y,1/2+z
loop_
_atom_site_type_symbol
_atom_site_label
_atom_site_fract_x
_atom_site_fract_y
_atom_site_fract_z
Si Si1 0.524280 0.883010 0.878154
Si Si2 0.667071 0.814708 0.406427
Si Si3 0.168037 0.772363 0.144543
Si Si4 0.417681 0.459404 0.516202
Si Si5 0.838312 0.309402 0.610698
Si Si6 0.676175 0.626436 0.049520
Si Si7 0.528059 0.092154 0.874326
Si Si8 0.914293 0.341866 0.273498
O O1 0.500000 0.851546 0.750000
O O2 0.608093 0.848531 0.876656
O O3 0.507308 0.988186 0.877471
O O4 0.497388 0.859583 0.008001
O O5 0.750307 0.814823 0.362590
O O6 0.665443 0.779104 0.533417
O O7 0.617373 0.900443 0.383307
O O8 0.623882 0.738504 0.338257
O O9 0.156691 0.721805 0.262202
O O10 0.162938 0.698963 0.046854
O O11 0.500000 0.500000 0.500000
O O12 0.403038 0.374951 0.434118
O O13 0.354249 0.532284 0.493448
O O14 0.409395 0.424968 0.642323
O O15 0.761895 0.362872 0.585590
O O16 0.627846 0.645165 0.158656
O O17 0.500000 0.123557 0.750000
O O18 0.000000 0.325789 0.250000
#
# Coordination Sequence:
#
# PCOD9424659 Si02
#       8
#     8   8   8   8   8   8   8   8
#     4  10  23  42  61  98 132 165 206 256 319 381
#     4  10  22  39  64  91 119 164 210 253 310 368
#     4  11  24  39  65  90 126 162 209 253 313 378
#     4  11  24  40  61  90 118 160 211 257 308 365
#     4  10  23  44  59  87 128 164 202 262 313 373
#     4  11  24  41  61  90 120 165 209 251 319 370
#     4  10  22  40  68  93 128 168 209 255 314 381
#     4  11  22  39  63  87 124 155 210 263 304 373
#
# _framework density 19.753086
#
# number of rings (size 3 to 8) (size 9 to 14) (size 15 to 20)
#    0.000    1.500    2.500    1.500    5.250    1.500 
#    0.000    0.000    0.000    6.000    0.000    0.000 
#    0.000    0.000    0.000    0.000    0.000    0.000 
#
# Total GULP energy -356742.270946 kJ/mol
# GULP energy per Si atom -5574.097984 kJ/mol
# Density = 1.970813 g / cm^3
# Si number density = 19.753086 Si / 1000 Ang^3
#
#
#
# Elastic Constant Matrix: (Units=GPa)
#
#
# Indices 1 2 3 4 5 6 
#
# 1 80.5640 -6.0634 55.4996 0.0000 0.0000 0.0000
# 2 -6.0634 -6.2479 12.3297 0.0000 0.0000 0.0000
# 3 55.4996 12.3297 171.5095 0.0000 0.0000 0.0000
# 4 0.0000 0.0000 0.0000 3.1171 0.0000 0.0000
# 5 0.0000 0.0000 0.0000 0.0000 30.1528 0.0000
# 6 0.0000 0.0000 0.0000 0.0000 0.0000 456.5563
#
#
#
# Elastic Compliance Matrix: (Units=1/GPa)
#
#
# Indices 1 2 3 4 5 6 
#
# 1 0.013026 -0.018355 -0.002896 0.000000 0.000000 0.000000
# 2 -0.018355 -0.114303 0.014157 0.000000 0.000000 0.000000
# 3 -0.002896 0.014157 0.005750 0.000000 0.000000 0.000000
# 4 0.000000 0.000000 0.000000 0.320813 0.000000 0.000000
# 5 0.000000 0.000000 0.000000 0.000000 0.033164 0.000000
# 6 0.000000 0.000000 0.000000 0.000000 0.000000 0.002190
#
#
# Mechanical properties :
#
#
# Convention : Reuss Voigt Hill
#
# Bulk Modulus (GPa) = -9.11448 41.03971 15.96262
# Shear Modulus (GPa) = 20.98585 110.23589 65.61087
#
# Velocity S-wave (km/s) = 3.26300 7.47851 5.76954
# Velocity P-wave (km/s) = 3.09386 9.76689 7.24445
#
# Compressibility (1/GPa) = -0.10971553
#
# Stress axis : x y z
#
# Youngs Moduli (GPa) = 76.77095 -8.74864 173.91784
#
# Poissons Ratio (x) = -0.16058 0.50359
# Poissons Ratio (y) = 1.40914 -2.46212
# Poissons Ratio (z) = 0.22229 0.12385
#
# Static dielectric constant tensor:
#      x y z
#    x 1.698670 0.000000 0.000000 
#    y 0.000000 1.718500 0.000000 
#    z 0.000000 0.000000 1.722670 
# 
# From -- ./inp_files/9089.got.cif
#   From: 2010.05.17/outbox.ucp.g08.bks.cvg/sg54_5_cif.got.tgz:9089.got - 2010.06.11 16:34:40.
