data_PCOD9424845
_publ_section_title
;
Structure prediction by ZEFSAII (Michael W. Deem and Ramdas Pophale) SiO2 
 PCOD9424845
Probable space group: P B A M
;
_chemical_formula_sum "Si O2"
_cell_formula_units_Z 64
_cell_length_a 25.607009
_cell_length_b 14.587090
_cell_length_c 8.028366
_cell_angle_alpha 90.000000
_cell_angle_beta 90.000000
_cell_angle_gamma 90.000000
_cell_volume 2998.849561
_symmetry_space_group_name_H-M "P B A M"
_symmetry_group_IT_number 55
_symmetry_cell_setting 'orthorhombic'
loop_
_space_group_symop_operation_xyz
x,y,z
-x,-y,z
1/2+x,1/2-y,-z
1/2-x,1/2+y,-z
-x,-y,-z
x,y,-z
1/2-x,1/2+y,z
1/2+x,1/2-y,z
loop_
_atom_site_type_symbol
_atom_site_label
_atom_site_fract_x
_atom_site_fract_y
_atom_site_fract_z
Si Si1 0.669865 0.987634 0.700480
Si Si2 0.303369 0.818868 0.800846
Si Si3 0.088981 0.234899 0.195201
Si Si4 0.800357 0.284044 0.299024
Si Si5 0.981484 0.279955 0.309170
Si Si6 0.056056 0.520805 0.306813
Si Si7 0.942259 0.969214 0.700078
Si Si8 0.607146 0.650059 0.704243
O O1 0.665049 0.980823 0.500000
O O2 0.689333 0.888264 0.760430
O O3 0.611185 0.007305 0.767844
O O4 0.703741 0.076619 0.740349
O O5 0.358268 0.778456 0.731975
O O6 0.255949 0.754201 0.748906
O O7 0.305718 0.822066 0.000000
O O8 0.037190 0.295080 0.226318
O O9 0.074059 0.133446 0.256245
O O10 0.097334 0.227565 0.000000
O O11 0.803742 0.286237 0.500000
O O12 0.844075 0.211055 0.239277
O O13 0.994153 0.256234 0.500000
O O14 0.944896 0.368858 0.311924
O O15 0.946257 0.199243 0.237993
O O16 0.053653 0.485769 0.500000
O O17 0.000000 0.500000 0.227351
O O18 0.944738 0.974051 0.500000
O O19 0.899279 0.044545 0.754646
O O20 0.000000 0.000000 0.761283
O O21 0.607425 0.653877 0.500000
#
# Coordination Sequence:
#
# PCOD9424845 Si02
#       8
#     8   8   8   8   8   8   8   8
#     4  10  20  38  65  94 119 148 194 249 300 350
#     4  11  26  44  59  82 122 166 204 243 292 353
#     4  11  24  39  54  80 120 161 201 246 290 341
#     4  10  21  40  66  92 118 149 197 257 302 344
#     4  10  17  32  58  85 116 149 185 235 295 357
#     4   9  16  27  52  90 121 146 181 230 289 349
#     4  10  19  34  59  87 117 155 194 237 297 361
#     4   9  17  33  58  89 118 143 183 241 298 351
#
# _framework density 21.341517
#
# number of rings (size 3 to 8) (size 9 to 14) (size 15 to 20)
#    0.000    2.000    2.500    1.500    0.000    4.750 
#    0.000    5.625    0.000    2.250    0.000    0.000 
#    0.000    0.000    0.000    0.000    0.000    0.000 
#
# Total GULP energy -357131.655329 kJ/mol
# GULP energy per Si atom -5580.182115 kJ/mol
# Density = 2.129294 g / cm^3
# Si number density = 21.341517 Si / 1000 Ang^3
#
#
#
# Elastic Constant Matrix: (Units=GPa)
#
#
# Indices 1 2 3 4 5 6 
#
# 1 113.5541 49.4525 1.7057 0.0000 0.0000 0.0000
# 2 49.4525 104.6701 7.2415 0.0000 0.0000 0.0000
# 3 1.7057 7.2415 13.8983 0.0000 0.0000 0.0000
# 4 0.0000 0.0000 0.0000 -31.9700 0.0000 0.0000
# 5 0.0000 0.0000 0.0000 0.0000 37.2092 0.0000
# 6 0.0000 0.0000 0.0000 0.0000 0.0000 32.4247
#
#
#
# Elastic Compliance Matrix: (Units=1/GPa)
#
#
# Indices 1 2 3 4 5 6 
#
# 1 0.011115 -0.005350 0.001423 0.000000 0.000000 0.000000
# 2 -0.005350 0.012486 -0.005849 0.000000 0.000000 0.000000
# 3 0.001423 -0.005849 0.074824 0.000000 0.000000 0.000000
# 4 0.000000 0.000000 0.000000 -0.031279 0.000000 0.000000
# 5 0.000000 0.000000 0.000000 0.000000 0.026875 0.000000
# 6 0.000000 0.000000 0.000000 0.000000 0.000000 0.030841
#
#
# Mechanical properties :
#
#
# Convention : Reuss Voigt Hill
#
# Bulk Modulus (GPa) = 12.67847 38.76910 25.72379
# Shear Modulus (GPa) = 29.29049 19.11428 24.20239
#
# Velocity S-wave (km/s) = 3.70870 2.99597 3.37122
# Velocity P-wave (km/s) = 4.92878 5.49302 5.21853
#
# Compressibility (1/GPa) = 0.07887388
#
# Stress axis : x y z
#
# Youngs Moduli (GPa) = 89.97002 80.08933 13.36468
#
# Poissons Ratio (x) = 0.42846 -0.01902
# Poissons Ratio (y) = 0.48132 0.07817
# Poissons Ratio (z) = -0.12806 0.46845
#
# Static dielectric constant tensor:
#      x y z
#    x 1.785490 0.000000 0.000000 
#    y 0.000000 1.787790 0.000000 
#    z 0.000000 0.000000 1.771100 
# 
# From -- ./inp_files/9811.got.cif
#   From: 2010.05.17/outbox.cif.g08.bks.cpg/sg55_5_cif.got.tgz:9811.got - 2010.06.03 13:27:54.
