data_PCOD9424627
_publ_section_title
;
Structure prediction by ZEFSAII (Michael W. Deem and Ramdas Pophale) SiO2 
 PCOD9424627
Probable space group: P C C A
;
_chemical_formula_sum "Si O2"
_cell_formula_units_Z 64
_cell_length_a 9.000000
_cell_length_b 12.000000
_cell_length_c 30.000000
_cell_angle_alpha 90.000000
_cell_angle_beta 90.000000
_cell_angle_gamma 90.000000
_cell_volume 3240.000000
_symmetry_space_group_name_H-M "P C C A"
_symmetry_group_IT_number 54
_symmetry_cell_setting 'orthorhombic'
loop_
_space_group_symop_operation_xyz
x,y,z
1/2-x,-y,z
1/2+x,-y,1/2-z
-x,y,1/2-z
-x,-y,-z
1/2+x,y,-z
1/2-x,y,1/2+z
x,-y,1/2+z
loop_
_atom_site_type_symbol
_atom_site_label
_atom_site_fract_x
_atom_site_fract_y
_atom_site_fract_z
Si Si1 0.027934 0.206132 0.993831
Si Si2 0.420093 0.465394 0.295130
Si Si3 0.520361 0.043337 0.332435
Si Si4 0.814925 0.825825 0.808351
Si Si5 0.950392 0.331404 0.144487
Si Si6 0.802613 0.774105 0.207569
Si Si7 0.297840 0.362682 0.954983
Si Si8 0.925636 0.994599 0.932947
O O1 0.158925 0.278078 0.968136
O O2 0.970604 0.108183 0.959945
O O3 0.919553 0.306467 0.010989
O O4 0.053066 0.120783 0.037458
O O5 0.250000 0.500000 0.289897
O O6 0.500000 0.501244 0.250000
O O7 0.472051 0.542079 0.336414
O O8 0.418250 0.330734 0.296923
O O9 0.664093 0.125580 0.330560
O O10 0.386189 0.113627 0.309603
O O11 0.496553 0.003150 0.384029
O O12 0.572704 0.932250 0.305975
O O13 0.764776 0.785967 0.758163
O O14 0.898099 0.735933 0.841004
O O15 0.828200 0.265163 0.174278
O O16 0.876396 0.343428 0.094461
O O17 0.250000 0.500000 0.958690
O O18 0.750000 0.000000 0.924761
#
# Coordination Sequence:
#
# PCOD9424627 Si02
#       8
#     8   8   8   8   8   8   8   8
#     4  11  25  43  73 102 133 181 231 293 365 431
#     4  10  20  38  62  86 121 163 213 265 314 380
#     4  11  24  41  64  94 135 174 218 271 333 404
#     4  11  23  39  62  92 131 177 218 273 330 398
#     4  11  24  41  65  93 127 171 223 276 334 394
#     4  11  23  41  62  93 131 175 221 269 329 398
#     4  12  25  45  69 100 139 179 231 293 361 438
#     4  11  21  44  71 100 137 177 232 294 346 420
#
# _framework density 19.753086
#
# number of rings (size 3 to 8) (size 9 to 14) (size 15 to 20)
#    0.000    1.000    2.500    6.000    0.000    4.500 
#    0.000    2.500    0.000    1.500    0.000    0.000 
#    0.000    0.000    0.000    0.000    0.000    0.000 
#
# Total GULP energy -356489.859755 kJ/mol
# GULP energy per Si atom -5570.154059 kJ/mol
# Density = 1.970813 g / cm^3
# Si number density = 19.753086 Si / 1000 Ang^3
#
#
#
# Elastic Constant Matrix: (Units=GPa)
#
#
# Indices 1 2 3 4 5 6 
#
# 1 59.4017 35.0311 28.6807 0.0000 0.0000 0.0000
# 2 35.0311 154.5632 47.9735 0.0000 0.0000 0.0000
# 3 28.6807 47.9735 132.6553 0.0000 0.0000 0.0000
# 4 0.0000 0.0000 0.0000 40.1729 0.0000 0.0000
# 5 0.0000 0.0000 0.0000 0.0000 41.0764 0.0000
# 6 0.0000 0.0000 0.0000 0.0000 0.0000 31.2411
#
#
#
# Elastic Compliance Matrix: (Units=1/GPa)
#
#
# Indices 1 2 3 4 5 6 
#
# 1 0.020505 -0.003685 -0.003101 0.000000 0.000000 0.000000
# 2 -0.003685 0.007950 -0.002078 0.000000 0.000000 0.000000
# 3 -0.003101 -0.002078 0.008960 0.000000 0.000000 0.000000
# 4 0.000000 0.000000 0.000000 0.024892 0.000000 0.000000
# 5 0.000000 0.000000 0.000000 0.000000 0.024345 0.000000
# 6 0.000000 0.000000 0.000000 0.000000 0.000000 0.032009
#
#
# Mechanical properties :
#
#
# Convention : Reuss Voigt Hill
#
# Bulk Modulus (GPa) = 50.79415 63.33232 57.06324
# Shear Modulus (GPa) = 34.97682 38.16041 36.56861
#
# Velocity S-wave (km/s) = 4.21254 4.40007 4.30733
# Velocity P-wave (km/s) = 7.03072 7.61221 7.32724
#
# Compressibility (1/GPa) = 0.01968731
#
# Stress axis : x y z
#
# Youngs Moduli (GPa) = 48.76931 125.78443 111.60309
#
# Poissons Ratio (x) = 0.46351 0.34604
# Poissons Ratio (y) = 0.17971 0.23195
# Poissons Ratio (z) = 0.15121 0.26143
#
# Static dielectric constant tensor:
#      x y z
#    x 1.746000 0.000000 0.000000 
#    y 0.000000 1.746790 0.000000 
#    z 0.000000 0.000000 1.730590 
# 
# From -- ./inp_files/27947.got.cif
#   From: 2010.05.17/outbox.ucp.g08.bks.cvg/sg54_14_cif.got.tgz:27947.got - 2010.06.11 16:34:40.
