data_PCOD9424997
_publ_section_title
;
Structure prediction by ZEFSAII (Michael W. Deem and Ramdas Pophale) SiO2 
 PCOD9424997
Probable space group: P B A M
;
_chemical_formula_sum "Si O2"
_cell_formula_units_Z 64
_cell_length_a 9.696525
_cell_length_b 17.643847
_cell_length_c 20.135741
_cell_angle_alpha 90.000000
_cell_angle_beta 90.000000
_cell_angle_gamma 90.000000
_cell_volume 3444.903184
_symmetry_space_group_name_H-M "P B A M"
_symmetry_group_IT_number 55
_symmetry_cell_setting 'orthorhombic'
loop_
_space_group_symop_operation_xyz
x,y,z
-x,-y,z
1/2+x,1/2-y,-z
1/2-x,1/2+y,-z
-x,-y,-z
x,y,-z
1/2-x,1/2+y,z
1/2+x,1/2-y,z
loop_
_atom_site_type_symbol
_atom_site_label
_atom_site_fract_x
_atom_site_fract_y
_atom_site_fract_z
Si Si1 0.266302 0.900376 0.828797
Si Si2 0.504953 0.090711 0.574467
Si Si3 0.501543 0.907838 0.925281
Si Si4 0.187096 0.579969 0.196954
Si Si5 0.528759 0.698493 0.344368
Si Si6 0.256544 0.206917 0.422950
Si Si7 0.993379 0.909502 0.229822
Si Si8 0.545023 0.147081 0.714061
O O1 0.354845 0.883119 0.894157
O O2 0.333272 0.857244 0.766663
O O3 0.103742 0.886604 0.826522
O O4 0.293828 0.989755 0.813477
O O5 0.556281 0.111869 0.500000
O O6 0.356597 0.132938 0.581459
O O7 0.583054 0.119152 0.640133
O O8 0.500000 0.000000 0.576859
O O9 0.617058 0.888428 0.870290
O O10 0.500000 0.000000 0.927707
O O11 0.525022 0.880366 0.000000
O O12 0.336671 0.613040 0.213819
O O13 0.078772 0.596321 0.255710
O O14 0.655244 0.725477 0.389753
O O15 0.388224 0.694831 0.386813
O O16 0.541158 0.624580 0.299860
O O17 0.508832 0.767966 0.293216
O O18 0.232525 0.222418 0.500000
O O19 0.000000 0.000000 0.234120
#
# Coordination Sequence:
#
# PCOD9424997 Si02
#       8
#     8   8   8   8   8   8   8   8
#     4   9  17  29  48  74 101 130 161 203 253 291
#     4   9  17  29  47  71  96 125 163 205 247 293
#     4   8  14  27  48  74 101 130 167 203 237 288
#     4   9  17  30  49  71 100 134 164 200 246 293
#     4  11  21  34  53  75  98 131 170 208 258 308
#     4  10  21  36  53  73 100 131 166 212 259 306
#     4  10  20  33  47  70 103 131 160 202 254 306
#     4  10  18  30  49  72  95 124 167 210 245 292
#
# _framework density 18.578171000000001
#
# number of rings (size 3 to 8) (size 9 to 14) (size 15 to 20)
#    0.000    2.500    0.000    4.500    0.000    1.500 
#    0.000    0.625    0.000    5.250    0.000   15.750 
#    0.000    0.000    0.000    0.000    0.000    0.000 
#
# Total GULP energy -356753.036292 kJ/mol
# GULP energy per Si atom -5574.266192 kJ/mol
# Density = 1.853589 g / cm^3
# Si number density = 18.578171 Si / 1000 Ang^3
#
#
#
# Elastic Constant Matrix: (Units=GPa)
#
#
# Indices 1 2 3 4 5 6 
#
# 1 96.5432 12.2425 35.8754 0.0000 0.0000 0.0000
# 2 12.2425 16.8724 10.0190 0.0000 0.0000 0.0000
# 3 35.8754 10.0190 113.3558 0.0000 0.0000 0.0000
# 4 0.0000 0.0000 0.0000 7.1480 0.0000 0.0000
# 5 0.0000 0.0000 0.0000 0.0000 13.8219 0.0000
# 6 0.0000 0.0000 0.0000 0.0000 0.0000 13.3012
#
#
#
# Elastic Compliance Matrix: (Units=1/GPa)
#
#
# Indices 1 2 3 4 5 6 
#
# 1 0.012494 -0.007089 -0.003327 0.000000 0.000000 0.000000
# 2 -0.007089 0.066574 -0.003640 0.000000 0.000000 0.000000
# 3 -0.003327 -0.003640 0.010197 0.000000 0.000000 0.000000
# 4 0.000000 0.000000 0.000000 0.139900 0.000000 0.000000
# 5 0.000000 0.000000 0.000000 0.000000 0.072349 0.000000
# 6 0.000000 0.000000 0.000000 0.000000 0.000000 0.075181
#
#
# Mechanical properties :
#
#
# Convention : Reuss Voigt Hill
#
# Bulk Modulus (GPa) = 16.35333 38.11614 27.23474
# Shear Modulus (GPa) = 11.75938 18.09650 14.92794
#
# Velocity S-wave (km/s) = 2.51861 3.12440 2.83772
# Velocity P-wave (km/s) = 4.15686 5.79457 5.04264
#
# Compressibility (1/GPa) = 0.06114962
#
# Stress axis : x y z
#
# Youngs Moduli (GPa) = 80.04149 15.02086 98.07164
#
# Poissons Ratio (x) = 0.10649 0.32632
# Poissons Ratio (y) = 0.56744 0.35703
# Poissons Ratio (z) = 0.26633 0.05468
#
# Static dielectric constant tensor:
#      x y z
#    x 1.672620 0.000000 0.000000 
#    y 0.000000 1.652060 0.000000 
#    z 0.000000 0.000000 1.639280 
# 
# From -- ./inp_files/22740.got.cif
#   From: 2010.05.17/outbox.cif.g08.bks.cpg/sg55_12_cif.got.tgz:22740.got - 2010.06.03 13:27:54.
