data_PCOD9424747
_publ_section_title
;
Structure prediction by ZEFSAII (Michael W. Deem and Ramdas Pophale) SiO2 
 PCOD9424747
Probable space group: P B A M
;
_chemical_formula_sum "Si O2"
_cell_formula_units_Z 34
_cell_length_a 15.769448
_cell_length_b 7.986482
_cell_length_c 10.862110
_cell_angle_alpha 90.000000
_cell_angle_beta 90.000000
_cell_angle_gamma 90.000000
_cell_volume 1368.000339
_symmetry_space_group_name_H-M "P B A M"
_symmetry_group_IT_number 55
_symmetry_cell_setting 'orthorhombic'
loop_
_space_group_symop_operation_xyz
x,y,z
-x,-y,z
1/2+x,1/2-y,-z
1/2-x,1/2+y,-z
-x,-y,-z
x,y,-z
1/2-x,1/2+y,z
1/2+x,1/2-y,z
loop_
_atom_site_type_symbol
_atom_site_label
_atom_site_fract_x
_atom_site_fract_y
_atom_site_fract_z
Si Si1 0.243299 0.881249 0.000000
Si Si2 0.075202 0.193195 0.727623
Si Si3 0.117384 0.840368 0.642038
Si Si4 0.352776 0.027524 0.794070
Si Si5 0.112243 0.104978 0.000000
Si Si6 0.500000 0.000000 0.000000
O O1 0.274158 0.968634 0.125026
O O2 0.142327 0.912360 0.000000
O O3 0.301718 0.716759 0.000000
O O4 0.120046 0.370911 0.709340
O O5 0.983415 0.191801 0.665035
O O6 0.127680 0.033903 0.679761
O O7 0.065267 0.160116 0.875860
O O8 0.138499 0.818168 0.500000
O O9 0.161685 0.700227 0.724753
O O10 0.429016 0.042056 0.892280
#
# Coordination Sequence:
#
# PCOD9424747 Si02
#       6
#     4   8   8   8   4   2
#     4   9  22  36  57  90 112 147 193 237 296 349
#     4  10  21  36  55  88 117 148 186 240 288 343
#     4  11  23  36  58  88 118 156 192 224 283 353
#     4  10  20  36  58  82 121 148 184 239 291 343
#     4  10  22  37  59  88 114 149 191 241 297 332
#     4  10  16  34  54  84 110 136 178 230 294 346
#
# _framework density 24.853794000000001
#
# number of rings (size 3 to 8) (size 9 to 14) (size 15 to 20)
#    0.000    1.882    2.353    2.118    3.294    5.647 
#    0.000    0.000    0.000    2.824    0.000    0.000 
#    0.000    0.000    0.000    0.000    0.000    0.000 
#
# Total GULP energy -189813.771162 kJ/mol
# GULP energy per Si atom -5582.757975 kJ/mol
# Density = 2.479723 g / cm^3
# Si number density = 24.853794 Si / 1000 Ang^3
#
#
#
# Elastic Constant Matrix: (Units=GPa)
#
#
# Indices 1 2 3 4 5 6 
#
# 1 38.1629 21.1086 -6.9602 0.0000 0.0000 0.0000
# 2 21.1086 175.3459 42.2771 0.0000 0.0000 0.0000
# 3 -6.9602 42.2771 99.4634 0.0000 0.0000 0.0000
# 4 0.0000 0.0000 0.0000 -11.3192 0.0000 0.0000
# 5 0.0000 0.0000 0.0000 0.0000 7.5859 0.0000
# 6 0.0000 0.0000 0.0000 0.0000 0.0000 40.9722
#
#
#
# Elastic Compliance Matrix: (Units=1/GPa)
#
#
# Indices 1 2 3 4 5 6 
#
# 1 0.029416 -0.004498 0.003971 0.000000 0.000000 0.000000
# 2 -0.004498 0.007042 -0.003308 0.000000 0.000000 0.000000
# 3 0.003971 -0.003308 0.011738 0.000000 0.000000 0.000000
# 4 0.000000 0.000000 0.000000 -0.088346 0.000000 0.000000
# 5 0.000000 0.000000 0.000000 0.000000 0.131824 0.000000
# 6 0.000000 0.000000 0.000000 0.000000 0.000000 0.024407
#
#
# Mechanical properties :
#
#
# Convention : Reuss Voigt Hill
#
# Bulk Modulus (GPa) = 24.67685 47.31370 35.99527
# Shear Modulus (GPa) = 36.42689 24.55089 30.48889
#
# Velocity S-wave (km/s) = 3.83253 3.14636 3.50627
# Velocity P-wave (km/s) = 5.43459 5.68133 5.55933
#
# Compressibility (1/GPa) = 0.04052382
#
# Stress axis : x y z
#
# Youngs Moduli (GPa) = 33.99533 142.00207 85.19413
#
# Poissons Ratio (x) = 0.63879 -0.33827
# Poissons Ratio (y) = 0.15293 0.28183
# Poissons Ratio (z) = -0.13498 0.46975
#
# Static dielectric constant tensor:
#      x y z
#    x 1.963980 0.000000 0.000000 
#    y 0.000000 2.150760 0.000000 
#    z 0.000000 0.000000 1.898170 
# 
# From -- ./inp_files/2184.got.cif
#   From: 2010.05.17/outbox.cif.g08.bks.cpg/sg55_2_cif.got.tgz:2184.got - 2010.06.03 13:27:54.
