data_PCOD9424569
_publ_section_title
;
Structure prediction by ZEFSAII (Michael W. Deem and Ramdas Pophale) SiO2 
 PCOD9424569
Probable space group: P C C A
;
_chemical_formula_sum "Si O2"
_cell_formula_units_Z 40
_cell_length_a 22.524095
_cell_length_b 6.484597
_cell_length_c 11.829293
_cell_angle_alpha 90.000000
_cell_angle_beta 90.000000
_cell_angle_gamma 90.000000
_cell_volume 1727.782737
_symmetry_space_group_name_H-M "P C C A"
_symmetry_group_IT_number 54
_symmetry_cell_setting 'orthorhombic'
loop_
_space_group_symop_operation_xyz
x,y,z
1/2-x,-y,z
1/2+x,-y,1/2-z
-x,y,1/2-z
-x,-y,-z
1/2+x,y,-z
1/2-x,y,1/2+z
x,-y,1/2+z
loop_
_atom_site_type_symbol
_atom_site_label
_atom_site_fract_x
_atom_site_fract_y
_atom_site_fract_z
Si Si1 0.191940 0.871341 0.656071
Si Si2 0.250000 0.500000 0.797029
Si Si3 0.948576 0.573720 0.413920
Si Si4 0.916991 0.098546 0.733134
Si Si5 0.641223 0.360424 0.051206
Si Si6 0.000000 0.249459 0.250000
O O1 0.216859 0.670587 0.721146
O O2 0.157473 0.803687 0.544382
O O3 0.250000 0.000000 0.625813
O O4 0.146465 0.004813 0.730837
O O5 0.300669 0.590929 0.877552
O O6 0.946162 0.784787 0.341869
O O7 0.887779 0.550916 0.484106
O O8 0.956429 0.393819 0.320806
O O9 0.000000 0.500000 0.500000
O O10 0.906543 0.267197 0.637344
O O11 0.956259 0.909433 0.687483
#
# Coordination Sequence:
#
# PCOD9424569 Si02
#       6
#     8   4   8   8   8   4
#     4  12  28  49  74 111 155 199 254 310 384 456
#     4  12  28  50  72 114 154 202 252 320 374 464
#     4  12  28  49  76 111 153 199 252 316 388 451
#     4  12  28  49  76 115 150 197 263 309 378 468
#     4  12  27  47  80 107 153 201 248 319 378 453
#     4  12  26  50  74 106 154 194 250 320 372 460
#
# _framework density 23.151057000000002
#
# number of rings (size 3 to 8) (size 9 to 14) (size 15 to 20)
#    0.000    0.000    4.000    4.800   11.200    1.600 
#    0.000    0.000    0.000    0.000    0.000    0.000 
#    0.000    0.000    0.000    0.000    0.000    0.000 
#
# Total GULP energy -223812.991785 kJ/mol
# GULP energy per Si atom -5595.324795 kJ/mol
# Density = 2.309836 g / cm^3
# Si number density = 23.151057 Si / 1000 Ang^3
#
#
#
# Elastic Constant Matrix: (Units=GPa)
#
#
# Indices 1 2 3 4 5 6 
#
# 1 84.9482 19.7636 16.8133 0.0000 0.0000 0.0000
# 2 19.7636 88.9358 32.7090 0.0000 0.0000 0.0000
# 3 16.8133 32.7090 90.6613 0.0000 0.0000 0.0000
# 4 0.0000 0.0000 0.0000-1694.7135 0.0000 0.0000
# 5 0.0000 0.0000 0.0000 0.0000 44.6681 0.0000
# 6 0.0000 0.0000 0.0000 0.0000 0.0000 45.1731
#
#
#
# Elastic Compliance Matrix: (Units=1/GPa)
#
#
# Indices 1 2 3 4 5 6 
#
# 1 0.012595 -0.002237 -0.001529 0.000000 0.000000 0.000000
# 2 -0.002237 0.013361 -0.004406 0.000000 0.000000 0.000000
# 3 -0.001529 -0.004406 0.012903 0.000000 0.000000 0.000000
# 4 0.000000 0.000000 0.000000 -0.000590 0.000000 0.000000
# 5 0.000000 0.000000 0.000000 0.000000 0.022387 0.000000
# 6 0.000000 0.000000 0.000000 0.000000 0.000000 0.022137
#
#
# Mechanical properties :
#
#
# Convention : Reuss Voigt Hill
#
# Bulk Modulus (GPa) = 44.41091 44.79081 44.60086
# Shear Modulus (GPa) = 46.88593 -307.95716 -130.53562
#
# Velocity S-wave (km/s) = 4.50512 -11.54598 -7.51709
# Velocity P-wave (km/s) = 6.80340 12.58399 7.48567
#
# Compressibility (1/GPa) = 0.02251699
#
# Stress axis : x y z
#
# Youngs Moduli (GPa) = 79.39769 74.84214 77.50068
#
# Poissons Ratio (x) = 0.16739 0.11848
# Poissons Ratio (y) = 0.17758 0.34145
# Poissons Ratio (z) = 0.12138 0.32974
#
# Static dielectric constant tensor:
#      x y z
#    x 1.880780 0.000000 0.000000 
#    y 0.000000 1.948250 0.000000 
#    z 0.000000 0.000000 1.856970 
# 
# From -- ./inp_files/10194.got.cif
#   From: 2010.05.17/outbox.cif.g08.bks.cpg/sg54_6_cif.got.tgz:10194.got - 2010.06.03 13:09:01.
