data_PCOD9424913
_publ_section_title
;
Structure prediction by ZEFSAII (Michael W. Deem and Ramdas Pophale) SiO2 
 PCOD9424913
Probable space group: P B A M
;
_chemical_formula_sum "Si O2"
_cell_formula_units_Z 64
_cell_length_a 16.374313
_cell_length_b 21.076626
_cell_length_c 8.420202
_cell_angle_alpha 90.000000
_cell_angle_beta 90.000000
_cell_angle_gamma 90.000000
_cell_volume 2905.940296
_symmetry_space_group_name_H-M "P B A M"
_symmetry_group_IT_number 55
_symmetry_cell_setting 'orthorhombic'
loop_
_space_group_symop_operation_xyz
x,y,z
-x,-y,z
1/2+x,1/2-y,-z
1/2-x,1/2+y,-z
-x,-y,-z
x,y,-z
1/2-x,1/2+y,z
1/2+x,1/2-y,z
loop_
_atom_site_type_symbol
_atom_site_label
_atom_site_fract_x
_atom_site_fract_y
_atom_site_fract_z
Si Si1 0.809804 0.049968 0.805714
Si Si2 0.155110 0.090364 0.312768
Si Si3 0.026210 0.569845 0.695112
Si Si4 0.515793 0.576040 0.823360
Si Si5 0.555745 0.202937 0.308762
Si Si6 0.817452 0.370579 0.317597
Si Si7 0.729611 0.173134 0.811818
Si Si8 0.395628 0.267312 0.681596
O O1 0.738095 0.098547 0.762448
O O2 0.895820 0.080758 0.745803
O O3 0.812086 0.979690 0.735248
O O4 0.813714 0.044934 0.000000
O O5 0.144117 0.094475 0.500000
O O6 0.066064 0.103254 0.246704
O O7 0.227273 0.134941 0.249240
O O8 0.026689 0.570918 0.500000
O O9 0.118305 0.581404 0.756454
O O10 0.000000 0.500000 0.745017
O O11 0.973235 0.631693 0.742832
O O12 0.500000 0.500000 0.829165
O O13 0.524746 0.601327 0.000000
O O14 0.550118 0.205614 0.500000
O O15 0.651104 0.207367 0.263702
O O16 0.488205 0.255551 0.252821
O O17 0.804510 0.391991 0.500000
O O18 0.863825 0.304911 0.325917
O O19 0.819384 0.200787 0.771277
O O20 0.719049 0.175187 0.000000
O O21 0.400388 0.292102 0.500000
#
# Coordination Sequence:
#
# PCOD9424913 Si02
#       8
#     8   8   8   8   8   8   8   8
#     4   9  20  36  50  70 106 147 179 215 268 325
#     4  10  18  28  50  82 110 133 170 222 269 318
#     4   8  14  26  49  80 111 141 173 208 258 327
#     4   8  15  31  49  63  94 142 177 204 252 316
#     4   9  19  36  60  86 111 145 184 230 287 336
#     4   8  16  30  48  76 109 137 167 217 271 317
#     4  11  23  38  58  83 113 148 188 236 281 332
#     4   9  19  40  61  78 108 145 186 232 280 330
#
# _framework density 22.023852000000002
#
# number of rings (size 3 to 8) (size 9 to 14) (size 15 to 20)
#    0.000    3.000    0.000    3.000    1.750    3.750 
#    2.250    1.250    0.000    1.875    0.000    0.000 
#    0.000    0.000    0.000    0.000    0.000    0.000 
#
# Total GULP energy -356276.594727 kJ/mol
# GULP energy per Si atom -5566.821793 kJ/mol
# Density = 2.197373 g / cm^3
# Si number density = 22.023852 Si / 1000 Ang^3
#
#
#
# Elastic Constant Matrix: (Units=GPa)
#
#
# Indices 1 2 3 4 5 6 
#
# 1 106.8821 31.8761 3.0586 0.0000 0.0000 0.0000
# 2 31.8761 36.1864 1.3588 0.0000 0.0000 0.0000
# 3 3.0586 1.3588 7.4402 0.0000 0.0000 0.0000
# 4 0.0000 0.0000 0.0000 87.1558 0.0000 0.0000
# 5 0.0000 0.0000 0.0000 0.0000 7.5339 0.0000
# 6 0.0000 0.0000 0.0000 0.0000 0.0000 21.7114
#
#
#
# Elastic Compliance Matrix: (Units=1/GPa)
#
#
# Indices 1 2 3 4 5 6 
#
# 1 0.012766 -0.011124 -0.003216 0.000000 0.000000 0.000000
# 2 -0.011124 0.037520 -0.002279 0.000000 0.000000 0.000000
# 3 -0.003216 -0.002279 0.136142 0.000000 0.000000 0.000000
# 4 0.000000 0.000000 0.000000 0.011474 0.000000 0.000000
# 5 0.000000 0.000000 0.000000 0.000000 0.132733 0.000000
# 6 0.000000 0.000000 0.000000 0.000000 0.000000 0.046059
#
#
# Mechanical properties :
#
#
# Convention : Reuss Voigt Hill
#
# Bulk Modulus (GPa) = 6.52789 24.78841 15.65815
# Shear Modulus (GPa) = 10.84608 30.89458 20.87033
#
# Velocity S-wave (km/s) = 2.22157 3.74943 3.08169
# Velocity P-wave (km/s) = 3.09046 5.47942 4.44831
#
# Compressibility (1/GPa) = 0.15318875
#
# Stress axis : x y z
#
# Youngs Moduli (GPa) = 78.33392 26.65269 7.34525
#
# Poissons Ratio (x) = 0.29650 0.02362
# Poissons Ratio (y) = 0.87143 0.01674
# Poissons Ratio (z) = 0.25195 0.06074
#
# Static dielectric constant tensor:
#      x y z
#    x 1.904610 0.000000 0.000000 
#    y 0.000000 1.888450 0.000000 
#    z 0.000000 0.000000 1.783550 
# 
# From -- ./inp_files/6511.got.cif
#   From: 2010.05.17/outbox.cif.g08.bks.cpg/sg55_4_cif.got.tgz:6511.got - 2010.06.03 13:27:54.
