data_PCOD9424390
_publ_section_title
;
Structure prediction by ZEFSAII (Michael W. Deem and Ramdas Pophale) SiO2 
 PCOD9424390
Probable space group: P C C A
;
_chemical_formula_sum "Si O2"
_cell_formula_units_Z 56
_cell_length_a 13.492066
_cell_length_b 13.889158
_cell_length_c 12.674849
_cell_angle_alpha 90.000000
_cell_angle_beta 90.000000
_cell_angle_gamma 90.000000
_cell_volume 2375.183510
_symmetry_space_group_name_H-M "P C C A"
_symmetry_group_IT_number 54
_symmetry_cell_setting 'orthorhombic'
loop_
_space_group_symop_operation_xyz
x,y,z
1/2-x,-y,z
1/2+x,-y,1/2-z
-x,y,1/2-z
-x,-y,-z
1/2+x,y,-z
1/2-x,y,1/2+z
x,-y,1/2+z
loop_
_atom_site_type_symbol
_atom_site_label
_atom_site_fract_x
_atom_site_fract_y
_atom_site_fract_z
Si Si1 0.889577 0.366804 0.980970
Si Si2 0.225743 0.227581 0.058938
Si Si3 0.393001 0.649573 0.889442
Si Si4 0.250000 0.500000 0.632905
Si Si5 0.045044 0.884710 0.632477
Si Si6 0.602679 0.095227 0.443681
Si Si7 0.000000 0.795576 0.250000
Si Si8 0.110969 0.563037 0.795918
O O1 0.824843 0.289272 0.917985
O O2 0.838376 0.463692 0.939875
O O3 0.003200 0.364968 0.950040
O O4 0.881046 0.364870 0.106725
O O5 0.130833 0.196926 0.128288
O O6 0.284236 0.127763 0.037646
O O7 0.181079 0.295636 0.967141
O O8 0.417701 0.725604 0.798784
O O9 0.369084 0.545582 0.840109
O O10 0.193563 0.577055 0.706644
O O11 0.000000 0.894738 0.750000
O O12 0.957735 0.868295 0.546859
O O13 0.091948 0.982701 0.584132
O O14 0.547016 0.141289 0.342550
O O15 0.000000 0.564716 0.750000
#
# Coordination Sequence:
#
# PCOD9424390 Si02
#       8
#     8   8   8   4   8   8   4   8
#     4  12  26  46  67 104 150 184 255 325 380 459
#     4  12  25  46  72 111 146 196 250 308 386 465
#     4  12  24  46  73 102 151 196 249 327 387 453
#     4  12  24  46  68 104 130 202 244 316 384 468
#     4  11  25  50  76 108 157 197 250 314 382 469
#     4  11  25  48  76 111 149 198 249 310 390 456
#     4  12  20  46  74 102 146 194 242 326 380 448
#     4  12  26  46  74 100 143 203 263 315 392 462
#
# _framework density 23.577127000000001
#
# number of rings (size 3 to 8) (size 9 to 14) (size 15 to 20)
#    0.000    0.286    5.714    3.000    2.000    1.143 
#    5.143    1.429    0.000    0.000    0.000    0.000 
#    0.000    0.000    0.000    0.000    0.000    0.000 
#
# Total GULP energy -312925.395197 kJ/mol
# GULP energy per Si atom -5587.953486 kJ/mol
# Density = 2.352346 g / cm^3
# Si number density = 23.577127 Si / 1000 Ang^3
#
#
#
# Elastic Constant Matrix: (Units=GPa)
#
#
# Indices 1 2 3 4 5 6 
#
# 1 156.5635 25.8658 56.1396 0.0000 0.0000 0.0000
# 2 25.8658 62.9107 9.3338 0.0000 0.0000 0.0000
# 3 56.1396 9.3338 117.1810 0.0000 0.0000 0.0000
# 4 0.0000 0.0000 0.0000 41.6080 0.0000 0.0000
# 5 0.0000 0.0000 0.0000 0.0000 34.8915 0.0000
# 6 0.0000 0.0000 0.0000 0.0000 0.0000 51.1391
#
#
#
# Elastic Compliance Matrix: (Units=1/GPa)
#
#
# Indices 1 2 3 4 5 6 
#
# 1 0.008176 -0.002814 -0.003693 0.000000 0.000000 0.000000
# 2 -0.002814 0.017054 -0.000010 0.000000 0.000000 0.000000
# 3 -0.003693 -0.000010 0.010304 0.000000 0.000000 0.000000
# 4 0.000000 0.000000 0.000000 0.024034 0.000000 0.000000
# 5 0.000000 0.000000 0.000000 0.000000 0.028660 0.000000
# 6 0.000000 0.000000 0.000000 0.000000 0.000000 0.019555
#
#
# Mechanical properties :
#
#
# Convention : Reuss Voigt Hill
#
# Bulk Modulus (GPa) = 44.44468 57.70371 51.07419
# Shear Modulus (GPa) = 38.96602 41.88212 40.42407
#
# Velocity S-wave (km/s) = 4.06976 4.21929 4.14520
# Velocity P-wave (km/s) = 6.40122 6.94724 6.67981
#
# Compressibility (1/GPa) = 0.02249988
#
# Stress axis : x y z
#
# Youngs Moduli (GPa) = 122.30533 58.63735 97.05072
#
# Poissons Ratio (x) = 0.16499 0.35841
# Poissons Ratio (y) = 0.34414 0.00101
# Poissons Ratio (z) = 0.45167 0.00061
#
# Static dielectric constant tensor:
#      x y z
#    x 1.971590 0.000000 0.000000 
#    y 0.000000 2.034710 0.000000 
#    z 0.000000 0.000000 1.879760 
# 
# From -- ./inp_files/8485.got.cif
#   From: 2010.05.17/outbox.cif.g08.bks.cpg/sg54_5_cif.got.tgz:8485.got - 2010.06.03 13:09:01.
