data_PCOD9424362
_publ_section_title
;
Structure prediction by ZEFSAII (Michael W. Deem and Ramdas Pophale) SiO2 
 PCOD9424362
Probable space group: P C C A
;
_chemical_formula_sum "Si O2"
_cell_formula_units_Z 40
_cell_length_a 15.748214
_cell_length_b 6.925387
_cell_length_c 18.911092
_cell_angle_alpha 90.000000
_cell_angle_beta 90.000000
_cell_angle_gamma 90.000000
_cell_volume 2062.490527
_symmetry_space_group_name_H-M "P C C A"
_symmetry_group_IT_number 54
_symmetry_cell_setting 'orthorhombic'
loop_
_space_group_symop_operation_xyz
x,y,z
1/2-x,-y,z
1/2+x,-y,1/2-z
-x,y,1/2-z
-x,-y,-z
1/2+x,y,-z
1/2-x,y,1/2+z
x,-y,1/2+z
loop_
_atom_site_type_symbol
_atom_site_label
_atom_site_fract_x
_atom_site_fract_y
_atom_site_fract_z
Si Si1 0.623208 0.297751 0.732904
Si Si2 0.500000 0.363144 0.250000
Si Si3 0.839151 0.110424 0.380290
Si Si4 0.173496 0.841609 0.462585
Si Si5 0.750000 0.500000 0.127251
Si Si6 0.528188 0.030379 0.140153
O O1 0.576025 0.488126 0.761433
O O2 0.691750 0.368749 0.677013
O O3 0.661613 0.207239 0.803422
O O4 0.563419 0.145160 0.689907
O O5 0.527221 0.223863 0.186828
O O6 0.930159 0.002025 0.380214
O O7 0.750000 0.000000 0.383400
O O8 0.841023 0.217603 0.455838
O O9 0.197384 0.649684 0.419924
O O10 0.091444 0.938683 0.425522
O O11 0.250000 0.000000 0.458387
#
# Coordination Sequence:
#
# PCOD9424362 Si02
#       6
#     8   4   8   8   4   8
#     4  12  25  43  69 103 134 175 235 281 335 408
#     4  12  22  42  70 102 130 180 236 278 334 406
#     4  11  26  45  67 102 140 176 224 288 337 400
#     4  11  25  46  68  98 141 181 222 278 349 406
#     4  12  26  42  72 100 130 184 226 272 344 414
#     4  12  23  46  70  97 141 179 227 279 341 404
#
# _framework density 19.394030000000001
#
# number of rings (size 3 to 8) (size 9 to 14) (size 15 to 20)
#    0.000    0.400    8.000    0.600    5.600    0.800 
#    3.600    2.000    0.000    0.000    0.000    0.000 
#    0.000    0.000    0.000    0.000    0.000    0.000 
#
# Total GULP energy -223096.963110 kJ/mol
# GULP energy per Si atom -5577.424078 kJ/mol
# Density = 1.934989 g / cm^3
# Si number density = 19.394030 Si / 1000 Ang^3
#
#
#
# Elastic Constant Matrix: (Units=GPa)
#
#
# Indices 1 2 3 4 5 6 
#
# 1 122.1448 48.4376 61.0738 0.0000 0.0000 0.0000
# 2 48.4376 72.0702 34.3566 0.0000 0.0000 0.0000
# 3 61.0738 34.3566 125.8780 0.0000 0.0000 0.0000
# 4 0.0000 0.0000 0.0000 0.6261 0.0000 0.0000
# 5 0.0000 0.0000 0.0000 0.0000 176.5312 0.0000
# 6 0.0000 0.0000 0.0000 0.0000 0.0000 25.0701
#
#
#
# Elastic Compliance Matrix: (Units=1/GPa)
#
#
# Indices 1 2 3 4 5 6 
#
# 1 0.013086 -0.006631 -0.004539 0.000000 0.000000 0.000000
# 2 -0.006631 0.019311 -0.002053 0.000000 0.000000 0.000000
# 3 -0.004539 -0.002053 0.010707 0.000000 0.000000 0.000000
# 4 0.000000 0.000000 0.000000 1.597122 0.000000 0.000000
# 5 0.000000 0.000000 0.000000 0.000000 0.005665 0.000000
# 6 0.000000 0.000000 0.000000 0.000000 0.000000 0.039888
#
#
# Mechanical properties :
#
#
# Convention : Reuss Voigt Hill
#
# Bulk Modulus (GPa) = 60.03637 67.53656 63.78646
# Shear Modulus (GPa) = 2.91073 52.19382 27.55228
#
# Velocity S-wave (km/s) = 1.22642 5.19334 3.77325
# Velocity P-wave (km/s) = 5.74707 8.41784 7.20724
#
# Compressibility (1/GPa) = 0.01665657
#
# Stress axis : x y z
#
# Youngs Moduli (GPa) = 76.41493 51.78398 93.39646
#
# Poissons Ratio (x) = 0.34339 0.42396
# Poissons Ratio (y) = 0.50673 0.19177
# Poissons Ratio (z) = 0.34688 0.10633
#
# Static dielectric constant tensor:
#      x y z
#    x 1.717590 0.000000 0.000000 
#    y 0.000000 1.662810 0.000000 
#    z 0.000000 0.000000 1.683110 
# 
# From -- ./inp_files/18431.got.cif
#   From: 2010.05.17/outbox.cif.g08.bks.cpg/sg54_10_cif.got.tgz:18431.got - 2010.06.03 13:09:01.
