data_PCOD9424587
_publ_section_title
;
Structure prediction by ZEFSAII (Michael W. Deem and Ramdas Pophale) SiO2 
 PCOD9424587
Probable space group: P C C A
;
_chemical_formula_sum "Si O2"
_cell_formula_units_Z 40
_cell_length_a 8.920601
_cell_length_b 16.483954
_cell_length_c 11.709095
_cell_angle_alpha 90.000000
_cell_angle_beta 90.000000
_cell_angle_gamma 90.000000
_cell_volume 1721.784676
_symmetry_space_group_name_H-M "P C C A"
_symmetry_group_IT_number 54
_symmetry_cell_setting 'orthorhombic'
loop_
_space_group_symop_operation_xyz
x,y,z
1/2-x,-y,z
1/2+x,-y,1/2-z
-x,y,1/2-z
-x,-y,-z
1/2+x,y,-z
1/2-x,y,1/2+z
x,-y,1/2+z
loop_
_atom_site_type_symbol
_atom_site_label
_atom_site_fract_x
_atom_site_fract_y
_atom_site_fract_z
Si Si1 0.000000 0.152320 0.250000
Si Si2 0.976719 0.347161 0.387873
Si Si3 0.793762 0.409966 0.572080
Si Si4 0.000000 0.685302 0.250000
Si Si5 0.875995 0.062481 0.040364
Si Si6 0.243617 0.210413 0.619700
O O1 0.028050 0.105931 0.364293
O O2 0.165028 0.189615 0.235105
O O3 0.878465 0.415828 0.450091
O O4 0.878637 0.268784 0.428147
O O5 0.000000 0.350210 0.250000
O O6 0.143076 0.356168 0.436508
O O7 0.750000 0.500000 0.609020
O O8 0.897318 0.369599 0.668145
O O9 0.898182 0.739808 0.334212
O O10 0.750000 0.000000 0.084444
O O11 0.807868 0.132359 0.955314
O O12 0.000000 0.000000 0.000000
#
# Coordination Sequence:
#
# PCOD9424587 Si02
#       6
#     4   8   8   4   8   8
#     4  12  28  49  79 110 160 210 258 336 404 481
#     4  12  27  51  80 118 162 215 278 335 413 492
#     4  12  29  50  83 121 168 217 274 346 416 490
#     4  12  28  47  87 118 164 222 274 336 418 493
#     4  12  30  51  76 113 157 207 270 333 406 485
#     4  12  28  49  79 118 158 212 270 337 396 500
#
# _framework density 23.231708000000001
#
# number of rings (size 3 to 8) (size 9 to 14) (size 15 to 20)
#    0.000    0.000    5.000    1.800   15.400    0.800 
#    0.000    0.000    0.000    0.000    0.000    0.000 
#    0.000    0.000    0.000    0.000    0.000    0.000 
#
# Total GULP energy -222986.076449 kJ/mol
# GULP energy per Si atom -5574.651911 kJ/mol
# Density = 2.317883 g / cm^3
# Si number density = 23.231708 Si / 1000 Ang^3
#
#
#
# Elastic Constant Matrix: (Units=GPa)
#
#
# Indices 1 2 3 4 5 6 
#
# 1 179.0274 67.6184 56.5332 0.0000 0.0000 0.0000
# 2 67.6184 129.4380 46.1655 0.0000 0.0000 0.0000
# 3 56.5332 46.1655 97.2107 0.0000 0.0000 0.0000
# 4 0.0000 0.0000 0.0000 166.7003 0.0000 0.0000
# 5 0.0000 0.0000 0.0000 0.0000 54.9319 0.0000
# 6 0.0000 0.0000 0.0000 0.0000 0.0000 68.3315
#
#
#
# Elastic Compliance Matrix: (Units=1/GPa)
#
#
# Indices 1 2 3 4 5 6 
#
# 1 0.007652 -0.002902 -0.003072 0.000000 0.000000 0.000000
# 2 -0.002902 0.010401 -0.003252 0.000000 0.000000 0.000000
# 3 -0.003072 -0.003252 0.013618 0.000000 0.000000 0.000000
# 4 0.000000 0.000000 0.000000 0.005999 0.000000 0.000000
# 5 0.000000 0.000000 0.000000 0.000000 0.018204 0.000000
# 6 0.000000 0.000000 0.000000 0.000000 0.000000 0.014635
#
#
# Mechanical properties :
#
#
# Convention : Reuss Voigt Hill
#
# Bulk Modulus (GPa) = 75.64535 82.92336 79.28436
# Shear Modulus (GPa) = 53.55227 73.68336 63.61781
#
# Velocity S-wave (km/s) = 4.80639 5.63787 5.23865
# Velocity P-wave (km/s) = 7.96454 8.84038 8.41386
#
# Compressibility (1/GPa) = 0.01321958
#
# Stress axis : x y z
#
# Youngs Moduli (GPa) = 130.68962 96.14039 73.43283
#
# Poissons Ratio (x) = 0.27896 0.22558
# Poissons Ratio (y) = 0.37921 0.23882
# Poissons Ratio (z) = 0.40146 0.31267
#
# Static dielectric constant tensor:
#      x y z
#    x 0.372160 0.000000 0.000000 
#    y 0.000000 2.195940 0.000000 
#    z 0.000000 0.000000 1.783370 
# 
# From -- ./inp_files/6904.got.cif
#   From: 2010.05.17/outbox.cif.g08.bks.cpg/sg54_4_cif.got.tgz:6904.got - 2010.06.03 13:09:01.
