data_PCOD9424372
_publ_section_title
;
Structure prediction by ZEFSAII (Michael W. Deem and Ramdas Pophale) SiO2 
 PCOD9424372
Probable space group: P C C A
;
_chemical_formula_sum "Si O2"
_cell_formula_units_Z 56
_cell_length_a 13.815900
_cell_length_b 14.708187
_cell_length_c 12.049202
_cell_angle_alpha 90.000000
_cell_angle_beta 90.000000
_cell_angle_gamma 90.000000
_cell_volume 2448.480272
_symmetry_space_group_name_H-M "P C C A"
_symmetry_group_IT_number 54
_symmetry_cell_setting 'orthorhombic'
loop_
_space_group_symop_operation_xyz
x,y,z
1/2-x,-y,z
1/2+x,-y,1/2-z
-x,y,1/2-z
-x,-y,-z
1/2+x,y,-z
1/2-x,y,1/2+z
x,-y,1/2+z
loop_
_atom_site_type_symbol
_atom_site_label
_atom_site_fract_x
_atom_site_fract_y
_atom_site_fract_z
Si Si1 0.483833 0.271940 0.617792
Si Si2 0.115846 0.957098 0.767406
Si Si3 0.378287 0.405430 0.020617
Si Si4 0.059835 0.904814 0.989129
Si Si5 0.296988 0.129917 0.193487
Si Si6 0.893904 0.694616 0.248010
Si Si7 0.651747 0.386629 0.009534
O O1 0.500000 0.257916 0.750000
O O2 0.560070 0.343094 0.563206
O O3 0.493237 0.180264 0.544762
O O4 0.383286 0.319615 0.587488
O O5 0.130485 0.909673 0.883917
O O6 0.186650 0.905435 0.681256
O O7 0.000000 0.956149 0.750000
O O8 0.154353 0.058946 0.778509
O O9 0.394089 0.373385 0.147439
O O10 0.391826 0.513279 0.009558
O O11 0.266450 0.390319 0.992225
O O12 0.130469 0.884753 0.090616
O O13 0.000000 0.000000 0.000000
O O14 0.310474 0.231543 0.233771
O O15 0.000000 0.741439 0.250000
O O16 0.881602 0.647738 0.129749
#
# Coordination Sequence:
#
# PCOD9424372 Si02
#       7
#     8   8   8   8   8   8   8
#     4  12  28  49  77 113 150 196 252 318 378 458
#     4  11  25  46  74 107 150 196 253 313 376 448
#     4  11  27  48  73 115 146 198 255 311 385 456
#     4  12  26  50  74 105 155 200 253 311 384 453
#     4  11  26  46  75 109 147 201 254 314 378 458
#     4  12  25  47  80 106 147 200 258 306 385 468
#     4  11  28  47  77 107 153 202 242 322 387 452
#
# _framework density 22.871331000000001
#
# number of rings (size 3 to 8) (size 9 to 14) (size 15 to 20)
#    0.000    0.571    4.286    1.286    8.000    4.571 
#    0.000    0.000    0.000    0.000    0.000    0.000 
#    0.000    0.000    0.000    0.000    0.000    0.000 
#
# Total GULP energy -313106.352914 kJ/mol
# GULP energy per Si atom -5591.184873 kJ/mol
# Density = 2.281927 g / cm^3
# Si number density = 22.871331 Si / 1000 Ang^3
#
#
#
# Elastic Constant Matrix: (Units=GPa)
#
#
# Indices 1 2 3 4 5 6 
#
# 1 127.4482 42.1503 22.5529 0.0000 0.0000 0.0000
# 2 42.1503 147.0608 37.0732 0.0000 0.0000 0.0000
# 3 22.5529 37.0732 80.3630 0.0000 0.0000 0.0000
# 4 0.0000 0.0000 0.0000 28.2851 0.0000 0.0000
# 5 0.0000 0.0000 0.0000 0.0000 29.3787 0.0000
# 6 0.0000 0.0000 0.0000 0.0000 0.0000 22.3795
#
#
#
# Elastic Compliance Matrix: (Units=1/GPa)
#
#
# Indices 1 2 3 4 5 6 
#
# 1 0.008821 -0.002155 -0.001481 0.000000 0.000000 0.000000
# 2 -0.002155 0.008221 -0.003188 0.000000 0.000000 0.000000
# 3 -0.001481 -0.003188 0.014330 0.000000 0.000000 0.000000
# 4 0.000000 0.000000 0.000000 0.035354 0.000000 0.000000
# 5 0.000000 0.000000 0.000000 0.000000 0.034038 0.000000
# 6 0.000000 0.000000 0.000000 0.000000 0.000000 0.044684
#
#
# Mechanical properties :
#
#
# Convention : Reuss Voigt Hill
#
# Bulk Modulus (GPa) = 56.42108 62.04721 59.23414
# Shear Modulus (GPa) = 30.30212 32.88168 31.59190
#
# Velocity S-wave (km/s) = 3.64386 3.79579 3.72060
# Velocity P-wave (km/s) = 6.51353 6.81164 6.66425
#
# Compressibility (1/GPa) = 0.01772387
#
# Stress axis : x y z
#
# Youngs Moduli (GPa) = 113.36399 121.63724 69.78404
#
# Poissons Ratio (x) = 0.26211 0.10338
# Poissons Ratio (y) = 0.24428 0.22246
# Poissons Ratio (z) = 0.16795 0.38776
#
# Static dielectric constant tensor:
#      x y z
#    x 1.913620 0.000000 0.000000 
#    y 0.000000 1.889430 0.000000 
#    z 0.000000 0.000000 1.854670 
# 
# From -- ./inp_files/8460.got.cif
#   From: 2010.05.17/outbox.cif.g08.bks.cpg/sg54_5_cif.got.tgz:8460.got - 2010.06.03 13:09:01.
