data_PCOD9424568
_publ_section_title
;
Structure prediction by ZEFSAII (Michael W. Deem and Ramdas Pophale) SiO2 
 PCOD9424568
Probable space group: P C C A
;
_chemical_formula_sum "Si O2"
_cell_formula_units_Z 40
_cell_length_a 23.206654
_cell_length_b 6.991711
_cell_length_c 12.489294
_cell_angle_alpha 90.000000
_cell_angle_beta 90.000000
_cell_angle_gamma 90.000000
_cell_volume 2026.440632
_symmetry_space_group_name_H-M "P C C A"
_symmetry_group_IT_number 54
_symmetry_cell_setting 'orthorhombic'
loop_
_space_group_symop_operation_xyz
x,y,z
1/2-x,-y,z
1/2+x,-y,1/2-z
-x,y,1/2-z
-x,-y,-z
1/2+x,y,-z
1/2-x,y,1/2+z
x,-y,1/2+z
loop_
_atom_site_type_symbol
_atom_site_label
_atom_site_fract_x
_atom_site_fract_y
_atom_site_fract_z
Si Si1 0.553232 0.381614 0.948506
Si Si2 0.650646 0.306788 0.465361
Si Si3 0.500000 0.169718 0.750000
Si Si4 0.750000 0.500000 0.108460
Si Si5 0.591689 0.970853 0.599366
Si Si6 0.300970 0.844852 0.756455
O O1 0.607221 0.522536 0.936576
O O2 0.535485 0.299487 0.833104
O O3 0.500000 0.500000 0.000000
O O4 0.570902 0.205324 0.025787
O O5 0.701718 0.395646 0.536811
O O6 0.678051 0.209380 0.361493
O O7 0.613558 0.147338 0.527513
O O8 0.540738 0.040903 0.676120
O O9 0.721631 0.342161 0.183639
O O10 0.645271 0.916625 0.674136
O O11 0.250000 0.000000 0.752992
#
# Coordination Sequence:
#
# PCOD9424568 Si02
#       6
#     8   8   4   4   8   8
#     4  12  28  48  73 108 148 194 244 306 363 441
#     4  12  28  47  76 108 147 193 244 304 365 438
#     4  12  28  46  76 106 148 192 244 294 374 422
#     4  12  26  50  70 112 144 186 246 298 364 442
#     4  12  27  50  72 110 148 191 244 300 367 442
#     4  12  28  46  79 106 147 192 242 299 370 429
#
# _framework density 19.739045000000001
#
# number of rings (size 3 to 8) (size 9 to 14) (size 15 to 20)
#    0.000    0.000    6.000    2.400   11.200    3.200 
#    0.000    0.000    0.000    0.000    0.000    0.000 
#    0.000    0.000    0.000    0.000    0.000    0.000 
#
# Total GULP energy -224041.882174 kJ/mol
# GULP energy per Si atom -5601.047054 kJ/mol
# Density = 1.969412 g / cm^3
# Si number density = 19.739045 Si / 1000 Ang^3
#
#
#
# Elastic Constant Matrix: (Units=GPa)
#
#
# Indices 1 2 3 4 5 6 
#
# 1 122.9152 76.4259 75.3707 0.0000 0.0000 0.0000
# 2 76.4259 154.5664 91.3065 0.0000 0.0000 0.0000
# 3 75.3707 91.3065 162.2456 0.0000 0.0000 0.0000
# 4 0.0000 0.0000 0.0000 -1.4112 0.0000 0.0000
# 5 0.0000 0.0000 0.0000 0.0000 54.8976 0.0000
# 6 0.0000 0.0000 0.0000 0.0000 0.0000 -23.5137
#
#
#
# Elastic Compliance Matrix: (Units=1/GPa)
#
#
# Indices 1 2 3 4 5 6 
#
# 1 0.013039 -0.004298 -0.003639 0.000000 0.000000 0.000000
# 2 -0.004298 0.011108 -0.004255 0.000000 0.000000 0.000000
# 3 -0.003639 -0.004255 0.010248 0.000000 0.000000 0.000000
# 4 0.000000 0.000000 0.000000 -0.708636 0.000000 0.000000
# 5 0.000000 0.000000 0.000000 0.000000 0.018216 0.000000
# 6 0.000000 0.000000 0.000000 0.000000 0.000000 -0.042528
#
#
# Mechanical properties :
#
#
# Convention : Reuss Voigt Hill
#
# Bulk Modulus (GPa) = 99.86874 102.88148 101.37511
# Shear Modulus (GPa) = -7.45342 19.10282 5.82470
#
# Velocity S-wave (km/s) = -1.94530 3.11427 1.71967
# Velocity P-wave (km/s) = 6.75713 8.07252 7.44393
#
# Compressibility (1/GPa) = 0.01001314
#
# Stress axis : x y z
#
# Youngs Moduli (GPa) = 76.69207 90.02357 97.57747
#
# Poissons Ratio (x) = 0.38690 0.35505
# Poissons Ratio (y) = 0.32961 0.41517
# Poissons Ratio (z) = 0.27905 0.38303
#
# Static dielectric constant tensor:
#      x y z
#    x 1.634520 0.000000 0.000000 
#    y 0.000000 1.638970 0.000000 
#    z 0.000000 0.000000 1.647200 
# 
# From -- ./inp_files/10166.got.cif
#   From: 2010.05.17/outbox.cif.g08.bks.cpg/sg54_6_cif.got.tgz:10166.got - 2010.06.03 13:09:01.
