data_PCOD9424703
_publ_section_title
;
Structure prediction by ZEFSAII (Michael W. Deem and Ramdas Pophale) SiO2 
 PCOD9424703
Probable space group: P B A M
;
_chemical_formula_sum "Si O2"
_cell_formula_units_Z 64
_cell_length_a 13.665886
_cell_length_b 5.438469
_cell_length_c 36.066881
_cell_angle_alpha 90.000000
_cell_angle_beta 90.000000
_cell_angle_gamma 90.000000
_cell_volume 2680.544601
_symmetry_space_group_name_H-M "P B A M"
_symmetry_group_IT_number 55
_symmetry_cell_setting 'orthorhombic'
loop_
_space_group_symop_operation_xyz
x,y,z
-x,-y,z
1/2+x,1/2-y,-z
1/2-x,1/2+y,-z
-x,-y,-z
x,y,-z
1/2-x,1/2+y,z
1/2+x,1/2-y,z
loop_
_atom_site_type_symbol
_atom_site_label
_atom_site_fract_x
_atom_site_fract_y
_atom_site_fract_z
Si Si1 0.359525 0.646556 0.689141
Si Si2 0.133581 0.644769 0.338728
Si Si3 0.646383 0.259879 0.543862
Si Si4 0.364990 0.240481 0.424776
Si Si5 0.565508 0.750203 0.960106
Si Si6 0.639548 0.649262 0.801121
Si Si7 0.862154 0.650399 0.772364
Si Si8 0.065095 0.749867 0.120798
O O1 0.402458 0.372491 0.686308
O O2 0.248258 0.614456 0.673596
O O3 0.359340 0.752150 0.730548
O O4 0.406217 0.867973 0.665500
O O5 0.124208 0.728975 0.380894
O O6 0.662554 0.265914 0.500000
O O7 0.749917 0.256712 0.565074
O O8 0.598261 0.509125 0.557504
O O9 0.598722 0.006793 0.556077
O O10 0.500000 0.500000 0.960081
O O11 0.616062 0.754682 0.919811
O O12 0.500000 0.000000 0.960190
O O13 0.619733 0.749458 0.000000
O O14 0.750390 0.616996 0.786590
O O15 0.595227 0.376501 0.796143
O O16 0.634451 0.732121 0.843668
O O17 0.595907 0.876255 0.777377
O O18 0.000000 0.500000 0.124071
O O19 0.000000 0.000000 0.121564
#
# Coordination Sequence:
#
# PCOD9424703 Si02
#       8
#     8   8   8   8   8   8   8   8
#     4  10  16  25  36  51  68  86 116 150 191 234
#     4  10  16  22  33  46  63  82 100 143 192 237
#     4  10  16  22  28  34  47  69  97 131 164 214
#     4  10  16  22  28  39  52  69  97 126 175 230
#     4   8  14  25  41  61  85 110 137 169 205 245
#     4  10  18  30  44  62  85 110 141 174 204 243
#     4  10  19  30  45  62  80 110 144 174 204 245
#     4  10  19  30  45  67  92 116 140 171 213 254
#
# _framework density 23.875744999999998
#
# number of rings (size 3 to 8) (size 9 to 14) (size 15 to 20)
#    0.000    2.250    0.000   10.125    0.000    0.000 
#    0.000    0.000    0.000    0.000    0.000    3.500 
#    0.000    0.000    0.000    0.000    0.000    0.000 
#
# Total GULP energy -357327.437490 kJ/mol
# GULP energy per Si atom -5583.241211 kJ/mol
# Density = 2.382140 g / cm^3
# Si number density = 23.875745 Si / 1000 Ang^3
#
#
#
# Elastic Constant Matrix: (Units=GPa)
#
#
# Indices 1 2 3 4 5 6 
#
# 1 54.8415 9.5224 -28.1294 0.0000 0.0000 0.0000
# 2 9.5224 234.8509 16.2926 0.0000 0.0000 0.0000
# 3 -28.1294 16.2926 149.7345 0.0000 0.0000 0.0000
# 4 0.0000 0.0000 0.0000 44.6320 0.0000 0.0000
# 5 0.0000 0.0000 0.0000 0.0000 133.8821 0.0000
# 6 0.0000 0.0000 0.0000 0.0000 0.0000 -2.1464
#
#
#
# Elastic Compliance Matrix: (Units=1/GPa)
#
#
# Indices 1 2 3 4 5 6 
#
# 1 0.020459 -0.001105 0.003964 0.000000 0.000000 0.000000
# 2 -0.001105 0.004350 -0.000681 0.000000 0.000000 0.000000
# 3 0.003964 -0.000681 0.007497 0.000000 0.000000 0.000000
# 4 0.000000 0.000000 0.000000 0.022405 0.000000 0.000000
# 5 0.000000 0.000000 0.000000 0.000000 0.007469 0.000000
# 6 0.000000 0.000000 0.000000 0.000000 0.000000 -0.465894
#
#
# Mechanical properties :
#
#
# Convention : Reuss Voigt Hill
#
# Bulk Modulus (GPa) = 27.27539 48.31090 37.79315
# Shear Modulus (GPa) = -12.63111 64.72296 26.04592
#
# Velocity S-wave (km/s) = -2.30257 5.21221 3.30645
# Velocity P-wave (km/s) = 2.09274 7.51672 5.51727
#
# Compressibility (1/GPa) = 0.03666308
#
# Stress axis : x y z
#
# Youngs Moduli (GPa) = 48.87777 229.88308 133.38326
#
# Poissons Ratio (x) = 0.25391 -0.52869
# Poissons Ratio (y) = 0.05399 0.09081
# Poissons Ratio (z) = -0.19374 0.15651
#
# Static dielectric constant tensor:
#      x y z
#    x 2.304470 0.000000 0.000000 
#    y 0.000000 1.412770 0.000000 
#    z 0.000000 0.000000 1.871200 
# 
# From -- ./inp_files/24020.got.cif
#   From: 2010.05.17/outbox.cif.g08.bks.cpg/sg55_13_cif.got.tgz:24020.got - 2010.06.03 13:27:54.
