data_PCOD9424829
_publ_section_title
;
Structure prediction by ZEFSAII (Michael W. Deem and Ramdas Pophale) SiO2 
 PCOD9424829
Probable space group: P B A M
;
_chemical_formula_sum "Si O2"
_cell_formula_units_Z 40
_cell_length_a 9.065654
_cell_length_b 15.499849
_cell_length_c 14.698213
_cell_angle_alpha 90.000000
_cell_angle_beta 90.000000
_cell_angle_gamma 90.000000
_cell_volume 2065.338038
_symmetry_space_group_name_H-M "P B A M"
_symmetry_group_IT_number 55
_symmetry_cell_setting 'orthorhombic'
loop_
_space_group_symop_operation_xyz
x,y,z
-x,-y,z
1/2+x,1/2-y,-z
1/2-x,1/2+y,-z
-x,-y,-z
x,y,-z
1/2-x,1/2+y,z
1/2+x,1/2-y,z
loop_
_atom_site_type_symbol
_atom_site_label
_atom_site_fract_x
_atom_site_fract_y
_atom_site_fract_z
Si Si1 0.208676 0.559092 0.391755
Si Si2 0.889905 0.603837 0.693948
Si Si3 0.879994 0.243480 0.154376
Si Si4 0.376267 0.874418 0.902798
Si Si5 0.134772 0.196437 0.280476
O O1 0.202393 0.560979 0.500000
O O2 0.220439 0.461427 0.355452
O O3 0.331821 0.623279 0.352906
O O4 0.050980 0.589858 0.350189
O O5 0.890292 0.583187 0.802644
O O6 0.853846 0.704945 0.683600
O O7 0.779379 0.175974 0.101732
O O8 0.764456 0.306379 0.205038
O O9 0.995464 0.301843 0.100510
O O10 0.978600 0.193855 0.229540
O O11 0.385025 0.921594 0.000000
#
# Coordination Sequence:
#
# PCOD9424829 Si02
#       5
#     8   8   8   8   8
#     4  11  21  36  60  82 111 154 194 233 285 337
#     4   9  20  36  56  82 119 145 187 237 278 329
#     4   8  17  31  54  80 114 146 182 227 277 330
#     4  10  17  31  56  84 114 151 187 228 278 343
#     4  10  17  37  57  80 112 153 179 233 288 327
#
# _framework density 19.367289
#
# number of rings (size 3 to 8) (size 9 to 14) (size 15 to 20)
#    0.000    2.800    4.000    1.800    0.000    1.600 
#    0.000    6.000    0.000    6.000    0.000    0.000 
#    0.000    0.000    0.000    0.000    0.000    0.000 
#
# Total GULP energy -222730.498575 kJ/mol
# GULP energy per Si atom -5568.262464 kJ/mol
# Density = 1.932321 g / cm^3
# Si number density = 19.367289 Si / 1000 Ang^3
#
#
#
# Elastic Constant Matrix: (Units=GPa)
#
#
# Indices 1 2 3 4 5 6 
#
# 1 83.1683 11.9710 21.7798 0.0000 0.0000 0.0000
# 2 11.9710 64.2063 14.7009 0.0000 0.0000 0.0000
# 3 21.7798 14.7009 148.2625 0.0000 0.0000 0.0000
# 4 0.0000 0.0000 0.0000 19.2976 0.0000 0.0000
# 5 0.0000 0.0000 0.0000 0.0000 47.1076 0.0000
# 6 0.0000 0.0000 0.0000 0.0000 0.0000 28.8290
#
#
#
# Elastic Compliance Matrix: (Units=1/GPa)
#
#
# Indices 1 2 3 4 5 6 
#
# 1 0.012749 -0.001994 -0.001675 0.000000 0.000000 0.000000
# 2 -0.001994 0.016248 -0.001318 0.000000 0.000000 0.000000
# 3 -0.001675 -0.001318 0.007122 0.000000 0.000000 0.000000
# 4 0.000000 0.000000 0.000000 0.051820 0.000000 0.000000
# 5 0.000000 0.000000 0.000000 0.000000 0.021228 0.000000
# 6 0.000000 0.000000 0.000000 0.000000 0.000000 0.034687
#
#
# Mechanical properties :
#
#
# Convention : Reuss Voigt Hill
#
# Bulk Modulus (GPa) = 38.24767 43.61560 40.93164
# Shear Modulus (GPa) = 30.76098 35.52587 33.14342
#
# Velocity S-wave (km/s) = 3.98967 4.28755 4.14129
# Velocity P-wave (km/s) = 6.40427 6.86148 6.63681
#
# Compressibility (1/GPa) = 0.02614538
#
# Stress axis : x y z
#
# Youngs Moduli (GPa) = 78.43478 61.54483 140.41792
#
# Poissons Ratio (x) = 0.12269 0.23523
# Poissons Ratio (y) = 0.15636 0.18511
# Poissons Ratio (z) = 0.13140 0.08113
#
# Static dielectric constant tensor:
#      x y z
#    x 1.683660 0.000000 0.000000 
#    y 0.000000 1.704360 0.000000 
#    z 0.000000 0.000000 1.709230 
# 
# From -- ./inp_files/17207.got.cif
#   From: 2010.05.17/outbox.cif.g08.bks.cpg/sg55_9_cif.got.tgz:17207.got - 2010.06.03 13:27:54.
