data_PCOD9424525
_publ_section_title
;
Structure prediction by ZEFSAII (Michael W. Deem and Ramdas Pophale) SiO2 
 PCOD9424525
Probable space group: P C C A
;
_chemical_formula_sum "Si O2"
_cell_formula_units_Z 52
_cell_length_a 14.111818
_cell_length_b 8.801049
_cell_length_c 20.228874
_cell_angle_alpha 90.000000
_cell_angle_beta 90.000000
_cell_angle_gamma 90.000000
_cell_volume 2512.401910
_symmetry_space_group_name_H-M "P C C A"
_symmetry_group_IT_number 54
_symmetry_cell_setting 'orthorhombic'
loop_
_space_group_symop_operation_xyz
x,y,z
1/2-x,-y,z
1/2+x,-y,1/2-z
-x,y,1/2-z
-x,-y,-z
1/2+x,y,-z
1/2-x,y,1/2+z
x,-y,1/2+z
loop_
_atom_site_type_symbol
_atom_site_label
_atom_site_fract_x
_atom_site_fract_y
_atom_site_fract_z
Si Si1 0.348387 0.735397 0.351623
Si Si2 0.500000 0.142597 0.750000
Si Si3 0.250000 0.500000 0.770411
Si Si4 0.591637 0.089690 0.971638
Si Si5 0.750000 0.000000 0.571600
Si Si6 0.645554 0.054339 0.334716
Si Si7 0.501511 0.411029 0.931690
Si Si8 0.922776 0.606631 0.308269
O O1 0.433702 0.763184 0.299709
O O2 0.263598 0.646388 0.316375
O O3 0.311062 0.889839 0.382441
O O4 0.396278 0.637659 0.409463
O O5 0.430713 0.038272 0.707399
O O6 0.159146 0.491947 0.724745
O O7 0.560265 0.255121 0.944523
O O8 0.630879 0.993420 0.910361
O O9 0.674898 0.091725 0.026192
O O10 0.500000 0.000000 0.000000
O O11 0.623571 0.231634 0.326310
O O12 0.750000 0.000000 0.313530
O O13 0.539537 0.518842 0.872755
O O14 0.500000 0.500000 0.000000
O O15 0.000000 0.628430 0.250000
#
# Coordination Sequence:
#
# PCOD9424525 Si02
#       8
#     8   4   4   8   4   8   8   8
#     4  12  27  47  74 107 146 197 245 313 371 447
#     4  12  24  48  76 102 148 190 248 306 370 426
#     4  12  28  46  74 108 150 186 250 300 374 446
#     4  12  25  48  73 104 146 196 243 302 367 448
#     4  12  28  46  76 110 150 190 254 308 370 444
#     4  12  26  45  75 108 143 190 250 303 365 443
#     4  12  27  48  74 104 149 197 244 300 383 443
#     4  12  27  48  75 109 150 197 243 312 377 446
#
# _framework density 20.697323999999998
#
# number of rings (size 3 to 8) (size 9 to 14) (size 15 to 20)
#    0.000    0.000    6.154    2.769    7.538    1.231 
#    0.000    0.000    0.000    0.000    0.000    0.000 
#    0.000    0.000    0.000    0.000    0.000    0.000 
#
# Total GULP energy -291050.779382 kJ/mol
# GULP energy per Si atom -5597.130373 kJ/mol
# Density = 2.065022 g / cm^3
# Si number density = 20.697324 Si / 1000 Ang^3
#
#
#
# Elastic Constant Matrix: (Units=GPa)
#
#
# Indices 1 2 3 4 5 6 
#
# 1 104.4343 29.1543 43.5904 0.0000 0.0000 0.0000
# 2 29.1543 119.3405 56.4189 0.0000 0.0000 0.0000
# 3 43.5904 56.4189 131.1862 0.0000 0.0000 0.0000
# 4 0.0000 0.0000 0.0000 46.7179 0.0000 0.0000
# 5 0.0000 0.0000 0.0000 0.0000 35.1889 0.0000
# 6 0.0000 0.0000 0.0000 0.0000 0.0000 40.9684
#
#
#
# Elastic Compliance Matrix: (Units=1/GPa)
#
#
# Indices 1 2 3 4 5 6 
#
# 1 0.011260 -0.001233 -0.003211 0.000000 0.000000 0.000000
# 2 -0.001233 0.010653 -0.004172 0.000000 0.000000 0.000000
# 3 -0.003211 -0.004172 0.010484 0.000000 0.000000 0.000000
# 4 0.000000 0.000000 0.000000 0.021405 0.000000 0.000000
# 5 0.000000 0.000000 0.000000 0.000000 0.028418 0.000000
# 6 0.000000 0.000000 0.000000 0.000000 0.000000 0.024409
#
#
# Mechanical properties :
#
#
# Convention : Reuss Voigt Hill
#
# Bulk Modulus (GPa) = 65.94073 68.14316 67.04194
# Shear Modulus (GPa) = 38.78513 39.62819 39.20666
#
# Velocity S-wave (km/s) = 4.33358 4.38042 4.35706
# Velocity P-wave (km/s) = 7.54775 7.65371 7.60091
#
# Compressibility (1/GPa) = 0.01516513
#
# Stress axis : x y z
#
# Youngs Moduli (GPa) = 88.81091 93.87236 95.38351
#
# Poissons Ratio (x) = 0.11570 0.30631
# Poissons Ratio (y) = 0.10946 0.39793
# Poissons Ratio (z) = 0.28520 0.39162
#
# Static dielectric constant tensor:
#      x y z
#    x 1.703680 0.000000 0.000000 
#    y 0.000000 1.773400 0.000000 
#    z 0.000000 0.000000 1.741490 
# 
# From -- ./inp_files/21569.got.cif
#   From: 2010.05.17/outbox.cif.g08.bks.cpg/sg54_11_cif.got.tgz:21569.got - 2010.06.03 13:09:01.
