data_PCOD9424605
_publ_section_title
;
Structure prediction by ZEFSAII (Michael W. Deem and Ramdas Pophale) SiO2 
 PCOD9424605
Probable space group: P C C A
;
_chemical_formula_sum "Si O2"
_cell_formula_units_Z 56
_cell_length_a 15.000000
_cell_length_b 15.000000
_cell_length_c 12.000000
_cell_angle_alpha 90.000000
_cell_angle_beta 90.000000
_cell_angle_gamma 90.000000
_cell_volume 2700.000000
_symmetry_space_group_name_H-M "P C C A"
_symmetry_group_IT_number 54
_symmetry_cell_setting 'orthorhombic'
loop_
_space_group_symop_operation_xyz
x,y,z
1/2-x,-y,z
1/2+x,-y,1/2-z
-x,y,1/2-z
-x,-y,-z
1/2+x,y,-z
1/2-x,y,1/2+z
x,-y,1/2+z
loop_
_atom_site_type_symbol
_atom_site_label
_atom_site_fract_x
_atom_site_fract_y
_atom_site_fract_z
Si Si1 0.839164 0.745881 0.788450
Si Si2 0.913422 0.788483 0.027042
Si Si3 0.147070 0.391915 0.401291
Si Si4 0.931967 0.860811 0.340931
Si Si5 0.137544 0.404592 0.871817
Si Si6 0.147433 0.327534 0.646422
Si Si7 0.220027 0.100211 0.807954
O O1 0.879665 0.673530 0.701212
O O2 0.751849 0.697152 0.841678
O O3 0.800333 0.831406 0.721065
O O4 0.894975 0.778518 0.895335
O O5 0.906723 0.685171 0.074571
O O6 0.839172 0.847588 0.096687
O O7 0.006333 0.842265 0.050959
O O8 0.255847 0.395392 0.394688
O O9 0.112493 0.494176 0.403764
O O10 0.124607 0.349857 0.520520
O O11 0.904731 0.759493 0.313658
O O12 0.839269 0.908613 0.307509
O O13 0.000000 0.898255 0.250000
O O14 0.126132 0.401098 0.738078
O O15 0.250000 0.000000 0.840480
#
# Coordination Sequence:
#
# PCOD9424605 Si02
#       7
#     8   8   8   8   8   8   8
#     4  10  19  35  55  86 118 151 199 253 303 356
#     4  11  19  37  60  86 117 156 196 244 303 367
#     4  10  20  30  52  88 123 155 206 253 299 335
#     4   9  18  36  60  82 115 154 198 240 297 364
#     4  10  19  29  54  86 114 160 205 249 289 351
#     4  10  17  34  54  78 116 161 199 250 289 348
#     4  10  20  37  60  88 111 145 201 252 301 366
#
# _framework density 20.740741
#
# number of rings (size 3 to 8) (size 9 to 14) (size 15 to 20)
#    0.000    2.000    7.143    0.000    2.000    1.714 
#    0.000    2.143    3.143    8.571    0.000    0.000 
#    0.000    0.000    0.000    0.000    0.000    0.000 
#
# Total GULP energy -311894.222357 kJ/mol
# GULP energy per Si atom -5569.539685 kJ/mol
# Density = 2.069353 g / cm^3
# Si number density = 20.740741 Si / 1000 Ang^3
#
#
#
# Elastic Constant Matrix: (Units=GPa)
#
#
# Indices 1 2 3 4 5 6 
#
# 1 19.6300 2.6010 -8.1768 0.0000 0.0000 0.0000
# 2 2.6010 118.9925 30.7959 0.0000 0.0000 0.0000
# 3 -8.1768 30.7959 89.5344 0.0000 0.0000 0.0000
# 4 0.0000 0.0000 0.0000 19.7817 0.0000 0.0000
# 5 0.0000 0.0000 0.0000 0.0000 19.9092 0.0000
# 6 0.0000 0.0000 0.0000 0.0000 0.0000 14.2916
#
#
#
# Elastic Compliance Matrix: (Units=1/GPa)
#
#
# Indices 1 2 3 4 5 6 
#
# 1 0.053726 -0.002683 0.005829 0.000000 0.000000 0.000000
# 2 -0.002683 0.009359 -0.003464 0.000000 0.000000 0.000000
# 3 0.005829 -0.003464 0.012893 0.000000 0.000000 0.000000
# 4 0.000000 0.000000 0.000000 0.050552 0.000000 0.000000
# 5 0.000000 0.000000 0.000000 0.000000 0.050228 0.000000
# 6 0.000000 0.000000 0.000000 0.000000 0.000000 0.069971
#
#
# Mechanical properties :
#
#
# Convention : Reuss Voigt Hill
#
# Bulk Modulus (GPa) = 13.27271 30.95523 22.11397
# Shear Modulus (GPa) = 18.35007 24.32564 21.33785
#
# Velocity S-wave (km/s) = 2.97768 3.42840 3.21095
# Velocity P-wave (km/s) = 4.27028 5.53436 4.94289
#
# Compressibility (1/GPa) = 0.07534255
#
# Stress axis : x y z
#
# Youngs Moduli (GPa) = 18.61289 106.84820 77.56279
#
# Poissons Ratio (x) = 0.28668 -0.45215
# Poissons Ratio (y) = 0.04994 0.26869
# Poissons Ratio (z) = -0.10850 0.37014
#
# Static dielectric constant tensor:
#      x y z
#    x 1.824280 0.000000 0.000000 
#    y 0.000000 1.710110 0.000000 
#    z 0.000000 0.000000 1.762500 
# 
# From -- ./inp_files/8429.got.cif
#   From: 2010.05.17/outbox.ucp.g08.bks.cvg/sg54_5_cif.got.tgz:8429.got - 2010.06.11 16:34:40.
