data_PCOD9424800
_publ_section_title
;
Structure prediction by ZEFSAII (Michael W. Deem and Ramdas Pophale) SiO2 
 PCOD9424800
Probable space group: P B A M
;
_chemical_formula_sum "Si O2"
_cell_formula_units_Z 44
_cell_length_a 14.295353
_cell_length_b 15.723479
_cell_length_c 7.311258
_cell_angle_alpha 90.000000
_cell_angle_beta 90.000000
_cell_angle_gamma 90.000000
_cell_volume 1643.371075
_symmetry_space_group_name_H-M "P B A M"
_symmetry_group_IT_number 55
_symmetry_cell_setting 'orthorhombic'
loop_
_space_group_symop_operation_xyz
x,y,z
-x,-y,z
1/2+x,1/2-y,-z
1/2-x,1/2+y,-z
-x,-y,-z
x,y,-z
1/2-x,1/2+y,z
1/2+x,1/2-y,z
loop_
_atom_site_type_symbol
_atom_site_label
_atom_site_fract_x
_atom_site_fract_y
_atom_site_fract_z
Si Si1 0.560022 0.643960 0.702261
Si Si2 0.476958 0.095551 0.776696
Si Si3 0.699153 0.506813 0.789632
Si Si4 0.186838 0.703074 0.792554
Si Si5 0.869273 0.876941 0.500000
Si Si6 0.330285 0.833727 0.222580
O O1 0.604125 0.648878 0.500000
O O2 0.598997 0.555577 0.778887
O O3 0.608646 0.720952 0.805246
O O4 0.450747 0.645850 0.659547
O O5 0.377649 0.129496 0.711622
O O6 0.563525 0.154411 0.718357
O O7 0.500000 0.000000 0.721951
O O8 0.474242 0.096770 0.000000
O O9 0.692598 0.426544 0.659585
O O10 0.773660 0.580022 0.733492
O O11 0.719239 0.487349 0.000000
O O12 0.213062 0.681753 0.000000
O O13 0.775557 0.749022 0.702383
O O14 0.328300 0.827959 0.000000
#
# Coordination Sequence:
#
# PCOD9424800 Si02
#       6
#     8   8   8   8   4   8
#     4   9  17  29  44  71 107 147 190 244 288 360
#     4   9  17  32  56  86 118 154 202 258 309 360
#     4  10  17  28  48  75 112 152 197 247 296 354
#     4   9  17  31  54  79 108 150 195 249 311 362
#     4  10  19  30  44  76 112 156 204 244 303 360
#     4   8  16  30  50  81 112 147 202 249 298 372
#
# _framework density 26.774232999999999
#
# number of rings (size 3 to 8) (size 9 to 14) (size 15 to 20)
#    0.545    2.364    0.909    2.727    0.000    2.182 
#    0.000    1.818    2.000    7.091    0.000    0.000 
#    0.000    0.000    0.000    0.000    0.000    0.000 
#
# Total GULP energy -245057.596368 kJ/mol
# GULP energy per Si atom -5569.490827 kJ/mol
# Density = 2.671329 g / cm^3
# Si number density = 26.774233 Si / 1000 Ang^3
#
#
#
# Elastic Constant Matrix: (Units=GPa)
#
#
# Indices 1 2 3 4 5 6 
#
# 1 207.6246 68.3461 -10.7398 0.0000 0.0000 0.0000
# 2 68.3461 144.4334 -3.7057 0.0000 0.0000 0.0000
# 3 -10.7398 -3.7057 123.8755 0.0000 0.0000 0.0000
# 4 0.0000 0.0000 0.0000 -660.8881 0.0000 0.0000
# 5 0.0000 0.0000 0.0000 0.0000 58.8483 0.0000
# 6 0.0000 0.0000 0.0000 0.0000 0.0000 52.2385
#
#
#
# Elastic Compliance Matrix: (Units=1/GPa)
#
#
# Indices 1 2 3 4 5 6 
#
# 1 0.005726 -0.002699 0.000416 0.000000 0.000000 0.000000
# 2 -0.002699 0.008201 0.000011 0.000000 0.000000 0.000000
# 3 0.000416 0.000011 0.008109 0.000000 0.000000 0.000000
# 4 0.000000 0.000000 0.000000 -0.001513 0.000000 0.000000
# 5 0.000000 0.000000 0.000000 0.000000 0.016993 0.000000
# 6 0.000000 0.000000 0.000000 0.000000 0.000000 0.019143
#
#
# Mechanical properties :
#
#
# Convention : Reuss Voigt Hill
#
# Bulk Modulus (GPa) = 57.16749 64.85939 61.01344
# Shear Modulus (GPa) = 74.58903 -81.82472 -3.61784
#
# Velocity S-wave (km/s) = 5.28384 -5.53420 -1.16369
# Velocity P-wave (km/s) = 7.65659 4.06931 4.58607
#
# Compressibility (1/GPa) = 0.01749246
#
# Stress axis : x y z
#
# Youngs Moduli (GPa) = 174.63071 121.93494 123.31972
#
# Poissons Ratio (x) = 0.32911 -0.05127
# Poissons Ratio (y) = 0.47134 -0.00140
# Poissons Ratio (z) = -0.07260 -0.00138
#
# Static dielectric constant tensor:
#      x y z
#    x 2.072430 0.000000 0.000000 
#    y 0.000000 2.184080 0.000000 
#    z 0.000000 0.000000 1.994690 
# 
# From -- ./inp_files/7343.got.cif
#   From: 2010.05.17/outbox.cif.g08.bks.cpg/sg55_4_cif.got.tgz:7343.got - 2010.06.03 13:27:54.
