data_PCOD9424769
_publ_section_title
;
Structure prediction by ZEFSAII (Michael W. Deem and Ramdas Pophale) SiO2 
 PCOD9424769
Probable space group: P B A M
;
_chemical_formula_sum "Si O2"
_cell_formula_units_Z 64
_cell_length_a 23.310733
_cell_length_b 13.852434
_cell_length_c 8.799996
_cell_angle_alpha 90.000000
_cell_angle_beta 90.000000
_cell_angle_gamma 90.000000
_cell_volume 2841.610144
_symmetry_space_group_name_H-M "P B A M"
_symmetry_group_IT_number 55
_symmetry_cell_setting 'orthorhombic'
loop_
_space_group_symop_operation_xyz
x,y,z
-x,-y,z
1/2+x,1/2-y,-z
1/2-x,1/2+y,-z
-x,-y,-z
x,y,-z
1/2-x,1/2+y,z
1/2+x,1/2-y,z
loop_
_atom_site_type_symbol
_atom_site_label
_atom_site_fract_x
_atom_site_fract_y
_atom_site_fract_z
Si Si1 0.917405 0.397920 0.823777
Si Si2 0.935740 0.815495 0.317135
Si Si3 0.579458 0.093593 0.326503
Si Si4 0.792528 0.647074 0.678074
Si Si5 0.315976 0.652505 0.822512
Si Si6 0.445739 0.318805 0.181834
Si Si7 0.801769 0.366783 0.327169
Si Si8 0.170206 0.863069 0.671545
O O1 0.940227 0.496296 0.752874
O O2 0.938254 0.293538 0.763375
O O3 0.849379 0.398886 0.792422
O O4 0.930405 0.398522 0.000000
O O5 0.931760 0.817531 0.500000
O O6 0.934498 0.701394 0.267204
O O7 0.878997 0.864792 0.247400
O O8 0.996094 0.856418 0.258565
O O9 0.559563 0.091784 0.500000
O O10 0.648800 0.088817 0.322966
O O11 0.787663 0.682114 0.500000
O O12 0.804673 0.733235 0.794827
O O13 0.732533 0.596398 0.717888
O O14 0.262293 0.612315 0.727812
O O15 0.313877 0.628152 0.000000
O O16 0.386777 0.371968 0.229036
O O17 0.451215 0.319894 0.000000
O O18 0.811294 0.401807 0.500000
O O19 0.813177 0.251001 0.331192
O O20 0.156827 0.894612 0.500000
#
# Coordination Sequence:
#
# PCOD9424769 Si02
#       8
#     8   8   8   8   8   8   8   8
#     4  10  20  31  43  62  88 116 147 183 221 258
#     4  10  20  33  46  60  82 115 153 184 213 255
#     4   9  18  31  45  61  83 114 151 185 214 251
#     4   8  15  28  44  62  83 109 142 176 213 260
#     4  10  17  26  43  65  86 106 133 174 223 263
#     4  10  20  31  42  60  86 114 146 183 220 256
#     4   9  16  28  45  62  82 109 141 175 213 258
#     4   8  14  26  44  62  80 105 137 174 215 257
#
# _framework density 22.522442999999999
#
# number of rings (size 3 to 8) (size 9 to 14) (size 15 to 20)
#    0.000    2.750    0.000    4.125    0.000    7.500 
#    0.000    2.500    0.000    0.000    0.000    0.000 
#    0.000    1.000    0.000   10.750    0.000    5.500 
#
# Total GULP energy -356877.727764 kJ/mol
# GULP energy per Si atom -5576.214496 kJ/mol
# Density = 2.247118 g / cm^3
# Si number density = 22.522443 Si / 1000 Ang^3
#
#
#
# Elastic Constant Matrix: (Units=GPa)
#
#
# Indices 1 2 3 4 5 6 
#
# 1 185.8082 -10.2323 31.2626 0.0000 0.0000 0.0000
# 2 -10.2323 27.5524 -4.9830 0.0000 0.0000 0.0000
# 3 31.2626 -4.9830 48.6357 0.0000 0.0000 0.0000
# 4 0.0000 0.0000 0.0000 6.2632 0.0000 0.0000
# 5 0.0000 0.0000 0.0000 0.0000 16.8388 0.0000
# 6 0.0000 0.0000 0.0000 0.0000 0.0000 -15.5582
#
#
#
# Elastic Compliance Matrix: (Units=1/GPa)
#
#
# Indices 1 2 3 4 5 6 
#
# 1 0.006102 0.001586 -0.003760 0.000000 0.000000 0.000000
# 2 0.001586 0.037392 0.002812 0.000000 0.000000 0.000000
# 3 -0.003760 0.002812 0.023266 0.000000 0.000000 0.000000
# 4 0.000000 0.000000 0.000000 0.159664 0.000000 0.000000
# 5 0.000000 0.000000 0.000000 0.000000 0.059387 0.000000
# 6 0.000000 0.000000 0.000000 0.000000 0.000000 -0.064275
#
#
# Mechanical properties :
#
#
# Convention : Reuss Voigt Hill
#
# Bulk Modulus (GPa) = 14.69824 32.67677 23.68750
# Shear Modulus (GPa) = 20.58141 17.90536 19.24339
#
# Velocity S-wave (km/s) = 3.02622 2.82263 2.92620
# Velocity P-wave (km/s) = 4.33023 5.01628 4.68583
#
# Compressibility (1/GPa) = 0.06803538
#
# Stress axis : x y z
#
# Youngs Moduli (GPa) = 163.88563 26.74372 42.98160
#
# Poissons Ratio (x) = -0.04242 0.16160
# Poissons Ratio (y) = -0.25994 -0.12084
# Poissons Ratio (z) = 0.61616 -0.07519
#
# Static dielectric constant tensor:
#      x y z
#    x 1.894030 0.000000 0.000000 
#    y 0.000000 1.941050 0.000000 
#    z 0.000000 0.000000 1.766530 
# 
# From -- ./inp_files/8085.got.cif
#   From: 2010.05.17/outbox.cif.g08.bks.cpg/sg55_5_cif.got.tgz:8085.got - 2010.06.03 13:27:54.
