data_PCOD9424193
_publ_section_title
;
Structure prediction by ZEFSAII (Michael W. Deem and Ramdas Pophale) SiO2 
 PCOD9424193
Probable space group: P C C A
;
_chemical_formula_sum "Si O2"
_cell_formula_units_Z 40
_cell_length_a 26.166128
_cell_length_b 5.013177
_cell_length_c 12.728540
_cell_angle_alpha 90.000000
_cell_angle_beta 90.000000
_cell_angle_gamma 90.000000
_cell_volume 1669.671721
_symmetry_space_group_name_H-M "P C C A"
_symmetry_group_IT_number 54
_symmetry_cell_setting 'orthorhombic'
loop_
_space_group_symop_operation_xyz
x,y,z
1/2-x,-y,z
1/2+x,-y,1/2-z
-x,y,1/2-z
-x,-y,-z
1/2+x,y,-z
1/2-x,y,1/2+z
x,-y,1/2+z
loop_
_atom_site_type_symbol
_atom_site_label
_atom_site_fract_x
_atom_site_fract_y
_atom_site_fract_z
Si Si1 0.648993 0.504227 0.751639
Si Si2 0.964650 0.559647 0.670058
Si Si3 0.959224 0.807326 0.448608
Si Si4 0.216508 0.752354 0.931167
Si Si5 0.349267 0.001450 0.118799
O O1 0.588926 0.502074 0.724640
O O2 0.680726 0.381103 0.656586
O O3 0.663282 0.803129 0.783785
O O4 0.657658 0.304383 0.849551
O O5 0.945835 0.636884 0.552340
O O6 0.000000 0.740134 0.750000
O O7 0.008663 0.347887 0.639067
O O8 0.908754 0.947937 0.407283
O O9 0.000000 0.000000 0.500000
O O10 0.250000 0.500000 0.970574
O O11 0.250000 0.000000 0.888275
O O12 0.183903 0.892666 0.022593
#
# Coordination Sequence:
#
# PCOD9424193 Si02
#       5
#     8   8   8   8   8
#     4  12  27  47  77 108 150 192 246 295 373 439
#     4  11  23  43  67 106 144 192 237 288 357 439
#     4  11  25  40  70 102 151 193 239 290 362 427
#     4  12  28  51  78 106 144 190 247 315 372 429
#     4  12  27  48  74 110 145 193 243 304 360 441
#
# _framework density 23.956807999999999
#
# number of rings (size 3 to 8) (size 9 to 14) (size 15 to 20)
#    0.000    0.400    4.000    3.600    5.600    7.200 
#    0.000    0.000    0.000    0.000    0.000    0.000 
#    0.000    0.000    0.000    0.000    0.000    0.000 
#
# Total GULP energy -223600.550993 kJ/mol
# GULP energy per Si atom -5590.013775 kJ/mol
# Density = 2.390228 g / cm^3
# Si number density = 23.956808 Si / 1000 Ang^3
#
#
#
# Elastic Constant Matrix: (Units=GPa)
#
#
# Indices 1 2 3 4 5 6 
#
# 1 106.2761 21.5462 36.5489 0.0000 0.0000 0.0000
# 2 21.5462 70.4964 0.3425 0.0000 0.0000 0.0000
# 3 36.5489 0.3425 86.8256 0.0000 0.0000 0.0000
# 4 0.0000 0.0000 0.0000 23.8098 0.0000 0.0000
# 5 0.0000 0.0000 0.0000 0.0000 43.2644 0.0000
# 6 0.0000 0.0000 0.0000 0.0000 0.0000 15.4929
#
#
#
# Elastic Compliance Matrix: (Units=1/GPa)
#
#
# Indices 1 2 3 4 5 6 
#
# 1 0.011849 -0.003597 -0.004974 0.000000 0.000000 0.000000
# 2 -0.003597 0.015278 0.001454 0.000000 0.000000 0.000000
# 3 -0.004974 0.001454 0.013605 0.000000 0.000000 0.000000
# 4 0.000000 0.000000 0.000000 0.041999 0.000000 0.000000
# 5 0.000000 0.000000 0.000000 0.000000 0.023114 0.000000
# 6 0.000000 0.000000 0.000000 0.000000 0.000000 0.064546
#
#
# Mechanical properties :
#
#
# Convention : Reuss Voigt Hill
#
# Bulk Modulus (GPa) = 37.73876 42.27483 40.00680
# Shear Modulus (GPa) = 25.84545 30.19078 28.01812
#
# Velocity S-wave (km/s) = 3.28813 3.55380 3.42354
# Velocity P-wave (km/s) = 5.49570 5.87571 5.68888
#
# Compressibility (1/GPa) = 0.02649796
#
# Stress axis : x y z
#
# Youngs Moduli (GPa) = 84.39337 65.45547 73.50087
#
# Poissons Ratio (x) = 0.23547 0.36557
# Poissons Ratio (y) = 0.30360 -0.10687
# Poissons Ratio (z) = 0.41975 -0.09517
#
# Static dielectric constant tensor:
#      x y z
#    x 1.857220 0.000000 0.000000 
#    y 0.000000 1.911550 0.000000 
#    z 0.000000 0.000000 2.259830 
# 
# From -- ./inp_files/10135.got.cif
#   From: 2010.05.17/outbox.cif.g08.bks.cpg/sg54_6_cif.got.tgz:10135.got - 2010.06.03 13:09:01.
