data_PCOD9424089
_publ_section_title
;
Structure prediction by ZEFSAII (Michael W. Deem and Ramdas Pophale) SiO2 
 PCOD9424089
Probable space group: P C C A
;
_chemical_formula_sum "Si O2"
_cell_formula_units_Z 64
_cell_length_a 13.949986
_cell_length_b 11.896346
_cell_length_c 18.756945
_cell_angle_alpha 90.000000
_cell_angle_beta 90.000000
_cell_angle_gamma 90.000000
_cell_volume 3112.787427
_symmetry_space_group_name_H-M "P C C A"
_symmetry_group_IT_number 54
_symmetry_cell_setting 'orthorhombic'
loop_
_space_group_symop_operation_xyz
x,y,z
1/2-x,-y,z
1/2+x,-y,1/2-z
-x,y,1/2-z
-x,-y,-z
1/2+x,y,-z
1/2-x,y,1/2+z
x,-y,1/2+z
loop_
_atom_site_type_symbol
_atom_site_label
_atom_site_fract_x
_atom_site_fract_y
_atom_site_fract_z
Si Si1 0.796901 0.122667 0.967618
Si Si2 0.605579 0.743251 0.445618
Si Si3 0.511492 0.853026 0.586184
Si Si4 0.455497 0.251711 0.824053
Si Si5 0.857891 0.455357 0.097085
Si Si6 0.861081 0.518320 0.436339
Si Si7 0.998532 0.366793 0.666295
Si Si8 0.651612 0.942800 0.124019
O O1 0.715849 0.213518 0.946082
O O2 0.898924 0.128102 0.928466
O O3 0.750000 0.000000 0.956195
O O4 0.820880 0.126933 0.052238
O O5 0.557473 0.795383 0.516009
O O6 0.541744 0.778709 0.378196
O O7 0.598648 0.608151 0.443549
O O8 0.520217 0.763134 0.649499
O O9 0.572918 0.964377 0.601669
O O10 0.500000 0.289728 0.750000
O O11 0.389286 0.348961 0.856902
O O12 0.391891 0.140418 0.818183
O O13 0.750000 0.500000 0.102384
O O14 0.920535 0.558541 0.125350
O O15 0.875926 0.427308 0.013980
O O16 0.750000 0.500000 0.423162
O O17 0.905936 0.591522 0.373839
O O18 0.000000 0.389435 0.750000
O O19 0.750000 0.000000 0.147806
#
# Coordination Sequence:
#
# PCOD9424089 Si02
#       8
#     8   8   8   8   8   8   8   8
#     4  11  22  39  70 108 129 174 234 299 352 400
#     4  12  22  41  71 100 137 178 237 294 346 413
#     4  12  23  43  70 101 138 178 237 294 345 415
#     4  12  27  47  67 101 146 190 229 282 355 427
#     4  11  25  43  74 101 134 180 237 287 342 410
#     4  11  24  42  70 104 134 180 235 289 339 409
#     4  12  26  45  66 101 147 181 221 280 352 421
#     4  11  24  42  74 100 134 181 235 295 351 416
#
# _framework density 20.560348999999999
#
# number of rings (size 3 to 8) (size 9 to 14) (size 15 to 20)
#    0.000    0.500    6.250    3.375    5.250    1.000 
#    2.250    1.875    0.000    0.000    0.000    0.000 
#    0.000    0.000    0.000    0.000    0.000    0.000 
#
# Total GULP energy -358044.551698 kJ/mol
# GULP energy per Si atom -5594.446120 kJ/mol
# Density = 2.051355 g / cm^3
# Si number density = 20.560349 Si / 1000 Ang^3
#
#
#
# Elastic Constant Matrix: (Units=GPa)
#
#
# Indices 1 2 3 4 5 6 
#
# 1 132.9828 22.3269 40.0045 0.0000 0.0000 0.0000
# 2 22.3269 76.7609 23.1372 0.0000 0.0000 0.0000
# 3 40.0045 23.1372 115.9785 0.0000 0.0000 0.0000
# 4 0.0000 0.0000 0.0000 11.0254 0.0000 0.0000
# 5 0.0000 0.0000 0.0000 0.0000 613.7502 0.0000
# 6 0.0000 0.0000 0.0000 0.0000 0.0000 32.8670
#
#
#
# Elastic Compliance Matrix: (Units=1/GPa)
#
#
# Indices 1 2 3 4 5 6 
#
# 1 0.008596 -0.001709 -0.002624 0.000000 0.000000 0.000000
# 2 -0.001709 0.014201 -0.002243 0.000000 0.000000 0.000000
# 3 -0.002624 -0.002243 0.009975 0.000000 0.000000 0.000000
# 4 0.000000 0.000000 0.000000 0.090700 0.000000 0.000000
# 5 0.000000 0.000000 0.000000 0.000000 0.001629 0.000000
# 6 0.000000 0.000000 0.000000 0.000000 0.000000 0.030426
#
#
# Mechanical properties :
#
#
# Convention : Reuss Voigt Hill
#
# Bulk Modulus (GPa) = 50.97276 55.18437 53.07856
# Shear Modulus (GPa) = 28.53556 147.54541 88.04048
#
# Velocity S-wave (km/s) = 3.72948 8.48044 6.55084
# Velocity P-wave (km/s) = 6.58719 11.08102 9.11537
#
# Compressibility (1/GPa) = 0.01961832
#
# Stress axis : x y z
#
# Youngs Moduli (GPa) = 116.33127 70.41827 100.25114
#
# Poissons Ratio (x) = 0.12037 0.26306
# Poissons Ratio (y) = 0.19885 0.22490
# Poissons Ratio (z) = 0.30526 0.15798
#
# Static dielectric constant tensor:
#      x y z
#    x 1.449990 0.000000 0.000000 
#    y 0.000000 1.862280 0.000000 
#    z 0.000000 0.000000 1.700200 
# 
# From -- ./inp_files/18228.got.cif
#   From: 2010.05.17/outbox.cif.g08.bks.cpg/sg54_10_cif.got.tgz:18228.got - 2010.06.03 13:09:01.
