data_PCOD9424959
_publ_section_title
;
Structure prediction by ZEFSAII (Michael W. Deem and Ramdas Pophale) SiO2 
 PCOD9424959
Probable space group: P B A M
;
_chemical_formula_sum "Si O2"
_cell_formula_units_Z 56
_cell_length_a 18.802591
_cell_length_b 11.032214
_cell_length_c 13.737456
_cell_angle_alpha 90.000000
_cell_angle_beta 90.000000
_cell_angle_gamma 90.000000
_cell_volume 2849.618301
_symmetry_space_group_name_H-M "P B A M"
_symmetry_group_IT_number 55
_symmetry_cell_setting 'orthorhombic'
loop_
_space_group_symop_operation_xyz
x,y,z
-x,-y,z
1/2+x,1/2-y,-z
1/2-x,1/2+y,-z
-x,-y,-z
x,y,-z
1/2-x,1/2+y,z
1/2+x,1/2-y,z
loop_
_atom_site_type_symbol
_atom_site_label
_atom_site_fract_x
_atom_site_fract_y
_atom_site_fract_z
Si Si1 0.457751 0.120016 0.708455
Si Si2 0.636573 0.384875 0.892382
Si Si3 0.546667 0.163533 0.885926
Si Si4 0.333645 0.988702 0.774569
Si Si5 0.789592 0.292818 0.107552
Si Si6 0.679433 0.588168 0.257391
Si Si7 0.454193 0.380221 0.616112
O O1 0.476350 0.135438 0.823969
O O2 0.476488 0.248404 0.659787
O O3 0.500000 0.000000 0.672716
O O4 0.376113 0.078556 0.702741
O O5 0.565821 0.305591 0.883939
O O6 0.703641 0.291797 0.890692
O O7 0.648609 0.477891 0.806590
O O8 0.638935 0.442878 0.000000
O O9 0.608214 0.101283 0.820182
O O10 0.545650 0.126838 0.000000
O O11 0.263245 0.935067 0.725106
O O12 0.306922 0.069561 0.864787
O O13 0.821439 0.203998 0.186833
O O14 0.814478 0.261753 0.000000
O O15 0.626822 0.602994 0.347261
O O16 0.500000 0.500000 0.646565
O O17 0.458487 0.373039 0.500000
#
# Coordination Sequence:
#
# PCOD9424959 Si02
#       7
#     8   8   8   8   8   8   8
#     4  10  22  40  63  95 126 167 205 252 315 371
#     4   9  18  30  49  83 123 163 203 245 293 356
#     4  10  19  33  54  88 133 173 208 244 290 363
#     4  10  20  34  56  86 124 162 205 250 300 363
#     4  10  18  29  51  82 119 164 203 244 295 358
#     4  11  20  36  61  84 119 160 207 256 313 378
#     4  11  25  47  70  91 118 158 212 273 336 390
#
# _framework density 19.651755000000001
#
# number of rings (size 3 to 8) (size 9 to 14) (size 15 to 20)
#    0.000    1.857    2.857    1.714    0.000    4.571 
#    0.000    0.714    0.000    3.857    0.000    0.000 
#    0.000    0.000    0.000    0.000    0.000    0.000 
#
# Total GULP energy -312065.032240 kJ/mol
# GULP energy per Si atom -5572.589861 kJ/mol
# Density = 1.960703 g / cm^3
# Si number density = 19.651755 Si / 1000 Ang^3
#
#
#
# Elastic Constant Matrix: (Units=GPa)
#
#
# Indices 1 2 3 4 5 6 
#
# 1 73.5108 22.7202 16.3825 0.0000 0.0000 0.0000
# 2 22.7202 90.0153 27.9409 0.0000 0.0000 0.0000
# 3 16.3825 27.9409 54.1851 0.0000 0.0000 0.0000
# 4 0.0000 0.0000 0.0000 14.3381 0.0000 0.0000
# 5 0.0000 0.0000 0.0000 0.0000 23.0913 0.0000
# 6 0.0000 0.0000 0.0000 0.0000 0.0000 27.3600
#
#
#
# Elastic Compliance Matrix: (Units=1/GPa)
#
#
# Indices 1 2 3 4 5 6 
#
# 1 0.015183 -0.002866 -0.003113 0.000000 0.000000 0.000000
# 2 -0.002866 0.013767 -0.006233 0.000000 0.000000 0.000000
# 3 -0.003113 -0.006233 0.022610 0.000000 0.000000 0.000000
# 4 0.000000 0.000000 0.000000 0.069744 0.000000 0.000000
# 5 0.000000 0.000000 0.000000 0.000000 0.043306 0.000000
# 6 0.000000 0.000000 0.000000 0.000000 0.000000 0.036550
#
#
# Mechanical properties :
#
#
# Convention : Reuss Voigt Hill
#
# Bulk Modulus (GPa) = 36.84889 39.08872 37.96881
# Shear Modulus (GPa) = 21.31023 23.00239 22.15631
#
# Velocity S-wave (km/s) = 3.29659 3.42497 3.36139
# Velocity P-wave (km/s) = 5.76902 5.96443 5.86754
#
# Compressibility (1/GPa) = 0.02713786
#
# Stress axis : x y z
#
# Youngs Moduli (GPa) = 65.86340 72.63618 44.22784
#
# Poissons Ratio (x) = 0.20818 0.13766
# Poissons Ratio (y) = 0.18877 0.27566
# Poissons Ratio (z) = 0.20500 0.45271
#
# Static dielectric constant tensor:
#      x y z
#    x 1.767050 0.000000 0.000000 
#    y 0.000000 1.754720 0.000000 
#    z 0.000000 0.000000 1.654090 
# 
# From -- ./inp_files/13396.got.cif
#   From: 2010.05.17/outbox.cif.g08.bks.cpg/sg55_7_cif.got.tgz:13396.got - 2010.06.03 13:27:54.
