data_PCOD9424798
_publ_section_title
;
Structure prediction by ZEFSAII (Michael W. Deem and Ramdas Pophale) SiO2 
 PCOD9424798
Probable space group: P B A M
;
_chemical_formula_sum "Si O2"
_cell_formula_units_Z 64
_cell_length_a 24.211855
_cell_length_b 19.796050
_cell_length_c 7.991520
_cell_angle_alpha 90.000000
_cell_angle_beta 90.000000
_cell_angle_gamma 90.000000
_cell_volume 3830.328281
_symmetry_space_group_name_H-M "P B A M"
_symmetry_group_IT_number 55
_symmetry_cell_setting 'orthorhombic'
loop_
_space_group_symop_operation_xyz
x,y,z
-x,-y,z
1/2+x,1/2-y,-z
1/2-x,1/2+y,-z
-x,-y,-z
x,y,-z
1/2-x,1/2+y,z
1/2+x,1/2-y,z
loop_
_atom_site_type_symbol
_atom_site_label
_atom_site_fract_x
_atom_site_fract_y
_atom_site_fract_z
Si Si1 0.561614 0.635202 0.199695
Si Si2 0.727736 0.847355 0.202381
Si Si3 0.837269 0.767395 0.799132
Si Si4 0.746442 0.494814 0.798745
Si Si5 0.663796 0.720052 0.698675
Si Si6 0.880935 0.997829 0.795358
Si Si7 0.062824 0.143495 0.795091
Si Si8 0.227515 0.358523 0.301042
O O1 0.606244 0.693216 0.232259
O O2 0.587212 0.564610 0.263982
O O3 0.500110 0.649420 0.264194
O O4 0.556541 0.627019 0.000000
O O5 0.785885 0.814008 0.259441
O O6 0.680045 0.796823 0.260466
O O7 0.726350 0.924805 0.259994
O O8 0.727766 0.846737 0.000000
O O9 0.894809 0.798447 0.738133
O O10 0.821412 0.691203 0.753589
O O11 0.837657 0.772167 0.000000
O O12 0.682729 0.498090 0.739010
O O13 0.776159 0.564088 0.751896
O O14 0.744270 0.491475 0.000000
O O15 0.662200 0.711879 0.500000
O O16 0.714844 0.674007 0.766534
O O17 0.911630 0.929020 0.746999
O O18 0.880194 0.998990 0.000000
O O19 0.062378 0.145098 0.000000
O O20 0.230516 0.355803 0.500000
#
# Coordination Sequence:
#
# PCOD9424798 Si02
#       8
#     8   8   8   8   8   8   8   8
#     4  10  18  28  47  69  93 125 160 193 226 268
#     4   9  17  29  48  69  90 116 152 194 233 275
#     4   9  16  29  47  66  90 119 153 193 231 267
#     4  10  17  28  48  72  94 120 152 188 232 278
#     4  10  20  32  44  62  92 126 159 193 228 268
#     4   9  15  25  42  68  97 123 154 188 222 264
#     4   9  16  27  45  71  95 120 157 197 230 264
#     4  10  20  31  44  64  92 123 156 191 229 274
#
# _framework density 16.708752
#
# number of rings (size 3 to 8) (size 9 to 14) (size 15 to 20)
#    0.000    2.500    2.500    1.125    0.000    3.000 
#    0.000    0.625    0.000    3.000    0.000    0.875 
#    0.000    7.000    0.000    0.000    0.000    0.000 
#
# Total GULP energy -356858.706734 kJ/mol
# GULP energy per Si atom -5575.917293 kJ/mol
# Density = 1.667072 g / cm^3
# Si number density = 16.708752 Si / 1000 Ang^3
#
#
#
# Elastic Constant Matrix: (Units=GPa)
#
#
# Indices 1 2 3 4 5 6 
#
# 1 100.2385 72.1372 1.1934 0.0000 0.0000 0.0000
# 2 72.1372 138.2923 -2.8588 0.0000 0.0000 0.0000
# 3 1.1934 -2.8588 5.9090 0.0000 0.0000 0.0000
# 4 0.0000 0.0000 0.0000 -6.9942 0.0000 0.0000
# 5 0.0000 0.0000 0.0000 0.0000 3.6151 0.0000
# 6 0.0000 0.0000 0.0000 0.0000 0.0000 17.1614
#
#
#
# Elastic Compliance Matrix: (Units=1/GPa)
#
#
# Indices 1 2 3 4 5 6 
#
# 1 0.016293 -0.008653 -0.007477 0.000000 0.000000 0.000000
# 2 -0.008653 0.011900 0.007505 0.000000 0.000000 0.000000
# 3 -0.007477 0.007505 0.174376 0.000000 0.000000 0.000000
# 4 0.000000 0.000000 0.000000 -0.142977 0.000000 0.000000
# 5 0.000000 0.000000 0.000000 0.000000 0.276620 0.000000
# 6 0.000000 0.000000 0.000000 0.000000 0.000000 0.058270
#
#
# Mechanical properties :
#
#
# Convention : Reuss Voigt Hill
#
# Bulk Modulus (GPa) = 5.39614 42.82036 24.10825
# Shear Modulus (GPa) = 10.55955 14.35432 12.45694
#
# Velocity S-wave (km/s) = 2.51664 2.93420 2.73341
# Velocity P-wave (km/s) = 3.41778 6.09611 4.94185
#
# Compressibility (1/GPa) = 0.18531766
#
# Stress axis : x y z
#
# Youngs Moduli (GPa) = 61.37760 84.03369 5.73475
#
# Poissons Ratio (x) = 0.72716 0.04288
# Poissons Ratio (y) = 0.53112 -0.04304
# Poissons Ratio (z) = 0.45892 -0.63066
#
# Static dielectric constant tensor:
#      x y z
#    x 1.554570 0.000000 0.000000 
#    y 0.000000 1.566640 0.000000 
#    z 0.000000 0.000000 1.592970 
# 
# From -- ./inp_files/8081.got.cif
#   From: 2010.05.17/outbox.cif.g08.bks.cpg/sg55_5_cif.got.tgz:8081.got - 2010.06.03 13:27:54.
