data_PCOD9424301
_publ_section_title
;
Structure prediction by ZEFSAII (Michael W. Deem and Ramdas Pophale) SiO2 
 PCOD9424301
Probable space group: P C C A
;
_chemical_formula_sum "Si O2"
_cell_formula_units_Z 36
_cell_length_a 12.246811
_cell_length_b 5.056176
_cell_length_c 23.366074
_cell_angle_alpha 90.000000
_cell_angle_beta 90.000000
_cell_angle_gamma 90.000000
_cell_volume 1446.874779
_symmetry_space_group_name_H-M "P C C A"
_symmetry_group_IT_number 54
_symmetry_cell_setting 'orthorhombic'
loop_
_space_group_symop_operation_xyz
x,y,z
1/2-x,-y,z
1/2+x,-y,1/2-z
-x,y,1/2-z
-x,-y,-z
1/2+x,y,-z
1/2-x,y,1/2+z
x,-y,1/2+z
loop_
_atom_site_type_symbol
_atom_site_label
_atom_site_fract_x
_atom_site_fract_y
_atom_site_fract_z
Si Si1 0.017885 0.926120 0.810275
Si Si2 0.850949 0.329018 0.534564
Si Si3 0.824363 0.735208 0.338069
Si Si4 0.937655 0.368272 0.422640
Si Si5 0.250000 0.000000 0.861976
O O1 0.147101 0.935922 0.821931
O O2 0.000000 0.785410 0.750000
O O3 0.968879 0.794179 0.866871
O O4 0.937987 0.184495 0.807161
O O5 0.750000 0.500000 0.514606
O O6 0.890206 0.195642 0.475302
O O7 0.807859 0.190948 0.591610
O O8 0.950696 0.507810 0.554601
O O9 0.750000 0.500000 0.311084
O O10 0.862571 0.605655 0.398413
O O11 0.750000 0.000000 0.342429
#
# Coordination Sequence:
#
# PCOD9424301 Si02
#       5
#     8   8   8   8   4
#     4  12  29  51  81 124 163 223 277 342 419 502
#     4  11  24  44  76 115 159 214 266 353 416 497
#     4  12  26  49  78 116 165 212 277 337 405 495
#     4  11  25  48  75 119 162 211 279 334 423 492
#     4  12  26  50  78 116 166 208 282 348 420 496
#
# _framework density 24.881215000000001
#
# number of rings (size 3 to 8) (size 9 to 14) (size 15 to 20)
#    0.000    0.444    6.667    0.667    1.556    5.333 
#    0.000    3.333    0.000    0.000    0.000    0.000 
#    0.000    0.000    0.000    0.000    0.000    0.000 
#
# Total GULP energy -200908.835061 kJ/mol
# GULP energy per Si atom -5580.800974 kJ/mol
# Density = 2.482458 g / cm^3
# Si number density = 24.881215 Si / 1000 Ang^3
#
#
#
# Elastic Constant Matrix: (Units=GPa)
#
#
# Indices 1 2 3 4 5 6 
#
# 1 197.7605 53.5902 82.1836 0.0000 0.0000 0.0000
# 2 53.5902 77.0099 26.4507 0.0000 0.0000 0.0000
# 3 82.1836 26.4507 174.3419 0.0000 0.0000 0.0000
# 4 0.0000 0.0000 0.0000 22.6764 0.0000 0.0000
# 5 0.0000 0.0000 0.0000 0.0000 59.2926 0.0000
# 6 0.0000 0.0000 0.0000 0.0000 0.0000 35.0494
#
#
#
# Elastic Compliance Matrix: (Units=1/GPa)
#
#
# Indices 1 2 3 4 5 6 
#
# 1 0.007361 -0.004147 -0.002841 0.000000 0.000000 0.000000
# 2 -0.004147 0.016035 -0.000478 0.000000 0.000000 0.000000
# 3 -0.002841 -0.000478 0.007147 0.000000 0.000000 0.000000
# 4 0.000000 0.000000 0.000000 0.044099 0.000000 0.000000
# 5 0.000000 0.000000 0.000000 0.000000 0.016866 0.000000
# 6 0.000000 0.000000 0.000000 0.000000 0.000000 0.028531
#
#
# Mechanical properties :
#
#
# Convention : Reuss Voigt Hill
#
# Bulk Modulus (GPa) = 64.05109 85.95125 75.00117
# Shear Modulus (GPa) = 35.67000 42.52954 39.09977
#
# Velocity S-wave (km/s) = 3.79041 4.13886 3.96846
# Velocity P-wave (km/s) = 6.70485 7.58023 7.15593
#
# Compressibility (1/GPa) = 0.01561254
#
# Stress axis : x y z
#
# Youngs Moduli (GPa) = 135.85461 62.36311 139.90918
#
# Poissons Ratio (x) = 0.25859 0.39744
# Poissons Ratio (y) = 0.56333 0.06689
# Poissons Ratio (z) = 0.38593 0.02982
#
# Static dielectric constant tensor:
#      x y z
#    x 2.034320 0.000000 0.000000 
#    y 0.000000 2.110390 0.000000 
#    z 0.000000 0.000000 1.992110 
# 
# From -- ./inp_files/23852.got.cif
#   From: 2010.05.17/outbox.cif.g08.bks.cpg/sg54_12_cif.got.tgz:23852.got - 2010.06.03 13:09:01.
