data_PCOD9424186
_publ_section_title
;
Structure prediction by ZEFSAII (Michael W. Deem and Ramdas Pophale) SiO2 
 PCOD9424186
Probable space group: P C C A
;
_chemical_formula_sum "Si O2"
_cell_formula_units_Z 32
_cell_length_a 9.919603
_cell_length_b 6.431512
_cell_length_c 22.998740
_cell_angle_alpha 90.000000
_cell_angle_beta 90.000000
_cell_angle_gamma 90.000000
_cell_volume 1467.274666
_symmetry_space_group_name_H-M "P C C A"
_symmetry_group_IT_number 54
_symmetry_cell_setting 'orthorhombic'
loop_
_space_group_symop_operation_xyz
x,y,z
1/2-x,-y,z
1/2+x,-y,1/2-z
-x,y,1/2-z
-x,-y,-z
1/2+x,y,-z
1/2-x,y,1/2+z
x,-y,1/2+z
loop_
_atom_site_type_symbol
_atom_site_label
_atom_site_fract_x
_atom_site_fract_y
_atom_site_fract_z
Si Si1 0.362036 0.177320 0.393005
Si Si2 0.250000 0.500000 0.672750
Si Si3 0.832121 0.196750 0.923350
Si Si4 0.750000 0.500000 0.518448
Si Si5 0.145304 0.182836 0.758594
O O1 0.521278 0.128591 0.399943
O O2 0.335857 0.356823 0.439111
O O3 0.336835 0.240684 0.326060
O O4 0.250000 0.000000 0.404612
O O5 0.241841 0.691077 0.626944
O O6 0.149693 0.388297 0.718319
O O7 0.750000 0.000000 0.944717
O O8 0.840637 0.358935 0.976036
O O9 0.000000 0.083425 0.750000
O O10 0.250000 0.000000 0.743184
#
# Coordination Sequence:
#
# PCOD9424186 Si02
#       5
#     8   4   8   4   8
#     4  11  25  45  69 102 139 178 229 285 341 403
#     4  11  23  42  68 100 137 179 228 266 342 413
#     4  11  25  46  71  99 137 183 229 287 343 401
#     4  11  25  44  70 102 135 179 236 280 342 407
#     4  11  24  45  70 103 138 179 222 281 341 406
#
# _framework density 21.809144
#
# number of rings (size 3 to 8) (size 9 to 14) (size 15 to 20)
#    0.000    1.000    2.500    3.000    0.000    9.000 
#    9.000    0.000    0.000    0.000    0.000    0.000 
#    0.000    0.000    0.000    0.000    0.000    0.000 
#
# Total GULP energy -178325.952900 kJ/mol
# GULP energy per Si atom -5572.686028 kJ/mol
# Density = 2.175950 g / cm^3
# Si number density = 21.809144 Si / 1000 Ang^3
#
#
#
# Elastic Constant Matrix: (Units=GPa)
#
#
# Indices 1 2 3 4 5 6 
#
# 1 111.4692 56.9675 12.0329 0.0000 0.0000 0.0000
# 2 56.9675 89.5449 54.4082 0.0000 0.0000 0.0000
# 3 12.0329 54.4082 136.9836 0.0000 0.0000 0.0000
# 4 0.0000 0.0000 0.0000 105.0803 0.0000 0.0000
# 5 0.0000 0.0000 0.0000 0.0000 -21.0149 0.0000
# 6 0.0000 0.0000 0.0000 0.0000 0.0000 19.1693
#
#
#
# Elastic Compliance Matrix: (Units=1/GPa)
#
#
# Indices 1 2 3 4 5 6 
#
# 1 0.014221 -0.010924 0.003090 0.000000 0.000000 0.000000
# 2 -0.010924 0.023112 -0.008220 0.000000 0.000000 0.000000
# 3 0.003090 -0.008220 0.010294 0.000000 0.000000 0.000000
# 4 0.000000 0.000000 0.000000 0.009517 0.000000 0.000000
# 5 0.000000 0.000000 0.000000 0.000000 -0.047585 0.000000
# 6 0.000000 0.000000 0.000000 0.000000 0.000000 0.052167
#
#
# Mechanical properties :
#
#
# Convention : Reuss Voigt Hill
#
# Bulk Modulus (GPa) = 64.44571 64.97942 64.71257
# Shear Modulus (GPa) = 50.50163 34.95287 42.72725
#
# Velocity S-wave (km/s) = 4.81731 4.00768 4.43102
# Velocity P-wave (km/s) = 7.78177 7.16063 7.47765
#
# Compressibility (1/GPa) = 0.01551694
#
# Stress axis : x y z
#
# Youngs Moduli (GPa) = 70.32059 43.26695 97.14647
#
# Poissons Ratio (x) = 0.47267 -0.30017
# Poissons Ratio (y) = 0.76821 0.79857
# Poissons Ratio (z) = -0.21728 0.35567
#
# Static dielectric constant tensor:
#      x y z
#    x 1.791790 0.000000 0.000000 
#    y 0.000000 1.791250 0.000000 
#    z 0.000000 0.000000 1.816640 
# 
# From -- ./inp_files/23790.got.cif
#   From: 2010.05.17/outbox.cif.g08.bks.cpg/sg54_12_cif.got.tgz:23790.got - 2010.06.03 13:09:01.
