data_PCOD9424832
_publ_section_title
;
Structure prediction by ZEFSAII (Michael W. Deem and Ramdas Pophale) SiO2 
 PCOD9424832
Probable space group: P B A M
;
_chemical_formula_sum "Si O2"
_cell_formula_units_Z 64
_cell_length_a 17.910307
_cell_length_b 12.182633
_cell_length_c 14.951313
_cell_angle_alpha 90.000000
_cell_angle_beta 90.000000
_cell_angle_gamma 90.000000
_cell_volume 3262.297211
_symmetry_space_group_name_H-M "P B A M"
_symmetry_group_IT_number 55
_symmetry_cell_setting 'orthorhombic'
loop_
_space_group_symop_operation_xyz
x,y,z
-x,-y,z
1/2+x,1/2-y,-z
1/2-x,1/2+y,-z
-x,-y,-z
x,y,-z
1/2-x,1/2+y,z
1/2+x,1/2-y,z
loop_
_atom_site_type_symbol
_atom_site_label
_atom_site_fract_x
_atom_site_fract_y
_atom_site_fract_z
Si Si1 0.984735 0.369477 0.405300
Si Si2 0.956286 0.111598 0.904183
Si Si3 0.530382 0.158871 0.894787
Si Si4 0.394902 0.126283 0.234522
Si Si5 0.860376 0.760806 0.599479
Si Si6 0.668886 0.108928 0.235342
Si Si7 0.665958 0.643808 0.239230
Si Si8 0.911163 0.010892 0.393835
O O1 0.944485 0.351991 0.500000
O O2 0.942873 0.332739 0.318053
O O3 0.000000 0.500000 0.397576
O O4 0.060310 0.301091 0.407478
O O5 0.897818 0.103333 0.826605
O O6 0.012614 0.211781 0.889799
O O7 0.918473 0.133841 0.000000
O O8 0.000000 0.000000 0.908338
O O9 0.455242 0.110381 0.846050
O O10 0.605836 0.140013 0.837945
O O11 0.536100 0.127526 0.000000
O O12 0.336368 0.224280 0.223444
O O13 0.358347 0.012153 0.262882
O O14 0.824459 0.749673 0.500000
O O15 0.825576 0.695843 0.682809
O O16 0.875296 0.889199 0.616887
O O17 0.754420 0.100010 0.207027
O O18 0.637535 0.596242 0.334955
O O19 0.909565 0.038763 0.500000
O O20 0.000000 0.000000 0.368903
#
# Coordination Sequence:
#
# PCOD9424832 Si02
#       8
#     8   8   8   8   8   8   8   8
#     4  10  17  31  58  90 116 146 196 254 294 336
#     4   9  20  40  66  93 120 158 207 250 297 359
#     4  10  22  41  65  92 122 159 205 254 304 365
#     4  11  22  41  59  89 120 158 210 251 296 368
#     4  10  21  37  60  88 122 157 200 253 299 355
#     4  12  25  38  60  91 125 161 205 246 313 372
#     4  11  26  38  61  90 127 163 194 256 312 357
#     4  10  22  41  65  91 120 164 214 251 298 362
#
# _framework density 19.618077
#
# number of rings (size 3 to 8) (size 9 to 14) (size 15 to 20)
#    0.000    1.625    2.500    1.500    5.250    3.500 
#    0.000    0.000    0.000    0.000    0.000    0.000 
#    0.000    0.000    0.000    0.000    0.000    0.000 
#
# Total GULP energy -356650.693998 kJ/mol
# GULP energy per Si atom -5572.667094 kJ/mol
# Density = 1.957343 g / cm^3
# Si number density = 19.618077 Si / 1000 Ang^3
#
#
#
# Elastic Constant Matrix: (Units=GPa)
#
#
# Indices 1 2 3 4 5 6 
#
# 1 53.4773 19.5677 20.5402 0.0000 0.0000 0.0000
# 2 19.5677 75.5068 22.7179 0.0000 0.0000 0.0000
# 3 20.5402 22.7179 78.4025 0.0000 0.0000 0.0000
# 4 0.0000 0.0000 0.0000 90.3979 0.0000 0.0000
# 5 0.0000 0.0000 0.0000 0.0000 -4.6745 0.0000
# 6 0.0000 0.0000 0.0000 0.0000 0.0000 2.5417
#
#
#
# Elastic Compliance Matrix: (Units=1/GPa)
#
#
# Indices 1 2 3 4 5 6 
#
# 1 0.022023 -0.004351 -0.004509 0.000000 0.000000 0.000000
# 2 -0.004351 0.015368 -0.003313 0.000000 0.000000 0.000000
# 3 -0.004509 -0.003313 0.014896 0.000000 0.000000 0.000000
# 4 0.000000 0.000000 0.000000 0.011062 0.000000 0.000000
# 5 0.000000 0.000000 0.000000 0.000000 -0.213925 0.000000
# 6 0.000000 0.000000 0.000000 0.000000 0.000000 0.393431
#
#
# Mechanical properties :
#
#
# Convention : Reuss Voigt Hill
#
# Bulk Modulus (GPa) = 35.78910 37.00422 36.39666
# Shear Modulus (GPa) = 18.08216 27.29042 22.68629
#
# Velocity S-wave (km/s) = 3.03926 3.73377 3.40427
# Velocity P-wave (km/s) = 5.53161 6.12302 5.83481
#
# Compressibility (1/GPa) = 0.02794147
#
# Stress axis : x y z
#
# Youngs Moduli (GPa) = 45.40626 65.06948 67.13181
#
# Poissons Ratio (x) = 0.28310 0.30271
# Poissons Ratio (y) = 0.19755 0.22243
# Poissons Ratio (z) = 0.20474 0.21559
#
# Static dielectric constant tensor:
#      x y z
#    x 1.669290 0.000000 0.000000 
#    y 0.000000 1.746770 0.000000 
#    z 0.000000 0.000000 1.774380 
# 
# From -- ./inp_files/19539.got.cif
#   From: 2010.05.17/outbox.cif.g08.bks.cpg/sg55_10_cif.got.tgz:19539.got - 2010.06.03 13:27:54.
