data_PCOD9424973
_publ_section_title
;
Structure prediction by ZEFSAII (Michael W. Deem and Ramdas Pophale) SiO2 
 PCOD9424973
Probable space group: P B A M
;
_chemical_formula_sum "Si O2"
_cell_formula_units_Z 56
_cell_length_a 18.927672
_cell_length_b 21.417860
_cell_length_c 8.685961
_cell_angle_alpha 90.000000
_cell_angle_beta 90.000000
_cell_angle_gamma 90.000000
_cell_volume 3521.203719
_symmetry_space_group_name_H-M "P B A M"
_symmetry_group_IT_number 55
_symmetry_cell_setting 'orthorhombic'
loop_
_space_group_symop_operation_xyz
x,y,z
-x,-y,z
1/2+x,1/2-y,-z
1/2-x,1/2+y,-z
-x,-y,-z
x,y,-z
1/2-x,1/2+y,z
1/2+x,1/2-y,z
loop_
_atom_site_type_symbol
_atom_site_label
_atom_site_fract_x
_atom_site_fract_y
_atom_site_fract_z
Si Si1 0.218482 0.687760 0.677102
Si Si2 0.430748 0.753943 0.686076
Si Si3 0.853983 0.867884 0.817301
Si Si4 0.702520 0.177563 0.323174
Si Si5 0.417428 0.505819 0.314678
Si Si6 0.414159 0.250365 0.816477
Si Si7 0.343785 0.375521 0.687295
O O1 0.208053 0.669076 0.500000
O O2 0.273649 0.642588 0.760469
O O3 0.257893 0.755245 0.675666
O O4 0.144438 0.700885 0.759269
O O5 0.430417 0.754288 0.500000
O O6 0.401114 0.686907 0.740962
O O7 0.374156 0.806039 0.743496
O O8 0.508934 0.763516 0.748583
O O9 0.883259 0.934396 0.764678
O O10 0.857503 0.860939 0.000000
O O11 0.690919 0.157859 0.500000
O O12 0.762490 0.132152 0.256795
O O13 0.500000 0.500000 0.274717
O O14 0.412639 0.513770 0.500000
O O15 0.377802 0.441665 0.273650
O O16 0.388667 0.318054 0.754245
O O17 0.416233 0.251821 0.000000
O O18 0.343962 0.369054 0.500000
#
# Coordination Sequence:
#
# PCOD9424973 Si02
#       7
#     8   8   8   8   8   8   8
#     4   9  17  32  50  66  89 123 159 189 227 283
#     4  10  18  30  47  66  92 125 158 190 233 286
#     4  11  21  32  47  69  97 125 157 199 241 277
#     4   7  13  26  45  65  83 111 152 193 224 261
#     4  10  20  32  47  67  93 129 167 195 225 276
#     4  11  20  29  45  72 100 121 149 193 242 281
#     4   9  17  31  48  65  90 126 164 194 225 274
#
# _framework density 15.903653
#
# number of rings (size 3 to 8) (size 9 to 14) (size 15 to 20)
#    0.000    2.429    0.000    6.000    0.000    2.000 
#    0.000    0.714    0.000    0.000    0.000    1.000 
#    0.000    8.000    0.000    0.000    0.000    0.000 
#
# Total GULP energy -312083.342971 kJ/mol
# GULP energy per Si atom -5572.916839 kJ/mol
# Density = 1.586746 g / cm^3
# Si number density = 15.903653 Si / 1000 Ang^3
#
#
#
# Elastic Constant Matrix: (Units=GPa)
#
#
# Indices 1 2 3 4 5 6 
#
# 1 167.6182 61.6040 51.6340 0.0000 0.0000 0.0000
# 2 61.6040 64.6717 31.2423 0.0000 0.0000 0.0000
# 3 51.6340 31.2423 70.9111 0.0000 0.0000 0.0000
# 4 0.0000 0.0000 0.0000 9.7466 0.0000 0.0000
# 5 0.0000 0.0000 0.0000 0.0000 15.7552 0.0000
# 6 0.0000 0.0000 0.0000 0.0000 0.0000 26.3700
#
#
#
# Elastic Compliance Matrix: (Units=1/GPa)
#
#
# Indices 1 2 3 4 5 6 
#
# 1 0.009964 -0.007605 -0.003904 0.000000 0.000000 0.000000
# 2 -0.007605 0.025448 -0.005675 0.000000 0.000000 0.000000
# 3 -0.003904 -0.005675 0.019445 0.000000 0.000000 0.000000
# 4 0.000000 0.000000 0.000000 0.102600 0.000000 0.000000
# 5 0.000000 0.000000 0.000000 0.000000 0.063471 0.000000
# 6 0.000000 0.000000 0.000000 0.000000 0.000000 0.037922
#
#
# Mechanical properties :
#
#
# Convention : Reuss Voigt Hill
#
# Bulk Modulus (GPa) = 48.80582 65.79574 57.30078
# Shear Modulus (GPa) = 16.66404 20.95575 18.80990
#
# Velocity S-wave (km/s) = 3.24050 3.63391 3.44283
# Velocity P-wave (km/s) = 6.69001 7.68559 7.20502
#
# Compressibility (1/GPa) = 0.02048936
#
# Stress axis : x y z
#
# Youngs Moduli (GPa) = 100.36472 39.29562 51.42620
#
# Poissons Ratio (x) = 0.29884 0.20079
# Poissons Ratio (y) = 0.76325 0.29182
# Poissons Ratio (z) = 0.39187 0.22299
#
# Static dielectric constant tensor:
#      x y z
#    x 1.555610 0.000000 0.000000 
#    y 0.000000 1.506600 0.000000 
#    z 0.000000 0.000000 1.531720 
# 
# From -- ./inp_files/7844.got.cif
#   From: 2010.05.17/outbox.cif.g08.bks.cpg/sg55_4_cif.got.tgz:7844.got - 2010.06.03 13:27:54.
