data_PCOD9424279
_publ_section_title
;
Structure prediction by ZEFSAII (Michael W. Deem and Ramdas Pophale) SiO2 
 PCOD9424279
Probable space group: P C C A
;
_chemical_formula_sum "Si O2"
_cell_formula_units_Z 32
_cell_length_a 5.366149
_cell_length_b 15.463633
_cell_length_c 17.228331
_cell_angle_alpha 90.000000
_cell_angle_beta 90.000000
_cell_angle_gamma 90.000000
_cell_volume 1429.609642
_symmetry_space_group_name_H-M "P C C A"
_symmetry_group_IT_number 54
_symmetry_cell_setting 'orthorhombic'
loop_
_space_group_symop_operation_xyz
x,y,z
1/2-x,-y,z
1/2+x,-y,1/2-z
-x,y,1/2-z
-x,-y,-z
1/2+x,y,-z
1/2-x,y,1/2+z
x,-y,1/2+z
loop_
_atom_site_type_symbol
_atom_site_label
_atom_site_fract_x
_atom_site_fract_y
_atom_site_fract_z
Si Si1 0.750000 0.500000 0.830941
Si Si2 0.386651 0.246099 0.836428
Si Si3 0.503530 0.951608 0.155487
Si Si4 0.000000 0.656294 0.250000
Si Si5 0.483291 0.602047 0.449503
O O1 0.802983 0.414059 0.782075
O O2 0.976432 0.525285 0.887316
O O3 0.500000 0.253570 0.750000
O O4 0.449179 0.149049 0.862361
O O5 0.491302 0.310682 0.899782
O O6 0.106796 0.281348 0.817439
O O7 0.500000 0.956445 0.250000
O O8 0.250000 0.000000 0.129420
O O9 0.750000 0.000000 0.127333
O O10 0.225928 0.599583 0.495775
#
# Coordination Sequence:
#
# PCOD9424279 Si02
#       5
#     4   8   8   4   8
#     4  12  24  44  66  98 136 188 234 296 342 406
#     4  11  24  43  70  99 135 181 227 288 344 414
#     4   9  20  35  63  99 133 166 210 277 342 405
#     4  12  24  42  70 104 140 178 248 298 350 402
#     4  12  27  46  67  98 139 185 233 285 347 412
#
# _framework density 22.383731999999998
#
# number of rings (size 3 to 8) (size 9 to 14) (size 15 to 20)
#    0.000    1.000    2.500    3.750    8.750    2.000 
#    0.000    0.000    0.000    4.500    0.000    0.000 
#    0.000    0.000    0.000    0.000    0.000    0.000 
#
# Total GULP energy -178735.937592 kJ/mol
# GULP energy per Si atom -5585.498050 kJ/mol
# Density = 2.233279 g / cm^3
# Si number density = 22.383732 Si / 1000 Ang^3
#
#
#
# Elastic Constant Matrix: (Units=GPa)
#
#
# Indices 1 2 3 4 5 6 
#
# 1 149.1492 70.3099 35.1906 0.0000 0.0000 0.0000
# 2 70.3099 204.7856 38.5427 0.0000 0.0000 0.0000
# 3 35.1906 38.5427 50.5366 0.0000 0.0000 0.0000
# 4 0.0000 0.0000 0.0000 20.9354 0.0000 0.0000
# 5 0.0000 0.0000 0.0000 0.0000 22.6405 0.0000
# 6 0.0000 0.0000 0.0000 0.0000 0.0000 30.5594
#
#
#
# Elastic Compliance Matrix: (Units=1/GPa)
#
#
# Indices 1 2 3 4 5 6 
#
# 1 0.008782 -0.002177 -0.004455 0.000000 0.000000 0.000000
# 2 -0.002177 0.006241 -0.003244 0.000000 0.000000 0.000000
# 3 -0.004455 -0.003244 0.025364 0.000000 0.000000 0.000000
# 4 0.000000 0.000000 0.000000 0.047766 0.000000 0.000000
# 5 0.000000 0.000000 0.000000 0.000000 0.044169 0.000000
# 6 0.000000 0.000000 0.000000 0.000000 0.000000 0.032723
#
#
# Mechanical properties :
#
#
# Convention : Reuss Voigt Hill
#
# Bulk Modulus (GPa) = 48.46083 76.95087 62.70585
# Shear Modulus (GPa) = 26.08577 32.18893 29.13735
#
# Velocity S-wave (km/s) = 3.41748 3.79628 3.61185
# Velocity P-wave (km/s) = 6.10486 7.32586 6.74305
#
# Compressibility (1/GPa) = 0.02063522
#
# Stress axis : x y z
#
# Youngs Moduli (GPa) = 113.87008 160.22924 39.42569
#
# Poissons Ratio (x) = 0.34876 0.17565
# Poissons Ratio (y) = 0.24785 0.12790
# Poissons Ratio (z) = 0.50731 0.51981
#
# Static dielectric constant tensor:
#      x y z
#    x 1.962080 0.000000 0.000000 
#    y 0.000000 1.815580 0.000000 
#    z 0.000000 0.000000 1.834750 
# 
# From -- ./inp_files/15683.got.cif
#   From: 2010.05.17/outbox.cif.g08.bks.cpg/sg54_8_cif.got.tgz:15683.got - 2010.06.03 13:09:01.
