data_PCOD9424745
_publ_section_title
;
Structure prediction by ZEFSAII (Michael W. Deem and Ramdas Pophale) SiO2 
 PCOD9424745
Probable space group: P B A M
;
_chemical_formula_sum "Si O2"
_cell_formula_units_Z 32
_cell_length_a 8.792137
_cell_length_b 16.481845
_cell_length_c 10.292135
_cell_angle_alpha 90.000000
_cell_angle_beta 90.000000
_cell_angle_gamma 90.000000
_cell_volume 1491.439862
_symmetry_space_group_name_H-M "P B A M"
_symmetry_group_IT_number 55
_symmetry_cell_setting 'orthorhombic'
loop_
_space_group_symop_operation_xyz
x,y,z
-x,-y,z
1/2+x,1/2-y,-z
1/2-x,1/2+y,-z
-x,-y,-z
x,y,-z
1/2-x,1/2+y,z
1/2+x,1/2-y,z
loop_
_atom_site_type_symbol
_atom_site_label
_atom_site_fract_x
_atom_site_fract_y
_atom_site_fract_z
Si Si1 0.375431 0.559532 0.232794
Si Si2 0.635780 0.162808 0.000000
Si Si3 0.728972 0.841462 0.000000
Si Si4 0.101163 0.084797 0.500000
Si Si5 0.465856 0.096476 0.500000
Si Si6 0.126572 0.434900 0.252462
O O1 0.500000 0.500000 0.172207
O O2 0.289296 0.610976 0.126144
O O3 0.438946 0.612816 0.352809
O O4 0.259952 0.494581 0.299771
O O5 0.702153 0.252111 0.000000
O O6 0.682847 0.115777 0.130293
O O7 0.452533 0.163260 0.000000
O O8 0.284861 0.106670 0.500000
O O9 0.000000 0.000000 0.500000
O O10 0.551229 0.119646 0.633966
O O11 0.500000 0.000000 0.500000
O O12 0.000000 0.500000 0.205988
#
# Coordination Sequence:
#
# PCOD9424745 Si02
#       6
#     8   4   4   4   4   8
#     4  11  22  37  63  89 117 145 194 241 289 338
#     4  12  26  39  58  81 121 154 197 233 289 340
#     4  12  26  42  54  85 119 159 191 239 283 342
#     4  10  18  32  57  92 116 141 178 248 294 332
#     4  10  16  32  59  90 112 137 194 236 286 343
#     4  11  19  38  64  86 108 151 193 238 283 345
#
# _framework density 21.455777000000001
#
# number of rings (size 3 to 8) (size 9 to 14) (size 15 to 20)
#    0.000    1.000    7.500    1.500    3.500    0.000 
#    0.000    1.250    0.000    0.000    0.000    0.000 
#    0.000    0.000    0.000    0.000    0.000    0.000 
#
# Total GULP energy -178135.936299 kJ/mol
# GULP energy per Si atom -5566.748009 kJ/mol
# Density = 2.140694 g / cm^3
# Si number density = 21.455777 Si / 1000 Ang^3
#
#
#
# Elastic Constant Matrix: (Units=GPa)
#
#
# Indices 1 2 3 4 5 6 
#
# 1 31.1709 12.2904 -12.3229 0.0000 0.0000 0.0000
# 2 12.2904 41.4251 26.1031 0.0000 0.0000 0.0000
# 3 -12.3229 26.1031 142.6757 0.0000 0.0000 0.0000
# 4 0.0000 0.0000 0.0000 -16.1537 0.0000 0.0000
# 5 0.0000 0.0000 0.0000 0.0000 12.6550 0.0000
# 6 0.0000 0.0000 0.0000 0.0000 0.0000 25.5948
#
#
#
# Elastic Compliance Matrix: (Units=1/GPa)
#
#
# Indices 1 2 3 4 5 6 
#
# 1 0.041095 -0.016309 0.006533 0.000000 0.000000 0.000000
# 2 -0.016309 0.033758 -0.007585 0.000000 0.000000 0.000000
# 3 0.006533 -0.007585 0.008961 0.000000 0.000000 0.000000
# 4 0.000000 0.000000 0.000000 -0.061905 0.000000 0.000000
# 5 0.000000 0.000000 0.000000 0.000000 0.079020 0.000000
# 6 0.000000 0.000000 0.000000 0.000000 0.000000 0.039071
#
#
# Mechanical properties :
#
#
# Convention : Reuss Voigt Hill
#
# Bulk Modulus (GPa) = 20.36989 29.71254 25.04122
# Shear Modulus (GPa) = 26.16647 17.03261 21.59954
#
# Velocity S-wave (km/s) = 3.49600 2.82059 3.17630
# Velocity P-wave (km/s) = 5.08041 4.94833 5.01480
#
# Compressibility (1/GPa) = 0.04909206
#
# Stress axis : x y z
#
# Youngs Moduli (GPa) = 24.33414 29.62254 111.59663
#
# Poissons Ratio (x) = 0.48312 -0.72908
# Poissons Ratio (y) = 0.39687 0.84644
# Poissons Ratio (z) = -0.15898 0.22468
#
# Static dielectric constant tensor:
#      x y z
#    x 1.879140 0.000000 0.000000 
#    y 0.000000 1.771840 0.000000 
#    z 0.000000 0.000000 1.870490 
# 
# From -- ./inp_files/11839.got.cif
#   From: 2010.05.17/outbox.cif.g08.bks.cpg/sg55_6_cif.got.tgz:11839.got - 2010.06.03 13:27:54.
