data_PCOD9424615
_publ_section_title
;
Structure prediction by ZEFSAII (Michael W. Deem and Ramdas Pophale) SiO2 
 PCOD9424615
Probable space group: P C C A
;
_chemical_formula_sum "Si O2"
_cell_formula_units_Z 40
_cell_length_a 18.000000
_cell_length_b 12.000000
_cell_length_c 9.000000
_cell_angle_alpha 90.000000
_cell_angle_beta 90.000000
_cell_angle_gamma 90.000000
_cell_volume 1944.000000
_symmetry_space_group_name_H-M "P C C A"
_symmetry_group_IT_number 54
_symmetry_cell_setting 'orthorhombic'
loop_
_space_group_symop_operation_xyz
x,y,z
1/2-x,-y,z
1/2+x,-y,1/2-z
-x,y,1/2-z
-x,-y,-z
1/2+x,y,-z
1/2-x,y,1/2+z
x,-y,1/2+z
loop_
_atom_site_type_symbol
_atom_site_label
_atom_site_fract_x
_atom_site_fract_y
_atom_site_fract_z
Si Si1 0.657194 0.672436 0.748739
Si Si2 0.668426 0.741063 0.207699
Si Si3 0.442017 0.882852 0.112338
Si Si4 0.338205 0.478780 0.954555
Si Si5 0.586458 0.859336 0.935857
O O1 0.742890 0.719615 0.732238
O O2 0.632924 0.599108 0.604167
O O3 0.608812 0.779180 0.799005
O O4 0.651905 0.581362 0.885015
O O5 0.623792 0.797637 0.343719
O O6 0.639202 0.618318 0.161692
O O7 0.643248 0.818791 0.067354
O O8 0.500000 0.891974 0.250000
O O9 0.408758 0.006890 0.087051
O O10 0.499884 0.844852 0.984502
O O11 0.250000 0.500000 0.943679
#
# Coordination Sequence:
#
# PCOD9424615 Si02
#       5
#     8   8   8   8   8
#     4  10  19  34  57  84 112 147 191 237 284 342
#     4   9  18  33  56  81 110 151 195 238 287 353
#     4   9  18  37  58  78 113 154 189 236 297 352
#     4   9  17  32  53  79 112 147 181 230 292 337
#     4   9  19  36  57  82 114 152 192 238 297 350
#
# _framework density 20.576132000000001
#
# number of rings (size 3 to 8) (size 9 to 14) (size 15 to 20)
#    0.000    2.800    0.000    1.800    0.000    0.800 
#    0.000   31.000    0.000   13.200    0.000    0.000 
#    0.000    0.000    0.000    0.000    0.000    0.000 
#
# Total GULP energy -222928.549383 kJ/mol
# GULP energy per Si atom -5573.213735 kJ/mol
# Density = 2.052930 g / cm^3
# Si number density = 20.576132 Si / 1000 Ang^3
#
#
#
# Elastic Constant Matrix: (Units=GPa)
#
#
# Indices 1 2 3 4 5 6 
#
# 1 56.8664 49.6103 29.7789 0.0000 0.0000 0.0000
# 2 49.6103 130.8511 44.7722 0.0000 0.0000 0.0000
# 3 29.7789 44.7722 53.7687 0.0000 0.0000 0.0000
# 4 0.0000 0.0000 0.0000 47.7139 0.0000 0.0000
# 5 0.0000 0.0000 0.0000 0.0000 35.6519 0.0000
# 6 0.0000 0.0000 0.0000 0.0000 0.0000 43.5306
#
#
#
# Elastic Compliance Matrix: (Units=1/GPa)
#
#
# Indices 1 2 3 4 5 6 
#
# 1 0.029592 -0.007847 -0.009854 0.000000 0.000000 0.000000
# 2 -0.007847 0.012768 -0.006286 0.000000 0.000000 0.000000
# 3 -0.009854 -0.006286 0.029290 0.000000 0.000000 0.000000
# 4 0.000000 0.000000 0.000000 0.020958 0.000000 0.000000
# 5 0.000000 0.000000 0.000000 0.000000 0.028049 0.000000
# 6 0.000000 0.000000 0.000000 0.000000 0.000000 0.022972
#
#
# Mechanical properties :
#
#
# Convention : Reuss Voigt Hill
#
# Bulk Modulus (GPa) = 42.23934 54.42323 48.33129
# Shear Modulus (GPa) = 25.06320 33.20095 29.13208
#
# Velocity S-wave (km/s) = 3.49387 4.02128 3.76682
# Velocity P-wave (km/s) = 6.07035 6.93311 6.51602
#
# Compressibility (1/GPa) = 0.02367461
#
# Stress axis : x y z
#
# Youngs Moduli (GPa) = 33.79348 78.31935 34.14153
#
# Poissons Ratio (x) = 0.61460 0.33644
# Poissons Ratio (y) = 0.26519 0.21460
# Poissons Ratio (z) = 0.33301 0.49229
#
# Static dielectric constant tensor:
#      x y z
#    x 1.706800 0.000000 0.000000 
#    y 0.000000 1.735360 0.000000 
#    z 0.000000 0.000000 1.874560 
# 
# From -- ./inp_files/3967.got.cif
#   From: 2010.05.17/outbox.ucp.g08.bks.cvg/sg54_2_cif.got.tgz:3967.got - 2010.06.11 16:34:40.
