data_PCOD9424303
_publ_section_title
;
Structure prediction by ZEFSAII (Michael W. Deem and Ramdas Pophale) SiO2 
 PCOD9424303
Probable space group: P C C A
;
_chemical_formula_sum "Si O2"
_cell_formula_units_Z 32
_cell_length_a 8.562503
_cell_length_b 17.790243
_cell_length_c 9.658494
_cell_angle_alpha 90.000000
_cell_angle_beta 90.000000
_cell_angle_gamma 90.000000
_cell_volume 1471.268820
_symmetry_space_group_name_H-M "P C C A"
_symmetry_group_IT_number 54
_symmetry_cell_setting 'orthorhombic'
loop_
_space_group_symop_operation_xyz
x,y,z
1/2-x,-y,z
1/2+x,-y,1/2-z
-x,y,1/2-z
-x,-y,-z
1/2+x,y,-z
1/2-x,y,1/2+z
x,-y,1/2+z
loop_
_atom_site_type_symbol
_atom_site_label
_atom_site_fract_x
_atom_site_fract_y
_atom_site_fract_z
Si Si1 0.812789 0.582913 0.707772
Si Si2 0.911750 0.779957 0.898477
Si Si3 0.640880 0.321652 0.435097
Si Si4 0.594498 0.047669 0.891134
O O1 0.750000 0.500000 0.674698
O O2 0.807662 0.635575 0.574223
O O3 0.000000 0.581258 0.750000
O O4 0.687911 0.616573 0.818696
O O5 0.894561 0.866311 0.942877
O O6 0.000000 0.775032 0.750000
O O7 0.986877 0.722481 0.010554
O O8 0.740679 0.747906 0.879787
O O9 0.500000 0.052473 0.750000
O O10 0.750000 0.000000 0.865963
O O11 0.500000 0.000000 0.000000
#
# Coordination Sequence:
#
# PCOD9424303 Si02
#       4
#     8   8   8   8
#     4  12  28  46  68 101 137 178 231 290 344 417
#     4  11  24  45  68 101 141 175 228 289 330 417
#     4  12  22  47  68  97 140 175 230 281 344 408
#     4  11  24  45  71 105 143 183 235 287 353 422
#
# _framework density 21.749935000000001
#
# number of rings (size 3 to 8) (size 9 to 14) (size 15 to 20)
#    0.000    0.500    5.000    3.000    3.500    4.000 
#    4.500    0.000    0.000    0.000    0.000    0.000 
#    0.000    0.000    0.000    0.000    0.000    0.000 
#
# Total GULP energy -178357.517711 kJ/mol
# GULP energy per Si atom -5573.672428 kJ/mol
# Density = 2.170043 g / cm^3
# Si number density = 21.749935 Si / 1000 Ang^3
#
#
#
# Elastic Constant Matrix: (Units=GPa)
#
#
# Indices 1 2 3 4 5 6 
#
# 1 67.2219 39.9375 -0.6695 0.0000 0.0000 0.0000
# 2 39.9375 176.6774 28.8427 0.0000 0.0000 0.0000
# 3 -0.6695 28.8427 49.9312 0.0000 0.0000 0.0000
# 4 0.0000 0.0000 0.0000 -27.3829 0.0000 0.0000
# 5 0.0000 0.0000 0.0000 0.0000 18.7656 0.0000
# 6 0.0000 0.0000 0.0000 0.0000 0.0000 10.9429
#
#
#
# Elastic Compliance Matrix: (Units=1/GPa)
#
#
# Indices 1 2 3 4 5 6 
#
# 1 0.017528 -0.004417 0.002787 0.000000 0.000000 0.000000
# 2 -0.004417 0.007362 -0.004312 0.000000 0.000000 0.000000
# 3 0.002787 -0.004312 0.022556 0.000000 0.000000 0.000000
# 4 0.000000 0.000000 0.000000 -0.036519 0.000000 0.000000
# 5 0.000000 0.000000 0.000000 0.000000 0.053289 0.000000
# 6 0.000000 0.000000 0.000000 0.000000 0.000000 0.091384
#
#
# Mechanical properties :
#
#
# Convention : Reuss Voigt Hill
#
# Bulk Modulus (GPa) = 28.12062 47.78354 37.95208
# Shear Modulus (GPa) = 27.88016 15.51309 21.69663
#
# Velocity S-wave (km/s) = 3.58418 2.67357 3.16183
# Velocity P-wave (km/s) = 5.48503 5.61674 5.55128
#
# Compressibility (1/GPa) = 0.03556109
#
# Stress axis : x y z
#
# Youngs Moduli (GPa) = 57.05112 135.82389 44.33437
#
# Poissons Ratio (x) = 0.59995 -0.12354
# Poissons Ratio (y) = 0.25200 0.19118
# Poissons Ratio (z) = -0.15898 0.58569
#
# Static dielectric constant tensor:
#      x y z
#    x 3.148100 0.000000 0.000000 
#    y 0.000000 1.889450 0.000000 
#    z 0.000000 0.000000 1.833820 
# 
# From -- ./inp_files/2463.got.cif
#   From: 2010.05.17/outbox.cif.g08.bks.cpg/sg54_2_cif.got.tgz:2463.got - 2010.06.03 13:09:01.
