data_PCOD9424708
_publ_section_title
;
Structure prediction by ZEFSAII (Michael W. Deem and Ramdas Pophale) SiO2 
 PCOD9424708
Probable space group: P B A M
;
_chemical_formula_sum "Si O2"
_cell_formula_units_Z 44
_cell_length_a 9.494043
_cell_length_b 21.783449
_cell_length_c 7.900805
_cell_angle_alpha 90.000000
_cell_angle_beta 90.000000
_cell_angle_gamma 90.000000
_cell_volume 1633.989196
_symmetry_space_group_name_H-M "P B A M"
_symmetry_group_IT_number 55
_symmetry_cell_setting 'orthorhombic'
loop_
_space_group_symop_operation_xyz
x,y,z
-x,-y,z
1/2+x,1/2-y,-z
1/2-x,1/2+y,-z
-x,-y,-z
x,y,-z
1/2-x,1/2+y,z
1/2+x,1/2-y,z
loop_
_atom_site_type_symbol
_atom_site_label
_atom_site_fract_x
_atom_site_fract_y
_atom_site_fract_z
Si Si1 0.109590 0.942710 0.194404
Si Si2 0.334645 0.235177 0.182982
Si Si3 0.523604 0.130266 0.686992
Si Si4 0.714709 0.683539 0.500000
Si Si5 0.168448 0.533101 0.797683
Si Si6 0.623169 0.355437 0.694550
O O1 0.028354 0.888220 0.287440
O O2 0.246658 0.974587 0.274270
O O3 0.135502 0.923716 0.000000
O O4 0.000000 0.000000 0.188418
O O5 0.448255 0.179878 0.194825
O O6 0.357453 0.274599 0.349808
O O7 0.180578 0.202177 0.200669
O O8 0.344913 0.265885 0.000000
O O9 0.454854 0.134254 0.500000
O O10 0.681973 0.150474 0.647222
O O11 0.482376 0.062208 0.750471
O O12 0.271096 0.589696 0.745769
O O13 0.172060 0.526239 0.000000
O O14 0.636953 0.337555 0.500000
#
# Coordination Sequence:
#
# PCOD9424708 Si02
#       6
#     8   8   8   4   8   8
#     4   8  14  22  32  52  79 108 144 175 198 240
#     4  11  19  32  49  64  88 119 151 186 229 264
#     4   9  18  30  46  60  89 113 148 191 219 257
#     4  10  20  34  44  66  86 112 154 196 224 266
#     4   9  15  24  37  55  80 112 146 175 209 249
#     4  10  16  23  37  56  81 110 147 179 205 247
#
# _framework density 26.927959999999999
#
# number of rings (size 3 to 8) (size 9 to 14) (size 15 to 20)
#    0.545    2.000    1.818    6.000    0.000    5.455 
#    0.000    0.000    0.000    0.000    0.000    0.000 
#    0.000    0.000    0.000   13.091    0.000   50.909 
#
# Total GULP energy -245021.862290 kJ/mol
# GULP energy per Si atom -5568.678688 kJ/mol
# Density = 2.686667 g / cm^3
# Si number density = 26.927960 Si / 1000 Ang^3
#
#
#
# Elastic Constant Matrix: (Units=GPa)
#
#
# Indices 1 2 3 4 5 6 
#
# 1 127.3098 8.4574 -14.9655 0.0000 0.0000 0.0000
# 2 8.4574 94.8011 16.8952 0.0000 0.0000 0.0000
# 3 -14.9655 16.8952 154.1498 0.0000 0.0000 0.0000
# 4 0.0000 0.0000 0.0000 -8.5911 0.0000 0.0000
# 5 0.0000 0.0000 0.0000 0.0000 -29.3064 0.0000
# 6 0.0000 0.0000 0.0000 0.0000 0.0000 35.2158
#
#
#
# Elastic Compliance Matrix: (Units=1/GPa)
#
#
# Indices 1 2 3 4 5 6 
#
# 1 0.008015 -0.000871 0.000874 0.000000 0.000000 0.000000
# 2 -0.000871 0.010853 -0.001274 0.000000 0.000000 0.000000
# 3 0.000874 -0.001274 0.006712 0.000000 0.000000 0.000000
# 4 0.000000 0.000000 0.000000 -0.116400 0.000000 0.000000
# 5 0.000000 0.000000 0.000000 0.000000 -0.034122 0.000000
# 6 0.000000 0.000000 0.000000 0.000000 0.000000 0.028396
#
#
# Mechanical properties :
#
#
# Convention : Reuss Voigt Hill
#
# Bulk Modulus (GPa) = 43.40704 44.11500 43.76102
# Shear Modulus (GPa) = -57.92156 23.85523 -17.03316
#
# Velocity S-wave (km/s) = -4.64290 2.97962 -2.51777
# Velocity P-wave (km/s) = 3.54786 5.31561 2.79896
#
# Compressibility (1/GPa) = 0.02303774
#
# Stress axis : x y z
#
# Youngs Moduli (GPa) = 124.75996 92.13918 148.99469
#
# Poissons Ratio (x) = 0.08023 -0.13016
# Poissons Ratio (y) = 0.10864 0.18983
# Poissons Ratio (z) = -0.10899 0.11739
#
# Static dielectric constant tensor:
#      x y z
#    x 2.316490 0.000000 0.000000 
#    y 0.000000 2.179340 0.000000 
#    z 0.000000 0.000000 2.198770 
# 
# From -- ./inp_files/4058.got.cif
#   From: 2010.05.17/outbox.cif.g08.bks.cpg/sg55_3_cif.got.tgz:4058.got - 2010.06.03 13:27:54.
