data_PCOD9424093
_publ_section_title
;
Structure prediction by ZEFSAII (Michael W. Deem and Ramdas Pophale) SiO2 
 PCOD9424093
Probable space group: P C C A
;
_chemical_formula_sum "Si O2"
_cell_formula_units_Z 48
_cell_length_a 13.500655
_cell_length_b 6.482134
_cell_length_c 25.010420
_cell_angle_alpha 90.000000
_cell_angle_beta 90.000000
_cell_angle_gamma 90.000000
_cell_volume 2188.738256
_symmetry_space_group_name_H-M "P C C A"
_symmetry_group_IT_number 54
_symmetry_cell_setting 'orthorhombic'
loop_
_space_group_symop_operation_xyz
x,y,z
1/2-x,-y,z
1/2+x,-y,1/2-z
-x,y,1/2-z
-x,-y,-z
1/2+x,y,-z
1/2-x,y,1/2+z
x,-y,1/2+z
loop_
_atom_site_type_symbol
_atom_site_label
_atom_site_fract_x
_atom_site_fract_y
_atom_site_fract_z
Si Si1 0.959369 0.557159 0.430714
Si Si2 0.436679 0.178577 0.971627
Si Si3 0.250000 0.000000 0.903705
Si Si4 0.149821 0.623453 0.178464
Si Si5 0.143159 0.613912 0.778669
Si Si6 0.250000 0.000000 0.737990
Si Si7 0.652185 0.389872 0.117214
O O1 0.906819 0.660085 0.481312
O O2 0.909345 0.627597 0.376116
O O3 0.984759 0.314355 0.436610
O O4 0.070612 0.646910 0.426972
O O5 0.339455 0.099193 0.939519
O O6 0.500000 0.000000 0.000000
O O7 0.195111 0.168634 0.866959
O O8 0.250000 0.500000 0.165646
O O9 0.097707 0.488651 0.225465
O O10 0.183880 0.842699 0.202485
O O11 0.250000 0.500000 0.779995
O O12 0.106407 0.533430 0.836023
O O13 0.171083 0.851532 0.768754
O O14 0.750000 0.500000 0.095714
#
# Coordination Sequence:
#
# PCOD9424093 Si02
#       7
#     8   8   4   8   8   4   8
#     4  11  24  42  65  95 134 167 217 275 324 388
#     4  11  25  44  65  95 132 168 222 277 323 398
#     4  12  24  44  68  94 124 178 223 267 350 390
#     4   9  20  39  63  95 131 173 212 263 323 385
#     4   8  18  35  62  91 131 165 212 265 316 386
#     4   8  16  38  62  94 128 174 217 257 324 398
#     4  11  22  40  65  94 127 171 213 272 327 388
#
# _framework density 21.930441999999999
#
# number of rings (size 3 to 8) (size 9 to 14) (size 15 to 20)
#    0.000    2.333    3.333    0.000    0.000   11.333 
#    0.000    0.000    0.000   12.000    0.000    0.000 
#    0.000    0.000    0.000    0.000    0.000    0.000 
#
# Total GULP energy -267242.832148 kJ/mol
# GULP energy per Si atom -5567.559003 kJ/mol
# Density = 2.188053 g / cm^3
# Si number density = 21.930442 Si / 1000 Ang^3
#
#
#
# Elastic Constant Matrix: (Units=GPa)
#
#
# Indices 1 2 3 4 5 6 
#
# 1 64.7397 29.2890 32.5599 0.0000 0.0000 0.0000
# 2 29.2890 169.5797 58.0034 0.0000 0.0000 0.0000
# 3 32.5599 58.0034 119.3216 0.0000 0.0000 0.0000
# 4 0.0000 0.0000 0.0000 7.4598 0.0000 0.0000
# 5 0.0000 0.0000 0.0000 0.0000 19.5711 0.0000
# 6 0.0000 0.0000 0.0000 0.0000 0.0000 20.5470
#
#
#
# Elastic Compliance Matrix: (Units=1/GPa)
#
#
# Indices 1 2 3 4 5 6 
#
# 1 0.018324 -0.001745 -0.004152 0.000000 0.000000 0.000000
# 2 -0.001745 0.007239 -0.003043 0.000000 0.000000 0.000000
# 3 -0.004152 -0.003043 0.010993 0.000000 0.000000 0.000000
# 4 0.000000 0.000000 0.000000 0.134051 0.000000 0.000000
# 5 0.000000 0.000000 0.000000 0.000000 0.051096 0.000000
# 6 0.000000 0.000000 0.000000 0.000000 0.000000 0.048669
#
#
# Mechanical properties :
#
#
# Convention : Reuss Voigt Hill
#
# Bulk Modulus (GPa) = 53.54268 65.92730 59.73499
# Shear Modulus (GPa) = 16.97928 25.10150 21.04039
#
# Velocity S-wave (km/s) = 2.78552 3.38686 3.10080
# Velocity P-wave (km/s) = 5.90028 6.73956 6.33384
#
# Compressibility (1/GPa) = 0.01867669
#
# Stress axis : x y z
#
# Youngs Moduli (GPa) = 54.57327 138.13936 90.96776
#
# Poissons Ratio (x) = 0.24100 0.37771
# Poissons Ratio (y) = 0.09521 0.27681
# Poissons Ratio (z) = 0.22659 0.42035
#
# Static dielectric constant tensor:
#      x y z
#    x 1.947920 0.000000 0.000000 
#    y 0.000000 1.926110 0.000000 
#    z 0.000000 0.000000 1.932860 
# 
# From -- ./inp_files/26495.got.cif
#   From: 2010.05.17/outbox.cif.g08.bks.cpg/sg54_14_cif.got.tgz:26495.got - 2010.06.03 13:09:01.
