data_PCOD9424275
_publ_section_title
;
Structure prediction by ZEFSAII (Michael W. Deem and Ramdas Pophale) SiO2 
 PCOD9424275
Probable space group: P C C A
;
_chemical_formula_sum "Si O2"
_cell_formula_units_Z 16
_cell_length_a 13.386098
_cell_length_b 6.600949
_cell_length_c 8.077764
_cell_angle_alpha 90.000000
_cell_angle_beta 90.000000
_cell_angle_gamma 90.000000
_cell_volume 713.758903
_symmetry_space_group_name_H-M "P C C A"
_symmetry_group_IT_number 54
_symmetry_cell_setting 'orthorhombic'
loop_
_space_group_symop_operation_xyz
x,y,z
1/2-x,-y,z
1/2+x,-y,1/2-z
-x,y,1/2-z
-x,-y,-z
1/2+x,y,-z
1/2-x,y,1/2+z
x,-y,1/2+z
loop_
_atom_site_type_symbol
_atom_site_label
_atom_site_fract_x
_atom_site_fract_y
_atom_site_fract_z
Si Si1 0.724507 0.765023 0.449397
Si Si2 0.881867 0.449971 0.758282
O O1 0.664707 0.681943 0.608485
O O2 0.658020 0.678682 0.294683
O O3 0.832073 0.660264 0.417379
O O4 0.750000 0.000000 0.453736
O O5 0.000000 0.445778 0.750000
#
# Coordination Sequence:
#
# PCOD9424275 Si02
#       2
#     8   8
#     4  11  24  43  67  99 138 179 225 279 335 400
#     4  11  24  43  69 101 138 177 224 279 338 405
#
# _framework density 22.416536000000001
#
# number of rings (size 3 to 8) (size 9 to 14) (size 15 to 20)
#    0.000    1.000    0.000    9.000    0.000    4.000 
#    0.000    2.500    0.000    9.000    0.000    0.000 
#    0.000    0.000    0.000    0.000    0.000    0.000 
#
# Total GULP energy -89121.042299 kJ/mol
# GULP energy per Si atom -5570.065144 kJ/mol
# Density = 2.236551 g / cm^3
# Si number density = 22.416536 Si / 1000 Ang^3
#
#
#
# Elastic Constant Matrix: (Units=GPa)
#
#
# Indices 1 2 3 4 5 6 
#
# 1 242.9201 107.8470 80.8449 0.0000 0.0000 0.0000
# 2 107.8470 216.9945 69.8075 0.0000 0.0000 0.0000
# 3 80.8449 69.8075 129.3246 0.0000 0.0000 0.0000
# 4 0.0000 0.0000 0.0000 21.3961 0.0000 0.0000
# 5 0.0000 0.0000 0.0000 0.0000 28.5562 0.0000
# 6 0.0000 0.0000 0.0000 0.0000 0.0000 8.7514
#
#
#
# Elastic Compliance Matrix: (Units=1/GPa)
#
#
# Indices 1 2 3 4 5 6 
#
# 1 0.005904 -0.002114 -0.002549 0.000000 0.000000 0.000000
# 2 -0.002114 0.006334 -0.002097 0.000000 0.000000 0.000000
# 3 -0.002549 -0.002097 0.010458 0.000000 0.000000 0.000000
# 4 0.000000 0.000000 0.000000 0.046737 0.000000 0.000000
# 5 0.000000 0.000000 0.000000 0.000000 0.035019 0.000000
# 6 0.000000 0.000000 0.000000 0.000000 0.000000 0.114268
#
#
# Mechanical properties :
#
#
# Convention : Reuss Voigt Hill
#
# Bulk Modulus (GPa) = 109.00163 122.91533 115.95848
# Shear Modulus (GPa) = 21.24957 33.79005 27.51981
#
# Velocity S-wave (km/s) = 3.08221 3.88670 3.50759
# Velocity P-wave (km/s) = 7.83567 8.66564 8.26109
#
# Compressibility (1/GPa) = 0.00917417
#
# Stress axis : x y z
#
# Youngs Moduli (GPa) = 169.38983 157.88371 95.61738
#
# Poissons Ratio (x) = 0.33375 0.24377
# Poissons Ratio (y) = 0.35808 0.20055
# Poissons Ratio (z) = 0.43185 0.33114
#
# Static dielectric constant tensor:
#      x y z
#    x 1.791500 0.000000 0.000000 
#    y 0.000000 1.889000 0.000000 
#    z 0.000000 0.000000 2.015010 
# 
# From -- ./inp_files/3072.got.cif
#   From: 2010.05.17/outbox.cif.g08.bks.cpg/sg54_2_cif.got.tgz:3072.got - 2010.06.03 13:09:01.
