data_PCOD9424942
_publ_section_title
;
Structure prediction by ZEFSAII (Michael W. Deem and Ramdas Pophale) SiO2 
 PCOD9424942
Probable space group: P B A M
;
_chemical_formula_sum "Si O2"
_cell_formula_units_Z 56
_cell_length_a 18.492311
_cell_length_b 19.597667
_cell_length_c 8.373823
_cell_angle_alpha 90.000000
_cell_angle_beta 90.000000
_cell_angle_gamma 90.000000
_cell_volume 3034.724980
_symmetry_space_group_name_H-M "P B A M"
_symmetry_group_IT_number 55
_symmetry_cell_setting 'orthorhombic'
loop_
_space_group_symop_operation_xyz
x,y,z
-x,-y,z
1/2+x,1/2-y,-z
1/2-x,1/2+y,-z
-x,-y,-z
x,y,-z
1/2-x,1/2+y,z
1/2+x,1/2-y,z
loop_
_atom_site_type_symbol
_atom_site_label
_atom_site_fract_x
_atom_site_fract_y
_atom_site_fract_z
Si Si1 0.342915 0.242790 0.686892
Si Si2 0.309068 0.388436 0.694648
Si Si3 0.164627 0.462144 0.306441
Si Si4 0.028110 0.925754 0.306798
Si Si5 0.890948 0.393617 0.186711
Si Si6 0.953170 0.649881 0.310895
Si Si7 0.997955 0.214883 0.186954
O O1 0.328675 0.232005 0.500000
O O2 0.299523 0.309307 0.745329
O O3 0.339267 0.170730 0.774631
O O4 0.426212 0.266820 0.711072
O O5 0.309423 0.387039 0.500000
O O6 0.243404 0.436018 0.745302
O O7 0.388187 0.414984 0.743742
O O8 0.163520 0.466163 0.500000
O O9 0.143287 0.535434 0.239568
O O10 0.105839 0.405240 0.258127
O O11 0.024998 0.921528 0.500000
O O12 0.983422 0.862117 0.235862
O O13 0.000000 0.000000 0.258710
O O14 0.967000 0.380227 0.275896
O O15 0.907073 0.394043 0.000000
O O16 0.945359 0.660189 0.500000
O O17 0.948013 0.723578 0.227079
O O18 0.979761 0.217595 0.000000
#
# Coordination Sequence:
#
# PCOD9424942 Si02
#       7
#     8   8   8   8   8   8   8
#     4   9  16  31  54  73  92 122 162 203 240 286
#     4   8  16  32  53  75  96 123 163 206 246 288
#     4  10  20  34  51  72 100 132 166 205 248 293
#     4   9  17  32  55  78  99 127 166 210 250 291
#     4  11  21  32  49  74 102 131 165 204 246 292
#     4  10  19  32  51  72  96 130 170 207 243 289
#     4  10  18  29  48  73 100 126 155 197 246 294
#
# _framework density 18.453073
#
# number of rings (size 3 to 8) (size 9 to 14) (size 15 to 20)
#    0.000    2.429    0.000    6.429    0.000    3.143 
#    0.000    5.000    0.000    8.571    0.000    0.000 
#    0.000    0.000    0.000    0.000    0.000    0.000 
#
# Total GULP energy -312198.948717 kJ/mol
# GULP energy per Si atom -5574.981227 kJ/mol
# Density = 1.841107 g / cm^3
# Si number density = 18.453073 Si / 1000 Ang^3
#
#
#
# Elastic Constant Matrix: (Units=GPa)
#
#
# Indices 1 2 3 4 5 6 
#
# 1 50.2497 54.6644 4.0059 0.0000 0.0000 0.0000
# 2 54.6644 186.9674 16.9174 0.0000 0.0000 0.0000
# 3 4.0059 16.9174 20.2777 0.0000 0.0000 0.0000
# 4 0.0000 0.0000 0.0000 -24.9318 0.0000 0.0000
# 5 0.0000 0.0000 0.0000 0.0000 -6.3672 0.0000
# 6 0.0000 0.0000 0.0000 0.0000 0.0000 15.2355
#
#
#
# Elastic Compliance Matrix: (Units=1/GPa)
#
#
# Indices 1 2 3 4 5 6 
#
# 1 0.029223 -0.008677 0.001466 0.000000 0.000000 0.000000
# 2 -0.008677 0.008361 -0.005262 0.000000 0.000000 0.000000
# 3 0.001466 -0.005262 0.053415 0.000000 0.000000 0.000000
# 4 0.000000 0.000000 0.000000 -0.040109 0.000000 0.000000
# 5 0.000000 0.000000 0.000000 0.000000 -0.157054 0.000000
# 6 0.000000 0.000000 0.000000 0.000000 0.000000 0.065636
#
#
# Mechanical properties :
#
#
# Convention : Reuss Voigt Hill
#
# Bulk Modulus (GPa) = 15.13904 45.40779 30.27342
# Shear Modulus (GPa) = 776.96531 8.91443 392.93987
#
# Velocity S-wave (km/s) = 20.54175 2.20031 14.60830
# Velocity P-wave (km/s) = 23.89225 5.57815 17.34871
#
# Compressibility (1/GPa) = 0.06605437
#
# Stress axis : x y z
#
# Youngs Moduli (GPa) = 34.22010 119.59690 18.72117
#
# Poissons Ratio (x) = 1.03769 -0.02744
# Poissons Ratio (y) = 0.29691 0.09851
# Poissons Ratio (z) = -0.05016 0.62929
#
# Static dielectric constant tensor:
#      x y z
#    x 1.625530 0.000000 0.000000 
#    y 0.000000 1.664240 0.000000 
#    z 0.000000 0.000000 1.622400 
# 
# From -- ./inp_files/7805.got.cif
#   From: 2010.05.17/outbox.cif.g08.bks.cpg/sg55_4_cif.got.tgz:7805.got - 2010.06.03 13:27:54.
