data_PCOD9424185
_publ_section_title
;
Structure prediction by ZEFSAII (Michael W. Deem and Ramdas Pophale) SiO2 
 PCOD9424185
Probable space group: P C C A
;
_chemical_formula_sum "Si O2"
_cell_formula_units_Z 56
_cell_length_a 19.790436
_cell_length_b 8.392910
_cell_length_c 17.082919
_cell_angle_alpha 90.000000
_cell_angle_beta 90.000000
_cell_angle_gamma 90.000000
_cell_volume 2837.461711
_symmetry_space_group_name_H-M "P C C A"
_symmetry_group_IT_number 54
_symmetry_cell_setting 'orthorhombic'
loop_
_space_group_symop_operation_xyz
x,y,z
1/2-x,-y,z
1/2+x,-y,1/2-z
-x,y,1/2-z
-x,-y,-z
1/2+x,y,-z
1/2-x,y,1/2+z
x,-y,1/2+z
loop_
_atom_site_type_symbol
_atom_site_label
_atom_site_fract_x
_atom_site_fract_y
_atom_site_fract_z
Si Si1 0.809184 0.130186 0.584569
Si Si2 0.370052 0.075663 0.249843
Si Si3 0.434216 0.653489 0.108673
Si Si4 0.543787 0.861034 0.535784
Si Si5 0.750000 0.000000 0.356858
Si Si6 0.535156 0.688093 0.831497
Si Si7 0.000000 0.144798 0.250000
Si Si8 0.280833 0.323464 0.559954
O O1 0.832240 0.148094 0.674565
O O2 0.879393 0.078643 0.543551
O O3 0.788765 0.283953 0.533086
O O4 0.750000 0.000000 0.581306
O O5 0.400037 0.211910 0.194270
O O6 0.314802 0.983291 0.199076
O O7 0.434471 0.963883 0.270789
O O8 0.447601 0.469023 0.121734
O O9 0.472748 0.750734 0.177179
O O10 0.353616 0.677503 0.102801
O O11 0.459389 0.717372 0.025626
O O12 0.513649 0.798086 0.616793
O O13 0.500000 0.000000 0.500000
O O14 0.744110 0.163742 0.406696
O O15 0.500000 0.642835 0.750000
O O16 0.250000 0.500000 0.571009
#
# Coordination Sequence:
#
# PCOD9424185 Si02
#       8
#     8   8   8   8   4   8   4   8
#     4  11  23  42  67  97 135 177 230 288 344 417
#     4  12  23  42  68 100 136 180 232 277 356 418
#     4  11  24  42  69  99 140 177 239 290 346 422
#     4  11  24  43  70 101 133 182 237 282 350 421
#     4  12  24  42  74  94 138 186 224 292 354 420
#     4  12  23  41  67  97 141 181 221 292 351 410
#     4  12  22  42  68 104 134 186 224 298 342 414
#     4  11  25  46  68 100 137 184 236 286 351 421
#
# _framework density 19.735948
#
# number of rings (size 3 to 8) (size 9 to 14) (size 15 to 20)
#    0.000    0.571    5.714    3.000    2.000    1.143 
#    0.000    6.429    0.000    0.000    0.000    0.000 
#    0.000    0.000    0.000    0.000    0.000    0.000 
#
# Total GULP energy -312568.762056 kJ/mol
# GULP energy per Si atom -5581.585037 kJ/mol
# Density = 1.969103 g / cm^3
# Si number density = 19.735948 Si / 1000 Ang^3
#
#
#
# Elastic Constant Matrix: (Units=GPa)
#
#
# Indices 1 2 3 4 5 6 
#
# 1 111.9007 64.7652 58.7808 0.0000 0.0000 0.0000
# 2 64.7652 124.7376 47.8156 0.0000 0.0000 0.0000
# 3 58.7808 47.8156 108.1055 0.0000 0.0000 0.0000
# 4 0.0000 0.0000 0.0000 36.4404 0.0000 0.0000
# 5 0.0000 0.0000 0.0000 0.0000 28.8630 0.0000
# 6 0.0000 0.0000 0.0000 0.0000 0.0000 30.7159
#
#
#
# Elastic Compliance Matrix: (Units=1/GPa)
#
#
# Indices 1 2 3 4 5 6 
#
# 1 0.015283 -0.005719 -0.005780 0.000000 0.000000 0.000000
# 2 -0.005719 0.011794 -0.002107 0.000000 0.000000 0.000000
# 3 -0.005780 -0.002107 0.013325 0.000000 0.000000 0.000000
# 4 0.000000 0.000000 0.000000 0.027442 0.000000 0.000000
# 5 0.000000 0.000000 0.000000 0.000000 0.034646 0.000000
# 6 0.000000 0.000000 0.000000 0.000000 0.000000 0.032556
#
#
# Mechanical properties :
#
#
# Convention : Reuss Voigt Hill
#
# Bulk Modulus (GPa) = 75.81886 76.38522 76.10204
# Shear Modulus (GPa) = 30.00194 30.76269 30.38231
#
# Velocity S-wave (km/s) = 3.90316 3.95234 3.92783
# Velocity P-wave (km/s) = 7.66896 7.72111 7.69508
#
# Compressibility (1/GPa) = 0.01318933
#
# Stress axis : x y z
#
# Youngs Moduli (GPa) = 65.43192 84.78911 75.04736
#
# Poissons Ratio (x) = 0.48494 0.43379
# Poissons Ratio (y) = 0.37423 0.15810
# Poissons Ratio (z) = 0.37821 0.17862
#
# Static dielectric constant tensor:
#      x y z
#    x 1.703800 0.000000 0.000000 
#    y 0.000000 1.661270 0.000000 
#    z 0.000000 0.000000 1.715290 
# 
# From -- ./inp_files/18907.got.cif
#   From: 2010.05.17/outbox.cif.g08.bks.cpg/sg54_10_cif.got.tgz:18907.got - 2010.06.03 13:09:01.
