data_PCOD9424464
_publ_section_title
;
Structure prediction by ZEFSAII (Michael W. Deem and Ramdas Pophale) SiO2 
 PCOD9424464
Probable space group: P C C A
;
_chemical_formula_sum "Si O2"
_cell_formula_units_Z 36
_cell_length_a 13.696676
_cell_length_b 5.675028
_cell_length_c 20.303982
_cell_angle_alpha 90.000000
_cell_angle_beta 90.000000
_cell_angle_gamma 90.000000
_cell_volume 1578.208619
_symmetry_space_group_name_H-M "P C C A"
_symmetry_group_IT_number 54
_symmetry_cell_setting 'orthorhombic'
loop_
_space_group_symop_operation_xyz
x,y,z
1/2-x,-y,z
1/2+x,-y,1/2-z
-x,y,1/2-z
-x,-y,-z
1/2+x,y,-z
1/2-x,y,1/2+z
x,-y,1/2+z
loop_
_atom_site_type_symbol
_atom_site_label
_atom_site_fract_x
_atom_site_fract_y
_atom_site_fract_z
Si Si1 0.250000 0.000000 0.466887
Si Si2 0.250000 0.500000 0.544029
Si Si3 0.000000 0.772400 0.250000
Si Si4 0.937661 0.551327 0.867176
Si Si5 0.344854 0.660473 0.376874
Si Si6 0.650579 0.872420 0.260268
O O1 0.265025 0.239926 0.509392
O O2 0.168338 0.092795 0.415420
O O3 0.349900 0.523651 0.585785
O O4 0.952081 0.630262 0.308118
O O5 0.915565 0.937497 0.223459
O O6 0.902071 0.780836 0.825894
O O7 0.046778 0.574054 0.896286
O O8 0.250000 0.500000 0.394020
O O9 0.340023 0.680181 0.297368
O O10 0.750000 0.000000 0.277711
#
# Coordination Sequence:
#
# PCOD9424464 Si02
#       6
#     4   4   4   8   8   8
#     4  12  30  56  74 114 152 222 282 302 390 454
#     4  12  32  54  76 112 160 214 268 324 376 468
#     4  12  22  42  70 120 154 188 246 302 422 468
#     4  12  27  47  76 118 155 198 258 332 405 471
#     4  12  25  49  79 111 154 207 263 329 383 473
#     4  12  24  41  74 117 153 194 247 325 404 469
#
# _framework density 22.810670999999999
#
# number of rings (size 3 to 8) (size 9 to 14) (size 15 to 20)
#    0.000    0.000    6.667    2.667    6.222    1.778 
#    0.000    0.000    0.000    0.000    0.000    0.000 
#    0.000    0.000    0.000    0.000    0.000    0.000 
#
# Total GULP energy -200743.645679 kJ/mol
# GULP energy per Si atom -5576.212380 kJ/mol
# Density = 2.275875 g / cm^3
# Si number density = 22.810671 Si / 1000 Ang^3
#
#
#
# Elastic Constant Matrix: (Units=GPa)
#
#
# Indices 1 2 3 4 5 6 
#
# 1 193.2377 63.8796 46.9469 0.0000 0.0000 0.0000
# 2 63.8796 103.6762 49.1059 0.0000 0.0000 0.0000
# 3 46.9469 49.1059 81.7234 0.0000 0.0000 0.0000
# 4 0.0000 0.0000 0.0000 -174.3243 0.0000 0.0000
# 5 0.0000 0.0000 0.0000 0.0000 -21.6713 0.0000
# 6 0.0000 0.0000 0.0000 0.0000 0.0000 41.1645
#
#
#
# Elastic Compliance Matrix: (Units=1/GPa)
#
#
# Indices 1 2 3 4 5 6 
#
# 1 0.006706 -0.003225 -0.001915 0.000000 0.000000 0.000000
# 2 -0.003225 0.015034 -0.007181 0.000000 0.000000 0.000000
# 3 -0.001915 -0.007181 0.017651 0.000000 0.000000 0.000000
# 4 0.000000 0.000000 0.000000 -0.005736 0.000000 0.000000
# 5 0.000000 0.000000 0.000000 0.000000 -0.046144 0.000000
# 6 0.000000 0.000000 0.000000 0.000000 0.000000 0.024293
#
#
# Mechanical properties :
#
#
# Convention : Reuss Voigt Hill
#
# Bulk Modulus (GPa) = 67.79628 77.61133 72.70381
# Shear Modulus (GPa) = 120.88721 -16.38588 52.25066
#
# Velocity S-wave (km/s) = 7.28773 -2.68310 4.79124
# Velocity P-wave (km/s) = 10.02998 4.94968 7.90885
#
# Compressibility (1/GPa) = 0.01475007
#
# Stress axis : x y z
#
# Youngs Moduli (GPa) = 149.11376 66.51704 56.65416
#
# Poissons Ratio (x) = 0.21453 0.10847
# Poissons Ratio (y) = 0.48093 0.40682
# Poissons Ratio (z) = 0.28548 0.47764
#
# Static dielectric constant tensor:
#      x y z
#    x 1.866720 0.000000 0.000000 
#    y 0.000000 1.943800 0.000000 
#    z 0.000000 0.000000 1.873410 
# 
# From -- ./inp_files/21392.got.cif
#   From: 2010.05.17/outbox.cif.g08.bks.cpg/sg54_11_cif.got.tgz:21392.got - 2010.06.03 13:09:01.
