data_PCOD9424827
_publ_section_title
;
Structure prediction by ZEFSAII (Michael W. Deem and Ramdas Pophale) SiO2 
 PCOD9424827
Probable space group: P B A M
;
_chemical_formula_sum "Si O2"
_cell_formula_units_Z 52
_cell_length_a 13.389937
_cell_length_b 16.681277
_cell_length_c 12.342483
_cell_angle_alpha 90.000000
_cell_angle_beta 90.000000
_cell_angle_gamma 90.000000
_cell_volume 2756.832408
_symmetry_space_group_name_H-M "P B A M"
_symmetry_group_IT_number 55
_symmetry_cell_setting 'orthorhombic'
loop_
_space_group_symop_operation_xyz
x,y,z
-x,-y,z
1/2+x,1/2-y,-z
1/2-x,1/2+y,-z
-x,-y,-z
x,y,-z
1/2-x,1/2+y,z
1/2+x,1/2-y,z
loop_
_atom_site_type_symbol
_atom_site_label
_atom_site_fract_x
_atom_site_fract_y
_atom_site_fract_z
Si Si1 0.410140 0.636947 0.000000
Si Si2 0.675404 0.500716 0.121318
Si Si3 0.522325 0.807090 0.761027
Si Si4 0.979188 0.283707 0.000000
Si Si5 0.233581 0.762927 0.000000
Si Si6 0.332938 0.340435 0.222619
Si Si7 0.609001 0.975121 0.778484
Si Si8 0.349108 0.874723 0.371548
O O1 0.388056 0.580536 0.896713
O O2 0.511785 0.686262 0.000000
O O3 0.331502 0.709133 0.000000
O O4 0.633595 0.568380 0.199844
O O5 0.790755 0.483239 0.150881
O O6 0.672999 0.534756 0.000000
O O7 0.481547 0.814400 0.885258
O O8 0.581205 0.723971 0.756255
O O9 0.595625 0.882849 0.745010
O O10 0.434485 0.816675 0.675802
O O11 0.860610 0.298537 0.000000
O O12 0.223669 0.811164 0.112501
O O13 0.254443 0.345455 0.319924
O O14 0.500000 0.000000 0.827490
O O15 0.625327 0.038098 0.680599
O O16 0.347964 0.877664 0.500000
#
# Coordination Sequence:
#
# PCOD9424827 Si02
#       8
#     4   8   8   4   4   8   8   8
#     4  10  19  31  51  76 113 159 176 210 266 322
#     4   9  18  31  49  76 109 150 181 213 261 331
#     4  10  21  35  55  84 111 146 181 227 278 333
#     4  10  20  32  52  85 118 144 180 222 267 332
#     4  10  17  31  52  79 115 139 181 226 269 328
#     4  10  19  35  56  81 113 144 179 229 275 322
#     4   9  19  34  52  79 103 140 180 228 280 324
#     4  10  22  39  56  80 109 143 188 233 279 328
#
# _framework density 18.862227000000001
#
# number of rings (size 3 to 8) (size 9 to 14) (size 15 to 20)
#    0.462    1.846    0.769    2.769    1.077    3.692 
#    6.923    6.154    0.000    0.000    0.000    0.000 
#    0.000   16.000    0.000    0.000    0.000    0.000 
#
# Total GULP energy -289776.862418 kJ/mol
# GULP energy per Si atom -5572.631970 kJ/mol
# Density = 1.881930 g / cm^3
# Si number density = 18.862227 Si / 1000 Ang^3
#
#
#
# Elastic Constant Matrix: (Units=GPa)
#
#
# Indices 1 2 3 4 5 6 
#
# 1 53.1756 25.1544 31.4007 0.0000 0.0000 0.0000
# 2 25.1544 80.0572 41.8173 0.0000 0.0000 0.0000
# 3 31.4007 41.8173 95.5061 0.0000 0.0000 0.0000
# 4 0.0000 0.0000 0.0000 13.5109 0.0000 0.0000
# 5 0.0000 0.0000 0.0000 0.0000 19.1766 0.0000
# 6 0.0000 0.0000 0.0000 0.0000 0.0000 31.5144
#
#
#
# Elastic Compliance Matrix: (Units=1/GPa)
#
#
# Indices 1 2 3 4 5 6 
#
# 1 0.024543 -0.004533 -0.006084 0.000000 0.000000 0.000000
# 2 -0.004533 0.017032 -0.005967 0.000000 0.000000 0.000000
# 3 -0.006084 -0.005967 0.015084 0.000000 0.000000 0.000000
# 4 0.000000 0.000000 0.000000 0.074014 0.000000 0.000000
# 5 0.000000 0.000000 0.000000 0.000000 0.052147 0.000000
# 6 0.000000 0.000000 0.000000 0.000000 0.000000 0.031732
#
#
# Mechanical properties :
#
#
# Convention : Reuss Voigt Hill
#
# Bulk Modulus (GPa) = 42.57264 47.27596 44.92430
# Shear Modulus (GPa) = 19.56553 21.53147 20.54850
#
# Velocity S-wave (km/s) = 3.22419 3.38229 3.30419
# Velocity P-wave (km/s) = 6.03985 6.35385 6.19884
#
# Compressibility (1/GPa) = 0.02348927
#
# Stress axis : x y z
#
# Youngs Moduli (GPa) = 40.74485 58.71170 66.29694
#
# Poissons Ratio (x) = 0.26617 0.40337
# Poissons Ratio (y) = 0.18471 0.39560
# Poissons Ratio (z) = 0.24790 0.35034
#
# Static dielectric constant tensor:
#      x y z
#    x 1.682120 0.000000 0.000000 
#    y 0.000000 1.694370 0.000000 
#    z 0.000000 0.000000 1.625190 
# 
# From -- ./inp_files/14332.got.cif
#   From: 2010.05.17/outbox.cif.g08.bks.cpg/sg55_8_cif.got.tgz:14332.got - 2010.06.03 13:27:54.
