data_PCOD9424992
_publ_section_title
;
Structure prediction by ZEFSAII (Michael W. Deem and Ramdas Pophale) SiO2 
 PCOD9424992
Probable space group: P B A M
;
_chemical_formula_sum "Si O2"
_cell_formula_units_Z 64
_cell_length_a 15.020524
_cell_length_b 31.319084
_cell_length_c 8.471376
_cell_angle_alpha 90.000000
_cell_angle_beta 90.000000
_cell_angle_gamma 90.000000
_cell_volume 3985.181388
_symmetry_space_group_name_H-M "P B A M"
_symmetry_group_IT_number 55
_symmetry_cell_setting 'orthorhombic'
loop_
_space_group_symop_operation_xyz
x,y,z
-x,-y,z
1/2+x,1/2-y,-z
1/2-x,1/2+y,-z
-x,-y,-z
x,y,-z
1/2-x,1/2+y,z
1/2+x,1/2-y,z
loop_
_atom_site_type_symbol
_atom_site_label
_atom_site_fract_x
_atom_site_fract_y
_atom_site_fract_z
Si Si1 0.176842 0.131578 0.690462
Si Si2 0.897666 0.049283 0.809425
Si Si3 0.003698 0.824379 0.308257
Si Si4 0.602431 0.451346 0.189925
Si Si5 0.997568 0.274197 0.690771
Si Si6 0.314106 0.367876 0.310802
Si Si7 0.704564 0.788933 0.308672
Si Si8 0.188741 0.295222 0.812928
O O1 0.178581 0.130956 0.500000
O O2 0.082550 0.150636 0.746704
O O3 0.173014 0.083074 0.748836
O O4 0.249084 0.166712 0.741687
O O5 0.828404 0.083522 0.742994
O O6 0.000206 0.058472 0.756397
O O7 0.878411 0.000282 0.763605
O O8 0.896967 0.051624 0.000000
O O9 0.003978 0.825785 0.500000
O O10 0.997005 0.775396 0.262620
O O11 0.095237 0.844781 0.253833
O O12 0.601234 0.449868 0.000000
O O13 0.001600 0.277042 0.500000
O O14 0.086118 0.295269 0.758535
O O15 0.898904 0.288799 0.740457
O O16 0.310464 0.366357 0.500000
O O17 0.235522 0.338665 0.245079
O O18 0.706956 0.787077 0.500000
O O19 0.758720 0.746730 0.253631
O O20 0.193569 0.292661 0.000000
#
# Coordination Sequence:
#
# PCOD9424992 Si02
#       8
#     8   8   8   8   8   8   8   8
#     4  10  18  30  48  74 101 128 169 210 243 286
#     4   9  18  32  47  69 101 134 167 205 248 296
#     4   9  16  27  48  72  96 127 166 207 241 282
#     4   9  18  31  47  69 102 137 164 198 251 304
#     4  10  19  36  54  68  95 134 174 210 246 289
#     4  11  20  33  51  73  98 134 175 207 247 296
#     4  10  20  35  54  73  97 134 174 211 249 292
#     4  12  24  34  48  74 104 133 167 208 253 301
#
# _framework density 16.059494999999998
#
# number of rings (size 3 to 8) (size 9 to 14) (size 15 to 20)
#    0.000    2.000    3.750    2.250    0.000    1.500 
#    0.000    1.250    0.000    0.000    0.000    0.875 
#    0.000    7.000    0.000    0.000    0.000    0.000 
#
# Total GULP energy -356765.899031 kJ/mol
# GULP energy per Si atom -5574.467172 kJ/mol
# Density = 1.602294 g / cm^3
# Si number density = 16.059495 Si / 1000 Ang^3
#
#
#
# Elastic Constant Matrix: (Units=GPa)
#
#
# Indices 1 2 3 4 5 6 
#
# 1 98.1092 58.9949 24.6640 0.0000 0.0000 0.0000
# 2 58.9949 125.1922 24.5478 0.0000 0.0000 0.0000
# 3 24.6640 24.5478 26.2655 0.0000 0.0000 0.0000
# 4 0.0000 0.0000 0.0000 19.7457 0.0000 0.0000
# 5 0.0000 0.0000 0.0000 0.0000 9.6893 0.0000
# 6 0.0000 0.0000 0.0000 0.0000 0.0000 23.3889
#
#
#
# Elastic Compliance Matrix: (Units=1/GPa)
#
#
# Indices 1 2 3 4 5 6 
#
# 1 0.016048 -0.005641 -0.009797 0.000000 0.000000 0.000000
# 2 -0.005641 0.011763 -0.005696 0.000000 0.000000 0.000000
# 3 -0.009797 -0.005696 0.052596 0.000000 0.000000 0.000000
# 4 0.000000 0.000000 0.000000 0.050644 0.000000 0.000000
# 5 0.000000 0.000000 0.000000 0.000000 0.103207 0.000000
# 6 0.000000 0.000000 0.000000 0.000000 0.000000 0.042755
#
#
# Mechanical properties :
#
#
# Convention : Reuss Voigt Hill
#
# Bulk Modulus (GPa) = 26.22073 51.77559 38.99816
# Shear Modulus (GPa) = 15.06044 19.98879 17.52462
#
# Velocity S-wave (km/s) = 3.06566 3.53182 3.30696
# Velocity P-wave (km/s) = 5.37529 6.99582 6.23840
#
# Compressibility (1/GPa) = 0.03813776
#
# Stress axis : x y z
#
# Youngs Moduli (GPa) = 62.31371 85.01201 19.01272
#
# Poissons Ratio (x) = 0.47958 0.18627
# Poissons Ratio (y) = 0.35153 0.10831
# Poissons Ratio (z) = 0.61049 0.48427
#
# Static dielectric constant tensor:
#      x y z
#    x 1.539290 0.000000 0.000000 
#    y 0.000000 1.552220 0.000000 
#    z 0.000000 0.000000 1.549180 
# 
# From -- ./inp_files/6921.got.cif
#   From: 2010.05.17/outbox.cif.g08.bks.cpg/sg55_4_cif.got.tgz:6921.got - 2010.06.03 13:27:54.
