data_PCOD9424655
_publ_section_title
;
Structure prediction by ZEFSAII (Michael W. Deem and Ramdas Pophale) SiO2 
 PCOD9424655
Probable space group: P C C A
;
_chemical_formula_sum "Si O2"
_cell_formula_units_Z 52
_cell_length_a 18.000000
_cell_length_b 18.000000
_cell_length_c 9.000000
_cell_angle_alpha 90.000000
_cell_angle_beta 90.000000
_cell_angle_gamma 90.000000
_cell_volume 2916.000000
_symmetry_space_group_name_H-M "P C C A"
_symmetry_group_IT_number 54
_symmetry_cell_setting 'orthorhombic'
loop_
_space_group_symop_operation_xyz
x,y,z
1/2-x,-y,z
1/2+x,-y,1/2-z
-x,y,1/2-z
-x,-y,-z
1/2+x,y,-z
1/2-x,y,1/2+z
x,-y,1/2+z
loop_
_atom_site_type_symbol
_atom_site_label
_atom_site_fract_x
_atom_site_fract_y
_atom_site_fract_z
Si Si1 0.120379 0.398164 0.361405
Si Si2 0.250000 0.000000 0.196081
Si Si3 0.288250 0.246094 0.564781
Si Si4 0.311176 0.890552 0.451486
Si Si5 0.584365 0.225290 0.695403
Si Si6 0.288698 0.353232 0.300003
Si Si7 0.418177 0.461018 0.184273
O O1 0.091995 0.312010 0.359801
O O2 0.210286 0.391284 0.348110
O O3 0.095082 0.451911 0.225571
O O4 0.091395 0.439887 0.510200
O O5 0.289874 0.939874 0.305682
O O6 0.195931 0.950661 0.087517
O O7 0.248444 0.174277 0.493296
O O8 0.356447 0.222923 0.669132
O O9 0.314081 0.300958 0.434776
O O10 0.232337 0.296492 0.665467
O O11 0.384496 0.839631 0.415820
O O12 0.500000 0.212891 0.750000
O O13 0.351828 0.412589 0.259373
O O14 0.500000 0.441762 0.250000
#
# Coordination Sequence:
#
# PCOD9424655 Si02
#       7
#     8   4   8   8   8   8   8
#     4  11  25  42  60  86 122 172 217 263 319 382
#     4  10  22  34  72  98 124 160 206 248 296 382
#     4  11  20  40  66  89 122 162 213 256 297 383
#     4  11  19  41  65  97 124 164 205 247 303 378
#     4  11  24  40  66  93 131 165 210 264 324 364
#     4  11  22  39  64  87 117 164 215 262 308 373
#     4  12  26  40  59  89 126 162 215 277 326 369
#
# _framework density 17.832647000000001
#
# number of rings (size 3 to 8) (size 9 to 14) (size 15 to 20)
#    0.000    0.923    6.154    1.385    6.462    1.231 
#    0.000    0.769    0.000    0.000    0.000    0.000 
#    0.000    0.000    0.000    0.000    0.000    0.000 
#
# Total GULP energy -290204.491278 kJ/mol
# GULP energy per Si atom -5580.855601 kJ/mol
# Density = 1.779206 g / cm^3
# Si number density = 17.832647 Si / 1000 Ang^3
#
#
#
# Elastic Constant Matrix: (Units=GPa)
#
#
# Indices 1 2 3 4 5 6 
#
# 1 116.6071 38.3721 17.6785 0.0000 0.0000 0.0000
# 2 38.3721 130.6066 45.6637 0.0000 0.0000 0.0000
# 3 17.6785 45.6637 95.9586 0.0000 0.0000 0.0000
# 4 0.0000 0.0000 0.0000 53.8388 0.0000 0.0000
# 5 0.0000 0.0000 0.0000 0.0000 21.7083 0.0000
# 6 0.0000 0.0000 0.0000 0.0000 0.0000 26.5762
#
#
#
# Elastic Compliance Matrix: (Units=1/GPa)
#
#
# Indices 1 2 3 4 5 6 
#
# 1 0.009514 -0.002618 -0.000507 0.000000 0.000000 0.000000
# 2 -0.002618 0.009905 -0.004231 0.000000 0.000000 0.000000
# 3 -0.000507 -0.004231 0.012528 0.000000 0.000000 0.000000
# 4 0.000000 0.000000 0.000000 0.018574 0.000000 0.000000
# 5 0.000000 0.000000 0.000000 0.000000 0.046065 0.000000
# 6 0.000000 0.000000 0.000000 0.000000 0.000000 0.037628
#
#
# Mechanical properties :
#
#
# Convention : Reuss Voigt Hill
#
# Bulk Modulus (GPa) = 58.02160 60.73343 59.37752
# Shear Modulus (GPa) = 32.32655 36.52186 34.42421
#
# Velocity S-wave (km/s) = 4.26229 4.53043 4.39840
# Velocity P-wave (km/s) = 7.53858 7.84205 7.69181
#
# Compressibility (1/GPa) = 0.01723496
#
# Stress axis : x y z
#
# Youngs Moduli (GPa) = 105.10623 100.95814 79.82083
#
# Poissons Ratio (x) = 0.26431 0.04047
# Poissons Ratio (y) = 0.27517 0.33774
# Poissons Ratio (z) = 0.05329 0.42718
#
# Static dielectric constant tensor:
#      x y z
#    x 1.595420 0.000000 0.000000 
#    y 0.000000 1.612180 0.000000 
#    z 0.000000 0.000000 1.668500 
# 
# From -- ./inp_files/4311.got.cif
#   From: 2010.05.17/outbox.ucp.g08.bks.cvg/sg54_3_cif.got.tgz:4311.got - 2010.06.11 16:34:40.
