data_PCOD9424229
_publ_section_title
;
Structure prediction by ZEFSAII (Michael W. Deem and Ramdas Pophale) SiO2 
 PCOD9424229
Probable space group: P C C A
;
_chemical_formula_sum "Si O2"
_cell_formula_units_Z 60
_cell_length_a 14.583050
_cell_length_b 10.656029
_cell_length_c 15.296020
_cell_angle_alpha 90.000000
_cell_angle_beta 90.000000
_cell_angle_gamma 90.000000
_cell_volume 2376.961795
_symmetry_space_group_name_H-M "P C C A"
_symmetry_group_IT_number 54
_symmetry_cell_setting 'orthorhombic'
loop_
_space_group_symop_operation_xyz
x,y,z
1/2-x,-y,z
1/2+x,-y,1/2-z
-x,y,1/2-z
-x,-y,-z
1/2+x,y,-z
1/2-x,y,1/2+z
x,-y,1/2+z
loop_
_atom_site_type_symbol
_atom_site_label
_atom_site_fract_x
_atom_site_fract_y
_atom_site_fract_z
Si Si1 0.896525 0.065938 0.225426
Si Si2 0.484577 0.369617 0.553220
Si Si3 0.140779 0.992574 0.449910
Si Si4 0.333947 0.184042 0.191678
Si Si5 0.663220 0.418375 0.198967
Si Si6 0.477971 0.242083 0.393795
Si Si7 0.500000 0.573464 0.250000
Si Si8 0.158272 0.820705 0.602615
O O1 0.871271 0.171085 0.296425
O O2 0.000000 0.035922 0.250000
O O3 0.887291 0.096000 0.122972
O O4 0.836927 0.945763 0.256055
O O5 0.500000 0.500000 0.500000
O O6 0.527413 0.270557 0.485711
O O7 0.517197 0.369452 0.653414
O O8 0.382757 0.305747 0.561147
O O9 0.087616 0.876370 0.403917
O O10 0.122120 0.945511 0.550378
O O11 0.250000 0.000000 0.445580
O O12 0.298361 0.298907 0.249624
O O13 0.438485 0.218665 0.170331
O O14 0.268029 0.175913 0.107752
O O15 0.750000 0.500000 0.167112
O O16 0.589533 0.355945 0.132616
O O17 0.594931 0.496080 0.262407
#
# Coordination Sequence:
#
# PCOD9424229 Si02
#       8
#     8   8   8   8   8   8   4   8
#     4  12  24  44  75 107 154 199 252 320 394 466
#     4  11  24  50  73 107 154 193 252 332 388 474
#     4  11  23  47  72 106 148 196 260 316 384 470
#     4  12  21  47  74 104 149 205 252 320 393 481
#     4  12  23  41  73 107 139 197 262 317 396 479
#     4  11  23  46  74 105 145 202 256 312 402 472
#     4  12  24  48  74 102 150 188 250 328 394 462
#     4  11  28  45  71 115 153 199 263 324 395 469
#
# _framework density 25.242308000000001
#
# number of rings (size 3 to 8) (size 9 to 14) (size 15 to 20)
#    0.000    0.533    5.333    2.800    0.933    0.533 
#    9.600    0.667    0.000    0.000    0.000    0.000 
#    0.000    0.000    0.000    0.000    0.000    0.000 
#
# Total GULP energy -334433.800347 kJ/mol
# GULP energy per Si atom -5573.896672 kJ/mol
# Density = 2.518486 g / cm^3
# Si number density = 25.242308 Si / 1000 Ang^3
#
#
#
# Elastic Constant Matrix: (Units=GPa)
#
#
# Indices 1 2 3 4 5 6 
#
# 1 118.1636 50.8719 42.2942 0.0000 0.0000 0.0000
# 2 50.8719 84.8617 43.4474 0.0000 0.0000 0.0000
# 3 42.2942 43.4474 167.3028 0.0000 0.0000 0.0000
# 4 0.0000 0.0000 0.0000 25.6293 0.0000 0.0000
# 5 0.0000 0.0000 0.0000 0.0000 44.8390 0.0000
# 6 0.0000 0.0000 0.0000 0.0000 0.0000 44.0843
#
#
#
# Elastic Compliance Matrix: (Units=1/GPa)
#
#
# Indices 1 2 3 4 5 6 
#
# 1 0.011649 -0.006315 -0.001305 0.000000 0.000000 0.000000
# 2 -0.006315 0.017014 -0.002822 0.000000 0.000000 0.000000
# 3 -0.001305 -0.002822 0.007040 0.000000 0.000000 0.000000
# 4 0.000000 0.000000 0.000000 0.039018 0.000000 0.000000
# 5 0.000000 0.000000 0.000000 0.000000 0.022302 0.000000
# 6 0.000000 0.000000 0.000000 0.000000 0.000000 0.022684
#
#
# Mechanical properties :
#
#
# Convention : Reuss Voigt Hill
#
# Bulk Modulus (GPa) = 67.48018 71.50613 69.49315
# Shear Modulus (GPa) = 34.35722 38.49150 36.42436
#
# Velocity S-wave (km/s) = 3.69331 3.90921 3.80279
# Velocity P-wave (km/s) = 6.70659 6.98321 6.84630
#
# Compressibility (1/GPa) = 0.01481917
#
# Stress axis : x y z
#
# Youngs Moduli (GPa) = 85.84736 58.77401 142.04699
#
# Poissons Ratio (x) = 0.37115 0.18535
# Poissons Ratio (y) = 0.54212 0.40087
# Poissons Ratio (z) = 0.11202 0.16587
#
# Static dielectric constant tensor:
#      x y z
#    x 2.028290 0.000000 0.000000 
#    y 0.000000 2.074380 0.000000 
#    z 0.000000 0.000000 2.115250 
# 
# From -- ./inp_files/18198.got.cif
#   From: 2010.05.17/outbox.cif.g08.bks.cpg/sg54_10_cif.got.tgz:18198.got - 2010.06.03 13:09:01.
