data_PCOD9424216
_publ_section_title
;
Structure prediction by ZEFSAII (Michael W. Deem and Ramdas Pophale) SiO2 
 PCOD9424216
Probable space group: P C C A
;
_chemical_formula_sum "Si O2"
_cell_formula_units_Z 48
_cell_length_a 9.556206
_cell_length_b 13.954758
_cell_length_c 16.935712
_cell_angle_alpha 90.000000
_cell_angle_beta 90.000000
_cell_angle_gamma 90.000000
_cell_volume 2258.454119
_symmetry_space_group_name_H-M "P C C A"
_symmetry_group_IT_number 54
_symmetry_cell_setting 'orthorhombic'
loop_
_space_group_symop_operation_xyz
x,y,z
1/2-x,-y,z
1/2+x,-y,1/2-z
-x,y,1/2-z
-x,-y,-z
1/2+x,y,-z
1/2-x,y,1/2+z
x,-y,1/2+z
loop_
_atom_site_type_symbol
_atom_site_label
_atom_site_fract_x
_atom_site_fract_y
_atom_site_fract_z
Si Si1 0.252599 0.784730 0.838858
Si Si2 0.252598 0.784730 0.661141
Si Si3 0.500001 0.865720 0.069507
Si Si4 0.000001 0.916308 0.115228
Si Si5 0.165694 0.408646 0.917822
Si Si6 0.834305 0.408645 0.917822
O O1 0.196403 0.780130 0.750000
O O2 0.134123 0.808428 0.901982
O O3 0.365244 0.869667 0.845048
O O4 0.321272 0.684395 0.863282
O O5 0.365241 0.869668 0.654952
O O6 0.321271 0.684396 0.636718
O O7 0.134122 0.808428 0.598017
O O8 0.500000 0.969295 0.112201
O O9 0.500001 0.882674 0.976281
O O10 0.250000 0.500000 0.883408
O O11 0.999999 0.427706 0.930636
O O12 0.249999 0.390332 0.000001
O O13 0.750000 0.500000 0.883406
#
# Coordination Sequence:
#
# PCOD9424216 Si02
#       6
#     8   8   8   8   8   8
#     4  12  26  42  65 100 139 174 214 274 338 392
#     4  12  26  42  65 100 139 174 214 274 338 392
#     4  11  25  43  68  99 126 181 227 276 318 397
#     4  11  23  45  70  93 132 173 233 272 328 385
#     4  11  24  43  71 100 132 174 223 273 326 392
#     4  11  24  43  71 100 132 174 223 273 326 392
#
# _framework density 21.253475999999999
#
# number of rings (size 3 to 8) (size 9 to 14) (size 15 to 20)
#    0.000    0.667    1.667    7.000    4.667    7.333 
#    0.000    0.000    0.000    0.000    0.000    0.000 
#    0.000    0.000    0.000    0.000    0.000    0.000 
#
# Total GULP energy -268547.189002 kJ/mol
# GULP energy per Si atom -5594.733104 kJ/mol
# Density = 2.120510 g / cm^3
# Si number density = 21.253476 Si / 1000 Ang^3
#
#
#
# Elastic Constant Matrix: (Units=GPa)
#
#
# Indices 1 2 3 4 5 6 
#
# 1 139.4979 26.1798 4.2536 0.0000 0.0000 0.0000
# 2 26.1798 109.4525 30.3710 0.0000 0.0000 0.0000
# 3 4.2536 30.3710 46.0335 0.0000 0.0000 0.0000
# 4 0.0000 0.0000 0.0000 14.3561 0.0000 0.0000
# 5 0.0000 0.0000 0.0000 0.0000 44.9178 0.0000
# 6 0.0000 0.0000 0.0000 0.0000 0.0000 34.3863
#
#
#
# Elastic Compliance Matrix: (Units=1/GPa)
#
#
# Indices 1 2 3 4 5 6 
#
# 1 0.007519 -0.001966 0.000602 0.000000 0.000000 0.000000
# 2 -0.001966 0.011698 -0.007536 0.000000 0.000000 0.000000
# 3 0.000602 -0.007536 0.026640 0.000000 0.000000 0.000000
# 4 0.000000 0.000000 0.000000 0.069657 0.000000 0.000000
# 5 0.000000 0.000000 0.000000 0.000000 0.022263 0.000000
# 6 0.000000 0.000000 0.000000 0.000000 0.000000 0.029081
#
#
# Mechanical properties :
#
#
# Convention : Reuss Voigt Hill
#
# Bulk Modulus (GPa) = 35.64141 46.28811 40.96476
# Shear Modulus (GPa) = 25.77204 34.34402 30.05803
#
# Velocity S-wave (km/s) = 3.48602 4.02422 3.76475
# Velocity P-wave (km/s) = 5.74537 6.58929 6.18175
#
# Compressibility (1/GPa) = 0.02805725
#
# Stress axis : x y z
#
# Youngs Moduli (GPa) = 132.99497 85.48756 37.53811
#
# Poissons Ratio (x) = 0.16803 -0.02260
# Poissons Ratio (y) = 0.26140 0.28289
# Poissons Ratio (z) = -0.08006 0.64423
#
# Static dielectric constant tensor:
#      x y z
#    x 1.716630 0.000000 0.000000 
#    y 0.000000 1.751570 0.000000 
#    z 0.000000 0.000000 1.749300 
# 
# From -- ./inp_files/16587.got.cif
#   From: 2010.05.17/outbox.cif.g08.bks.cpg/sg54_9_cif.got.tgz:16587.got - 2010.06.03 13:09:01.
