data_PCOD9424935
_publ_section_title
;
Structure prediction by ZEFSAII (Michael W. Deem and Ramdas Pophale) SiO2 
 PCOD9424935
Probable space group: P B A M
;
_chemical_formula_sum "Si O2"
_cell_formula_units_Z 52
_cell_length_a 14.330421
_cell_length_b 17.172341
_cell_length_c 10.000097
_cell_angle_alpha 90.000000
_cell_angle_beta 90.000000
_cell_angle_gamma 90.000000
_cell_volume 2460.892631
_symmetry_space_group_name_H-M "P B A M"
_symmetry_group_IT_number 55
_symmetry_cell_setting 'orthorhombic'
loop_
_space_group_symop_operation_xyz
x,y,z
-x,-y,z
1/2+x,1/2-y,-z
1/2-x,1/2+y,-z
-x,-y,-z
x,y,-z
1/2-x,1/2+y,z
1/2+x,1/2-y,z
loop_
_atom_site_type_symbol
_atom_site_label
_atom_site_fract_x
_atom_site_fract_y
_atom_site_fract_z
Si Si1 0.846104 0.393735 0.858000
Si Si2 0.132560 0.054460 0.159672
Si Si3 0.000000 0.500000 0.766816
Si Si4 0.377461 0.867645 0.343540
Si Si5 0.379616 0.699183 0.344943
Si Si6 0.154103 0.730732 0.647741
Si Si7 0.666294 0.590208 0.339478
O O1 0.743944 0.428762 0.834356
O O2 0.879040 0.331274 0.752141
O O3 0.919381 0.462479 0.853861
O O4 0.842072 0.352841 0.000000
O O5 0.095216 0.128088 0.246572
O O6 0.119452 0.974389 0.243958
O O7 0.106820 0.051343 0.000000
O O8 0.048475 0.434249 0.679175
O O9 0.363762 0.852300 0.500000
O O10 0.410480 0.783653 0.289984
O O11 0.275863 0.899402 0.298994
O O12 0.408620 0.683431 0.500000
O O13 0.266762 0.715056 0.350325
O O14 0.119436 0.711971 0.500000
O O15 0.131141 0.820799 0.674512
O O16 0.661109 0.569711 0.500000
#
# Coordination Sequence:
#
# PCOD9424935 Si02
#       7
#     8   8   4   8   8   8   8
#     4  10  21  33  44  64  99 136 168 197 236 286
#     4  10  18  29  46  72  97 125 164 203 242 288
#     4  12  20  32  48  70 103 138 167 192 237 284
#     4   9  18  30  46  70  97 128 168 203 237 285
#     4   8  15  30  47  65  92 125 159 203 248 283
#     4   8  16  30  49  67  89 122 163 205 245 287
#     4   9  16  30  49  72  97 124 158 203 254 291
#
# _framework density 21.130545000000001
#
# number of rings (size 3 to 8) (size 9 to 14) (size 15 to 20)
#    0.000    2.769    1.538    2.769    0.000    2.462 
#    0.000    3.846    0.000    0.000    0.000    1.077 
#    0.000    7.385    0.000    0.000    0.000    0.000 
#
# Total GULP energy -289805.141234 kJ/mol
# GULP energy per Si atom -5573.175793 kJ/mol
# Density = 2.108245 g / cm^3
# Si number density = 21.130545 Si / 1000 Ang^3
#
#
#
# Elastic Constant Matrix: (Units=GPa)
#
#
# Indices 1 2 3 4 5 6 
#
# 1 32.7873 -0.3881 -0.0173 0.0000 0.0000 0.0000
# 2 -0.3881 145.1441 87.7490 0.0000 0.0000 0.0000
# 3 -0.0173 87.7490 105.7426 0.0000 0.0000 0.0000
# 4 0.0000 0.0000 0.0000 34.9810 0.0000 0.0000
# 5 0.0000 0.0000 0.0000 0.0000 -1.6803 0.0000
# 6 0.0000 0.0000 0.0000 0.0000 0.0000 26.4469
#
#
#
# Elastic Compliance Matrix: (Units=1/GPa)
#
#
# Indices 1 2 3 4 5 6 
#
# 1 0.030501 0.000158 -0.000126 0.000000 0.000000 0.000000
# 2 0.000158 0.013827 -0.011474 0.000000 0.000000 0.000000
# 3 -0.000126 -0.011474 0.018979 0.000000 0.000000 0.000000
# 4 0.000000 0.000000 0.000000 0.028587 0.000000 0.000000
# 5 0.000000 0.000000 0.000000 0.000000 -0.595142 0.000000
# 6 0.000000 0.000000 0.000000 0.000000 0.000000 0.037812
#
#
# Mechanical properties :
#
#
# Convention : Reuss Voigt Hill
#
# Bulk Modulus (GPa) = 24.73878 50.92903 37.83390
# Shear Modulus (GPa) = -11.65289 25.03821 6.69266
#
# Velocity S-wave (km/s) = -2.35089 3.44601 1.78162
# Velocity P-wave (km/s) = 2.08904 6.32359 4.70913
#
# Compressibility (1/GPa) = 0.04042236
#
# Stress axis : x y z
#
# Youngs Moduli (GPa) = 32.78533 72.32249 52.69119
#
# Poissons Ratio (x) = -0.01140 0.00663
# Poissons Ratio (y) = -0.00517 0.60458
# Poissons Ratio (z) = 0.00413 0.82983
#
# Static dielectric constant tensor:
#      x y z
#    x 1.843670 0.000000 0.000000 
#    y 0.000000 1.763100 0.000000 
#    z 0.000000 0.000000 1.767660 
# 
# From -- ./inp_files/7620.got.cif
#   From: 2010.05.17/outbox.cif.g08.bks.cpg/sg55_4_cif.got.tgz:7620.got - 2010.06.03 13:27:54.
