data_PCOD9424215
_publ_section_title
;
Structure prediction by ZEFSAII (Michael W. Deem and Ramdas Pophale) SiO2 
 PCOD9424215
Probable space group: P C C A
;
_chemical_formula_sum "Si O2"
_cell_formula_units_Z 32
_cell_length_a 12.732625
_cell_length_b 7.447610
_cell_length_c 17.074512
_cell_angle_alpha 90.000000
_cell_angle_beta 90.000000
_cell_angle_gamma 90.000000
_cell_volume 1619.135426
_symmetry_space_group_name_H-M "P C C A"
_symmetry_group_IT_number 54
_symmetry_cell_setting 'orthorhombic'
loop_
_space_group_symop_operation_xyz
x,y,z
1/2-x,-y,z
1/2+x,-y,1/2-z
-x,y,1/2-z
-x,-y,-z
1/2+x,y,-z
1/2-x,y,1/2+z
x,-y,1/2+z
loop_
_atom_site_type_symbol
_atom_site_label
_atom_site_fract_x
_atom_site_fract_y
_atom_site_fract_z
Si Si1 0.250000 0.000000 0.707076
Si Si2 0.680004 0.661812 0.694033
Si Si3 0.636882 0.900996 0.552150
Si Si4 0.446024 0.143796 0.612735
Si Si5 0.000000 0.421984 0.250000
O O1 0.238588 0.179712 0.759145
O O2 0.358059 0.024306 0.658333
O O3 0.750000 0.500000 0.663822
O O4 0.630704 0.754101 0.619372
O O5 0.597749 0.556712 0.747222
O O6 0.612962 0.810556 0.468432
O O7 0.750000 0.000000 0.550241
O O8 0.548660 0.042063 0.580408
O O9 0.484475 0.295356 0.673762
#
# Coordination Sequence:
#
# PCOD9424215 Si02
#       5
#     4   8   8   8   4
#     4  12  22  46  70 102 138 192 228 288 344 412
#     4  12  24  42  69  98 142 177 227 289 338 413
#     4  11  23  45  68 101 140 189 228 283 355 415
#     4  11  24  43  74  99 141 183 236 285 345 422
#     4  12  24  44  66 110 132 180 242 290 344 408
#
# _framework density 19.763632999999999
#
# number of rings (size 3 to 8) (size 9 to 14) (size 15 to 20)
#    0.000    0.500    5.000    4.500    0.000    1.000 
#    4.500    0.000    0.000    0.000    0.000    0.000 
#    0.000    0.000    0.000    0.000    0.000    0.000 
#
# Total GULP energy -178512.309244 kJ/mol
# GULP energy per Si atom -5578.509664 kJ/mol
# Density = 1.971865 g / cm^3
# Si number density = 19.763633 Si / 1000 Ang^3
#
#
#
# Elastic Constant Matrix: (Units=GPa)
#
#
# Indices 1 2 3 4 5 6 
#
# 1 80.2009 24.2898 17.6548 0.0000 0.0000 0.0000
# 2 24.2898 75.5551 41.9568 0.0000 0.0000 0.0000
# 3 17.6548 41.9568 128.9278 0.0000 0.0000 0.0000
# 4 0.0000 0.0000 0.0000 3.8107 0.0000 0.0000
# 5 0.0000 0.0000 0.0000 0.0000 43.4975 0.0000
# 6 0.0000 0.0000 0.0000 0.0000 0.0000 36.9935
#
#
#
# Elastic Compliance Matrix: (Units=1/GPa)
#
#
# Indices 1 2 3 4 5 6 
#
# 1 0.013845 -0.004148 -0.000546 0.000000 0.000000 0.000000
# 2 -0.004148 0.017397 -0.005094 0.000000 0.000000 0.000000
# 3 -0.000546 -0.005094 0.009489 0.000000 0.000000 0.000000
# 4 0.000000 0.000000 0.000000 0.262418 0.000000 0.000000
# 5 0.000000 0.000000 0.000000 0.000000 0.022990 0.000000
# 6 0.000000 0.000000 0.000000 0.000000 0.000000 0.027032
#
#
# Mechanical properties :
#
#
# Convention : Reuss Voigt Hill
#
# Bulk Modulus (GPa) = 47.26743 50.27629 48.77186
# Shear Modulus (GPa) = 13.16489 30.24584 21.70536
#
# Velocity S-wave (km/s) = 2.58372 3.91625 3.31758
# Velocity P-wave (km/s) = 5.73316 6.77815 6.27744
#
# Compressibility (1/GPa) = 0.02115622
#
# Stress axis : x y z
#
# Youngs Moduli (GPa) = 72.22775 57.47992 105.38875
#
# Poissons Ratio (x) = 0.23841 0.05755
# Poissons Ratio (y) = 0.29958 0.53681
# Poissons Ratio (z) = 0.03944 0.29278
#
# Static dielectric constant tensor:
#      x y z
#    x 1.644450 0.000000 0.000000 
#    y 0.000000 1.651760 0.000000 
#    z 0.000000 0.000000 1.650430 
# 
# From -- ./inp_files/12274.got.cif
#   From: 2010.05.17/outbox.cif.g08.bks.cpg/sg54_7_cif.got.tgz:12274.got - 2010.06.03 13:09:01.
