data_PCOD9424648
_publ_section_title
;
Structure prediction by ZEFSAII (Michael W. Deem and Ramdas Pophale) SiO2 
 PCOD9424648
Probable space group: P C C A
;
_chemical_formula_sum "Si O2"
_cell_formula_units_Z 40
_cell_length_a 18.000000
_cell_length_b 12.000000
_cell_length_c 9.000000
_cell_angle_alpha 90.000000
_cell_angle_beta 90.000000
_cell_angle_gamma 90.000000
_cell_volume 1944.000000
_symmetry_space_group_name_H-M "P C C A"
_symmetry_group_IT_number 54
_symmetry_cell_setting 'orthorhombic'
loop_
_space_group_symop_operation_xyz
x,y,z
1/2-x,-y,z
1/2+x,-y,1/2-z
-x,y,1/2-z
-x,-y,-z
1/2+x,y,-z
1/2-x,y,1/2+z
x,-y,1/2+z
loop_
_atom_site_type_symbol
_atom_site_label
_atom_site_fract_x
_atom_site_fract_y
_atom_site_fract_z
Si Si1 0.080068 0.917012 0.827649
Si Si2 0.920826 0.141340 0.823322
Si Si3 0.185625 0.338246 0.585479
Si Si4 0.158135 0.697111 0.739366
Si Si5 0.943134 0.507270 0.864382
O O1 0.134846 0.825689 0.757167
O O2 0.000000 0.903598 0.750000
O O3 0.105769 0.040141 0.781007
O O4 0.070409 0.900134 0.004975
O O5 0.860121 0.237498 0.838781
O O6 0.000000 0.175976 0.750000
O O7 0.270490 0.329709 0.638071
O O8 0.179995 0.335937 0.407276
O O9 0.134958 0.443900 0.626529
O O10 0.085059 0.629623 0.684590
O O11 0.000000 0.453301 0.750000
O O12 0.000000 0.500000 0.000000
#
# Coordination Sequence:
#
# PCOD9424648 Si02
#       5
#     8   8   8   8   8
#     4  10  21  39  65  94 130 168 215 265 313 380
#     4  10  21  40  64  97 128 169 217 262 318 375
#     4  11  26  43  64  95 133 170 214 267 326 387
#     4  11  26  43  64  95 132 171 211 268 327 382
#     4  12  25  45  70  95 124 166 217 267 325 392
#
# _framework density 20.576132000000001
#
# number of rings (size 3 to 8) (size 9 to 14) (size 15 to 20)
#    0.000    1.200    2.000    4.200    5.600    5.600 
#    0.000    4.000    0.000    0.000    0.000    0.000 
#    0.000    0.000    0.000    0.000    0.000    0.000 
#
# Total GULP energy -223112.178167 kJ/mol
# GULP energy per Si atom -5577.804454 kJ/mol
# Density = 2.052930 g / cm^3
# Si number density = 20.576132 Si / 1000 Ang^3
#
#
#
# Elastic Constant Matrix: (Units=GPa)
#
#
# Indices 1 2 3 4 5 6 
#
# 1 100.8086 32.5425 34.0245 0.0000 0.0000 0.0000
# 2 32.5425 86.0775 26.4613 0.0000 0.0000 0.0000
# 3 34.0245 26.4613 94.5241 0.0000 0.0000 0.0000
# 4 0.0000 0.0000 0.0000 6.4386 0.0000 0.0000
# 5 0.0000 0.0000 0.0000 0.0000 43.3582 0.0000
# 6 0.0000 0.0000 0.0000 0.0000 0.0000 32.9685
#
#
#
# Elastic Compliance Matrix: (Units=1/GPa)
#
#
# Indices 1 2 3 4 5 6 
#
# 1 0.012221 -0.003576 -0.003398 0.000000 0.000000 0.000000
# 2 -0.003576 0.013758 -0.002564 0.000000 0.000000 0.000000
# 3 -0.003398 -0.002564 0.012520 0.000000 0.000000 0.000000
# 4 0.000000 0.000000 0.000000 0.155314 0.000000 0.000000
# 5 0.000000 0.000000 0.000000 0.000000 0.023064 0.000000
# 6 0.000000 0.000000 0.000000 0.000000 0.000000 0.030332
#
#
# Mechanical properties :
#
#
# Convention : Reuss Voigt Hill
#
# Bulk Modulus (GPa) = 51.48552 51.94074 51.71313
# Shear Modulus (GPa) = 18.33121 29.11185 23.72153
#
# Velocity S-wave (km/s) = 2.98803 3.76551 3.39907
# Velocity P-wave (km/s) = 6.08118 6.64857 6.37119
#
# Compressibility (1/GPa) = 0.01942294
#
# Stress axis : x y z
#
# Youngs Moduli (GPa) = 81.82670 72.68742 79.87039
#
# Poissons Ratio (x) = 0.25991 0.27140
# Poissons Ratio (y) = 0.29259 0.20481
# Poissons Ratio (z) = 0.27805 0.18639
#
# Static dielectric constant tensor:
#      x y z
#    x 1.667470 0.000000 0.000000 
#    y 0.000000 1.784960 0.000000 
#    z 0.000000 0.000000 1.688790 
# 
# From -- ./inp_files/3943.got.cif
#   From: 2010.05.17/outbox.ucp.g08.bks.cvg/sg54_2_cif.got.tgz:3943.got - 2010.06.11 16:34:40.
