data_PCOD9424955
_publ_section_title
;
Structure prediction by ZEFSAII (Michael W. Deem and Ramdas Pophale) SiO2 
 PCOD9424955
Probable space group: P B A M
;
_chemical_formula_sum "Si O2"
_cell_formula_units_Z 64
_cell_length_a 15.146860
_cell_length_b 25.045843
_cell_length_c 7.458249
_cell_angle_alpha 90.000000
_cell_angle_beta 90.000000
_cell_angle_gamma 90.000000
_cell_volume 2829.405177
_symmetry_space_group_name_H-M "P B A M"
_symmetry_group_IT_number 55
_symmetry_cell_setting 'orthorhombic'
loop_
_space_group_symop_operation_xyz
x,y,z
-x,-y,z
1/2+x,1/2-y,-z
1/2-x,1/2+y,-z
-x,-y,-z
x,y,-z
1/2-x,1/2+y,z
1/2+x,1/2-y,z
loop_
_atom_site_type_symbol
_atom_site_label
_atom_site_fract_x
_atom_site_fract_y
_atom_site_fract_z
Si Si1 0.261490 0.901234 0.283668
Si Si2 0.055739 0.550682 0.211040
Si Si3 0.944832 0.949891 0.712868
Si Si4 0.348542 0.749437 0.220166
Si Si5 0.947491 0.645469 0.794118
Si Si6 0.667425 0.707775 0.205301
Si Si7 0.756200 0.977581 0.715923
Si Si8 0.987822 0.831718 0.784161
O O1 0.261047 0.896896 0.500000
O O2 0.360578 0.891883 0.214844
O O3 0.203649 0.853064 0.207898
O O4 0.231666 0.960268 0.233632
O O5 0.160062 0.541808 0.224891
O O6 0.000000 0.500000 0.285122
O O7 0.023276 0.607849 0.286240
O O8 0.033112 0.553121 0.000000
O O9 0.937024 0.958971 0.500000
O O10 0.844012 0.947689 0.781509
O O11 0.992328 0.893581 0.737131
O O12 0.000000 0.000000 0.786047
O O13 0.410626 0.798786 0.281533
O O14 0.248616 0.758653 0.284300
O O15 0.396357 0.695236 0.273246
O O16 0.345012 0.752519 0.000000
O O17 0.971618 0.658065 0.000000
O O18 0.570524 0.702613 0.286428
O O19 0.656789 0.726139 0.000000
O O20 0.752758 0.975201 0.500000
O O21 0.991323 0.828587 0.000000
#
# Coordination Sequence:
#
# PCOD9424955 Si02
#       8
#     8   8   8   8   8   8   8   8
#     4  10  18  29  50  77 102 135 182 222 254 308
#     4  10  19  31  50  79 112 145 181 222 269 322
#     4  10  22  41  60  78 108 147 183 225 282 340
#     4   8  16  33  54  77 105 136 173 216 264 319
#     4   9  17  32  51  74 107 144 178 217 266 312
#     4   9  18  33  54  77 104 138 172 218 272 317
#     4  10  21  34  50  75 107 145 180 216 271 328
#     4  10  20  36  58  84 107 136 183 229 272 324
#
# _framework density 22.619595
#
# number of rings (size 3 to 8) (size 9 to 14) (size 15 to 20)
#    0.000    2.500    1.250    1.875    0.000    3.500 
#    2.250    2.500    0.000    0.000    0.000    0.000 
#    0.000    0.000    0.000    0.000    0.000    0.000 
#
# Total GULP energy -357100.404178 kJ/mol
# GULP energy per Si atom -5579.693815 kJ/mol
# Density = 2.256811 g / cm^3
# Si number density = 22.619595 Si / 1000 Ang^3
#
#
#
# Elastic Constant Matrix: (Units=GPa)
#
#
# Indices 1 2 3 4 5 6 
#
# 1 132.0833 33.0445 -6.8551 0.0000 0.0000 0.0000
# 2 33.0445 64.6370 -4.1903 0.0000 0.0000 0.0000
# 3 -6.8551 -4.1903 69.0550 0.0000 0.0000 0.0000
# 4 0.0000 0.0000 0.0000 33.2337 0.0000 0.0000
# 5 0.0000 0.0000 0.0000 0.0000 2.8756 0.0000
# 6 0.0000 0.0000 0.0000 0.0000 0.0000 31.0311
#
#
#
# Elastic Compliance Matrix: (Units=1/GPa)
#
#
# Indices 1 2 3 4 5 6 
#
# 1 0.008706 -0.004412 0.000597 0.000000 0.000000 0.000000
# 2 -0.004412 0.017768 0.000640 0.000000 0.000000 0.000000
# 3 0.000597 0.000640 0.014579 0.000000 0.000000 0.000000
# 4 0.000000 0.000000 0.000000 0.030090 0.000000 0.000000
# 5 0.000000 0.000000 0.000000 0.000000 0.347758 0.000000
# 6 0.000000 0.000000 0.000000 0.000000 0.000000 0.032226
#
#
# Mechanical properties :
#
#
# Convention : Reuss Voigt Hill
#
# Bulk Modulus (GPa) = 28.81638 34.41928 31.61783
# Shear Modulus (GPa) = 10.65996 29.67982 20.16989
#
# Velocity S-wave (km/s) = 2.17323 3.62626 2.98937
# Velocity P-wave (km/s) = 4.36629 5.72561 5.09152
#
# Compressibility (1/GPa) = 0.03470249
#
# Stress axis : x y z
#
# Youngs Moduli (GPa) = 114.86702 56.28081 68.59052
#
# Poissons Ratio (x) = 0.24831 -0.04091
# Poissons Ratio (y) = 0.50679 -0.04391
# Poissons Ratio (z) = -0.06852 -0.03603
#
# Static dielectric constant tensor:
#      x y z
#    x 1.848690 0.000000 0.000000 
#    y 0.000000 1.819430 0.000000 
#    z 0.000000 0.000000 1.898660 
# 
# From -- ./inp_files/6497.got.cif
#   From: 2010.05.17/outbox.cif.g08.bks.cpg/sg55_4_cif.got.tgz:6497.got - 2010.06.03 13:27:54.
