data_PCOD9424001
_publ_section_title
;
Structure prediction by ZEFSAII (Michael W. Deem and Ramdas Pophale) SiO2 
 PCOD9424001
Probable space group: P C C A
;
_chemical_formula_sum "Si O2"
_cell_formula_units_Z 60
_cell_length_a 12.692498
_cell_length_b 18.744414
_cell_length_c 10.402877
_cell_angle_alpha 90.000000
_cell_angle_beta 90.000000
_cell_angle_gamma 90.000000
_cell_volume 2474.984224
_symmetry_space_group_name_H-M "P C C A"
_symmetry_group_IT_number 54
_symmetry_cell_setting 'orthorhombic'
loop_
_space_group_symop_operation_xyz
x,y,z
1/2-x,-y,z
1/2+x,-y,1/2-z
-x,y,1/2-z
-x,-y,-z
1/2+x,y,-z
1/2-x,y,1/2+z
x,-y,1/2+z
loop_
_atom_site_type_symbol
_atom_site_label
_atom_site_fract_x
_atom_site_fract_y
_atom_site_fract_z
Si Si1 0.355682 0.470390 0.389327
Si Si2 0.100725 0.234634 0.815319
Si Si3 0.699063 0.905466 0.644948
Si Si4 0.406611 0.269826 0.613797
Si Si5 0.500000 0.006654 0.250000
Si Si6 0.803710 0.638221 0.333347
Si Si7 0.037029 0.393824 0.441889
Si Si8 0.137815 0.103748 0.144903
O O1 0.250000 0.500000 0.458193
O O2 0.312517 0.426993 0.266866
O O3 0.423660 0.540376 0.355845
O O4 0.434879 0.422971 0.477213
O O5 0.191190 0.177188 0.814984
O O6 0.124478 0.302218 0.731541
O O7 0.000000 0.199864 0.750000
O O8 0.089576 0.257252 0.960762
O O9 0.701792 0.905913 0.489469
O O10 0.798284 0.925448 0.731580
O O11 0.593656 0.944634 0.693410
O O12 0.308016 0.321645 0.648693
O O13 0.510277 0.319452 0.625870
O O14 0.395910 0.187443 0.661433
O O15 0.459111 0.951204 0.140961
O O16 0.865312 0.620086 0.462941
#
# Coordination Sequence:
#
# PCOD9424001 Si02
#       8
#     8   8   8   8   4   8   8   8
#     4  11  25  44  68 101 141 187 241 304 384 442
#     4  11  20  44  74 107 140 200 244 304 373 452
#     4  11  25  48  80 112 159 205 254 314 386 455
#     4  11  24  44  73 113 145 192 256 310 377 447
#     4  12  26  48  78 118 154 210 252 318 376 462
#     4  12  23  44  75  97 146 192 243 310 377 450
#     4  11  24  44  72 104 135 189 247 310 369 461
#     4  11  27  49  75 117 161 201 262 313 384 461
#
# _framework density 24.242577000000001
#
# number of rings (size 3 to 8) (size 9 to 14) (size 15 to 20)
#    0.000    0.800    4.667    2.000    0.000    6.933 
#    7.200    0.000    0.000    0.000    0.000    0.000 
#    0.000    0.000    0.000    0.000    0.000    0.000 
#
# Total GULP energy -335024.248193 kJ/mol
# GULP energy per Si atom -5583.737470 kJ/mol
# Density = 2.418740 g / cm^3
# Si number density = 24.242577 Si / 1000 Ang^3
#
#
#
# Elastic Constant Matrix: (Units=GPa)
#
#
# Indices 1 2 3 4 5 6 
#
# 1 82.4656 33.6102 38.7993 0.0000 0.0000 0.0000
# 2 33.6102 161.2549 43.6688 0.0000 0.0000 0.0000
# 3 38.7993 43.6688 84.7091 0.0000 0.0000 0.0000
# 4 0.0000 0.0000 0.0000 -260.3259 0.0000 0.0000
# 5 0.0000 0.0000 0.0000 0.0000 33.3182 0.0000
# 6 0.0000 0.0000 0.0000 0.0000 0.0000 43.5916
#
#
#
# Elastic Compliance Matrix: (Units=1/GPa)
#
#
# Indices 1 2 3 4 5 6 
#
# 1 0.015783 -0.001548 -0.006431 0.000000 0.000000 0.000000
# 2 -0.001548 0.007359 -0.003085 0.000000 0.000000 0.000000
# 3 -0.006431 -0.003085 0.016341 0.000000 0.000000 0.000000
# 4 0.000000 0.000000 0.000000 -0.003841 0.000000 0.000000
# 5 0.000000 0.000000 0.000000 0.000000 0.030014 0.000000
# 6 0.000000 0.000000 0.000000 0.000000 0.000000 0.022940
#
#
# Mechanical properties :
#
#
# Convention : Reuss Voigt Hill
#
# Bulk Modulus (GPa) = 57.61855 62.28738 59.95297
# Shear Modulus (GPa) = 42.91522 -22.52648 10.19437
#
# Velocity S-wave (km/s) = 4.21199 -3.05160 2.05287
# Velocity P-wave (km/s) = 6.89011 3.65141 5.51391
#
# Compressibility (1/GPa) = 0.01735552
#
# Stress axis : x y z
#
# Youngs Moduli (GPa) = 63.35960 135.88037 61.19584
#
# Poissons Ratio (x) = 0.21035 0.39355
# Poissons Ratio (y) = 0.09808 0.18878
# Poissons Ratio (z) = 0.40747 0.41917
#
# Static dielectric constant tensor:
#      x y z
#    x 2.070230 0.000000 0.000000 
#    y 0.000000 1.947680 0.000000 
#    z 0.000000 0.000000 1.926530 
# 
# From -- ./inp_files/7636.got.cif
#   From: 2010.05.17/outbox.cif.g08.bks.cpg/sg54_4_cif.got.tgz:7636.got - 2010.06.03 13:09:01.
