data_PCOD9424780
_publ_section_title
;
Structure prediction by ZEFSAII (Michael W. Deem and Ramdas Pophale) SiO2 
 PCOD9424780
Probable space group: P B A M
;
_chemical_formula_sum "Si O2"
_cell_formula_units_Z 64
_cell_length_a 15.209990
_cell_length_b 31.160779
_cell_length_c 7.511030
_cell_angle_alpha 90.000000
_cell_angle_beta 90.000000
_cell_angle_gamma 90.000000
_cell_volume 3559.891253
_symmetry_space_group_name_H-M "P B A M"
_symmetry_group_IT_number 55
_symmetry_cell_setting 'orthorhombic'
loop_
_space_group_symop_operation_xyz
x,y,z
-x,-y,z
1/2+x,1/2-y,-z
1/2-x,1/2+y,-z
-x,-y,-z
x,y,-z
1/2-x,1/2+y,z
1/2+x,1/2-y,z
loop_
_atom_site_type_symbol
_atom_site_label
_atom_site_fract_x
_atom_site_fract_y
_atom_site_fract_z
Si Si1 0.100529 0.047154 0.286713
Si Si2 0.678182 0.365420 0.788837
Si Si3 0.185821 0.866398 0.701466
Si Si4 0.008434 0.276204 0.214194
Si Si5 0.703210 0.214732 0.206321
Si Si6 0.899804 0.050021 0.281834
Si Si7 0.183040 0.703389 0.781188
Si Si8 0.996661 0.174871 0.786006
O O1 0.095457 0.045485 0.500000
O O2 0.169722 0.083855 0.239632
O O3 0.001098 0.058713 0.224594
O O4 0.120858 0.998714 0.227021
O O5 0.760691 0.337955 0.723467
O O6 0.587136 0.345494 0.718705
O O7 0.676598 0.358006 0.000000
O O8 0.218003 0.871539 0.500000
O O9 0.247481 0.830657 0.787470
O O10 0.167533 0.913522 0.780754
O O11 0.088451 0.846114 0.701558
O O12 0.917863 0.296964 0.280773
O O13 0.998599 0.225457 0.244710
O O14 0.104996 0.288589 0.283908
O O15 0.009178 0.283523 0.000000
O O16 0.765010 0.253269 0.277679
O O17 0.690533 0.227043 0.000000
O O18 0.899205 0.051807 0.500000
O O19 0.180190 0.704599 0.000000
O O20 0.989636 0.168358 0.000000
#
# Coordination Sequence:
#
# PCOD9424780 Si02
#       8
#     8   8   8   8   8   8   8   8
#     4   9  16  30  47  62  85 120 152 179 215 275
#     4  10  18  27  43  70  95 117 148 189 224 253
#     4  11  20  30  44  66  92 120 150 185 225 262
#     4   9  16  28  47  66  86 120 158 184 209 255
#     4  10  18  30  48  67  87 117 156 186 213 262
#     4   8  16  29  45  62  85 119 153 177 215 275
#     4   9  16  27  45  66  91 120 150 180 216 263
#     4  10  17  27  45  66  90 121 155 183 211 256
#
# _framework density 17.978076000000001
#
# number of rings (size 3 to 8) (size 9 to 14) (size 15 to 20)
#    0.000    2.500    3.750    1.125    0.000    0.000 
#    0.000    3.750    0.000    0.000    0.000    0.875 
#    0.000    7.000    0.000    0.000    0.000    0.000 
#
# Total GULP energy -356776.154693 kJ/mol
# GULP energy per Si atom -5574.627417 kJ/mol
# Density = 1.793716 g / cm^3
# Si number density = 17.978076 Si / 1000 Ang^3
#
#
#
# Elastic Constant Matrix: (Units=GPa)
#
#
# Indices 1 2 3 4 5 6 
#
# 1 113.2973 54.6580 0.0966 0.0000 0.0000 0.0000
# 2 54.6580 93.7411 0.7554 0.0000 0.0000 0.0000
# 3 0.0966 0.7554 40.8622 0.0000 0.0000 0.0000
# 4 0.0000 0.0000 0.0000 15.8471 0.0000 0.0000
# 5 0.0000 0.0000 0.0000 0.0000 8.8640 0.0000
# 6 0.0000 0.0000 0.0000 0.0000 0.0000 23.6053
#
#
#
# Elastic Compliance Matrix: (Units=1/GPa)
#
#
# Indices 1 2 3 4 5 6 
#
# 1 0.012281 -0.007162 0.000103 0.000000 0.000000 0.000000
# 2 -0.007162 0.014846 -0.000258 0.000000 0.000000 0.000000
# 3 0.000103 -0.000258 0.024477 0.000000 0.000000 0.000000
# 4 0.000000 0.000000 0.000000 0.063103 0.000000 0.000000
# 5 0.000000 0.000000 0.000000 0.000000 0.112815 0.000000
# 6 0.000000 0.000000 0.000000 0.000000 0.000000 0.042363
#
#
# Mechanical properties :
#
#
# Convention : Reuss Voigt Hill
#
# Bulk Modulus (GPa) = 27.04745 39.88009 33.46377
# Shear Modulus (GPa) = 16.84402 22.48933 19.66667
#
# Velocity S-wave (km/s) = 3.06424 3.54069 3.31104
# Velocity P-wave (km/s) = 5.25326 6.24068 5.76814
#
# Compressibility (1/GPa) = 0.03697207
#
# Stress axis : x y z
#
# Youngs Moduli (GPa) = 81.42473 67.36009 40.85470
#
# Poissons Ratio (x) = 0.48242 -0.00422
# Poissons Ratio (y) = 0.58314 0.01052
# Poissons Ratio (z) = -0.00842 0.01735
#
# Static dielectric constant tensor:
#      x y z
#    x 1.613360 0.000000 0.000000 
#    y 0.000000 1.631270 0.000000 
#    z 0.000000 0.000000 1.678900 
# 
# From -- ./inp_files/6929.got.cif
#   From: 2010.05.17/outbox.cif.g08.bks.cpg/sg55_4_cif.got.tgz:6929.got - 2010.06.03 13:27:54.
