data_PCOD9424200
_publ_section_title
;
Structure prediction by ZEFSAII (Michael W. Deem and Ramdas Pophale) SiO2 
 PCOD9424200
Probable space group: P C C A
;
_chemical_formula_sum "Si O2"
_cell_formula_units_Z 56
_cell_length_a 26.758877
_cell_length_b 6.289016
_cell_length_c 14.685313
_cell_angle_alpha 90.000000
_cell_angle_beta 90.000000
_cell_angle_gamma 90.000000
_cell_volume 2471.347351
_symmetry_space_group_name_H-M "P C C A"
_symmetry_group_IT_number 54
_symmetry_cell_setting 'orthorhombic'
loop_
_space_group_symop_operation_xyz
x,y,z
1/2-x,-y,z
1/2+x,-y,1/2-z
-x,y,1/2-z
-x,-y,-z
1/2+x,y,-z
1/2-x,y,1/2+z
x,-y,1/2+z
loop_
_atom_site_type_symbol
_atom_site_label
_atom_site_fract_x
_atom_site_fract_y
_atom_site_fract_z
Si Si1 0.306519 0.551644 0.706168
Si Si2 0.050039 0.430020 0.797116
Si Si3 0.191895 0.517981 0.426166
Si Si4 0.626626 0.729860 0.427670
Si Si5 0.382801 0.809876 0.380844
Si Si6 0.127341 0.095301 0.708147
Si Si7 0.544032 0.148137 0.033254
O O1 0.250000 0.500000 0.682273
O O2 0.311567 0.543118 0.816316
O O3 0.345381 0.408319 0.649520
O O4 0.321477 0.789531 0.683073
O O5 0.082251 0.621692 0.839931
O O6 0.086049 0.274117 0.736562
O O7 0.030449 0.278516 0.877348
O O8 0.000000 0.515174 0.750000
O O9 0.250000 0.500000 0.450305
O O10 0.163355 0.696463 0.485277
O O11 0.160275 0.302210 0.439563
O O12 0.571024 0.682147 0.465978
O O13 0.614812 0.949737 0.376745
O O14 0.363658 0.944595 0.294874
O O15 0.413881 0.978592 0.437672
O O16 0.500000 0.000000 0.000000
#
# Coordination Sequence:
#
# PCOD9424200 Si02
#       7
#     8   8   8   8   8   8   8
#     4  11  25  48  72 104 148 187 244 303 368 440
#     4  11  23  44  72  99 141 194 240 300 373 432
#     4  11  23  48  73 103 147 192 242 302 368 435
#     4  12  24  45  72 106 146 187 245 301 366 437
#     4  11  23  48  71 101 147 189 241 302 367 439
#     4  11  23  43  71 103 141 186 240 293 362 434
#     4  11  26  44  68 107 143 186 247 302 371 446
#
# _framework density 22.659703
#
# number of rings (size 3 to 8) (size 9 to 14) (size 15 to 20)
#    0.000    0.857    4.286    2.143    2.000    5.714 
#    5.143    1.429    0.000    0.000    0.000    0.000 
#    0.000    0.000    0.000    0.000    0.000    0.000 
#
# Total GULP energy -312692.639104 kJ/mol
# GULP energy per Si atom -5583.797127 kJ/mol
# Density = 2.260813 g / cm^3
# Si number density = 22.659703 Si / 1000 Ang^3
#
#
#
# Elastic Constant Matrix: (Units=GPa)
#
#
# Indices 1 2 3 4 5 6 
#
# 1 110.0706 26.3860 34.1807 0.0000 0.0000 0.0000
# 2 26.3860 66.2256 17.9208 0.0000 0.0000 0.0000
# 3 34.1807 17.9208 106.8608 0.0000 0.0000 0.0000
# 4 0.0000 0.0000 0.0000 10.5902 0.0000 0.0000
# 5 0.0000 0.0000 0.0000 0.0000 14.6290 0.0000
# 6 0.0000 0.0000 0.0000 0.0000 0.0000 33.5805
#
#
#
# Elastic Compliance Matrix: (Units=1/GPa)
#
#
# Indices 1 2 3 4 5 6 
#
# 1 0.010824 -0.003536 -0.002869 0.000000 0.000000 0.000000
# 2 -0.003536 0.016973 -0.001715 0.000000 0.000000 0.000000
# 3 -0.002869 -0.001715 0.010563 0.000000 0.000000 0.000000
# 4 0.000000 0.000000 0.000000 0.094427 0.000000 0.000000
# 5 0.000000 0.000000 0.000000 0.000000 0.068357 0.000000
# 6 0.000000 0.000000 0.000000 0.000000 0.000000 0.029779
#
#
# Mechanical properties :
#
#
# Convention : Reuss Voigt Hill
#
# Bulk Modulus (GPa) = 45.21003 48.90357 47.05680
# Shear Modulus (GPa) = 19.64348 25.40457 22.52403
#
# Velocity S-wave (km/s) = 2.94749 3.35197 3.15622
# Velocity P-wave (km/s) = 5.61949 6.05058 5.83901
#
# Compressibility (1/GPa) = 0.02211898
#
# Stress axis : x y z
#
# Youngs Moduli (GPa) = 92.38996 58.91732 94.66704
#
# Poissons Ratio (x) = 0.20834 0.27161
# Poissons Ratio (y) = 0.32670 0.16239
# Poissons Ratio (z) = 0.26507 0.10106
#
# Static dielectric constant tensor:
#      x y z
#    x 1.838140 0.000000 0.000000 
#    y 0.000000 1.840960 0.000000 
#    z 0.000000 0.000000 1.914460 
# 
# From -- ./inp_files/15367.got.cif
#   From: 2010.05.17/outbox.cif.g08.bks.cpg/sg54_8_cif.got.tgz:15367.got - 2010.06.03 13:09:01.
