data_PCOD9424707
_publ_section_title
;
Structure prediction by ZEFSAII (Michael W. Deem and Ramdas Pophale) SiO2 
 PCOD9424707
Probable space group: P B A M
;
_chemical_formula_sum "Si O2"
_cell_formula_units_Z 56
_cell_length_a 5.529320
_cell_length_b 18.404392
_cell_length_c 27.474689
_cell_angle_alpha 90.000000
_cell_angle_beta 90.000000
_cell_angle_gamma 90.000000
_cell_volume 2795.928008
_symmetry_space_group_name_H-M "P B A M"
_symmetry_group_IT_number 55
_symmetry_cell_setting 'orthorhombic'
loop_
_space_group_symop_operation_xyz
x,y,z
-x,-y,z
1/2+x,1/2-y,-z
1/2-x,1/2+y,-z
-x,-y,-z
x,y,-z
1/2-x,1/2+y,z
1/2+x,1/2-y,z
loop_
_atom_site_type_symbol
_atom_site_label
_atom_site_fract_x
_atom_site_fract_y
_atom_site_fract_z
Si Si1 0.121258 0.901566 0.210610
Si Si2 0.876927 0.391156 0.244539
Si Si3 0.016792 0.916892 0.097162
Si Si4 0.919408 0.296892 0.447474
Si Si5 0.423621 0.203024 0.660346
Si Si6 0.516203 0.912791 0.942822
Si Si7 0.845463 0.255631 0.171791
O O1 0.376421 0.930309 0.229369
O O2 0.147139 0.812796 0.209501
O O3 0.888701 0.924913 0.241090
O O4 0.074478 0.919819 0.154336
O O5 0.916416 0.354628 0.296542
O O6 0.851391 0.328384 0.203095
O O7 0.751402 0.885416 0.086253
O O8 0.253880 0.882890 0.072501
O O9 0.000000 0.000000 0.078263
O O10 0.920629 0.336980 0.500000
O O11 0.668206 0.250604 0.447693
O O12 0.921370 0.331960 0.393909
O O13 0.675417 0.248969 0.664698
O O14 0.500000 0.000000 0.932733
O O15 0.557248 0.902916 0.000000
O O16 0.595578 0.249677 0.143740
#
# Coordination Sequence:
#
# PCOD9424707 Si02
#       7
#     8   8   8   8   8   8   8
#     4  10  18  27  39  56  81 104 126 156 188 224
#     4  10  17  26  38  55  77 101 132 166 195 220
#     4  10  19  30  44  63  85 107 128 148 181 229
#     4   8  14  22  31  45  66  93 128 164 194 230
#     4  10  16  23  36  52  72 101 132 166 204 231
#     4   9  17  30  47  64  82 102 124 154 187 219
#     4   8  14  23  35  50  72  94 119 154 185 208
#
# _framework density 20.029128
#
# number of rings (size 3 to 8) (size 9 to 14) (size 15 to 20)
#    0.000    2.714    0.000    4.714    0.000    1.714 
#    0.000    0.000    0.000    0.000    0.000    0.000 
#    0.000  102.857    0.000    0.000    0.000    4.286 
#
# Total GULP energy -311758.805698 kJ/mol
# GULP energy per Si atom -5567.121530 kJ/mol
# Density = 1.998354 g / cm^3
# Si number density = 20.029128 Si / 1000 Ang^3
#
#
#
# Elastic Constant Matrix: (Units=GPa)
#
#
# Indices 1 2 3 4 5 6 
#
# 1 230.2471 18.5753 64.0772 0.0000 0.0000 0.0000
# 2 18.5753 36.5888 -0.7097 0.0000 0.0000 0.0000
# 3 64.0772 -0.7097 87.3732 0.0000 0.0000 0.0000
# 4 0.0000 0.0000 0.0000 13.2151 0.0000 0.0000
# 5 0.0000 0.0000 0.0000 0.0000 33.0590 0.0000
# 6 0.0000 0.0000 0.0000 0.0000 0.0000 19.2409
#
#
#
# Elastic Compliance Matrix: (Units=1/GPa)
#
#
# Indices 1 2 3 4 5 6 
#
# 1 0.005771 -0.003012 -0.004257 0.000000 0.000000 0.000000
# 2 -0.003012 0.028907 0.002444 0.000000 0.000000 0.000000
# 3 -0.004257 0.002444 0.014587 0.000000 0.000000 0.000000
# 4 0.000000 0.000000 0.000000 0.075671 0.000000 0.000000
# 5 0.000000 0.000000 0.000000 0.000000 0.030249 0.000000
# 6 0.000000 0.000000 0.000000 0.000000 0.000000 0.051973
#
#
# Mechanical properties :
#
#
# Convention : Reuss Voigt Hill
#
# Bulk Modulus (GPa) = 25.24294 57.56606 41.40450
# Shear Modulus (GPa) = 21.73796 31.25408 26.49602
#
# Velocity S-wave (km/s) = 3.29799 3.95452 3.64108
# Velocity P-wave (km/s) = 5.20891 7.04659 6.19626
#
# Compressibility (1/GPa) = 0.03961504
#
# Stress axis : x y z
#
# Youngs Moduli (GPa) = 173.28697 34.59315 68.55566
#
# Poissons Ratio (x) = 0.10420 0.29181
# Poissons Ratio (y) = 0.52198 -0.16754
# Poissons Ratio (z) = 0.73761 -0.08454
#
# Static dielectric constant tensor:
#      x y z
#    x 1.830670 0.000000 0.000000 
#    y 0.000000 1.739040 0.000000 
#    z 0.000000 0.000000 1.686420 
# 
# From -- ./inp_files/23183.got.cif
#   From: 2010.05.17/outbox.cif.g08.bks.cpg/sg55_12_cif.got.tgz:23183.got - 2010.06.03 13:27:54.
