data_PCOD9424211
_publ_section_title
;
Structure prediction by ZEFSAII (Michael W. Deem and Ramdas Pophale) SiO2 
 PCOD9424211
Probable space group: P C C A
;
_chemical_formula_sum "Si O2"
_cell_formula_units_Z 64
_cell_length_a 11.600412
_cell_length_b 16.803802
_cell_length_c 14.955905
_cell_angle_alpha 90.000000
_cell_angle_beta 90.000000
_cell_angle_gamma 90.000000
_cell_volume 2915.369912
_symmetry_space_group_name_H-M "P C C A"
_symmetry_group_IT_number 54
_symmetry_cell_setting 'orthorhombic'
loop_
_space_group_symop_operation_xyz
x,y,z
1/2-x,-y,z
1/2+x,-y,1/2-z
-x,y,1/2-z
-x,-y,-z
1/2+x,y,-z
1/2-x,y,1/2+z
x,-y,1/2+z
loop_
_atom_site_type_symbol
_atom_site_label
_atom_site_fract_x
_atom_site_fract_y
_atom_site_fract_z
Si Si1 0.541116 0.826508 0.651202
Si Si2 0.590705 0.753533 0.011937
Si Si3 0.277527 0.634191 0.598264
Si Si4 0.736427 0.732445 0.722886
Si Si5 0.107229 0.869891 0.817930
Si Si6 0.380073 0.015916 0.441329
Si Si7 0.948536 0.350420 0.157292
Si Si8 0.434531 0.510896 0.091904
O O1 0.500000 0.855606 0.750000
O O2 0.448816 0.795679 0.579124
O O3 0.616896 0.749672 0.675769
O O4 0.609632 0.894658 0.596837
O O5 0.602513 0.821149 0.087702
O O6 0.506932 0.693180 0.067499
O O7 0.693260 0.695024 0.981054
O O8 0.264157 0.689439 0.683518
O O9 0.171327 0.573716 0.585957
O O10 0.384248 0.574422 0.616688
O O11 0.791716 0.820983 0.731025
O O12 0.817059 0.675286 0.664497
O O13 0.000000 0.865976 0.750000
O O14 0.119316 0.958635 0.854452
O O15 0.250000 0.000000 0.483084
O O16 0.500000 0.000000 0.500000
O O17 0.000000 0.317809 0.250000
O O18 0.974140 0.443019 0.153357
O O19 0.500000 0.500000 0.000000
#
# Coordination Sequence:
#
# PCOD9424211 Si02
#       8
#     8   8   8   8   8   8   8   8
#     4  12  25  46  76 112 158 199 259 321 388 466
#     4  11  23  44  73 108 143 196 249 314 380 457
#     4  11  24  45  71 106 148 191 255 314 379 469
#     4  11  23  45  71 107 144 194 255 314 380 453
#     4  11  25  48  76 109 150 205 253 316 387 465
#     4  12  26  54  78 119 164 207 266 321 398 480
#     4  11  23  46  69  99 143 189 253 309 373 463
#     4  11  24  47  69 102 144 197 250 311 394 463
#
# _framework density 21.952618000000001
#
# number of rings (size 3 to 8) (size 9 to 14) (size 15 to 20)
#    0.000    0.750    6.250    1.875    0.000    2.000 
#    6.750    1.250    0.000    0.000    0.000    0.000 
#    0.000    0.000    0.000    0.000    0.000    0.000 
#
# Total GULP energy -356431.114120 kJ/mol
# GULP energy per Si atom -5569.236158 kJ/mol
# Density = 2.190265 g / cm^3
# Si number density = 21.952618 Si / 1000 Ang^3
#
#
#
# Elastic Constant Matrix: (Units=GPa)
#
#
# Indices 1 2 3 4 5 6 
#
# 1 72.5114 32.9288 29.0590 0.0000 0.0000 0.0000
# 2 32.9288 78.1436 44.9105 0.0000 0.0000 0.0000
# 3 29.0590 44.9105 134.7691 0.0000 0.0000 0.0000
# 4 0.0000 0.0000 0.0000 42.3523 0.0000 0.0000
# 5 0.0000 0.0000 0.0000 0.0000 32.7808 0.0000
# 6 0.0000 0.0000 0.0000 0.0000 0.0000 38.6041
#
#
#
# Elastic Compliance Matrix: (Units=1/GPa)
#
#
# Indices 1 2 3 4 5 6 
#
# 1 0.017333 -0.006377 -0.001612 0.000000 0.000000 0.000000
# 2 -0.006377 0.018175 -0.004681 0.000000 0.000000 0.000000
# 3 -0.001612 -0.004681 0.009328 0.000000 0.000000 0.000000
# 4 0.000000 0.000000 0.000000 0.023611 0.000000 0.000000
# 5 0.000000 0.000000 0.000000 0.000000 0.030506 0.000000
# 6 0.000000 0.000000 0.000000 0.000000 0.000000 0.025904
#
#
# Mechanical properties :
#
#
# Convention : Reuss Voigt Hill
#
# Bulk Modulus (GPa) = 51.29894 55.46896 53.38395
# Shear Modulus (GPa) = 31.90874 34.64917 33.27896
#
# Velocity S-wave (km/s) = 3.81665 3.97717 3.89774
# Velocity P-wave (km/s) = 6.54532 6.81270 6.68035
#
# Compressibility (1/GPa) = 0.01949358
#
# Stress axis : x y z
#
# Youngs Moduli (GPa) = 57.69301 55.02102 107.20676
#
# Poissons Ratio (x) = 0.35089 0.17283
# Poissons Ratio (y) = 0.36793 0.50189
# Poissons Ratio (z) = 0.09301 0.25758
#
# Static dielectric constant tensor:
#      x y z
#    x 1.950520 0.000000 0.000000 
#    y 0.000000 1.803080 0.000000 
#    z 0.000000 0.000000 1.851880 
# 
# From -- ./inp_files/12843.got.cif
#   From: 2010.05.17/outbox.cif.g08.bks.cpg/sg54_7_cif.got.tgz:12843.got - 2010.06.03 13:09:01.
