data_PCOD9424993
_publ_section_title
;
Structure prediction by ZEFSAII (Michael W. Deem and Ramdas Pophale) SiO2 
 PCOD9424993
Probable space group: P B A M
;
_chemical_formula_sum "Si O2"
_cell_formula_units_Z 64
_cell_length_a 9.854926
_cell_length_b 19.020657
_cell_length_c 17.201490
_cell_angle_alpha 90.000000
_cell_angle_beta 90.000000
_cell_angle_gamma 90.000000
_cell_volume 3224.370572
_symmetry_space_group_name_H-M "P B A M"
_symmetry_group_IT_number 55
_symmetry_cell_setting 'orthorhombic'
loop_
_space_group_symop_operation_xyz
x,y,z
-x,-y,z
1/2+x,1/2-y,-z
1/2-x,1/2+y,-z
-x,-y,-z
x,y,-z
1/2-x,1/2+y,z
1/2+x,1/2-y,z
loop_
_atom_site_type_symbol
_atom_site_label
_atom_site_fract_x
_atom_site_fract_y
_atom_site_fract_z
Si Si1 0.877328 0.073780 0.744850
Si Si2 0.655873 0.722567 0.314939
Si Si3 0.874132 0.820470 0.087471
Si Si4 0.135101 0.646599 0.792439
Si Si5 0.322023 0.565471 0.316144
Si Si6 0.384892 0.695652 0.590878
Si Si7 0.076883 0.342605 0.913533
Si Si8 0.861686 0.081568 0.085421
O O1 0.815087 0.150550 0.731447
O O2 0.852185 0.043160 0.831466
O O3 0.038788 0.081796 0.731625
O O4 0.824938 0.018516 0.680834
O O5 0.606011 0.782023 0.254951
O O6 0.785015 0.754617 0.359232
O O7 0.536107 0.706237 0.375899
O O8 0.758987 0.836937 0.149210
O O9 0.927200 0.741165 0.098178
O O10 0.001271 0.873005 0.090915
O O11 0.816952 0.823994 0.000000
O O12 0.191600 0.590873 0.731104
O O13 0.009605 0.623484 0.844984
O O14 0.338271 0.615425 0.390557
O O15 0.377483 0.710710 0.500000
O O16 0.231751 0.367604 0.913901
O O17 0.022196 0.358808 0.000000
O O18 0.860551 0.044881 0.000000
#
# Coordination Sequence:
#
# PCOD9424993 Si02
#       8
#     8   8   8   8   8   8   8   8
#     4  10  18  38  57  81 116 146 199 233 268 336
#     4  10  22  34  63  89 113 150 182 225 285 336
#     4  10  18  30  48  75 108 148 193 239 284 323
#     4  11  20  33  53  82 111 145 190 237 281 330
#     4   9  21  36  58  84 108 148 185 236 281 327
#     4  10  21  41  62  91 118 141 176 228 286 350
#     4  10  20  30  46  75 111 149 187 241 292 328
#     4  10  20  32  50  75 110 156 196 238 282 319
#
# _framework density 19.848834
#
# number of rings (size 3 to 8) (size 9 to 14) (size 15 to 20)
#    0.000    2.000    1.250    3.000    5.250    2.000 
#    0.000    8.750    0.000    1.500    0.000    2.625 
#    0.000    0.000    0.000    0.000    0.000    0.000 
#
# Total GULP energy -357149.150316 kJ/mol
# GULP energy per Si atom -5580.455474 kJ/mol
# Density = 1.980366 g / cm^3
# Si number density = 19.848834 Si / 1000 Ang^3
#
#
#
# Elastic Constant Matrix: (Units=GPa)
#
#
# Indices 1 2 3 4 5 6 
#
# 1 35.7463 3.4427 26.3810 0.0000 0.0000 0.0000
# 2 3.4427 56.2200 6.8424 0.0000 0.0000 0.0000
# 3 26.3810 6.8424 79.3604 0.0000 0.0000 0.0000
# 4 0.0000 0.0000 0.0000 14.0419 0.0000 0.0000
# 5 0.0000 0.0000 0.0000 0.0000 30.5649 0.0000
# 6 0.0000 0.0000 0.0000 0.0000 0.0000 12.1708
#
#
#
# Elastic Compliance Matrix: (Units=1/GPa)
#
#
# Indices 1 2 3 4 5 6 
#
# 1 0.037103 -0.000779 -0.012267 0.000000 0.000000 0.000000
# 2 -0.000779 0.017992 -0.001292 0.000000 0.000000 0.000000
# 3 -0.012267 -0.001292 0.016790 0.000000 0.000000 0.000000
# 4 0.000000 0.000000 0.000000 0.071215 0.000000 0.000000
# 5 0.000000 0.000000 0.000000 0.000000 0.032717 0.000000
# 6 0.000000 0.000000 0.000000 0.000000 0.000000 0.082164
#
#
# Mechanical properties :
#
#
# Convention : Reuss Voigt Hill
#
# Bulk Modulus (GPa) = 23.14336 27.18432 25.16384
# Shear Modulus (GPa) = 16.60801 20.33291 18.47046
#
# Velocity S-wave (km/s) = 2.89576 3.20408 3.05381
# Velocity P-wave (km/s) = 4.78181 5.23580 5.01394
#
# Compressibility (1/GPa) = 0.04320894
#
# Stress axis : x y z
#
# Youngs Moduli (GPa) = 26.95220 55.57948 59.56001
#
# Poissons Ratio (x) = 0.04330 0.73059
# Poissons Ratio (y) = 0.02100 0.07697
# Poissons Ratio (z) = 0.33061 0.07182
#
# Static dielectric constant tensor:
#      x y z
#    x 1.684540 0.000000 0.000000 
#    y 0.000000 1.718670 0.000000 
#    z 0.000000 0.000000 1.683870 
# 
# From -- ./inp_files/21093.got.cif
#   From: 2010.05.17/outbox.cif.g08.bks.cpg/sg55_11_cif.got.tgz:21093.got - 2010.06.03 13:27:54.
