data_PCOD9424902
_publ_section_title
;
Structure prediction by ZEFSAII (Michael W. Deem and Ramdas Pophale) SiO2 
 PCOD9424902
Probable space group: P B A M
;
_chemical_formula_sum "Si O2"
_cell_formula_units_Z 48
_cell_length_a 32.951986
_cell_length_b 9.780952
_cell_length_c 7.621697
_cell_angle_alpha 90.000000
_cell_angle_beta 90.000000
_cell_angle_gamma 90.000000
_cell_volume 2456.486612
_symmetry_space_group_name_H-M "P B A M"
_symmetry_group_IT_number 55
_symmetry_cell_setting 'orthorhombic'
loop_
_space_group_symop_operation_xyz
x,y,z
-x,-y,z
1/2+x,1/2-y,-z
1/2-x,1/2+y,-z
-x,-y,-z
x,y,-z
1/2-x,1/2+y,z
1/2+x,1/2-y,z
loop_
_atom_site_type_symbol
_atom_site_label
_atom_site_fract_x
_atom_site_fract_y
_atom_site_fract_z
Si Si1 0.538031 0.590713 0.784614
Si Si2 0.286145 0.398903 0.215774
Si Si3 0.126000 0.927254 0.198536
Si Si4 0.124173 0.617767 0.702326
Si Si5 0.536397 0.905812 0.211022
Si Si6 0.288326 0.083515 0.789053
O O1 0.500000 0.500000 0.730265
O O2 0.582173 0.537308 0.722809
O O3 0.533052 0.748374 0.728634
O O4 0.539349 0.590214 0.000000
O O5 0.329804 0.457294 0.276833
O O6 0.247736 0.486731 0.273888
O O7 0.282944 0.240580 0.270670
O O8 0.287214 0.399591 0.000000
O O9 0.125101 0.760638 0.192190
O O10 0.126312 0.981692 0.000000
O O11 0.124008 0.658109 0.500000
O O12 0.081752 0.545079 0.742588
O O13 0.165993 0.540305 0.739718
O O14 0.500000 0.000000 0.277652
O O15 0.533817 0.903442 0.000000
O O16 0.286338 0.084326 0.000000
#
# Coordination Sequence:
#
# PCOD9424902 Si02
#       6
#     8   8   8   8   8   8
#     4   8  13  23  42  67  90 110 136 173 213 252
#     4   8  14  25  44  65  85 111 144 180 215 252
#     4   8  14  27  45  63  85 114 146 178 212 254
#     4  10  18  28  44  65  87 115 148 177 211 258
#     4   9  17  30  47  66  88 114 144 178 215 254
#     4   9  16  29  46  65  87 112 144 181 220 259
#
# _framework density 19.540101
#
# number of rings (size 3 to 8) (size 9 to 14) (size 15 to 20)
#    0.000    3.333    0.000    3.500    0.000    0.333 
#    0.000    5.000    0.000   16.000    0.000    9.333 
#    0.000    0.000    0.000    0.000    0.000    0.000 
#
# Total GULP energy -267274.450679 kJ/mol
# GULP energy per Si atom -5568.217722 kJ/mol
# Density = 1.949563 g / cm^3
# Si number density = 19.540101 Si / 1000 Ang^3
#
#
#
# Elastic Constant Matrix: (Units=GPa)
#
#
# Indices 1 2 3 4 5 6 
#
# 1 252.9300 78.4762 1.2962 0.0000 0.0000 0.0000
# 2 78.4762 48.5556 4.3252 0.0000 0.0000 0.0000
# 3 1.2962 4.3252 47.9839 0.0000 0.0000 0.0000
# 4 0.0000 0.0000 0.0000 -6.0257 0.0000 0.0000
# 5 0.0000 0.0000 0.0000 0.0000 -17.7026 0.0000
# 6 0.0000 0.0000 0.0000 0.0000 0.0000 36.9860
#
#
#
# Elastic Compliance Matrix: (Units=1/GPa)
#
#
# Indices 1 2 3 4 5 6 
#
# 1 0.007974 -0.012972 0.000954 0.000000 0.000000 0.000000
# 2 -0.012972 0.041865 -0.003423 0.000000 0.000000 0.000000
# 3 0.000954 -0.003423 0.021123 0.000000 0.000000 0.000000
# 4 0.000000 0.000000 0.000000 -0.165954 0.000000 0.000000
# 5 0.000000 0.000000 0.000000 0.000000 -0.056489 0.000000
# 6 0.000000 0.000000 0.000000 0.000000 0.000000 0.027037
#
#
# Mechanical properties :
#
#
# Convention : Reuss Voigt Hill
#
# Bulk Modulus (GPa) = 24.95050 57.51829 41.23440
# Shear Modulus (GPa) = -62.34262 20.34299 -20.99981
#
# Velocity S-wave (km/s) = -5.65458 3.23009 -3.28182
# Velocity P-wave (km/s) = 5.46221 6.58872 2.60534
#
# Compressibility (1/GPa) = 0.04007935
#
# Stress axis : x y z
#
# Youngs Moduli (GPa) = 125.41481 23.88620 47.34149
#
# Poissons Ratio (x) = 0.30985 -0.04516
# Poissons Ratio (y) = 1.62687 0.16206
# Poissons Ratio (z) = -0.11963 0.08177
#
# Static dielectric constant tensor:
#      x y z
#    x 1.738210 0.000000 0.000000 
#    y 0.000000 1.644030 0.000000 
#    z 0.000000 0.000000 1.712200 
# 
# From -- ./inp_files/4182.got.cif
#   From: 2010.05.17/outbox.cif.g08.bks.cpg/sg55_3_cif.got.tgz:4182.got - 2010.06.03 13:27:54.
