data_PCOD9424426
_publ_section_title
;
Structure prediction by ZEFSAII (Michael W. Deem and Ramdas Pophale) SiO2 
 PCOD9424426
Probable space group: P C C A
;
_chemical_formula_sum "Si O2"
_cell_formula_units_Z 32
_cell_length_a 7.478148
_cell_length_b 11.950127
_cell_length_c 13.904210
_cell_angle_alpha 90.000000
_cell_angle_beta 90.000000
_cell_angle_gamma 90.000000
_cell_volume 1242.547201
_symmetry_space_group_name_H-M "P C C A"
_symmetry_group_IT_number 54
_symmetry_cell_setting 'orthorhombic'
loop_
_space_group_symop_operation_xyz
x,y,z
1/2-x,-y,z
1/2+x,-y,1/2-z
-x,y,1/2-z
-x,-y,-z
1/2+x,y,-z
1/2-x,y,1/2+z
x,-y,1/2+z
loop_
_atom_site_type_symbol
_atom_site_label
_atom_site_fract_x
_atom_site_fract_y
_atom_site_fract_z
Si Si1 0.000000 0.463316 0.750000
Si Si2 0.997022 0.290556 0.892331
Si Si3 0.543293 0.971395 0.609693
Si Si4 0.000000 0.147663 0.250000
Si Si5 0.577227 0.667236 0.386137
O O1 0.099499 0.373510 0.819138
O O2 0.063754 0.549197 0.667954
O O3 0.784623 0.300832 0.875633
O O4 0.034361 0.328490 0.001270
O O5 0.531748 0.839479 0.625079
O O6 0.750000 0.000000 0.629294
O O7 0.500000 0.000000 0.500000
O O8 0.425472 0.053874 0.675504
O O9 0.045788 0.240566 0.332156
#
# Coordination Sequence:
#
# PCOD9424426 Si02
#       5
#     4   8   8   4   8
#     4  11  27  46  74 112 151 201 260 312 374 455
#     4  12  26  48  77 109 155 204 256 315 393 448
#     4  12  27  46  76 111 153 202 251 314 382 465
#     4  11  27  44  72 108 155 193 260 306 382 457
#     4  11  27  48  75 110 152 203 256 320 377 456
#
# _framework density 25.753547000000001
#
# number of rings (size 3 to 8) (size 9 to 14) (size 15 to 20)
#    0.000    0.500    2.500    3.750    7.000    4.000 
#    0.000    0.000    0.000    0.000    0.000    0.000 
#    0.000    0.000    0.000    0.000    0.000    0.000 
#
# Total GULP energy -178535.052490 kJ/mol
# GULP energy per Si atom -5579.220390 kJ/mol
# Density = 2.569493 g / cm^3
# Si number density = 25.753547 Si / 1000 Ang^3
#
#
#
# Elastic Constant Matrix: (Units=GPa)
#
#
# Indices 1 2 3 4 5 6 
#
# 1 105.2998 63.9455 8.9066 0.0000 0.0000 0.0000
# 2 63.9455 298.4749 104.9823 0.0000 0.0000 0.0000
# 3 8.9066 104.9823 239.4610 0.0000 0.0000 0.0000
# 4 0.0000 0.0000 0.0000 54.4987 0.0000 0.0000
# 5 0.0000 0.0000 0.0000 0.0000 10.3103 0.0000
# 6 0.0000 0.0000 0.0000 0.0000 0.0000 39.9566
#
#
#
# Elastic Compliance Matrix: (Units=1/GPa)
#
#
# Indices 1 2 3 4 5 6 
#
# 1 0.011027 -0.002623 0.000740 0.000000 0.000000 0.000000
# 2 -0.002623 0.004585 -0.001913 0.000000 0.000000 0.000000
# 3 0.000740 -0.001913 0.004987 0.000000 0.000000 0.000000
# 4 0.000000 0.000000 0.000000 0.018349 0.000000 0.000000
# 5 0.000000 0.000000 0.000000 0.000000 0.096990 0.000000
# 6 0.000000 0.000000 0.000000 0.000000 0.000000 0.025027
#
#
# Mechanical properties :
#
#
# Convention : Reuss Voigt Hill
#
# Bulk Modulus (GPa) = 76.87723 110.98939 93.93331
# Shear Modulus (GPa) = 28.91979 51.97986 40.44983
#
# Velocity S-wave (km/s) = 3.35467 4.49749 3.96744
# Velocity P-wave (km/s) = 6.70231 8.37617 7.58555
#
# Compressibility (1/GPa) = 0.01300775
#
# Stress axis : x y z
#
# Youngs Moduli (GPa) = 90.68890 218.10704 200.52096
#
# Poissons Ratio (x) = 0.57199 -0.14831
# Poissons Ratio (y) = 0.23783 0.38350
# Poissons Ratio (z) = -0.06707 0.41714
#
# Static dielectric constant tensor:
#      x y z
#    x 2.252800 0.000000 0.000000 
#    y 0.000000 1.985370 0.000000 
#    z 0.000000 0.000000 5.289090 
# 
# From -- ./inp_files/6822.got.cif
#   From: 2010.05.17/outbox.cif.g08.bks.cpg/sg54_4_cif.got.tgz:6822.got - 2010.06.03 13:09:01.
