data_PCOD9424332
_publ_section_title
;
Structure prediction by ZEFSAII (Michael W. Deem and Ramdas Pophale) SiO2 
 PCOD9424332
Probable space group: P C C A
;
_chemical_formula_sum "Si O2"
_cell_formula_units_Z 40
_cell_length_a 13.900904
_cell_length_b 6.566257
_cell_length_c 21.322440
_cell_angle_alpha 90.000000
_cell_angle_beta 90.000000
_cell_angle_gamma 90.000000
_cell_volume 1946.246398
_symmetry_space_group_name_H-M "P C C A"
_symmetry_group_IT_number 54
_symmetry_cell_setting 'orthorhombic'
loop_
_space_group_symop_operation_xyz
x,y,z
1/2-x,-y,z
1/2+x,-y,1/2-z
-x,y,1/2-z
-x,-y,-z
1/2+x,y,-z
1/2-x,y,1/2+z
x,-y,1/2+z
loop_
_atom_site_type_symbol
_atom_site_label
_atom_site_fract_x
_atom_site_fract_y
_atom_site_fract_z
Si Si1 0.434038 0.682392 0.473590
Si Si2 0.250000 0.500000 0.900052
Si Si3 0.597404 0.272226 0.167863
Si Si4 0.363051 0.029289 0.720040
Si Si5 0.000000 0.606705 0.750000
Si Si6 0.455631 0.042474 0.087740
O O1 0.500000 0.500000 0.500000
O O2 0.338205 0.595014 0.440198
O O3 0.407607 0.840737 0.529596
O O4 0.502821 0.821157 0.429652
O O5 0.296990 0.665714 0.854008
O O6 0.597474 0.111194 0.223950
O O7 0.537914 0.465052 0.193677
O O8 0.547208 0.176498 0.107626
O O9 0.393146 0.962256 0.650415
O O10 0.250000 0.000000 0.724450
O O11 0.411033 0.249610 0.730485
#
# Coordination Sequence:
#
# PCOD9424332 Si02
#       6
#     8   4   8   8   4   8
#     4  11  26  47  72 101 138 195 236 296 355 415
#     4  12  26  44  76 106 138 190 252 294 350 448
#     4  12  24  45  71 106 139 186 236 295 361 426
#     4  12  26  42  72 107 139 187 232 292 368 428
#     4  12  22  46  70 102 150 184 224 298 366 422
#     4  11  24  48  68  98 150 184 232 295 355 420
#
# _framework density 20.552384
#
# number of rings (size 3 to 8) (size 9 to 14) (size 15 to 20)
#    0.000    0.400    6.000    2.400    2.800    1.600 
#    0.000    0.000    0.000    0.000    0.000    0.000 
#    0.000    0.000    0.000    0.000    0.000    0.000 
#
# Total GULP energy -223547.251667 kJ/mol
# GULP energy per Si atom -5588.681292 kJ/mol
# Density = 2.050561 g / cm^3
# Si number density = 20.552384 Si / 1000 Ang^3
#
#
#
# Elastic Constant Matrix: (Units=GPa)
#
#
# Indices 1 2 3 4 5 6 
#
# 1 93.9614 40.4458 23.0591 0.0000 0.0000 0.0000
# 2 40.4458 111.1877 39.6701 0.0000 0.0000 0.0000
# 3 23.0591 39.6701 101.1056 0.0000 0.0000 0.0000
# 4 0.0000 0.0000 0.0000 54.8145 0.0000 0.0000
# 5 0.0000 0.0000 0.0000 0.0000 37.1178 0.0000
# 6 0.0000 0.0000 0.0000 0.0000 0.0000 30.6819
#
#
#
# Elastic Compliance Matrix: (Units=1/GPa)
#
#
# Indices 1 2 3 4 5 6 
#
# 1 0.012756 -0.004189 -0.001266 0.000000 0.000000 0.000000
# 2 -0.004189 0.011833 -0.003688 0.000000 0.000000 0.000000
# 3 -0.001266 -0.003688 0.011626 0.000000 0.000000 0.000000
# 4 0.000000 0.000000 0.000000 0.018243 0.000000 0.000000
# 5 0.000000 0.000000 0.000000 0.000000 0.026941 0.000000
# 6 0.000000 0.000000 0.000000 0.000000 0.000000 0.032593
#
#
# Mechanical properties :
#
#
# Convention : Reuss Voigt Hill
#
# Bulk Modulus (GPa) = 55.76769 56.95609 56.36189
# Shear Modulus (GPa) = 36.16529 38.06149 37.11339
#
# Velocity S-wave (km/s) = 4.19939 4.30807 4.25407
# Velocity P-wave (km/s) = 7.12085 7.24698 7.18419
#
# Compressibility (1/GPa) = 0.01793153
#
# Stress axis : x y z
#
# Youngs Moduli (GPa) = 78.39254 84.50846 86.01244
#
# Poissons Ratio (x) = 0.35397 0.10888
# Poissons Ratio (y) = 0.32836 0.31718
# Poissons Ratio (z) = 0.09923 0.31163
#
# Static dielectric constant tensor:
#      x y z
#    x 2.013360 0.000000 0.000000 
#    y 0.000000 1.748400 0.000000 
#    z 0.000000 0.000000 1.730640 
# 
# From -- ./inp_files/24341.got.cif
#   From: 2010.05.17/outbox.cif.g08.bks.cpg/sg54_13_cif.got.tgz:24341.got - 2010.06.03 13:09:01.
