data_PCOD9424837
_publ_section_title
;
Structure prediction by ZEFSAII (Michael W. Deem and Ramdas Pophale) SiO2 
 PCOD9424837
Probable space group: P B A M
;
_chemical_formula_sum "Si O2"
_cell_formula_units_Z 48
_cell_length_a 25.995934
_cell_length_b 4.968217
_cell_length_c 20.148691
_cell_angle_alpha 90.000000
_cell_angle_beta 90.000000
_cell_angle_gamma 90.000000
_cell_volume 2602.272779
_symmetry_space_group_name_H-M "P B A M"
_symmetry_group_IT_number 55
_symmetry_cell_setting 'orthorhombic'
loop_
_space_group_symop_operation_xyz
x,y,z
-x,-y,z
1/2+x,1/2-y,-z
1/2-x,1/2+y,-z
-x,-y,-z
x,y,-z
1/2-x,1/2+y,z
1/2+x,1/2-y,z
loop_
_atom_site_type_symbol
_atom_site_label
_atom_site_fract_x
_atom_site_fract_y
_atom_site_fract_z
Si Si1 0.780847 0.304309 0.000000
Si Si2 0.573930 0.086568 0.926431
Si Si3 0.860702 0.075175 0.900385
Si Si4 0.711741 0.623038 0.646437
Si Si5 0.052387 0.361485 0.223137
Si Si6 0.879521 0.127660 0.248391
Si Si7 0.216347 0.978377 0.500000
O O1 0.813005 0.205909 0.063059
O O2 0.769488 0.617968 0.000000
O O3 0.623359 0.282385 0.925341
O O4 0.546653 0.170878 0.857424
O O5 0.592052 0.779178 0.916761
O O6 0.550499 0.121460 0.000000
O O7 0.853478 0.059165 0.822049
O O8 0.754945 0.392750 0.655393
O O9 0.663294 0.606043 0.695149
O O10 0.691730 0.595115 0.570337
O O11 0.097397 0.574587 0.239351
O O12 0.000000 0.500000 0.247339
O O13 0.072373 0.080276 0.252795
O O14 0.267864 0.791196 0.500000
#
# Coordination Sequence:
#
# PCOD9424837 Si02
#       7
#     4   8   8   8   8   8   4
#     4  12  22  30  44  62  85 122 163 202 246 292
#     4  10  17  32  53  64  88 121 155 207 268 308
#     4  10  20  33  45  64  91 123 163 205 247 298
#     4  10  19  33  55  82 113 139 171 205 252 308
#     4  10  21  35  52  77 102 131 176 219 263 316
#     4  10  21  35  54  75 103 140 169 212 261 304
#     4   8  16  30  50  80 111 138 163 208 250 296
#
# _framework density 18.445414
#
# number of rings (size 3 to 8) (size 9 to 14) (size 15 to 20)
#    0.000    2.000    1.667    2.500    0.000    1.667 
#    0.000    0.000    0.000    6.000    0.000    3.500 
#    0.000    0.000    0.000    0.000    0.000    0.000 
#
# Total GULP energy -267545.372918 kJ/mol
# GULP energy per Si atom -5573.861936 kJ/mol
# Density = 1.840343 g / cm^3
# Si number density = 18.445414 Si / 1000 Ang^3
#
#
#
# Elastic Constant Matrix: (Units=GPa)
#
#
# Indices 1 2 3 4 5 6 
#
# 1 31.3615 -10.6198 21.2388 0.0000 0.0000 0.0000
# 2 -10.6198 75.4802 -2.4709 0.0000 0.0000 0.0000
# 3 21.2388 -2.4709 114.0470 0.0000 0.0000 0.0000
# 4 0.0000 0.0000 0.0000 14.4041 0.0000 0.0000
# 5 0.0000 0.0000 0.0000 0.0000 246.8884 0.0000
# 6 0.0000 0.0000 0.0000 0.0000 0.0000 15.6823
#
#
#
# Elastic Compliance Matrix: (Units=1/GPa)
#
#
# Indices 1 2 3 4 5 6 
#
# 1 0.038406 0.005173 -0.007040 0.000000 0.000000 0.000000
# 2 0.005173 0.013955 -0.000661 0.000000 0.000000 0.000000
# 3 -0.007040 -0.000661 0.010065 0.000000 0.000000 0.000000
# 4 0.000000 0.000000 0.000000 0.069425 0.000000 0.000000
# 5 0.000000 0.000000 0.000000 0.000000 0.004050 0.000000
# 6 0.000000 0.000000 0.000000 0.000000 0.000000 0.063766
#
#
# Mechanical properties :
#
#
# Convention : Reuss Voigt Hill
#
# Bulk Modulus (GPa) = 17.43093 26.35387 21.89240
# Shear Modulus (GPa) = 22.33676 69.57766 45.95721
#
# Velocity S-wave (km/s) = 3.48367 6.14839 4.99693
# Velocity P-wave (km/s) = 5.06476 8.04501 6.72213
#
# Compressibility (1/GPa) = 0.05736928
#
# Stress axis : x y z
#
# Youngs Moduli (GPa) = 26.03777 71.66045 99.35350
#
# Poissons Ratio (x) = -0.37071 0.69946
# Poissons Ratio (y) = -0.13470 0.06568
# Poissons Ratio (z) = 0.18331 0.04737
#
# Static dielectric constant tensor:
#      x y z
#    x 1.651310 0.000000 0.000000 
#    y 0.000000 1.649330 0.000000 
#    z 0.000000 0.000000 1.645320 
# 
# From -- ./inp_files/23122.got.cif
#   From: 2010.05.17/outbox.cif.g08.bks.cpg/sg55_12_cif.got.tgz:23122.got - 2010.06.03 13:27:54.
