data_PCOD9424797
_publ_section_title
;
Structure prediction by ZEFSAII (Michael W. Deem and Ramdas Pophale) SiO2 
 PCOD9424797
Probable space group: P B A M
;
_chemical_formula_sum "Si O2"
_cell_formula_units_Z 32
_cell_length_a 7.272820
_cell_length_b 18.321706
_cell_length_c 8.815387
_cell_angle_alpha 90.000000
_cell_angle_beta 90.000000
_cell_angle_gamma 90.000000
_cell_volume 1174.654459
_symmetry_space_group_name_H-M "P B A M"
_symmetry_group_IT_number 55
_symmetry_cell_setting 'orthorhombic'
loop_
_space_group_symop_operation_xyz
x,y,z
-x,-y,z
1/2+x,1/2-y,-z
1/2-x,1/2+y,-z
-x,-y,-z
x,y,-z
1/2-x,1/2+y,z
1/2+x,1/2-y,z
loop_
_atom_site_type_symbol
_atom_site_label
_atom_site_fract_x
_atom_site_fract_y
_atom_site_fract_z
Si Si1 0.431619 0.631516 0.500000
Si Si2 0.318365 0.783560 0.500000
Si Si3 0.084582 0.929992 0.775542
Si Si4 0.331865 0.309556 0.000000
Si Si5 0.589115 0.858166 0.000000
Si Si6 0.490849 0.898812 0.322099
O O1 0.293879 0.698032 0.500000
O O2 0.625716 0.675184 0.500000
O O3 0.441300 0.580277 0.359101
O O4 0.425765 0.814569 0.353480
O O5 0.076138 0.852057 0.860141
O O6 0.296820 0.938850 0.719599
O O7 0.000000 0.000000 0.855263
O O8 0.127098 0.340573 0.000000
O O9 0.323568 0.222681 0.000000
O O10 0.609296 0.897866 0.834692
O O11 0.543682 0.920131 0.500000
#
# Coordination Sequence:
#
# PCOD9424797 Si02
#       6
#     4   4   8   4   4   8
#     4  10  17  28  48  70  97 130 162 204 252 302
#     4   8  16  28  42  70  94 122 166 202 250 292
#     4  10  18  30  48  74 103 134 168 209 252 300
#     4  10  21  32  52  76 105 128 170 212 260 302
#     4  10  18  34  48  76 102 132 164 214 258 300
#     4   8  17  30  47  70  99 130 164 204 253 302
#
# _framework density 27.242052000000001
#
# number of rings (size 3 to 8) (size 9 to 14) (size 15 to 20)
#    0.750    2.000    1.250    2.250    0.000    0.000 
#    0.000    0.000    0.000    0.000    0.000   42.000 
#    0.000    0.000    0.000    0.000    0.000    0.000 
#
# Total GULP energy -178427.521739 kJ/mol
# GULP energy per Si atom -5575.860054 kJ/mol
# Density = 2.718005 g / cm^3
# Si number density = 27.242052 Si / 1000 Ang^3
#
#
#
# Elastic Constant Matrix: (Units=GPa)
#
#
# Indices 1 2 3 4 5 6 
#
# 1 65.5805 7.0886 46.3193 0.0000 0.0000 0.0000
# 2 7.0886 117.8613 49.3402 0.0000 0.0000 0.0000
# 3 46.3193 49.3402 238.5264 0.0000 0.0000 0.0000
# 4 0.0000 0.0000 0.0000 -12.1132 0.0000 0.0000
# 5 0.0000 0.0000 0.0000 0.0000 21.7411 0.0000
# 6 0.0000 0.0000 0.0000 0.0000 0.0000 29.4362
#
#
#
# Elastic Compliance Matrix: (Units=1/GPa)
#
#
# Indices 1 2 3 4 5 6 
#
# 1 0.017690 0.000410 -0.003520 0.000000 0.000000 0.000000
# 2 0.000410 0.009298 -0.002003 0.000000 0.000000 0.000000
# 3 -0.003520 -0.002003 0.005290 0.000000 0.000000 0.000000
# 4 0.000000 0.000000 0.000000 -0.082554 0.000000 0.000000
# 5 0.000000 0.000000 0.000000 0.000000 0.045996 0.000000
# 6 0.000000 0.000000 0.000000 0.000000 0.000000 0.033972
#
#
# Mechanical properties :
#
#
# Convention : Reuss Voigt Hill
#
# Bulk Modulus (GPa) = 45.34665 69.71824 57.53245
# Shear Modulus (GPa) = 105.77575 29.09416 67.43495
#
# Velocity S-wave (km/s) = 6.23798 3.27155 4.98074
# Velocity P-wave (km/s) = 8.28041 6.31810 7.36490
#
# Compressibility (1/GPa) = 0.02205234
#
# Stress axis : x y z
#
# Youngs Moduli (GPa) = 56.52802 107.54525 189.02603
#
# Poissons Ratio (x) = -0.04405 0.66537
# Poissons Ratio (y) = -0.02316 0.37861
# Poissons Ratio (z) = 0.19898 0.21541
#
# Static dielectric constant tensor:
#      x y z
#    x 2.196880 0.000000 0.000000 
#    y 0.000000 2.102410 0.000000 
#    z 0.000000 0.000000 2.264500 
# 
# From -- ./inp_files/3560.got.cif
#   From: 2010.05.17/outbox.cif.g08.bks.cpg/sg55_2_cif.got.tgz:3560.got - 2010.06.03 13:27:54.
