data_PCOD9424108
_publ_section_title
;
Structure prediction by ZEFSAII (Michael W. Deem and Ramdas Pophale) SiO2 
 PCOD9424108
Probable space group: P C C A
;
_chemical_formula_sum "Si O2"
_cell_formula_units_Z 52
_cell_length_a 20.838648
_cell_length_b 13.670770
_cell_length_c 8.608394
_cell_angle_alpha 90.000000
_cell_angle_beta 90.000000
_cell_angle_gamma 90.000000
_cell_volume 2452.362415
_symmetry_space_group_name_H-M "P C C A"
_symmetry_group_IT_number 54
_symmetry_cell_setting 'orthorhombic'
loop_
_space_group_symop_operation_xyz
x,y,z
1/2-x,-y,z
1/2+x,-y,1/2-z
-x,y,1/2-z
-x,-y,-z
1/2+x,y,-z
1/2-x,y,1/2+z
x,-y,1/2+z
loop_
_atom_site_type_symbol
_atom_site_label
_atom_site_fract_x
_atom_site_fract_y
_atom_site_fract_z
Si Si1 0.420571 0.569952 0.460977
Si Si2 0.000000 0.285843 0.250000
Si Si3 0.686285 0.709135 0.510203
Si Si4 0.432659 0.368030 0.304466
Si Si5 0.786540 0.602447 0.706498
Si Si6 0.050919 0.971650 0.365209
Si Si7 0.108619 0.137397 0.135214
O O1 0.468341 0.647650 0.381930
O O2 0.443442 0.461542 0.415299
O O3 0.409487 0.585927 0.642404
O O4 0.352694 0.590739 0.382391
O O5 0.054696 0.218299 0.174610
O O6 0.621704 0.694926 0.612268
O O7 0.744429 0.690093 0.629827
O O8 0.696856 0.623710 0.384926
O O9 0.674526 0.802849 0.396486
O O10 0.500000 0.320662 0.250000
O O11 0.750000 0.500000 0.694825
O O12 0.099281 0.909963 0.466118
O O13 0.000000 0.921162 0.250000
O O14 0.090391 0.054970 0.267470
O O15 0.000000 0.000000 0.500000
#
# Coordination Sequence:
#
# PCOD9424108 Si02
#       7
#     8   4   8   8   8   8   8
#     4  12  25  40  64  97 143 189 231 293 334 415
#     4  12  22  38  68 106 142 178 226 286 364 418
#     4  12  26  44  67 101 132 188 247 291 329 429
#     4  12  25  42  62  97 144 188 226 282 366 405
#     4  12  25  43  68  94 138 192 247 280 331 395
#     4   9  18  38  66  97 134 169 204 273 358 433
#     4  11  22  41  68 104 135 171 222 282 361 430
#
# _framework density 21.204045000000001
#
# number of rings (size 3 to 8) (size 9 to 14) (size 15 to 20)
#    0.000    0.615    6.154    3.692    0.000    1.846 
#    0.000    0.000    0.000    2.769    0.000    0.000 
#    0.000    0.000    0.000    0.000    0.000    0.000 
#
# Total GULP energy -289971.068001 kJ/mol
# GULP energy per Si atom -5576.366692 kJ/mol
# Density = 2.115578 g / cm^3
# Si number density = 21.204045 Si / 1000 Ang^3
#
#
#
# Elastic Constant Matrix: (Units=GPa)
#
#
# Indices 1 2 3 4 5 6 
#
# 1 81.6203 28.4999 37.8971 0.0000 0.0000 0.0000
# 2 28.4999 97.9948 37.9934 0.0000 0.0000 0.0000
# 3 37.8971 37.9934 150.1501 0.0000 0.0000 0.0000
# 4 0.0000 0.0000 0.0000 11.3695 0.0000 0.0000
# 5 0.0000 0.0000 0.0000 0.0000 36.7508 0.0000
# 6 0.0000 0.0000 0.0000 0.0000 0.0000 19.4629
#
#
#
# Elastic Compliance Matrix: (Units=1/GPa)
#
#
# Indices 1 2 3 4 5 6 
#
# 1 0.014704 -0.003146 -0.002915 0.000000 0.000000 0.000000
# 2 -0.003146 0.011988 -0.002239 0.000000 0.000000 0.000000
# 3 -0.002915 -0.002239 0.007962 0.000000 0.000000 0.000000
# 4 0.000000 0.000000 0.000000 0.087955 0.000000 0.000000
# 5 0.000000 0.000000 0.000000 0.000000 0.027210 0.000000
# 6 0.000000 0.000000 0.000000 0.000000 0.000000 0.051380
#
#
# Mechanical properties :
#
#
# Convention : Reuss Voigt Hill
#
# Bulk Modulus (GPa) = 55.39228 59.83845 57.61537
# Shear Modulus (GPa) = 22.33962 28.54162 25.44062
#
# Velocity S-wave (km/s) = 3.24937 3.67283 3.46757
# Velocity P-wave (km/s) = 6.34492 6.80204 6.57746
#
# Compressibility (1/GPa) = 0.01805306
#
# Stress axis : x y z
#
# Youngs Moduli (GPa) = 68.00900 83.41809 125.59061
#
# Poissons Ratio (x) = 0.26245 0.36611
# Poissons Ratio (y) = 0.21397 0.28123
# Poissons Ratio (z) = 0.19825 0.18680
#
# Static dielectric constant tensor:
#      x y z
#    x 1.847730 0.000000 0.000000 
#    y 0.000000 1.828540 0.000000 
#    z 0.000000 0.000000 1.823170 
# 
# From -- ./inp_files/4765.got.cif
#   From: 2010.05.17/outbox.cif.g08.bks.cpg/sg54_3_cif.got.tgz:4765.got - 2010.06.03 13:09:01.
