data_PCOD9424053
_publ_section_title
;
Structure prediction by ZEFSAII (Michael W. Deem and Ramdas Pophale) SiO2 
 PCOD9424053
Probable space group: P C C A
;
_chemical_formula_sum "Si O2"
_cell_formula_units_Z 44
_cell_length_a 8.126177
_cell_length_b 13.146197
_cell_length_c 17.697410
_cell_angle_alpha 90.000000
_cell_angle_beta 90.000000
_cell_angle_gamma 90.000000
_cell_volume 1890.584644
_symmetry_space_group_name_H-M "P C C A"
_symmetry_group_IT_number 54
_symmetry_cell_setting 'orthorhombic'
loop_
_space_group_symop_operation_xyz
x,y,z
1/2-x,-y,z
1/2+x,-y,1/2-z
-x,y,1/2-z
-x,-y,-z
1/2+x,y,-z
1/2-x,y,1/2+z
x,-y,1/2+z
loop_
_atom_site_type_symbol
_atom_site_label
_atom_site_fract_x
_atom_site_fract_y
_atom_site_fract_z
Si Si1 0.353539 0.125590 0.875907
Si Si2 0.972815 0.664196 0.665420
Si Si3 0.174358 0.108521 0.017782
Si Si4 0.250000 0.500000 0.830746
Si Si5 0.694089 0.209620 0.354317
Si Si6 0.750000 0.000000 0.257799
Si Si7 0.500000 0.650205 0.750000
O O1 0.356774 0.237123 0.840005
O O2 0.505357 0.114509 0.934924
O O3 0.373389 0.047137 0.806785
O O4 0.189491 0.116488 0.927364
O O5 0.883054 0.570027 0.624819
O O6 0.852747 0.715436 0.851618
O O7 0.000000 0.626466 0.750000
O O8 0.302902 0.184962 0.057256
O O9 0.250000 0.000000 0.034494
O O10 0.353236 0.579333 0.780125
O O11 0.710686 0.101256 0.308083
O O12 0.552700 0.275314 0.317494
#
# Coordination Sequence:
#
# PCOD9424053 Si02
#       7
#     8   8   8   4   8   4   4
#     4  11  25  39  66  89 139 176 224 257 324 383
#     4  11  21  43  62  95 122 166 211 285 323 381
#     4  11  24  42  59  92 135 188 211 258 310 401
#     4  12  22  40  68  92 132 152 222 282 352 364
#     4  11  25  38  64  98 139 165 222 258 333 381
#     4  12  22  38  64  96 136 182 208 278 304 390
#     4  12  22  36  64  96 122 168 210 280 324 394
#
# _framework density 23.273225
#
# number of rings (size 3 to 8) (size 9 to 14) (size 15 to 20)
#    0.000    0.727    6.364    0.545    2.545    1.455 
#    0.000    0.000    0.000   10.909    0.000    0.000 
#    0.000    0.000    0.000    0.000    0.000    0.000 
#
# Total GULP energy -245200.485615 kJ/mol
# GULP energy per Si atom -5572.738309 kJ/mol
# Density = 2.322025 g / cm^3
# Si number density = 23.273225 Si / 1000 Ang^3
#
#
#
# Elastic Constant Matrix: (Units=GPa)
#
#
# Indices 1 2 3 4 5 6 
#
# 1 88.6223 51.4761 23.6852 0.0000 0.0000 0.0000
# 2 51.4761 149.6144 33.4572 0.0000 0.0000 0.0000
# 3 23.6852 33.4572 89.4272 0.0000 0.0000 0.0000
# 4 0.0000 0.0000 0.0000 15.8628 0.0000 0.0000
# 5 0.0000 0.0000 0.0000 0.0000 32.4989 0.0000
# 6 0.0000 0.0000 0.0000 0.0000 0.0000 39.2586
#
#
#
# Elastic Compliance Matrix: (Units=1/GPa)
#
#
# Indices 1 2 3 4 5 6 
#
# 1 0.014471 -0.004498 -0.002150 0.000000 0.000000 0.000000
# 2 -0.004498 0.008692 -0.002061 0.000000 0.000000 0.000000
# 3 -0.002150 -0.002061 0.012523 0.000000 0.000000 0.000000
# 4 0.000000 0.000000 0.000000 0.063040 0.000000 0.000000
# 5 0.000000 0.000000 0.000000 0.000000 0.030770 0.000000
# 6 0.000000 0.000000 0.000000 0.000000 0.000000 0.025472
#
#
# Mechanical properties :
#
#
# Convention : Reuss Voigt Hill
#
# Bulk Modulus (GPa) = 54.73844 60.54454 57.64149
# Shear Modulus (GPa) = 28.01499 32.12710 30.07105
#
# Velocity S-wave (km/s) = 3.47326 3.71945 3.59846
# Velocity P-wave (km/s) = 6.29728 6.67210 6.48740
#
# Compressibility (1/GPa) = 0.01826870
#
# Stress axis : x y z
#
# Youngs Moduli (GPa) = 69.10286 115.04438 79.85547
#
# Poissons Ratio (x) = 0.51749 0.17168
# Poissons Ratio (y) = 0.31084 0.16456
# Poissons Ratio (z) = 0.14856 0.23707
#
# Static dielectric constant tensor:
#      x y z
#    x 2.127640 0.000000 0.000000 
#    y 0.000000 1.910710 0.000000 
#    z 0.000000 0.000000 1.910010 
# 
# From -- ./inp_files/16574.got.cif
#   From: 2010.05.17/outbox.cif.g08.bks.cpg/sg54_9_cif.got.tgz:16574.got - 2010.06.03 13:09:01.
