data_PCOD9424922
_publ_section_title
;
Structure prediction by ZEFSAII (Michael W. Deem and Ramdas Pophale) SiO2 
 PCOD9424922
Probable space group: P B A M
;
_chemical_formula_sum "Si O2"
_cell_formula_units_Z 64
_cell_length_a 21.127470
_cell_length_b 20.536593
_cell_length_c 7.542290
_cell_angle_alpha 90.000000
_cell_angle_beta 90.000000
_cell_angle_gamma 90.000000
_cell_volume 3272.495943
_symmetry_space_group_name_H-M "P B A M"
_symmetry_group_IT_number 55
_symmetry_cell_setting 'orthorhombic'
loop_
_space_group_symop_operation_xyz
x,y,z
-x,-y,z
1/2+x,1/2-y,-z
1/2-x,1/2+y,-z
-x,-y,-z
x,y,-z
1/2-x,1/2+y,z
1/2+x,1/2-y,z
loop_
_atom_site_type_symbol
_atom_site_label
_atom_site_fract_x
_atom_site_fract_y
_atom_site_fract_z
Si Si1 0.576710 0.311737 0.217870
Si Si2 0.300762 0.534016 0.289619
Si Si3 0.713782 0.316939 0.201190
Si Si4 0.013661 0.696807 0.783150
Si Si5 0.961389 0.560341 0.795580
Si Si6 0.833700 0.497840 0.292280
Si Si7 0.151181 0.655282 0.215088
Si Si8 0.060649 0.039342 0.786753
O O1 0.647633 0.292182 0.279395
O O2 0.524215 0.260383 0.275089
O O3 0.562144 0.385580 0.275566
O O4 0.578820 0.312343 0.000000
O O5 0.292927 0.545217 0.500000
O O6 0.296872 0.604674 0.198527
O O7 0.238924 0.494360 0.229490
O O8 0.371189 0.508226 0.258472
O O9 0.783771 0.311721 0.281913
O O10 0.717474 0.291879 0.000000
O O11 0.086663 0.689751 0.728426
O O12 0.978314 0.630932 0.722257
O O13 0.013046 0.698913 0.000000
O O14 0.888057 0.541186 0.792936
O O15 0.000000 0.500000 0.712635
O O16 0.983292 0.564091 0.000000
O O17 0.836091 0.512441 0.500000
O O18 0.849463 0.421049 0.266561
O O19 0.153665 0.655935 0.000000
O O20 0.056774 0.041251 0.000000
O O21 0.000000 0.000000 0.720249
#
# Coordination Sequence:
#
# PCOD9424922 Si02
#       8
#     8   8   8   8   8   8   8   8
#     4   8  14  26  44  66  90 115 143 182 227 267
#     4   9  17  28  44  68  92 116 149 185 222 267
#     4   8  14  25  44  65  85 111 147 188 225 264
#     4   9  16  26  43  64  89 118 148 185 226 266
#     4  10  18  29  44  64  89 120 156 189 222 266
#     4  10  19  29  43  65  92 119 150 192 228 261
#     4   9  15  26  44  65  85 113 150 187 224 265
#     4   9  17  30  50  73  96 118 145 185 232 275
#
# _framework density 19.556937000000001
#
# number of rings (size 3 to 8) (size 9 to 14) (size 15 to 20)
#    0.000    3.000    1.250    1.500    0.000    2.000 
#    0.000    0.000    2.750    6.000    0.000    0.000 
#    0.000    0.000    0.000    0.000    0.000    0.000 
#
# Total GULP energy -356489.172308 kJ/mol
# GULP energy per Si atom -5570.143317 kJ/mol
# Density = 1.951242 g / cm^3
# Si number density = 19.556937 Si / 1000 Ang^3
#
#
#
# Elastic Constant Matrix: (Units=GPa)
#
#
# Indices 1 2 3 4 5 6 
#
# 1 207.4577 69.7084 -4.0964 0.0000 0.0000 0.0000
# 2 69.7084 61.7823 2.4245 0.0000 0.0000 0.0000
# 3 -4.0964 2.4245 49.8968 0.0000 0.0000 0.0000
# 4 0.0000 0.0000 0.0000 8.5745 0.0000 0.0000
# 5 0.0000 0.0000 0.0000 0.0000 6.9159 0.0000
# 6 0.0000 0.0000 0.0000 0.0000 0.0000 29.3891
#
#
#
# Elastic Compliance Matrix: (Units=1/GPa)
#
#
# Indices 1 2 3 4 5 6 
#
# 1 0.007820 -0.008866 0.001073 0.000000 0.000000 0.000000
# 2 -0.008866 0.026268 -0.002004 0.000000 0.000000 0.000000
# 3 0.001073 -0.002004 0.020227 0.000000 0.000000 0.000000
# 4 0.000000 0.000000 0.000000 0.116625 0.000000 0.000000
# 5 0.000000 0.000000 0.000000 0.000000 0.144595 0.000000
# 6 0.000000 0.000000 0.000000 0.000000 0.000000 0.034026
#
#
# Mechanical properties :
#
#
# Convention : Reuss Voigt Hill
#
# Bulk Modulus (GPa) = 28.80132 50.57884 39.69008
# Shear Modulus (GPa) = 13.13269 25.71592 19.42430
#
# Velocity S-wave (km/s) = 2.59416 3.63012 3.15496
# Velocity P-wave (km/s) = 4.87153 6.59461 5.79744
#
# Compressibility (1/GPa) = 0.03472063
#
# Stress axis : x y z
#
# Youngs Moduli (GPa) = 127.86913 38.06937 49.43925
#
# Poissons Ratio (x) = 0.33752 -0.05304
# Poissons Ratio (y) = 1.13367 0.09909
# Poissons Ratio (z) = -0.13718 0.07630
#
# Static dielectric constant tensor:
#      x y z
#    x 1.742210 0.000000 0.000000 
#    y 0.000000 1.641590 0.000000 
#    z 0.000000 0.000000 1.724300 
# 
# From -- ./inp_files/9176.got.cif
#   From: 2010.05.17/outbox.cif.g08.bks.cpg/sg55_5_cif.got.tgz:9176.got - 2010.06.03 13:27:54.
