data_PCOD9424710
_publ_section_title
;
Structure prediction by ZEFSAII (Michael W. Deem and Ramdas Pophale) SiO2 
 PCOD9424710
Probable space group: P B A M
;
_chemical_formula_sum "Si O2"
_cell_formula_units_Z 56
_cell_length_a 18.734706
_cell_length_b 5.530951
_cell_length_c 27.160661
_cell_angle_alpha 90.000000
_cell_angle_beta 90.000000
_cell_angle_gamma 90.000000
_cell_volume 2814.407816
_symmetry_space_group_name_H-M "P B A M"
_symmetry_group_IT_number 55
_symmetry_cell_setting 'orthorhombic'
loop_
_space_group_symop_operation_xyz
x,y,z
-x,-y,z
1/2+x,1/2-y,-z
1/2-x,1/2+y,-z
-x,-y,-z
x,y,-z
1/2-x,1/2+y,z
1/2+x,1/2-y,z
loop_
_atom_site_type_symbol
_atom_site_label
_atom_site_fract_x
_atom_site_fract_y
_atom_site_fract_z
Si Si1 0.205488 0.705377 0.713467
Si Si2 0.391135 0.151086 0.193842
Si Si3 0.102061 0.154966 0.839932
Si Si4 0.044981 0.249822 0.946095
Si Si5 0.330683 0.204706 0.401100
Si Si6 0.254115 0.129266 0.123418
Si Si7 0.166987 0.204702 0.441214
O O1 0.250336 0.455693 0.720113
O O2 0.142537 0.699058 0.753178
O O3 0.177435 0.705131 0.657516
O O4 0.428709 0.394682 0.175128
O O5 0.326616 0.125362 0.154211
O O6 0.424676 0.884481 0.190929
O O7 0.090397 0.215668 0.897171
O O8 0.188772 0.130712 0.837162
O O9 0.000000 0.500000 0.940366
O O10 0.080794 0.269212 0.000000
O O11 0.000000 0.000000 0.947525
O O12 0.250006 0.204538 0.423583
O O13 0.364394 0.454871 0.420046
O O14 0.364378 0.954292 0.419920
O O15 0.252518 0.379868 0.094658
O O16 0.164930 0.205041 0.500000
#
# Coordination Sequence:
#
# PCOD9424710 Si02
#       7
#     8   8   8   8   8   8   8
#     4  12  18  27  38  55  85 107 148 184 229 269
#     4  10  19  28  45  66  89 126 146 176 212 265
#     4  10  18  32  48  68  93 115 147 172 212 264
#     4  10  21  37  57  78  95 114 141 180 227 262
#     4  10  16  24  31  49  63  95 131 187 235 275
#     4   8  14  25  39  61  84 113 145 164 196 241
#     4  10  16  25  33  43  63  96 141 189 245 276
#
# _framework density 19.897614999999998
#
# number of rings (size 3 to 8) (size 9 to 14) (size 15 to 20)
#    0.000    2.000    2.857    6.429    0.000    0.000 
#    0.000    0.000    0.000    7.714    0.000    0.000 
#    0.000    0.000    0.000    0.000    0.000    0.000 
#
# Total GULP energy -311910.196932 kJ/mol
# GULP energy per Si atom -5569.824945 kJ/mol
# Density = 1.985233 g / cm^3
# Si number density = 19.897615 Si / 1000 Ang^3
#
#
#
# Elastic Constant Matrix: (Units=GPa)
#
#
# Indices 1 2 3 4 5 6 
#
# 1 19.9508 9.9366 6.9216 0.0000 0.0000 0.0000
# 2 9.9366 225.8317 39.7472 0.0000 0.0000 0.0000
# 3 6.9216 39.7472 129.7325 0.0000 0.0000 0.0000
# 4 0.0000 0.0000 0.0000 31.4325 0.0000 0.0000
# 5 0.0000 0.0000 0.0000 0.0000 27.7953 0.0000
# 6 0.0000 0.0000 0.0000 0.0000 0.0000 22.0634
#
#
#
# Elastic Compliance Matrix: (Units=1/GPa)
#
#
# Indices 1 2 3 4 5 6 
#
# 1 0.051825 -0.001896 -0.002184 0.000000 0.000000 0.000000
# 2 -0.001896 0.004750 -0.001354 0.000000 0.000000 0.000000
# 3 -0.002184 -0.001354 0.008240 0.000000 0.000000 0.000000
# 4 0.000000 0.000000 0.000000 0.031814 0.000000 0.000000
# 5 0.000000 0.000000 0.000000 0.000000 0.035977 0.000000
# 6 0.000000 0.000000 0.000000 0.000000 0.000000 0.045324
#
#
# Mechanical properties :
#
#
# Convention : Reuss Voigt Hill
#
# Bulk Modulus (GPa) = 18.53691 54.30286 36.41988
# Shear Modulus (GPa) = 24.18022 37.51888 30.84955
#
# Velocity S-wave (km/s) = 3.48980 4.34706 3.94180
# Velocity P-wave (km/s) = 5.05714 7.24888 6.24984
#
# Compressibility (1/GPa) = 0.05394642
#
# Stress axis : x y z
#
# Youngs Moduli (GPa) = 19.29559 210.53426 121.36568
#
# Poissons Ratio (x) = 0.39915 0.26508
# Poissons Ratio (y) = 0.03658 0.16434
# Poissons Ratio (z) = 0.04214 0.28508
#
# Static dielectric constant tensor:
#      x y z
#    x 1.737560 0.000000 0.000000 
#    y 0.000000 1.860560 0.000000 
#    z 0.000000 0.000000 1.655910 
# 
# From -- ./inp_files/23681.got.cif
#   From: 2010.05.17/outbox.cif.g08.bks.cpg/sg55_12_cif.got.tgz:23681.got - 2010.06.03 13:27:54.
