data_PCOD9424806
_publ_section_title
;
Structure prediction by ZEFSAII (Michael W. Deem and Ramdas Pophale) SiO2 
 PCOD9424806
Probable space group: P B A M
;
_chemical_formula_sum "Si O2"
_cell_formula_units_Z 56
_cell_length_a 19.600603
_cell_length_b 20.098320
_cell_length_c 7.647960
_cell_angle_alpha 90.000000
_cell_angle_beta 90.000000
_cell_angle_gamma 90.000000
_cell_volume 3012.831177
_symmetry_space_group_name_H-M "P B A M"
_symmetry_group_IT_number 55
_symmetry_cell_setting 'orthorhombic'
loop_
_space_group_symop_operation_xyz
x,y,z
-x,-y,z
1/2+x,1/2-y,-z
1/2-x,1/2+y,-z
-x,-y,-z
x,y,-z
1/2-x,1/2+y,z
1/2+x,1/2-y,z
loop_
_atom_site_type_symbol
_atom_site_label
_atom_site_fract_x
_atom_site_fract_y
_atom_site_fract_z
Si Si1 0.556622 0.947007 0.786341
Si Si2 0.788525 0.475171 0.214731
Si Si3 0.242252 0.167353 0.210655
Si Si4 0.147815 0.284512 0.700023
Si Si5 0.858659 0.229077 0.785952
Si Si6 0.509676 0.800777 0.789121
Si Si7 0.762218 0.115776 0.799082
O O1 0.632584 0.967148 0.731401
O O2 0.535381 0.873246 0.729104
O O3 0.500000 0.000000 0.730365
O O4 0.556974 0.946445 0.000000
O O5 0.748876 0.408500 0.269889
O O6 0.756495 0.544316 0.278198
O O7 0.788992 0.476666 0.000000
O O8 0.177886 0.211096 0.267147
O O9 0.308961 0.209827 0.264666
O O10 0.242384 0.166538 0.000000
O O11 0.159451 0.302057 0.500000
O O12 0.194865 0.337414 0.801401
O O13 0.068158 0.288743 0.739029
O O14 0.935075 0.246177 0.729578
O O15 0.822189 0.161827 0.722004
O O16 0.857673 0.227196 0.000000
O O17 0.512016 0.801551 0.000000
O O18 0.781960 0.102957 0.000000
#
# Coordination Sequence:
#
# PCOD9424806 Si02
#       7
#     8   8   8   8   8   8   8
#     4   9  15  22  40  72 102 124 150 185 231 289
#     4   9  15  26  49  79 101 120 153 198 244 291
#     4   9  16  31  52  73  95 122 160 203 243 286
#     4  11  22  33  45  67  98 131 167 202 237 283
#     4   8  14  26  47  72  94 118 155 197 237 284
#     4  10  17  29  48  68  92 125 161 199 241 283
#     4   9  17  31  52  76  99 124 156 197 243 293
#
# _framework density 18.587167000000001
#
# number of rings (size 3 to 8) (size 9 to 14) (size 15 to 20)
#    0.000    2.714    1.429    3.000    0.000    2.286 
#    0.000    3.571    0.000    4.714    0.000    6.000 
#    0.000    0.000    0.000    0.000    0.000    0.000 
#
# Total GULP energy -312300.735427 kJ/mol
# GULP energy per Si atom -5576.798847 kJ/mol
# Density = 1.854486 g / cm^3
# Si number density = 18.587167 Si / 1000 Ang^3
#
#
#
# Elastic Constant Matrix: (Units=GPa)
#
#
# Indices 1 2 3 4 5 6 
#
# 1 41.5304 36.4051 -5.5071 0.0000 0.0000 0.0000
# 2 36.4051 131.7468 0.3289 0.0000 0.0000 0.0000
# 3 -5.5071 0.3289 36.2919 0.0000 0.0000 0.0000
# 4 0.0000 0.0000 0.0000 -17.8907 0.0000 0.0000
# 5 0.0000 0.0000 0.0000 0.0000 -37.2037 0.0000
# 6 0.0000 0.0000 0.0000 0.0000 0.0000 24.6642
#
#
#
# Elastic Compliance Matrix: (Units=1/GPa)
#
#
# Indices 1 2 3 4 5 6 
#
# 1 0.032672 -0.009041 0.005040 0.000000 0.000000 0.000000
# 2 -0.009041 0.010092 -0.001463 0.000000 0.000000 0.000000
# 3 0.005040 -0.001463 0.028332 0.000000 0.000000 0.000000
# 4 0.000000 0.000000 0.000000 -0.055895 0.000000 0.000000
# 5 0.000000 0.000000 0.000000 0.000000 -0.026879 0.000000
# 6 0.000000 0.000000 0.000000 0.000000 0.000000 0.040545
#
#
# Mechanical properties :
#
#
# Convention : Reuss Voigt Hill
#
# Bulk Modulus (GPa) = 16.62016 30.22479 23.42247
# Shear Modulus (GPa) = 83.53964 5.80344 44.67154
#
# Velocity S-wave (km/s) = 6.71136 1.76892 4.90772
# Velocity P-wave (km/s) = 8.30769 4.52421 6.68903
#
# Compressibility (1/GPa) = 0.06016790
#
# Stress axis : x y z
#
# Youngs Moduli (GPa) = 30.60725 99.08687 35.29530
#
# Poissons Ratio (x) = 0.89582 -0.17788
# Poissons Ratio (y) = 0.27671 0.05165
# Poissons Ratio (z) = -0.15425 0.14500
#
# Static dielectric constant tensor:
#      x y z
#    x 1.620550 0.000000 0.000000 
#    y 0.000000 1.646590 0.000000 
#    z 0.000000 0.000000 1.681820 
# 
# From -- ./inp_files/7851.got.cif
#   From: 2010.05.17/outbox.cif.g08.bks.cpg/sg55_4_cif.got.tgz:7851.got - 2010.06.03 13:27:54.
