data_PCOD9424125
_publ_section_title
;
Structure prediction by ZEFSAII (Michael W. Deem and Ramdas Pophale) SiO2 
 PCOD9424125
Probable space group: P C C A
;
_chemical_formula_sum "Si O2"
_cell_formula_units_Z 60
_cell_length_a 21.537616
_cell_length_b 12.516917
_cell_length_c 11.397504
_cell_angle_alpha 90.000000
_cell_angle_beta 90.000000
_cell_angle_gamma 90.000000
_cell_volume 3072.591008
_symmetry_space_group_name_H-M "P C C A"
_symmetry_group_IT_number 54
_symmetry_cell_setting 'orthorhombic'
loop_
_space_group_symop_operation_xyz
x,y,z
1/2-x,-y,z
1/2+x,-y,1/2-z
-x,y,1/2-z
-x,-y,-z
1/2+x,y,-z
1/2-x,y,1/2+z
x,-y,1/2+z
loop_
_atom_site_type_symbol
_atom_site_label
_atom_site_fract_x
_atom_site_fract_y
_atom_site_fract_z
Si Si1 0.484517 0.617723 0.049342
Si Si2 0.250000 0.500000 0.909977
Si Si3 0.344447 0.703162 0.668915
Si Si4 0.944494 0.780061 0.155891
Si Si5 0.463601 0.984089 0.376531
Si Si6 0.718333 0.301528 0.746097
Si Si7 0.102143 0.242346 0.410451
Si Si8 0.649340 0.538042 0.402275
O O1 0.546159 0.670044 0.108604
O O2 0.419316 0.587179 0.109988
O O3 0.500000 0.500000 0.000000
O O4 0.466399 0.706734 0.951889
O O5 0.245340 0.610201 0.841756
O O6 0.183482 0.491672 0.976402
O O7 0.387755 0.729404 0.777205
O O8 0.277883 0.756082 0.697995
O O9 0.373243 0.740444 0.544080
O O10 0.344051 0.574259 0.663578
O O11 0.000000 0.782289 0.250000
O O12 0.928260 0.902730 0.128826
O O13 0.500000 0.975365 0.250000
O O14 0.426587 0.874652 0.393040
O O15 0.500000 0.000000 0.500000
O O16 0.660361 0.250749 0.678122
O O17 0.692408 0.370378 0.852482
#
# Coordination Sequence:
#
# PCOD9424125 Si02
#       8
#     8   4   8   8   8   8   8   8
#     4  12  23  38  61 104 140 166 219 291 353 417
#     4  12  18  42  58  90 132 194 234 266 336 446
#     4  12  22  43  64  98 133 184 231 281 358 427
#     4  11  22  42  71  96 129 181 226 281 359 425
#     4  11  24  48  74 102 139 191 242 292 370 436
#     4  12  24  38  64  93 135 192 225 277 348 438
#     4  12  25  43  66 102 140 176 238 307 347 428
#     4  12  23  37  61  94 140 177 223 268 347 439
#
# _framework density 19.527494000000001
#
# number of rings (size 3 to 8) (size 9 to 14) (size 15 to 20)
#    0.000    0.267    8.000    1.600    3.733    0.000 
#    0.000    0.667    0.000    1.600    0.000    0.000 
#    0.000    0.000    0.000    0.000    0.000    0.000 
#
# Total GULP energy -334245.405042 kJ/mol
# GULP energy per Si atom -5570.756751 kJ/mol
# Density = 1.948305 g / cm^3
# Si number density = 19.527494 Si / 1000 Ang^3
#
#
#
# Elastic Constant Matrix: (Units=GPa)
#
#
# Indices 1 2 3 4 5 6 
#
# 1 125.6264 30.9055 26.8616 0.0000 0.0000 0.0000
# 2 30.9055 68.2005 -8.1578 0.0000 0.0000 0.0000
# 3 26.8616 -8.1578 52.2298 0.0000 0.0000 0.0000
# 4 0.0000 0.0000 0.0000 19.1254 0.0000 0.0000
# 5 0.0000 0.0000 0.0000 0.0000 47.9983 0.0000
# 6 0.0000 0.0000 0.0000 0.0000 0.0000 25.0304
#
#
#
# Elastic Compliance Matrix: (Units=1/GPa)
#
#
# Indices 1 2 3 4 5 6 
#
# 1 0.010706 -0.005615 -0.006383 0.000000 0.000000 0.000000
# 2 -0.005615 0.017887 0.005682 0.000000 0.000000 0.000000
# 3 -0.006383 0.005682 0.023316 0.000000 0.000000 0.000000
# 4 0.000000 0.000000 0.000000 0.052287 0.000000 0.000000
# 5 0.000000 0.000000 0.000000 0.000000 0.020834 0.000000
# 6 0.000000 0.000000 0.000000 0.000000 0.000000 0.039951
#
#
# Mechanical properties :
#
#
# Convention : Reuss Voigt Hill
#
# Bulk Modulus (GPa) = 25.46086 38.36392 31.91239
# Shear Modulus (GPa) = 26.21815 31.52730 28.87272
#
# Velocity S-wave (km/s) = 3.66816 4.02245 3.84939
# Velocity P-wave (km/s) = 5.56842 6.42357 6.01122
#
# Compressibility (1/GPa) = 0.03927597
#
# Stress axis : x y z
#
# Youngs Moduli (GPa) = 93.40201 55.90702 42.88809
#
# Poissons Ratio (x) = 0.31393 0.27377
# Poissons Ratio (y) = 0.52447 -0.24368
# Poissons Ratio (z) = 0.59622 -0.31764
#
# Static dielectric constant tensor:
#      x y z
#    x 1.853650 0.000000 0.000000 
#    y 0.000000 1.694000 0.000000 
#    z 0.000000 0.000000 1.747650 
# 
# From -- ./inp_files/9593.got.cif
#   From: 2010.05.17/outbox.cif.g08.bks.cpg/sg54_5_cif.got.tgz:9593.got - 2010.06.03 13:09:01.
