data_PCOD9424405
_publ_section_title
;
Structure prediction by ZEFSAII (Michael W. Deem and Ramdas Pophale) SiO2 
 PCOD9424405
Probable space group: P C C A
;
_chemical_formula_sum "Si O2"
_cell_formula_units_Z 56
_cell_length_a 31.488914
_cell_length_b 5.173525
_cell_length_c 14.923349
_cell_angle_alpha 90.000000
_cell_angle_beta 90.000000
_cell_angle_gamma 90.000000
_cell_volume 2431.143144
_symmetry_space_group_name_H-M "P C C A"
_symmetry_group_IT_number 54
_symmetry_cell_setting 'orthorhombic'
loop_
_space_group_symop_operation_xyz
x,y,z
1/2-x,-y,z
1/2+x,-y,1/2-z
-x,y,1/2-z
-x,-y,-z
1/2+x,y,-z
1/2-x,y,1/2+z
x,-y,1/2+z
loop_
_atom_site_type_symbol
_atom_site_label
_atom_site_fract_x
_atom_site_fract_y
_atom_site_fract_z
Si Si1 0.064725 0.125005 0.903528
Si Si2 0.066059 0.019607 0.102812
Si Si3 0.750000 0.000000 0.740126
Si Si4 0.500000 0.024669 0.250000
Si Si5 0.617224 0.500779 0.849686
Si Si6 0.710002 0.308359 0.584892
Si Si7 0.209796 0.308329 0.606214
Si Si8 0.383478 0.608199 0.361897
O O1 0.086795 0.401892 0.910831
O O2 0.097732 0.897340 0.874545
O O3 0.048692 0.038600 0.001654
O O4 0.030049 0.158395 0.824375
O O5 0.033123 0.106243 0.181002
O O6 0.103117 0.229384 0.109214
O O7 0.085451 0.736292 0.123764
O O8 0.719561 0.150926 0.673436
O O9 0.781489 0.144657 0.806341
O O10 0.664580 0.559700 0.882207
O O11 0.617016 0.466996 0.742486
O O12 0.750000 0.500000 0.580788
O O13 0.709001 0.163821 0.489403
O O14 0.663604 0.424151 0.598849
O O15 0.250000 0.500000 0.604465
#
# Coordination Sequence:
#
# PCOD9424405 Si02
#       8
#     8   8   4   4   8   8   8   8
#     4  12  27  48  77 109 148 191 242 304 374 442
#     4  12  27  48  77 109 148 191 242 304 374 442
#     4  12  24  42  68 104 140 198 248 304 360 406
#     4  12  26  52  76 112 142 190 246 306 378 448
#     4  12  25  49  74 109 150 196 241 303 364 436
#     4  11  26  45  69 104 146 194 249 298 355 429
#     4  11  26  45  69 104 146 194 249 298 355 429
#     4  12  25  49  74 109 150 196 241 303 364 436
#
# _framework density 23.034433
#
# number of rings (size 3 to 8) (size 9 to 14) (size 15 to 20)
#    0.000    0.286    2.857    5.571    8.000    2.286 
#    0.000    2.857    0.000    0.000    0.000    0.000 
#    0.000    0.000    0.000    0.000    0.000    0.000 
#
# Total GULP energy -313077.431782 kJ/mol
# GULP energy per Si atom -5590.668425 kJ/mol
# Density = 2.298201 g / cm^3
# Si number density = 23.034433 Si / 1000 Ang^3
#
#
#
# Elastic Constant Matrix: (Units=GPa)
#
#
# Indices 1 2 3 4 5 6 
#
# 1 113.1427 5.0549 23.0283 0.0000 0.0000 0.0000
# 2 5.0549 60.8877 8.1308 0.0000 0.0000 0.0000
# 3 23.0283 8.1308 205.4859 0.0000 0.0000 0.0000
# 4 0.0000 0.0000 0.0000 16.5851 0.0000 0.0000
# 5 0.0000 0.0000 0.0000 0.0000 -40.0341 0.0000
# 6 0.0000 0.0000 0.0000 0.0000 0.0000 -11.5331
#
#
#
# Elastic Compliance Matrix: (Units=1/GPa)
#
#
# Indices 1 2 3 4 5 6 
#
# 1 0.009068 -0.000620 -0.000992 0.000000 0.000000 0.000000
# 2 -0.000620 0.016553 -0.000585 0.000000 0.000000 0.000000
# 3 -0.000992 -0.000585 0.005001 0.000000 0.000000 0.000000
# 4 0.000000 0.000000 0.000000 0.060295 0.000000 0.000000
# 5 0.000000 0.000000 0.000000 0.000000 -0.024979 0.000000
# 6 0.000000 0.000000 0.000000 0.000000 0.000000 -0.086707
#
#
# Mechanical properties :
#
#
# Convention : Reuss Voigt Hill
#
# Bulk Modulus (GPa) = 38.12856 50.21603 44.17229
# Shear Modulus (GPa) = -655.19635 15.89041 -319.65297
#
# Velocity S-wave (km/s) = -16.88371 2.62936 -11.79292
# Velocity P-wave (km/s) = 19.06543 5.57367 12.89234
#
# Compressibility (1/GPa) = 0.02622706
#
# Stress axis : x y z
#
# Youngs Moduli (GPa) = 110.27846 60.41065 199.96741
#
# Poissons Ratio (x) = 0.03748 0.19830
# Poissons Ratio (y) = 0.06842 0.11707
# Poissons Ratio (z) = 0.10936 0.03537
#
# Static dielectric constant tensor:
#      x y z
#    x 1.699810 0.000000 0.000000 
#    y 0.000000 1.887560 0.000000 
#    z 0.000000 0.000000 1.900900 
# 
# From -- ./inp_files/15378.got.cif
#   From: 2010.05.17/outbox.cif.g08.bks.cpg/sg54_8_cif.got.tgz:15378.got - 2010.06.03 13:09:01.
