data_PCOD9424980
_publ_section_title
;
Structure prediction by ZEFSAII (Michael W. Deem and Ramdas Pophale) SiO2 
 PCOD9424980
Probable space group: P B A M
;
_chemical_formula_sum "Si O2"
_cell_formula_units_Z 64
_cell_length_a 7.707419
_cell_length_b 35.071843
_cell_length_c 13.365946
_cell_angle_alpha 90.000000
_cell_angle_beta 90.000000
_cell_angle_gamma 90.000000
_cell_volume 3612.994162
_symmetry_space_group_name_H-M "P B A M"
_symmetry_group_IT_number 55
_symmetry_cell_setting 'orthorhombic'
loop_
_space_group_symop_operation_xyz
x,y,z
-x,-y,z
1/2+x,1/2-y,-z
1/2-x,1/2+y,-z
-x,-y,-z
x,y,-z
1/2-x,1/2+y,z
1/2+x,1/2-y,z
loop_
_atom_site_type_symbol
_atom_site_label
_atom_site_fract_x
_atom_site_fract_y
_atom_site_fract_z
Si Si1 0.245593 0.196387 0.391651
Si Si2 0.660248 0.716406 0.607667
Si Si3 0.056952 0.542010 0.620839
Si Si4 0.056734 0.042083 0.379070
Si Si5 0.010385 0.216357 0.884717
Si Si6 0.226988 0.330480 0.221273
Si Si7 0.750021 0.100807 0.621095
Si Si8 0.392395 0.201052 0.184049
O O1 0.274862 0.176985 0.500000
O O2 0.328781 0.238397 0.397827
O O3 0.330464 0.182460 0.290089
O O4 0.037670 0.202038 0.379396
O O5 0.722588 0.701662 0.500000
O O6 0.782132 0.703210 0.695917
O O7 0.064025 0.539303 0.500000
O O8 0.250046 0.551128 0.657005
O O9 0.000000 0.500000 0.656769
O O10 0.916603 0.574292 0.640783
O O11 0.062411 0.039578 0.500000
O O12 0.917589 0.074589 0.358435
O O13 0.000000 0.000000 0.343530
O O14 0.892288 0.181888 0.843696
O O15 0.966378 0.255228 0.823269
O O16 0.211590 0.205204 0.874300
O O17 0.968486 0.224451 0.000000
O O18 0.248317 0.365916 0.296251
O O19 0.053927 0.325869 0.155366
O O20 0.751667 0.110794 0.500000
#
# Coordination Sequence:
#
# PCOD9424980 Si02
#       8
#     8   8   8   8   8   8   8   8
#     4  10  18  30  50  74 100 136 179 218 256 316
#     4  10  18  30  47  69 101 141 177 211 256 314
#     4   9  15  27  49  76 107 151 205 237 254 299
#     4   9  15  27  51  77 107 155 205 235 255 298
#     4  12  25  42  63  83 102 133 190 254 307 352
#     4  12  24  37  56  80 115 142 178 238 296 345
#     4  10  21  34  50  80 122 161 191 226 273 326
#     4  12  22  39  60  83 104 137 188 243 291 350
#
# _framework density 17.713840000000001
#
# number of rings (size 3 to 8) (size 9 to 14) (size 15 to 20)
#    0.000    1.500    5.000    1.500    0.000    3.500 
#    0.000    0.000    0.000    0.000    0.000    0.000 
#    0.000    1.000    0.000    0.125    0.000    0.000 
#
# Total GULP energy -356436.357527 kJ/mol
# GULP energy per Si atom -5569.318086 kJ/mol
# Density = 1.767352 g / cm^3
# Si number density = 17.713840 Si / 1000 Ang^3
#
#
#
# Elastic Constant Matrix: (Units=GPa)
#
#
# Indices 1 2 3 4 5 6 
#
# 1 134.8993 45.4356 26.7539 0.0000 0.0000 0.0000
# 2 45.4356 72.6772 20.6734 0.0000 0.0000 0.0000
# 3 26.7539 20.6734 58.0693 0.0000 0.0000 0.0000
# 4 0.0000 0.0000 0.0000 5.8792 0.0000 0.0000
# 5 0.0000 0.0000 0.0000 0.0000 9.8685 0.0000
# 6 0.0000 0.0000 0.0000 0.0000 0.0000 13.0570
#
#
#
# Elastic Compliance Matrix: (Units=1/GPa)
#
#
# Indices 1 2 3 4 5 6 
#
# 1 0.009725 -0.005347 -0.002577 0.000000 0.000000 0.000000
# 2 -0.005347 0.018249 -0.004034 0.000000 0.000000 0.000000
# 3 -0.002577 -0.004034 0.019844 0.000000 0.000000 0.000000
# 4 0.000000 0.000000 0.000000 0.170091 0.000000 0.000000
# 5 0.000000 0.000000 0.000000 0.000000 0.101333 0.000000
# 6 0.000000 0.000000 0.000000 0.000000 0.000000 0.076587
#
#
# Mechanical properties :
#
#
# Convention : Reuss Voigt Hill
#
# Bulk Modulus (GPa) = 41.83446 50.15240 45.99343
# Shear Modulus (GPa) = 11.69013 17.27982 14.48497
#
# Velocity S-wave (km/s) = 2.57172 3.12668 2.86268
# Velocity P-wave (km/s) = 5.69969 6.43497 6.07846
#
# Compressibility (1/GPa) = 0.02390374
#
# Stress axis : x y z
#
# Youngs Moduli (GPa) = 102.82967 54.79624 50.39276
#
# Poissons Ratio (x) = 0.29298 0.12986
# Poissons Ratio (y) = 0.54979 0.20327
# Poissons Ratio (z) = 0.26499 0.22103
#
# Static dielectric constant tensor:
#      x y z
#    x 1.687320 0.000000 0.000000 
#    y 0.000000 1.624460 0.000000 
#    z 0.000000 0.000000 1.629990 
# 
# From -- ./inp_files/17939.got.cif
#   From: 2010.05.17/outbox.cif.g08.bks.cpg/sg55_9_cif.got.tgz:17939.got - 2010.06.03 13:27:54.
