data_PCOD9424024
_publ_section_title
;
Structure prediction by ZEFSAII (Michael W. Deem and Ramdas Pophale) SiO2 
 PCOD9424024
Probable space group: P C C A
;
_chemical_formula_sum "Si O2"
_cell_formula_units_Z 48
_cell_length_a 13.706725
_cell_length_b 6.698543
_cell_length_c 27.143458
_cell_angle_alpha 90.000000
_cell_angle_beta 90.000000
_cell_angle_gamma 90.000000
_cell_volume 2492.178952
_symmetry_space_group_name_H-M "P C C A"
_symmetry_group_IT_number 54
_symmetry_cell_setting 'orthorhombic'
loop_
_space_group_symop_operation_xyz
x,y,z
1/2-x,-y,z
1/2+x,-y,1/2-z
-x,y,1/2-z
-x,-y,-z
1/2+x,y,-z
1/2-x,y,1/2+z
x,-y,1/2+z
loop_
_atom_site_type_symbol
_atom_site_label
_atom_site_fract_x
_atom_site_fract_y
_atom_site_fract_z
Si Si1 0.250000 0.000000 0.707716
Si Si2 0.429476 0.811966 0.494033
Si Si3 0.851857 0.616937 0.830632
Si Si4 0.532113 0.508003 0.926101
Si Si5 0.158043 0.348522 0.871517
Si Si6 0.750000 0.000000 0.566386
Si Si7 0.151777 0.369541 0.759712
O O1 0.178011 0.846873 0.679248
O O2 0.317070 0.846433 0.738672
O O3 0.412706 0.684541 0.544219
O O4 0.497202 0.665142 0.462161
O O5 0.500000 0.000000 0.500000
O O6 0.329534 0.881859 0.467245
O O7 0.750000 0.500000 0.836843
O O8 0.899939 0.503354 0.782910
O O9 0.910480 0.582209 0.880085
O O10 0.430941 0.588028 0.905108
O O11 0.250000 0.500000 0.873504
O O12 0.195104 0.147046 0.896341
O O13 0.117962 0.338261 0.815502
O O14 0.250000 0.500000 0.766324
#
# Coordination Sequence:
#
# PCOD9424024 Si02
#       7
#     4   8   8   8   8   4   8
#     4   8  15  36  59  88 126 160 209 243 300 370
#     4  11  25  43  62  93 124 161 217 269 304 383
#     4   9  20  38  61  90 124 169 203 253 312 368
#     4  11  24  42  65  89 128 162 212 261 316 371
#     4  11  21  39  66  94 124 165 205 259 313 376
#     4  12  23  42  69  90 124 170 209 253 334 360
#     4   8  17  33  60  91 125 159 206 249 302 370
#
# _framework density 19.260252999999999
#
# number of rings (size 3 to 8) (size 9 to 14) (size 15 to 20)
#    0.000    2.333    3.333    0.500    0.000    4.667 
#    0.000    0.833    0.000    0.000    0.000    0.000 
#    0.000    0.000    0.000    0.000    0.000    0.000 
#
# Total GULP energy -267266.393170 kJ/mol
# GULP energy per Si atom -5568.049858 kJ/mol
# Density = 1.921642 g / cm^3
# Si number density = 19.260253 Si / 1000 Ang^3
#
#
#
# Elastic Constant Matrix: (Units=GPa)
#
#
# Indices 1 2 3 4 5 6 
#
# 1 46.2514 31.6124 25.4545 0.0000 0.0000 0.0000
# 2 31.6124 155.5537 70.0303 0.0000 0.0000 0.0000
# 3 25.4545 70.0303 130.8022 0.0000 0.0000 0.0000
# 4 0.0000 0.0000 0.0000 14.4652 0.0000 0.0000
# 5 0.0000 0.0000 0.0000 0.0000 32.9637 0.0000
# 6 0.0000 0.0000 0.0000 0.0000 0.0000 26.2465
#
#
#
# Elastic Compliance Matrix: (Units=1/GPa)
#
#
# Indices 1 2 3 4 5 6 
#
# 1 0.025935 -0.003951 -0.002932 0.000000 0.000000 0.000000
# 2 -0.003951 0.009072 -0.004088 0.000000 0.000000 0.000000
# 3 -0.002932 -0.004088 0.010405 0.000000 0.000000 0.000000
# 4 0.000000 0.000000 0.000000 0.069131 0.000000 0.000000
# 5 0.000000 0.000000 0.000000 0.000000 0.030336 0.000000
# 6 0.000000 0.000000 0.000000 0.000000 0.000000 0.038100
#
#
# Mechanical properties :
#
#
# Convention : Reuss Voigt Hill
#
# Bulk Modulus (GPa) = 42.60803 65.20020 53.90411
# Shear Modulus (GPa) = 23.50238 28.43575 25.96907
#
# Velocity S-wave (km/s) = 3.49700 3.84656 3.67594
# Velocity P-wave (km/s) = 6.20287 7.32487 6.78710
#
# Compressibility (1/GPa) = 0.02346976
#
# Stress axis : x y z
#
# Youngs Moduli (GPa) = 38.55826 110.22838 96.11221
#
# Poissons Ratio (x) = 0.43548 0.28178
# Poissons Ratio (y) = 0.15233 0.39293
# Poissons Ratio (z) = 0.11305 0.45065
#
# Static dielectric constant tensor:
#      x y z
#    x 1.620450 0.000000 0.000000 
#    y 0.000000 1.461440 0.000000 
#    z 0.000000 0.000000 1.737730 
# 
# From -- ./inp_files/26509.got.cif
#   From: 2010.05.17/outbox.cif.g08.bks.cpg/sg54_14_cif.got.tgz:26509.got - 2010.06.03 13:09:01.
