data_PCOD9424243
_publ_section_title
;
Structure prediction by ZEFSAII (Michael W. Deem and Ramdas Pophale) SiO2 
 PCOD9424243
Probable space group: P C C A
;
_chemical_formula_sum "Si O2"
_cell_formula_units_Z 64
_cell_length_a 21.915213
_cell_length_b 18.236331
_cell_length_c 8.156594
_cell_angle_alpha 90.000000
_cell_angle_beta 90.000000
_cell_angle_gamma 90.000000
_cell_volume 3259.807900
_symmetry_space_group_name_H-M "P C C A"
_symmetry_group_IT_number 54
_symmetry_cell_setting 'orthorhombic'
loop_
_space_group_symop_operation_xyz
x,y,z
1/2-x,-y,z
1/2+x,-y,1/2-z
-x,y,1/2-z
-x,-y,-z
1/2+x,y,-z
1/2-x,y,1/2+z
x,-y,1/2+z
loop_
_atom_site_type_symbol
_atom_site_label
_atom_site_fract_x
_atom_site_fract_y
_atom_site_fract_z
Si Si1 0.072840 0.078635 0.560347
Si Si2 0.931070 0.236276 0.533815
Si Si3 0.431143 0.075501 0.453776
Si Si4 0.374226 0.397205 0.048513
Si Si5 0.426651 0.239973 0.068558
Si Si6 0.572287 0.516125 0.257680
Si Si7 0.239790 0.414697 0.356746
Si Si8 0.347903 0.368744 0.566924
O O1 0.070502 0.077363 0.757068
O O2 0.097050 0.159404 0.513824
O O3 0.002817 0.075928 0.496803
O O4 0.099762 0.000403 0.507331
O O5 0.909283 0.154524 0.484434
O O6 0.927917 0.239711 0.732476
O O7 0.888333 0.296560 0.452753
O O8 0.003654 0.247131 0.502323
O O9 0.407660 0.440846 0.903337
O O10 0.303475 0.413967 0.019260
O O11 0.388552 0.311859 0.026965
O O12 0.402001 0.434729 0.210233
O O13 0.500000 0.513146 0.250000
O O14 0.604137 0.565711 0.398888
O O15 0.250000 0.500000 0.313691
O O16 0.303145 0.379108 0.411820
O O17 0.198385 0.373556 0.222367
#
# Coordination Sequence:
#
# PCOD9424243 Si02
#       8
#     8   8   8   8   8   8   8   8
#     4   8  14  28  49  78 112 155 185 222 277 358
#     4   9  19  34  56  85 118 156 190 239 295 362
#     4   8  14  28  49  77 113 149 190 221 280 351
#     4  11  24  37  56  81 110 148 198 244 294 359
#     4   9  19  34  57  84 121 157 190 231 302 364
#     4  11  24  38  56  82 113 147 190 239 311 368
#     4  11  24  42  59  80 106 153 205 257 298 345
#     4  11  24  39  62  81 114 150 200 254 297 348
#
# _framework density 19.633058999999999
#
# number of rings (size 3 to 8) (size 9 to 14) (size 15 to 20)
#    0.000    2.250    1.250    3.000    7.000    0.000 
#    4.500    0.000    0.000    0.000    0.000    0.875 
#    0.000    0.000    0.000    0.000    0.000    0.000 
#
# Total GULP energy -356819.591135 kJ/mol
# GULP energy per Si atom -5575.306111 kJ/mol
# Density = 1.958837 g / cm^3
# Si number density = 19.633059 Si / 1000 Ang^3
#
#
#
# Elastic Constant Matrix: (Units=GPa)
#
#
# Indices 1 2 3 4 5 6 
#
# 1 95.7363 51.0220 18.4818 0.0000 0.0000 0.0000
# 2 51.0220 184.4459 26.7311 0.0000 0.0000 0.0000
# 3 18.4818 26.7311 33.7115 0.0000 0.0000 0.0000
# 4 0.0000 0.0000 0.0000 9.4639 0.0000 0.0000
# 5 0.0000 0.0000 0.0000 0.0000 21.3027 0.0000
# 6 0.0000 0.0000 0.0000 0.0000 0.0000 0.1327
#
#
#
# Elastic Compliance Matrix: (Units=1/GPa)
#
#
# Indices 1 2 3 4 5 6 
#
# 1 0.012903 -0.002874 -0.004795 0.000000 0.000000 0.000000
# 2 -0.002874 0.006766 -0.003789 0.000000 0.000000 0.000000
# 3 -0.004795 -0.003789 0.035297 0.000000 0.000000 0.000000
# 4 0.000000 0.000000 0.000000 0.105665 0.000000 0.000000
# 5 0.000000 0.000000 0.000000 0.000000 0.046942 0.000000
# 6 0.000000 0.000000 0.000000 0.000000 0.000000 7.538111
#
#
# Mechanical properties :
#
#
# Convention : Reuss Voigt Hill
#
# Bulk Modulus (GPa) = 31.20208 56.26261 43.73234
# Shear Modulus (GPa) = 0.64273 20.69043 10.66658
#
# Velocity S-wave (km/s) = 0.57279 3.24984 2.33340
# Velocity P-wave (km/s) = 4.04531 6.54226 5.43902
#
# Compressibility (1/GPa) = 0.03204915
#
# Stress axis : x y z
#
# Youngs Moduli (GPa) = 77.50245 147.80004 28.33139
#
# Poissons Ratio (x) = 0.42483 0.13584
# Poissons Ratio (y) = 0.22277 0.10735
# Poissons Ratio (z) = 0.37159 0.56003
#
# Static dielectric constant tensor:
#      x y z
#    x 1.693110 0.000000 0.000000 
#    y 0.000000 1.722830 0.000000 
#    z 0.000000 0.000000 1.805850 
# 
# From -- ./inp_files/5333.got.cif
#   From: 2010.05.17/outbox.cif.g08.bks.cpg/sg54_3_cif.got.tgz:5333.got - 2010.06.03 13:09:01.
