data_PCOD9424869
_publ_section_title
;
Structure prediction by ZEFSAII (Michael W. Deem and Ramdas Pophale) SiO2 
 PCOD9424869
Probable space group: P B A M
;
_chemical_formula_sum "Si O2"
_cell_formula_units_Z 64
_cell_length_a 19.137661
_cell_length_b 15.748412
_cell_length_c 8.922869
_cell_angle_alpha 90.000000
_cell_angle_beta 90.000000
_cell_angle_gamma 90.000000
_cell_volume 2689.243591
_symmetry_space_group_name_H-M "P B A M"
_symmetry_group_IT_number 55
_symmetry_cell_setting 'orthorhombic'
loop_
_space_group_symop_operation_xyz
x,y,z
-x,-y,z
1/2+x,1/2-y,-z
1/2-x,1/2+y,-z
-x,-y,-z
x,y,-z
1/2-x,1/2+y,z
1/2+x,1/2-y,z
loop_
_atom_site_type_symbol
_atom_site_label
_atom_site_fract_x
_atom_site_fract_y
_atom_site_fract_z
Si Si1 0.296513 0.983851 0.675592
Si Si2 0.042964 0.345325 0.674853
Si Si3 0.463956 0.336492 0.674570
Si Si4 0.833660 0.094414 0.824870
Si Si5 0.406254 0.590445 0.824720
Si Si6 0.076782 0.560490 0.171656
Si Si7 0.823082 0.755088 0.678550
Si Si8 0.209615 0.656793 0.172772
O O1 0.294211 0.968674 0.500000
O O2 0.376395 0.996056 0.730634
O O3 0.269073 0.077966 0.721056
O O4 0.243261 0.921532 0.757979
O O5 0.042313 0.370800 0.500000
O O6 0.999273 0.256492 0.684412
O O7 0.998170 0.411090 0.771160
O O8 0.121841 0.318857 0.717968
O O9 0.463855 0.360961 0.500000
O O10 0.385870 0.343284 0.737822
O O11 0.514693 0.398767 0.767561
O O12 0.872936 0.002530 0.811184
O O13 0.829398 0.117124 0.000000
O O14 0.363718 0.659526 0.728378
O O15 0.403473 0.614514 0.000000
O O16 0.126197 0.645729 0.176146
O O17 0.076799 0.532362 0.000000
O O18 0.812627 0.752539 0.500000
O O19 0.749966 0.762570 0.765151
O O20 0.230720 0.640974 0.000000
#
# Coordination Sequence:
#
# PCOD9424869 Si02
#       8
#     8   8   8   8   8   8   8   8
#     4  10  18  28  45  61  77 102 133 172 212 244
#     4   9  19  32  43  59  83 111 145 176 207 252
#     4  10  21  31  39  54  77 107 143 175 206 247
#     4  11  20  29  40  57  80 104 137 177 210 246
#     4  10  18  27  38  52  75 106 139 175 209 240
#     4   9  18  30  45  63  80 104 139 174 212 256
#     4  10  18  27  42  62  82 109 142 176 211 248
#     4   9  17  28  41  62  82 101 135 174 208 250
#
# _framework density 23.798513
#
# number of rings (size 3 to 8) (size 9 to 14) (size 15 to 20)
#    0.750    1.500    1.250    4.125    0.000    6.000 
#    0.000    0.000    0.000    0.000    0.000    0.000 
#    0.000    0.000    0.000    1.125    0.000   21.000 
#
# Total GULP energy -357708.018975 kJ/mol
# GULP energy per Si atom -5589.187796 kJ/mol
# Density = 2.374435 g / cm^3
# Si number density = 23.798513 Si / 1000 Ang^3
#
#
#
# Elastic Constant Matrix: (Units=GPa)
#
#
# Indices 1 2 3 4 5 6 
#
# 1 177.7568 16.4766 52.5072 0.0000 0.0000 0.0000
# 2 16.4766 76.1245 27.4808 0.0000 0.0000 0.0000
# 3 52.5072 27.4808 100.6106 0.0000 0.0000 0.0000
# 4 0.0000 0.0000 0.0000 20.6940 0.0000 0.0000
# 5 0.0000 0.0000 0.0000 0.0000 27.9732 0.0000
# 6 0.0000 0.0000 0.0000 0.0000 0.0000 42.7350
#
#
#
# Elastic Compliance Matrix: (Units=1/GPa)
#
#
# Indices 1 2 3 4 5 6 
#
# 1 0.006654 -0.000207 -0.003416 0.000000 0.000000 0.000000
# 2 -0.000207 0.014580 -0.003874 0.000000 0.000000 0.000000
# 3 -0.003416 -0.003874 0.012780 0.000000 0.000000 0.000000
# 4 0.000000 0.000000 0.000000 0.048323 0.000000 0.000000
# 5 0.000000 0.000000 0.000000 0.000000 0.035749 0.000000
# 6 0.000000 0.000000 0.000000 0.000000 0.000000 0.023400
#
#
# Mechanical properties :
#
#
# Convention : Reuss Voigt Hill
#
# Bulk Modulus (GPa) = 52.57806 60.82457 56.70131
# Shear Modulus (GPa) = 30.70870 35.48225 33.09547
#
# Velocity S-wave (km/s) = 3.59606 3.86546 3.73319
# Velocity P-wave (km/s) = 6.27560 6.74804 6.51610
#
# Compressibility (1/GPa) = 0.01901934
#
# Stress axis : x y z
#
# Youngs Moduli (GPa) = 150.28770 68.58808 78.24531
#
# Poissons Ratio (x) = 0.01420 0.26729
# Poissons Ratio (y) = 0.03111 0.30315
# Poissons Ratio (z) = 0.51339 0.26573
#
# Static dielectric constant tensor:
#      x y z
#    x 1.948840 0.000000 0.000000 
#    y 0.000000 1.984790 0.000000 
#    z 0.000000 0.000000 1.790530 
# 
# From -- ./inp_files/9214.got.cif
#   From: 2010.05.17/outbox.cif.g08.bks.cpg/sg55_5_cif.got.tgz:9214.got - 2010.06.03 13:27:54.
