data_PCOD9424165
_publ_section_title
;
Structure prediction by ZEFSAII (Michael W. Deem and Ramdas Pophale) SiO2 
 PCOD9424165
Probable space group: P C C A
;
_chemical_formula_sum "Si O2"
_cell_formula_units_Z 48
_cell_length_a 5.399145
_cell_length_b 24.293167
_cell_length_c 19.208570
_cell_angle_alpha 90.000000
_cell_angle_beta 90.000000
_cell_angle_gamma 90.000000
_cell_volume 2519.440819
_symmetry_space_group_name_H-M "P C C A"
_symmetry_group_IT_number 54
_symmetry_cell_setting 'orthorhombic'
loop_
_space_group_symop_operation_xyz
x,y,z
1/2-x,-y,z
1/2+x,-y,1/2-z
-x,y,1/2-z
-x,-y,-z
1/2+x,y,-z
1/2-x,y,1/2+z
x,-y,1/2+z
loop_
_atom_site_type_symbol
_atom_site_label
_atom_site_fract_x
_atom_site_fract_y
_atom_site_fract_z
Si Si1 0.749487 0.618928 0.297038
Si Si2 0.750000 0.000000 0.573705
Si Si3 0.250000 0.500000 0.202694
Si Si4 0.191877 0.121831 0.963228
Si Si5 0.881180 0.947482 0.816306
Si Si6 0.749050 0.738976 0.297149
Si Si7 0.551703 0.150630 0.332678
O O1 0.500000 0.618806 0.250000
O O2 0.750593 0.559519 0.335123
O O3 0.739376 0.678831 0.333166
O O4 0.000000 0.618984 0.250000
O O5 0.671575 0.945178 0.533526
O O6 0.955070 0.975308 0.625271
O O7 0.500000 0.500070 0.250000
O O8 0.181198 0.144003 0.883685
O O9 0.442488 0.141197 0.999095
O O10 0.705574 0.903574 0.851456
O O11 0.000000 0.917738 0.750000
O O12 0.750000 0.000000 0.781451
O O13 0.500000 0.745658 0.250000
O O14 0.797512 0.793061 0.342847
O O15 0.000000 0.737138 0.250000
O O16 0.500000 0.146249 0.250000
#
# Coordination Sequence:
#
# PCOD9424165 Si02
#       7
#     8   4   4   8   8   8   8
#     4   8  13  22  36  59  90 125 163 201 240 287
#     4  12  24  40  58  76 104 138 172 206 264 334
#     4   8  12  18  32  54  86 126 162 194 236 288
#     4  12  27  44  61  83 109 136 168 214 268 323
#     4  12  21  35  54  84 108 129 167 219 267 308
#     4   9  18  31  49  72  98 129 170 213 250 297
#     4  11  23  41  61  80 103 138 177 216 262 317
#
# _framework density 19.051846000000001
#
# number of rings (size 3 to 8) (size 9 to 14) (size 15 to 20)
#    0.000    1.667    2.500    3.500    0.000    4.000 
#    0.000    0.000    0.000    0.000    0.000    0.000 
#    0.000    0.000    0.000    1.500    0.000    2.667 
#
# Total GULP energy -267333.937277 kJ/mol
# GULP energy per Si atom -5569.457027 kJ/mol
# Density = 1.900848 g / cm^3
# Si number density = 19.051846 Si / 1000 Ang^3
#
#
#
# Elastic Constant Matrix: (Units=GPa)
#
#
# Indices 1 2 3 4 5 6 
#
# 1 110.4684 6.5544 25.0889 0.0000 0.0000 0.0000
# 2 6.5544 146.4777 -4.4249 0.0000 0.0000 0.0000
# 3 25.0889 -4.4249 56.0871 0.0000 0.0000 0.0000
# 4 0.0000 0.0000 0.0000 -17.1895 0.0000 0.0000
# 5 0.0000 0.0000 0.0000 0.0000 27.3703 0.0000
# 6 0.0000 0.0000 0.0000 0.0000 0.0000 25.4412
#
#
#
# Elastic Compliance Matrix: (Units=1/GPa)
#
#
# Indices 1 2 3 4 5 6 
#
# 1 0.010127 -0.000591 -0.004577 0.000000 0.000000 0.000000
# 2 -0.000591 0.006878 0.000807 0.000000 0.000000 0.000000
# 3 -0.004577 0.000807 0.019940 0.000000 0.000000 0.000000
# 4 0.000000 0.000000 0.000000 -0.058175 0.000000 0.000000
# 5 0.000000 0.000000 0.000000 0.000000 0.036536 0.000000
# 6 0.000000 0.000000 0.000000 0.000000 0.000000 0.039306
#
#
# Mechanical properties :
#
#
# Convention : Reuss Voigt Hill
#
# Bulk Modulus (GPa) = 35.43173 40.83001 38.13087
# Shear Modulus (GPa) = 68.73640 26.17871 47.45756
#
# Velocity S-wave (km/s) = 6.01306 3.71088 4.99638
# Velocity P-wave (km/s) = 8.17601 6.31176 7.30361
#
# Compressibility (1/GPa) = 0.02822329
#
# Stress axis : x y z
#
# Youngs Moduli (GPa) = 98.74722 145.39479 50.14965
#
# Poissons Ratio (x) = 0.08599 0.22952
# Poissons Ratio (y) = 0.05840 -0.04048
# Poissons Ratio (z) = 0.45193 -0.11736
#
# Static dielectric constant tensor:
#      x y z
#    x 1.793230 0.000000 0.000000 
#    y 0.000000 1.740330 0.000000 
#    z 0.000000 0.000000 1.674070 
# 
# From -- ./inp_files/19865.got.cif
#   From: 2010.05.17/outbox.cif.g08.bks.cpg/sg54_10_cif.got.tgz:19865.got - 2010.06.03 13:09:01.
