data_PCOD9424787
_publ_section_title
;
Structure prediction by ZEFSAII (Michael W. Deem and Ramdas Pophale) SiO2 
 PCOD9424787
Probable space group: P B A M
;
_chemical_formula_sum "Si O2"
_cell_formula_units_Z 64
_cell_length_a 19.538283
_cell_length_b 21.245451
_cell_length_c 7.705815
_cell_angle_alpha 90.000000
_cell_angle_beta 90.000000
_cell_angle_gamma 90.000000
_cell_volume 3198.680987
_symmetry_space_group_name_H-M "P B A M"
_symmetry_group_IT_number 55
_symmetry_cell_setting 'orthorhombic'
loop_
_space_group_symop_operation_xyz
x,y,z
-x,-y,z
1/2+x,1/2-y,-z
1/2-x,1/2+y,-z
-x,-y,-z
x,y,-z
1/2-x,1/2+y,z
1/2+x,1/2-y,z
loop_
_atom_site_type_symbol
_atom_site_label
_atom_site_fract_x
_atom_site_fract_y
_atom_site_fract_z
Si Si1 0.736771 0.868569 0.790431
Si Si2 0.613561 0.332392 0.790279
Si Si3 0.219646 0.989891 0.710005
Si Si4 0.076797 0.507780 0.201742
Si Si5 0.570577 0.471300 0.707611
Si Si6 0.555204 0.200927 0.207419
Si Si7 0.907470 0.343005 0.201888
Si Si8 0.670235 0.100289 0.693240
O O1 0.807962 0.838630 0.728563
O O2 0.668661 0.833640 0.721647
O O3 0.743446 0.943459 0.752475
O O4 0.734196 0.863978 0.000000
O O5 0.576108 0.396922 0.741505
O O6 0.577528 0.269249 0.726096
O O7 0.615680 0.329462 0.000000
O O8 0.219134 0.985382 0.500000
O O9 0.260442 0.928318 0.777400
O O10 0.141519 0.997773 0.773400
O O11 0.090353 0.581307 0.202405
O O12 0.125976 0.463752 0.308592
O O13 0.000000 0.500000 0.264184
O O14 0.080589 0.485690 0.000000
O O15 0.500000 0.500000 0.776886
O O16 0.571015 0.480689 0.500000
O O17 0.480195 0.180176 0.276627
O O18 0.617533 0.151854 0.234433
O O19 0.547251 0.204423 0.000000
O O20 0.905673 0.321765 0.000000
O O21 0.687416 0.122068 0.500000
#
# Coordination Sequence:
#
# PCOD9424787 Si02
#       8
#     8   8   8   8   8   8   8   8
#     4   9  16  29  50  72  90 117 162 206 242 283
#     4   9  19  34  53  75  99 126 161 210 254 290
#     4   9  18  31  47  72 101 125 152 194 247 291
#     4  10  17  28  45  66  93 129 167 197 234 284
#     4   9  18  35  59  79  96 124 162 204 251 304
#     4  10  20  35  49  66  99 141 172 195 238 299
#     4   9  16  27  47  69  92 127 168 201 233 286
#     4  11  21  30  44  70 103 132 160 200 242 282
#
# _framework density 20.008247000000001
#
# number of rings (size 3 to 8) (size 9 to 14) (size 15 to 20)
#    0.000    2.500    2.500    0.375    0.000    1.500 
#    0.000    1.875    0.000    1.500    0.000    0.000 
#    0.000    0.000    0.000    0.000    0.000    0.000 
#
# Total GULP energy -356409.928003 kJ/mol
# GULP energy per Si atom -5568.905125 kJ/mol
# Density = 1.996271 g / cm^3
# Si number density = 20.008247 Si / 1000 Ang^3
#
#
#
# Elastic Constant Matrix: (Units=GPa)
#
#
# Indices 1 2 3 4 5 6 
#
# 1 188.8139 89.8202 8.7409 0.0000 0.0000 0.0000
# 2 89.8202 84.6455 0.6966 0.0000 0.0000 0.0000
# 3 8.7409 0.6966 30.6308 0.0000 0.0000 0.0000
# 4 0.0000 0.0000 0.0000 14.5431 0.0000 0.0000
# 5 0.0000 0.0000 0.0000 0.0000 10.1124 0.0000
# 6 0.0000 0.0000 0.0000 0.0000 0.0000 20.0379
#
#
#
# Elastic Compliance Matrix: (Units=1/GPa)
#
#
# Indices 1 2 3 4 5 6 
#
# 1 0.010939 -0.011585 -0.002858 0.000000 0.000000 0.000000
# 2 -0.011585 0.024084 0.002758 0.000000 0.000000 0.000000
# 3 -0.002858 0.002758 0.033400 0.000000 0.000000 0.000000
# 4 0.000000 0.000000 0.000000 0.068761 0.000000 0.000000
# 5 0.000000 0.000000 0.000000 0.000000 0.098888 0.000000
# 6 0.000000 0.000000 0.000000 0.000000 0.000000 0.049905
#
#
# Mechanical properties :
#
#
# Convention : Reuss Voigt Hill
#
# Bulk Modulus (GPa) = 22.19569 55.84507 39.02038
# Shear Modulus (GPa) = 15.41468 22.59417 19.00443
#
# Velocity S-wave (km/s) = 2.77865 3.36407 3.08527
# Velocity P-wave (km/s) = 4.62730 6.56208 5.67771
#
# Compressibility (1/GPa) = 0.04505380
#
# Stress axis : x y z
#
# Youngs Moduli (GPa) = 91.41202 41.52095 29.94026
#
# Poissons Ratio (x) = 0.48101 0.08558
# Poissons Ratio (y) = 1.05898 -0.08258
# Poissons Ratio (z) = 0.26128 -0.11452
#
# Static dielectric constant tensor:
#      x y z
#    x 1.799930 0.000000 0.000000 
#    y 0.000000 1.680830 0.000000 
#    z 0.000000 0.000000 1.771100 
# 
# From -- ./inp_files/9127.got.cif
#   From: 2010.05.17/outbox.cif.g08.bks.cpg/sg55_5_cif.got.tgz:9127.got - 2010.06.03 13:27:54.
