data_PCOD9424056
_publ_section_title
;
Structure prediction by ZEFSAII (Michael W. Deem and Ramdas Pophale) SiO2 
 PCOD9424056
Probable space group: P C C A
;
_chemical_formula_sum "Si O2"
_cell_formula_units_Z 48
_cell_length_a 9.189158
_cell_length_b 14.075288
_cell_length_c 18.233853
_cell_angle_alpha 90.000000
_cell_angle_beta 90.000000
_cell_angle_gamma 90.000000
_cell_volume 2358.367374
_symmetry_space_group_name_H-M "P C C A"
_symmetry_group_IT_number 54
_symmetry_cell_setting 'orthorhombic'
loop_
_space_group_symop_operation_xyz
x,y,z
1/2-x,-y,z
1/2+x,-y,1/2-z
-x,y,1/2-z
-x,-y,-z
1/2+x,y,-z
1/2-x,y,1/2+z
x,-y,1/2+z
loop_
_atom_site_type_symbol
_atom_site_label
_atom_site_fract_x
_atom_site_fract_y
_atom_site_fract_z
Si Si1 0.653570 0.906601 0.289218
Si Si2 0.836791 0.732474 0.220990
Si Si3 0.521598 0.257314 0.070293
Si Si4 0.624251 0.623111 0.305817
Si Si5 0.808216 0.788630 0.921229
Si Si6 0.915128 0.526922 0.426762
O O1 0.500000 0.918795 0.250000
O O2 0.740172 0.818275 0.252729
O O3 0.633541 0.876960 0.374082
O O4 0.750000 0.000000 0.282526
O O5 0.858694 0.747268 0.134786
O O6 0.766183 0.635143 0.253388
O O7 0.000000 0.739713 0.250000
O O8 0.367822 0.200433 0.073742
O O9 0.458036 0.363776 0.079776
O O10 0.608264 0.230903 0.996742
O O11 0.500000 0.654366 0.250000
O O12 0.653582 0.696629 0.371441
O O13 0.569794 0.529220 0.349151
O O14 0.750000 0.500000 0.444947
O O15 0.000000 0.500000 0.500000
#
# Coordination Sequence:
#
# PCOD9424056 Si02
#       6
#     8   8   8   8   8   8
#     4  11  25  47  77 105 139 175 231 286 355 429
#     4  11  21  43  68  98 135 186 231 291 352 415
#     4  12  24  41  70  94 143 188 234 286 360 409
#     4  11  24  40  63  93 141 178 246 294 339 401
#     4  11  24  44  67 101 138 182 231 282 351 431
#     4  12  23  42  61  96 135 187 239 292 340 404
#
# _framework density 20.353065000000001
#
# number of rings (size 3 to 8) (size 9 to 14) (size 15 to 20)
#    0.000    0.667    6.667    2.500    4.667    3.333 
#    0.000    1.667    0.000    0.000    0.000    0.000 
#    0.000    0.000    0.000    0.000    0.000    0.000 
#
# Total GULP energy -267553.994611 kJ/mol
# GULP energy per Si atom -5574.041554 kJ/mol
# Density = 2.030674 g / cm^3
# Si number density = 20.353065 Si / 1000 Ang^3
#
#
#
# Elastic Constant Matrix: (Units=GPa)
#
#
# Indices 1 2 3 4 5 6 
#
# 1 81.0540 26.4052 69.1134 0.0000 0.0000 0.0000
# 2 26.4052 74.3479 32.5069 0.0000 0.0000 0.0000
# 3 69.1134 32.5069 181.0946 0.0000 0.0000 0.0000
# 4 0.0000 0.0000 0.0000 2.2676 0.0000 0.0000
# 5 0.0000 0.0000 0.0000 0.0000 48.9140 0.0000
# 6 0.0000 0.0000 0.0000 0.0000 0.0000 14.9262
#
#
#
# Elastic Compliance Matrix: (Units=1/GPa)
#
#
# Indices 1 2 3 4 5 6 
#
# 1 0.019299 -0.003943 -0.006657 0.000000 0.000000 0.000000
# 2 -0.003943 0.015402 -0.001260 0.000000 0.000000 0.000000
# 3 -0.006657 -0.001260 0.008289 0.000000 0.000000 0.000000
# 4 0.000000 0.000000 0.000000 0.441004 0.000000 0.000000
# 5 0.000000 0.000000 0.000000 0.000000 0.020444 0.000000
# 6 0.000000 0.000000 0.000000 0.000000 0.000000 0.066996
#
#
# Mechanical properties :
#
#
# Convention : Reuss Voigt Hill
#
# Bulk Modulus (GPa) = 51.89851 65.83862 58.86856
# Shear Modulus (GPa) = 8.31149 27.11962 17.71555
#
# Velocity S-wave (km/s) = 2.02300 3.65425 2.95348
# Velocity P-wave (km/s) = 5.56877 7.08683 6.37316
#
# Compressibility (1/GPa) = 0.01926838
#
# Stress axis : x y z
#
# Youngs Moduli (GPa) = 51.81695 64.92860 120.64424
#
# Poissons Ratio (x) = 0.25603 0.80317
# Poissons Ratio (y) = 0.20433 0.15197
# Poissons Ratio (z) = 0.34497 0.08179
#
# Static dielectric constant tensor:
#      x y z
#    x 1.722180 0.000000 0.000000 
#    y 0.000000 1.784390 0.000000 
#    z 0.000000 0.000000 7.296390 
# 
# From -- ./inp_files/16615.got.cif
#   From: 2010.05.17/outbox.cif.g08.bks.cpg/sg54_9_cif.got.tgz:16615.got - 2010.06.03 13:09:01.
