data_PCOD9424368
_publ_section_title
;
Structure prediction by ZEFSAII (Michael W. Deem and Ramdas Pophale) SiO2 
 PCOD9424368
Probable space group: P C C A
;
_chemical_formula_sum "Si O2"
_cell_formula_units_Z 40
_cell_length_a 19.732122
_cell_length_b 6.625019
_cell_length_c 14.010075
_cell_angle_alpha 90.000000
_cell_angle_beta 90.000000
_cell_angle_gamma 90.000000
_cell_volume 1831.476626
_symmetry_space_group_name_H-M "P C C A"
_symmetry_group_IT_number 54
_symmetry_cell_setting 'orthorhombic'
loop_
_space_group_symop_operation_xyz
x,y,z
1/2-x,-y,z
1/2+x,-y,1/2-z
-x,y,1/2-z
-x,-y,-z
1/2+x,y,-z
1/2-x,y,1/2+z
x,-y,1/2+z
loop_
_atom_site_type_symbol
_atom_site_label
_atom_site_fract_x
_atom_site_fract_y
_atom_site_fract_z
Si Si1 0.750000 0.500000 0.413889
Si Si2 0.993749 0.766113 0.511219
Si Si3 0.666982 0.386905 0.251970
Si Si4 0.964435 0.512408 0.341195
Si Si5 0.838030 0.308049 0.076001
Si Si6 0.750000 0.000000 0.691998
O O1 0.692940 0.544598 0.333805
O O2 0.710438 0.351558 0.485235
O O3 0.006050 0.659823 0.409966
O O4 0.916086 0.718545 0.544320
O O5 0.046846 0.671615 0.585972
O O6 0.000000 0.000000 0.500000
O O7 0.592819 0.351398 0.292910
O O8 0.667338 0.504900 0.151343
O O9 0.710351 0.181532 0.246228
O O10 0.000000 0.417520 0.250000
O O11 0.806811 0.114045 0.128838
#
# Coordination Sequence:
#
# PCOD9424368 Si02
#       6
#     4   8   8   8   8   4
#     4  12  22  48  70  98 142 186 228 290 378 418
#     4  11  27  45  70 108 138 193 249 293 357 438
#     4  12  25  47  69 104 142 184 236 295 367 430
#     4  11  25  46  72  98 145 190 230 303 366 419
#     4  12  25  46  68 104 143 181 237 301 352 436
#     4  12  26  42  72 106 142 180 242 302 356 434
#
# _framework density 21.840301
#
# number of rings (size 3 to 8) (size 9 to 14) (size 15 to 20)
#    0.000    0.400    8.000    0.000    2.800    4.800 
#    0.000    0.000    0.000    0.000    0.000    0.000 
#    0.000    0.000    0.000    0.000    0.000    0.000 
#
# Total GULP energy -222731.808327 kJ/mol
# GULP energy per Si atom -5568.295208 kJ/mol
# Density = 2.179059 g / cm^3
# Si number density = 21.840301 Si / 1000 Ang^3
#
#
#
# Elastic Constant Matrix: (Units=GPa)
#
#
# Indices 1 2 3 4 5 6 
#
# 1 79.8718 26.9668 27.9709 0.0000 0.0000 0.0000
# 2 26.9668 138.3138 45.9317 0.0000 0.0000 0.0000
# 3 27.9709 45.9317 147.9470 0.0000 0.0000 0.0000
# 4 0.0000 0.0000 0.0000 17.5047 0.0000 0.0000
# 5 0.0000 0.0000 0.0000 0.0000 30.2122 0.0000
# 6 0.0000 0.0000 0.0000 0.0000 0.0000 27.0916
#
#
#
# Elastic Compliance Matrix: (Units=1/GPa)
#
#
# Indices 1 2 3 4 5 6 
#
# 1 0.013910 -0.002050 -0.001993 0.000000 0.000000 0.000000
# 2 -0.002050 0.008363 -0.002209 0.000000 0.000000 0.000000
# 3 -0.001993 -0.002209 0.007822 0.000000 0.000000 0.000000
# 4 0.000000 0.000000 0.000000 0.057127 0.000000 0.000000
# 5 0.000000 0.000000 0.000000 0.000000 0.033099 0.000000
# 6 0.000000 0.000000 0.000000 0.000000 0.000000 0.036912
#
#
# Mechanical properties :
#
#
# Convention : Reuss Voigt Hill
#
# Bulk Modulus (GPa) = 56.84853 63.09679 59.97266
# Shear Modulus (GPa) = 28.47348 32.64592 30.55970
#
# Velocity S-wave (km/s) = 3.61461 3.87040 3.74469
# Velocity P-wave (km/s) = 6.59593 6.99472 6.79825
#
# Compressibility (1/GPa) = 0.01759060
#
# Stress axis : x y z
#
# Youngs Moduli (GPa) = 71.88908 119.57206 127.84772
#
# Poissons Ratio (x) = 0.24513 0.25485
# Poissons Ratio (y) = 0.14738 0.28239
# Poissons Ratio (z) = 0.14330 0.26412
#
# Static dielectric constant tensor:
#      x y z
#    x 2.069470 0.000000 0.000000 
#    y 0.000000 1.785520 0.000000 
#    z 0.000000 0.000000 1.804200 
# 
# From -- ./inp_files/14864.got.cif
#   From: 2010.05.17/outbox.cif.g08.bks.cpg/sg54_8_cif.got.tgz:14864.got - 2010.06.03 13:09:01.
