data_PCOD9424819
_publ_section_title
;
Structure prediction by ZEFSAII (Michael W. Deem and Ramdas Pophale) SiO2 
 PCOD9424819
Probable space group: P B A M
;
_chemical_formula_sum "Si O2"
_cell_formula_units_Z 64
_cell_length_a 15.308118
_cell_length_b 26.072105
_cell_length_c 7.974964
_cell_angle_alpha 90.000000
_cell_angle_beta 90.000000
_cell_angle_gamma 90.000000
_cell_volume 3182.926639
_symmetry_space_group_name_H-M "P B A M"
_symmetry_group_IT_number 55
_symmetry_cell_setting 'orthorhombic'
loop_
_space_group_symop_operation_xyz
x,y,z
-x,-y,z
1/2+x,1/2-y,-z
1/2-x,1/2+y,-z
-x,-y,-z
x,y,-z
1/2-x,1/2+y,z
1/2+x,1/2-y,z
loop_
_atom_site_type_symbol
_atom_site_label
_atom_site_fract_x
_atom_site_fract_y
_atom_site_fract_z
Si Si1 0.934644 0.296345 0.198876
Si Si2 0.775738 0.987147 0.702552
Si Si3 0.865630 0.082616 0.199160
Si Si4 0.347322 0.662613 0.192946
Si Si5 0.127638 0.280033 0.203512
Si Si6 0.177539 0.803176 0.205740
Si Si7 0.947091 0.926451 0.697924
Si Si8 0.677077 0.891342 0.691840
O O1 0.877067 0.247405 0.262189
O O2 0.887010 0.350637 0.224107
O O3 0.033682 0.298987 0.266758
O O4 0.941564 0.287238 0.000000
O O5 0.773756 0.985870 0.500000
O O6 0.867223 0.961315 0.761421
O O7 0.699254 0.948326 0.761641
O O8 0.783954 0.045989 0.756689
O O9 0.858032 0.141302 0.259588
O O10 0.953840 0.057901 0.272974
O O11 0.874055 0.083549 0.000000
O O12 0.368214 0.719827 0.242405
O O13 0.432124 0.627641 0.211090
O O14 0.271140 0.636951 0.300090
O O15 0.316565 0.662987 0.000000
O O16 0.221057 0.301210 0.261036
O O17 0.127764 0.285911 0.000000
O O18 0.176855 0.802014 0.000000
O O19 0.934611 0.920419 0.500000
O O20 0.648946 0.897119 0.500000
#
# Coordination Sequence:
#
# PCOD9424819 Si02
#       8
#     8   8   8   8   8   8   8   8
#     4  10  18  32  56  79 100 135 176 209 253 312
#     4   9  20  36  51  68  99 141 174 211 267 316
#     4  11  21  32  51  76 103 136 179 222 258 314
#     4  10  17  30  53  76 100 136 177 214 250 305
#     4   9  17  30  52  77 104 137 170 212 265 309
#     4   9  18  33  50  77 112 137 166 215 266 307
#     4  10  20  33  49  72 107 143 172 213 267 317
#     4  10  20  34  51  74 105 136 166 211 264 307
#
# _framework density 20.107281
#
# number of rings (size 3 to 8) (size 9 to 14) (size 15 to 20)
#    0.000    2.250    1.250    3.375    0.000    6.500 
#    0.000    3.750    0.000    0.750    0.000    5.250 
#    0.000    0.000    0.000    0.000    0.000    0.000 
#
# Total GULP energy -356685.552543 kJ/mol
# GULP energy per Si atom -5573.211758 kJ/mol
# Density = 2.006152 g / cm^3
# Si number density = 20.107281 Si / 1000 Ang^3
#
#
#
# Elastic Constant Matrix: (Units=GPa)
#
#
# Indices 1 2 3 4 5 6 
#
# 1 81.1878 7.4526 -1.9403 0.0000 0.0000 0.0000
# 2 7.4526 44.5698 0.5890 0.0000 0.0000 0.0000
# 3 -1.9403 0.5890 17.2827 0.0000 0.0000 0.0000
# 4 0.0000 0.0000 0.0000 23.5870 0.0000 0.0000
# 5 0.0000 0.0000 0.0000 0.0000 8.4480 0.0000
# 6 0.0000 0.0000 0.0000 0.0000 0.0000 17.7232
#
#
#
# Elastic Compliance Matrix: (Units=1/GPa)
#
#
# Indices 1 2 3 4 5 6 
#
# 1 0.012547 -0.002118 0.001481 0.000000 0.000000 0.000000
# 2 -0.002118 0.022804 -0.001015 0.000000 0.000000 0.000000
# 3 0.001481 -0.001015 0.058062 0.000000 0.000000 0.000000
# 4 0.000000 0.000000 0.000000 0.042396 0.000000 0.000000
# 5 0.000000 0.000000 0.000000 0.000000 0.118371 0.000000
# 6 0.000000 0.000000 0.000000 0.000000 0.000000 0.056423
#
#
# Mechanical properties :
#
#
# Convention : Reuss Voigt Hill
#
# Bulk Modulus (GPa) = 11.09756 17.24921 14.17338
# Shear Modulus (GPa) = 14.53727 19.08091 16.80909
#
# Velocity S-wave (km/s) = 2.69176 3.08385 2.89445
# Velocity P-wave (km/s) = 3.89768 4.61275 4.27021
#
# Compressibility (1/GPa) = 0.09010991
#
# Stress axis : x y z
#
# Youngs Moduli (GPa) = 79.70107 43.85159 17.22295
#
# Poissons Ratio (x) = 0.09286 -0.02550
# Poissons Ratio (y) = 0.16877 0.01748
# Poissons Ratio (z) = -0.11802 0.04450
#
# Static dielectric constant tensor:
#      x y z
#    x 1.733070 0.000000 0.000000 
#    y 0.000000 1.746720 0.000000 
#    z 0.000000 0.000000 1.720310 
# 
# From -- ./inp_files/6599.got.cif
#   From: 2010.05.17/outbox.cif.g08.bks.cpg/sg55_4_cif.got.tgz:6599.got - 2010.06.03 13:27:54.
