data_PCOD9424246
_publ_section_title
;
Structure prediction by ZEFSAII (Michael W. Deem and Ramdas Pophale) SiO2 
 PCOD9424246
Probable space group: P C C A
;
_chemical_formula_sum "Si O2"
_cell_formula_units_Z 48
_cell_length_a 18.252214
_cell_length_b 12.583618
_cell_length_c 8.733155
_cell_angle_alpha 90.000000
_cell_angle_beta 90.000000
_cell_angle_gamma 90.000000
_cell_volume 2005.821335
_symmetry_space_group_name_H-M "P C C A"
_symmetry_group_IT_number 54
_symmetry_cell_setting 'orthorhombic'
loop_
_space_group_symop_operation_xyz
x,y,z
1/2-x,-y,z
1/2+x,-y,1/2-z
-x,y,1/2-z
-x,-y,-z
1/2+x,y,-z
1/2-x,y,1/2+z
x,-y,1/2+z
loop_
_atom_site_type_symbol
_atom_site_label
_atom_site_fract_x
_atom_site_fract_y
_atom_site_fract_z
Si Si1 0.183216 0.331872 0.284765
Si Si2 0.176025 0.723903 0.433578
Si Si3 0.104499 0.877926 0.923797
Si Si4 0.324162 0.063970 0.247134
Si Si5 0.044565 0.588715 0.907575
Si Si6 0.490611 0.223916 0.419373
O O1 0.265795 0.345169 0.341153
O O2 0.144117 0.222694 0.344740
O O3 0.127278 0.422480 0.345094
O O4 0.189071 0.309734 0.106356
O O5 0.192037 0.843274 0.370425
O O6 0.088527 0.723067 0.421863
O O7 0.142382 0.890839 0.090675
O O8 0.017690 0.859968 0.954799
O O9 0.120845 0.981388 0.825442
O O10 0.250000 0.000000 0.212787
O O11 0.000000 0.616626 0.750000
O O12 0.000000 0.500000 0.000000
O O13 0.045257 0.681017 0.035943
O O14 0.500000 0.181138 0.250000
#
# Coordination Sequence:
#
# PCOD9424246 Si02
#       6
#     8   8   8   8   8   8
#     4  11  25  44  72 105 140 191 240 296 373 438
#     4  12  24  44  71  99 147 190 247 300 360 433
#     4  11  24  40  64  97 138 194 250 305 360 424
#     4  12  23  38  64  99 144 197 257 312 358 419
#     4  11  24  49  81 108 139 180 229 295 371 455
#     4  11  24  45  70 103 141 190 240 300 371 434
#
# _framework density 23.930346
#
# number of rings (size 3 to 8) (size 9 to 14) (size 15 to 20)
#    0.000    0.667    5.000    3.000    2.333    0.667 
#    0.000    0.833    0.000    0.000    0.000    0.000 
#    0.000    0.000    0.000    0.000    0.000    0.000 
#
# Total GULP energy -268042.639679 kJ/mol
# GULP energy per Si atom -5584.221660 kJ/mol
# Density = 2.387588 g / cm^3
# Si number density = 23.930346 Si / 1000 Ang^3
#
#
#
# Elastic Constant Matrix: (Units=GPa)
#
#
# Indices 1 2 3 4 5 6 
#
# 1 110.9156 -21.2617 20.0905 0.0000 0.0000 0.0000
# 2 -21.2617 25.6951 -11.4083 0.0000 0.0000 0.0000
# 3 20.0905 -11.4083 107.7405 0.0000 0.0000 0.0000
# 4 0.0000 0.0000 0.0000 19.2066 0.0000 0.0000
# 5 0.0000 0.0000 0.0000 0.0000 30.4001 0.0000
# 6 0.0000 0.0000 0.0000 0.0000 0.0000 24.6271
#
#
#
# Elastic Compliance Matrix: (Units=1/GPa)
#
#
# Indices 1 2 3 4 5 6 
#
# 1 0.010844 0.008473 -0.001125 0.000000 0.000000 0.000000
# 2 0.008473 0.047459 0.003445 0.000000 0.000000 0.000000
# 3 -0.001125 0.003445 0.009856 0.000000 0.000000 0.000000
# 4 0.000000 0.000000 0.000000 0.052065 0.000000 0.000000
# 5 0.000000 0.000000 0.000000 0.000000 0.032895 0.000000
# 6 0.000000 0.000000 0.000000 0.000000 0.000000 0.040606
#
#
# Mechanical properties :
#
#
# Convention : Reuss Voigt Hill
#
# Bulk Modulus (GPa) = 11.14245 24.35469 17.74857
# Shear Modulus (GPa) = 24.74604 31.97548 28.36076
#
# Velocity S-wave (km/s) = 3.21921 3.65936 3.44632
# Velocity P-wave (km/s) = 4.29931 5.29660 4.82380
#
# Compressibility (1/GPa) = 0.08974684
#
# Stress axis : x y z
#
# Youngs Moduli (GPa) = 92.21761 21.07080 101.45982
#
# Poissons Ratio (x) = -0.17854 0.11413
# Poissons Ratio (y) = -0.78140 -0.34955
# Poissons Ratio (z) = 0.10373 -0.07259
#
# Static dielectric constant tensor:
#      x y z
#    x 1.977890 0.000000 0.000000 
#    y 0.000000 2.009470 0.000000 
#    z 0.000000 0.000000 1.858300 
# 
# From -- ./inp_files/4185.got.cif
#   From: 2010.05.17/outbox.cif.g08.bks.cpg/sg54_3_cif.got.tgz:4185.got - 2010.06.03 13:09:01.
