data_PCOD9424623
_publ_section_title
;
Structure prediction by ZEFSAII (Michael W. Deem and Ramdas Pophale) SiO2 
 PCOD9424623
Probable space group: P C C A
;
_chemical_formula_sum "Si O2"
_cell_formula_units_Z 48
_cell_length_a 15.000000
_cell_length_b 6.000000
_cell_length_c 27.000000
_cell_angle_alpha 90.000000
_cell_angle_beta 90.000000
_cell_angle_gamma 90.000000
_cell_volume 2430.000000
_symmetry_space_group_name_H-M "P C C A"
_symmetry_group_IT_number 54
_symmetry_cell_setting 'orthorhombic'
loop_
_space_group_symop_operation_xyz
x,y,z
1/2-x,-y,z
1/2+x,-y,1/2-z
-x,y,1/2-z
-x,-y,-z
1/2+x,y,-z
1/2-x,y,1/2+z
x,-y,1/2+z
loop_
_atom_site_type_symbol
_atom_site_label
_atom_site_fract_x
_atom_site_fract_y
_atom_site_fract_z
Si Si1 0.964816 0.915434 0.846590
Si Si2 0.144182 0.018657 0.059955
Si Si3 0.904344 0.706052 0.180407
Si Si4 0.750000 0.000000 0.146778
Si Si5 0.357187 0.520267 0.516965
Si Si6 0.500000 0.382579 0.750000
Si Si7 0.119440 0.343151 0.403044
O O1 0.879849 0.951298 0.881824
O O2 0.963566 0.765415 0.796385
O O3 0.034493 0.800724 0.885057
O O4 0.007154 0.150101 0.829974
O O5 0.250000 0.000000 0.051609
O O6 0.113919 0.262145 0.034099
O O7 0.112461 0.761502 0.043222
O O8 0.924256 0.542147 0.226098
O O9 0.881887 0.553205 0.133408
O O10 0.823607 0.881953 0.181539
O O11 0.798123 0.182135 0.111674
O O12 0.250000 0.500000 0.522534
O O13 0.379501 0.570723 0.459265
#
# Coordination Sequence:
#
# PCOD9424623 Si02
#       7
#     8   8   8   4   8   4   8
#     4  10  23  41  66  91 121 172 214 273 332 383
#     4  10  24  42  65  92 134 176 220 261 315 390
#     4  10  21  39  65  92 127 164 206 271 329 387
#     4  10  20  36  64  98 126 162 208 264 326 386
#     4  10  22  38  62  95 135 178 213 262 320 382
#     4  10  22  42  68  86 120 170 210 270 336 388
#     4  10  22  36  64  95 132 166 211 262 322 387
#
# _framework density 19.753086
#
# number of rings (size 3 to 8) (size 9 to 14) (size 15 to 20)
#    0.000    2.000    0.000    2.000   12.833    1.333 
#    0.000    0.000   44.000    0.000    0.000    0.000 
#    0.000    0.000    0.000    0.000    0.000    0.000 
#
# Total GULP energy -267361.541587 kJ/mol
# GULP energy per Si atom -5570.032116 kJ/mol
# Density = 1.970813 g / cm^3
# Si number density = 19.753086 Si / 1000 Ang^3
#
#
#
# Elastic Constant Matrix: (Units=GPa)
#
#
# Indices 1 2 3 4 5 6 
#
# 1 26.0272 19.8684 21.4178 0.0000 0.0000 0.0000
# 2 19.8684 162.7226 68.6813 0.0000 0.0000 0.0000
# 3 21.4178 68.6813 145.4685 0.0000 0.0000 0.0000
# 4 0.0000 0.0000 0.0000 24.6630 0.0000 0.0000
# 5 0.0000 0.0000 0.0000 0.0000 20.7884 0.0000
# 6 0.0000 0.0000 0.0000 0.0000 0.0000 27.0279
#
#
#
# Elastic Compliance Matrix: (Units=1/GPa)
#
#
# Indices 1 2 3 4 5 6 
#
# 1 0.045160 -0.003381 -0.005053 0.000000 0.000000 0.000000
# 2 -0.003381 0.007928 -0.003245 0.000000 0.000000 0.000000
# 3 -0.005053 -0.003245 0.009150 0.000000 0.000000 0.000000
# 4 0.000000 0.000000 0.000000 0.040547 0.000000 0.000000
# 5 0.000000 0.000000 0.000000 0.000000 0.048104 0.000000
# 6 0.000000 0.000000 0.000000 0.000000 0.000000 0.036999
#
#
# Mechanical properties :
#
#
# Convention : Reuss Voigt Hill
#
# Bulk Modulus (GPa) = 25.71999 61.57260 43.64629
# Shear Modulus (GPa) = 22.30083 29.44592 25.87338
#
# Velocity S-wave (km/s) = 3.36367 3.86515 3.62310
# Velocity P-wave (km/s) = 5.30422 7.15248 6.29653
#
# Compressibility (1/GPa) = 0.03888027
#
# Stress axis : x y z
#
# Youngs Moduli (GPa) = 22.14327 126.13425 109.28404
#
# Poissons Ratio (x) = 0.42652 0.55217
# Poissons Ratio (y) = 0.07488 0.35466
# Poissons Ratio (z) = 0.11188 0.40934
#
# Static dielectric constant tensor:
#      x y z
#    x 1.746870 0.000000 0.000000 
#    y 0.000000 1.759920 0.000000 
#    z 0.000000 0.000000 1.667750 
# 
# From -- ./inp_files/26528.got.cif
#   From: 2010.05.17/outbox.ucp.g08.bks.cvg/sg54_14_cif.got.tgz:26528.got - 2010.06.11 16:34:40.
