data_PCOD9424982
_publ_section_title
;
Structure prediction by ZEFSAII (Michael W. Deem and Ramdas Pophale) SiO2 
 PCOD9424982
Probable space group: P B A M
;
_chemical_formula_sum "Si O2"
_cell_formula_units_Z 52
_cell_length_a 18.441377
_cell_length_b 4.973535
_cell_length_c 26.443304
_cell_angle_alpha 90.000000
_cell_angle_beta 90.000000
_cell_angle_gamma 90.000000
_cell_volume 2425.349009
_symmetry_space_group_name_H-M "P B A M"
_symmetry_group_IT_number 55
_symmetry_cell_setting 'orthorhombic'
loop_
_space_group_symop_operation_xyz
x,y,z
-x,-y,z
1/2+x,1/2-y,-z
1/2-x,1/2+y,-z
-x,-y,-z
x,y,-z
1/2-x,1/2+y,z
1/2+x,1/2-y,z
loop_
_atom_site_type_symbol
_atom_site_label
_atom_site_fract_x
_atom_site_fract_y
_atom_site_fract_z
Si Si1 0.641976 0.194182 0.285699
Si Si2 0.698705 0.177699 0.500000
Si Si3 0.797806 0.632483 0.822325
Si Si4 0.199122 0.741894 0.058984
Si Si5 0.914795 0.034558 0.137847
Si Si6 0.931011 0.194484 0.748942
Si Si7 0.297913 0.957473 0.606024
O O1 0.575629 0.993630 0.271831
O O2 0.665516 0.117323 0.341471
O O3 0.694065 0.131878 0.238481
O O4 0.627637 0.510794 0.280195
O O5 0.768179 0.975113 0.500000
O O6 0.661273 0.115393 0.553613
O O7 0.765570 0.344111 0.835654
O O8 0.870933 0.761220 0.846226
O O9 0.232829 0.445695 0.066251
O O10 0.131039 0.827119 0.093364
O O11 0.177780 0.766308 0.000000
O O12 0.915418 0.198169 0.190996
O O13 0.000000 0.000000 0.124832
O O14 0.000000 0.000000 0.743618
O O15 0.273188 0.265452 0.604798
#
# Coordination Sequence:
#
# PCOD9424982 Si02
#       7
#     8   4   8   8   8   8   8
#     4  11  20  33  53  78 105 143 185 225 272 333
#     4   8  16  28  44  66  99 136 165 208 270 328
#     4  11  21  35  54  80 114 150 186 229 284 339
#     4  10  22  42  65  88 115 149 189 234 286 340
#     4  10  22  39  60  86 117 152 192 236 281 340
#     4  10  22  37  52  76 109 143 182 226 276 329
#     4  10  18  30  47  73 105 134 170 216 268 329
#
# _framework density 21.440214000000001
#
# number of rings (size 3 to 8) (size 9 to 14) (size 15 to 20)
#    0.000    1.846    0.000    5.077    0.000    2.769 
#    0.000    7.692    0.000    2.769    0.000    3.231 
#    0.000    0.000    0.000    0.000    0.000    0.000 
#
# Total GULP energy -290308.127733 kJ/mol
# GULP energy per Si atom -5582.848610 kJ/mol
# Density = 2.139141 g / cm^3
# Si number density = 21.440214 Si / 1000 Ang^3
#
#
#
# Elastic Constant Matrix: (Units=GPa)
#
#
# Indices 1 2 3 4 5 6 
#
# 1 103.1549 18.9703 38.9817 0.0000 0.0000 0.0000
# 2 18.9703 102.7163 9.3633 0.0000 0.0000 0.0000
# 3 38.9817 9.3633 152.7247 0.0000 0.0000 0.0000
# 4 0.0000 0.0000 0.0000 32.3059 0.0000 0.0000
# 5 0.0000 0.0000 0.0000 0.0000 12.3751 0.0000
# 6 0.0000 0.0000 0.0000 0.0000 0.0000 19.5523
#
#
#
# Elastic Compliance Matrix: (Units=1/GPa)
#
#
# Indices 1 2 3 4 5 6 
#
# 1 0.011048 -0.001793 -0.002710 0.000000 0.000000 0.000000
# 2 -0.001793 0.010081 -0.000160 0.000000 0.000000 0.000000
# 3 -0.002710 -0.000160 0.007249 0.000000 0.000000 0.000000
# 4 0.000000 0.000000 0.000000 0.030954 0.000000 0.000000
# 5 0.000000 0.000000 0.000000 0.000000 0.080807 0.000000
# 6 0.000000 0.000000 0.000000 0.000000 0.000000 0.051145
#
#
# Mechanical properties :
#
#
# Convention : Reuss Voigt Hill
#
# Bulk Modulus (GPa) = 52.48983 54.80295 53.64639
# Shear Modulus (GPa) = 24.15891 32.26536 28.21214
#
# Velocity S-wave (km/s) = 3.36043 3.88351 3.63140
# Velocity P-wave (km/s) = 6.29220 6.76204 6.53135
#
# Compressibility (1/GPa) = 0.01905131
#
# Stress axis : x y z
#
# Youngs Moduli (GPa) = 90.51376 99.19273 137.94517
#
# Poissons Ratio (x) = 0.17789 0.37383
# Poissons Ratio (y) = 0.16233 0.02212
# Poissons Ratio (z) = 0.24529 0.01590
#
# Static dielectric constant tensor:
#      x y z
#    x 1.845850 0.000000 0.000000 
#    y 0.000000 1.788060 0.000000 
#    z 0.000000 0.000000 1.839090 
# 
# From -- ./inp_files/24001.got.cif
#   From: 2010.05.17/outbox.cif.g08.bks.cpg/sg55_13_cif.got.tgz:24001.got - 2010.06.03 13:27:54.
