data_PCOD9424302
_publ_section_title
;
Structure prediction by ZEFSAII (Michael W. Deem and Ramdas Pophale) SiO2 
 PCOD9424302
Probable space group: P C C A
;
_chemical_formula_sum "Si O2"
_cell_formula_units_Z 56
_cell_length_a 11.451337
_cell_length_b 16.084947
_cell_length_c 14.108070
_cell_angle_alpha 90.000000
_cell_angle_beta 90.000000
_cell_angle_gamma 90.000000
_cell_volume 2598.623944
_symmetry_space_group_name_H-M "P C C A"
_symmetry_group_IT_number 54
_symmetry_cell_setting 'orthorhombic'
loop_
_space_group_symop_operation_xyz
x,y,z
1/2-x,-y,z
1/2+x,-y,1/2-z
-x,y,1/2-z
-x,-y,-z
1/2+x,y,-z
1/2-x,y,1/2+z
x,-y,1/2+z
loop_
_atom_site_type_symbol
_atom_site_label
_atom_site_fract_x
_atom_site_fract_y
_atom_site_fract_z
Si Si1 0.404660 0.007386 0.080411
Si Si2 0.934613 0.612002 0.410017
Si Si3 0.380737 0.241877 0.387233
Si Si4 0.230406 0.850618 0.564248
Si Si5 0.500000 0.339763 0.750000
Si Si6 0.880175 0.467784 0.111743
Si Si7 0.748432 0.291472 0.794894
Si Si8 0.500000 0.108115 0.250000
O O1 0.319354 0.077025 0.033876
O O2 0.427244 0.048148 0.181990
O O3 0.369245 0.912340 0.101268
O O4 0.500000 0.000000 0.000000
O O5 0.886064 0.573677 0.507507
O O6 0.824448 0.635006 0.343422
O O7 0.015877 0.694659 0.416863
O O8 0.026545 0.542283 0.376633
O O9 0.314689 0.205751 0.478144
O O10 0.292113 0.284925 0.313071
O O11 0.433380 0.167008 0.324678
O O12 0.280697 0.790591 0.644676
O O13 0.426371 0.397312 0.819580
O O14 0.607409 0.294310 0.802328
O O15 0.750000 0.500000 0.130536
#
# Coordination Sequence:
#
# PCOD9424302 Si02
#       8
#     8   8   8   8   4   8   8   4
#     4  11  24  45  67 106 141 193 239 311 367 445
#     4  11  26  47  75 103 146 194 243 306 372 442
#     4  12  23  46  77 105 139 200 247 303 373 457
#     4  11  26  43  72 104 148 184 246 303 373 439
#     4  12  30  44  72 112 146 190 254 304 368 442
#     4  11  28  48  72 109 146 196 245 309 376 446
#     4  12  27  47  73 109 147 197 247 308 369 448
#     4  12  22  46  72 104 136 190 254 288 382 444
#
# _framework density 21.549868
#
# number of rings (size 3 to 8) (size 9 to 14) (size 15 to 20)
#    0.000    0.571    4.286    1.714   12.000    2.857 
#    0.000    0.000    0.000    0.000    0.000    0.000 
#    0.000    0.000    0.000    0.000    0.000    0.000 
#
# Total GULP energy -312555.324268 kJ/mol
# GULP energy per Si atom -5581.345076 kJ/mol
# Density = 2.150082 g / cm^3
# Si number density = 21.549868 Si / 1000 Ang^3
#
#
#
# Elastic Constant Matrix: (Units=GPa)
#
#
# Indices 1 2 3 4 5 6 
#
# 1 101.4071 29.4485 24.4969 0.0000 0.0000 0.0000
# 2 29.4485 94.4510 36.1348 0.0000 0.0000 0.0000
# 3 24.4969 36.1348 43.8821 0.0000 0.0000 0.0000
# 4 0.0000 0.0000 0.0000 25.1148 0.0000 0.0000
# 5 0.0000 0.0000 0.0000 0.0000 24.3493 0.0000
# 6 0.0000 0.0000 0.0000 0.0000 0.0000 35.4164
#
#
#
# Elastic Compliance Matrix: (Units=1/GPa)
#
#
# Indices 1 2 3 4 5 6 
#
# 1 0.011574 -0.001660 -0.005094 0.000000 0.000000 0.000000
# 2 -0.001660 0.015695 -0.011998 0.000000 0.000000 0.000000
# 3 -0.005094 -0.011998 0.035512 0.000000 0.000000 0.000000
# 4 0.000000 0.000000 0.000000 0.039817 0.000000 0.000000
# 5 0.000000 0.000000 0.000000 0.000000 0.041069 0.000000
# 6 0.000000 0.000000 0.000000 0.000000 0.000000 0.028235
#
#
# Mechanical properties :
#
#
# Convention : Reuss Voigt Hill
#
# Bulk Modulus (GPa) = 39.56117 46.65562 43.10839
# Shear Modulus (GPa) = 22.95356 26.95343 24.95350
#
# Velocity S-wave (km/s) = 3.26718 3.54043 3.40655
# Velocity P-wave (km/s) = 5.71231 6.19757 5.95988
#
# Compressibility (1/GPa) = 0.02527731
#
# Stress axis : x y z
#
# Youngs Moduli (GPa) = 86.40180 63.71486 28.15970
#
# Poissons Ratio (x) = 0.10574 0.14346
# Poissons Ratio (y) = 0.14339 0.33785
# Poissons Ratio (z) = 0.44017 0.76442
#
# Static dielectric constant tensor:
#      x y z
#    x 2.479900 0.000000 0.000000 
#    y 0.000000 2.998690 0.000000 
#    z 0.000000 0.000000 1.822920 
# 
# From -- ./inp_files/12753.got.cif
#   From: 2010.05.17/outbox.cif.g08.bks.cpg/sg54_7_cif.got.tgz:12753.got - 2010.06.03 13:09:01.
