data_PCOD9424274
_publ_section_title
;
Structure prediction by ZEFSAII (Michael W. Deem and Ramdas Pophale) SiO2 
 PCOD9424274
Probable space group: P C C A
;
_chemical_formula_sum "Si O2"
_cell_formula_units_Z 40
_cell_length_a 9.184864
_cell_length_b 20.934782
_cell_length_c 9.415472
_cell_angle_alpha 90.000000
_cell_angle_beta 90.000000
_cell_angle_gamma 90.000000
_cell_volume 1810.436385
_symmetry_space_group_name_H-M "P C C A"
_symmetry_group_IT_number 54
_symmetry_cell_setting 'orthorhombic'
loop_
_space_group_symop_operation_xyz
x,y,z
1/2-x,-y,z
1/2+x,-y,1/2-z
-x,y,1/2-z
-x,-y,-z
1/2+x,y,-z
1/2-x,y,1/2+z
x,-y,1/2+z
loop_
_atom_site_type_symbol
_atom_site_label
_atom_site_fract_x
_atom_site_fract_y
_atom_site_fract_z
Si Si1 0.297917 0.880560 0.189285
Si Si2 0.889648 0.259481 0.360282
Si Si3 0.403818 0.462013 0.108460
Si Si4 0.564844 0.929509 0.024992
Si Si5 0.423219 0.315105 0.097631
O O1 0.330147 0.805919 0.213643
O O2 0.421075 0.892154 0.069854
O O3 0.334249 0.920303 0.332867
O O4 0.149998 0.902714 0.112144
O O5 0.742270 0.294281 0.393190
O O6 0.000000 0.291320 0.250000
O O7 0.986616 0.264484 0.502252
O O8 0.250000 0.500000 0.126681
O O9 0.500000 0.460665 0.250000
O O10 0.405732 0.388935 0.051655
O O11 0.500000 0.500000 0.000000
O O12 0.500000 0.000000 0.000000
O O13 0.500000 0.314591 0.250000
#
# Coordination Sequence:
#
# PCOD9424274 Si02
#       5
#     8   8   8   8   8
#     4  11  26  47  70 106 137 188 230 292 368 422
#     4  12  24  46  71 101 146 184 248 301 368 440
#     4  11  24  43  67 102 146 192 244 300 369 436
#     4  11  25  46  72 101 142 177 234 286 353 442
#     4  11  26  42  71 107 141 192 244 305 367 433
#
# _framework density 22.09412
#
# number of rings (size 3 to 8) (size 9 to 14) (size 15 to 20)
#    0.000    0.800    2.000    4.800    2.800   13.600 
#    0.000    0.000    0.000    0.000    0.000    0.000 
#    0.000    0.000    0.000    0.000    0.000    0.000 
#
# Total GULP energy -223063.252302 kJ/mol
# GULP energy per Si atom -5576.581308 kJ/mol
# Density = 2.204383 g / cm^3
# Si number density = 22.094120 Si / 1000 Ang^3
#
#
#
# Elastic Constant Matrix: (Units=GPa)
#
#
# Indices 1 2 3 4 5 6 
#
# 1 130.5565 27.1665 36.7411 0.0000 0.0000 0.0000
# 2 27.1665 98.9842 32.7487 0.0000 0.0000 0.0000
# 3 36.7411 32.7487 77.7853 0.0000 0.0000 0.0000
# 4 0.0000 0.0000 0.0000 31.2397 0.0000 0.0000
# 5 0.0000 0.0000 0.0000 0.0000 27.4332 0.0000
# 6 0.0000 0.0000 0.0000 0.0000 0.0000 42.9970
#
#
#
# Elastic Compliance Matrix: (Units=1/GPa)
#
#
# Indices 1 2 3 4 5 6 
#
# 1 0.008961 -0.001230 -0.003715 0.000000 0.000000 0.000000
# 2 -0.001230 0.011907 -0.004432 0.000000 0.000000 0.000000
# 3 -0.003715 -0.004432 0.016476 0.000000 0.000000 0.000000
# 4 0.000000 0.000000 0.000000 0.032011 0.000000 0.000000
# 5 0.000000 0.000000 0.000000 0.000000 0.036452 0.000000
# 6 0.000000 0.000000 0.000000 0.000000 0.000000 0.023257
#
#
# Mechanical properties :
#
#
# Convention : Reuss Voigt Hill
#
# Bulk Modulus (GPa) = 53.79117 55.62651 54.70884
# Shear Modulus (GPa) = 32.46460 34.37861 33.42160
#
# Velocity S-wave (km/s) = 3.83740 3.94891 3.89355
# Velocity P-wave (km/s) = 6.63577 6.78406 6.71033
#
# Compressibility (1/GPa) = 0.01859041
#
# Stress axis : x y z
#
# Youngs Moduli (GPa) = 111.59601 83.98767 60.69342
#
# Poissons Ratio (x) = 0.10334 0.22545
# Poissons Ratio (y) = 0.13731 0.26897
# Poissons Ratio (z) = 0.41453 0.37220
#
# Static dielectric constant tensor:
#      x y z
#    x 1.747450 0.000000 0.000000 
#    y 0.000000 2.062420 0.000000 
#    z 0.000000 0.000000 1.828710 
# 
# From -- ./inp_files/2535.got.cif
#   From: 2010.05.17/outbox.cif.g08.bks.cpg/sg54_2_cif.got.tgz:2535.got - 2010.06.03 13:09:01.
