data_PCOD9424529
_publ_section_title
;
Structure prediction by ZEFSAII (Michael W. Deem and Ramdas Pophale) SiO2 
 PCOD9424529
Probable space group: P C C A
;
_chemical_formula_sum "Si O2"
_cell_formula_units_Z 48
_cell_length_a 8.004025
_cell_length_b 14.206347
_cell_length_c 19.492999
_cell_angle_alpha 90.000000
_cell_angle_beta 90.000000
_cell_angle_gamma 90.000000
_cell_volume 2216.509083
_symmetry_space_group_name_H-M "P C C A"
_symmetry_group_IT_number 54
_symmetry_cell_setting 'orthorhombic'
loop_
_space_group_symop_operation_xyz
x,y,z
1/2-x,-y,z
1/2+x,-y,1/2-z
-x,y,1/2-z
-x,-y,-z
1/2+x,y,-z
1/2-x,y,1/2+z
x,-y,1/2+z
loop_
_atom_site_type_symbol
_atom_site_label
_atom_site_fract_x
_atom_site_fract_y
_atom_site_fract_z
Si Si1 0.750000 0.500000 0.297036
Si Si2 0.511626 0.362263 0.631605
Si Si3 0.831214 0.102679 0.798598
Si Si4 0.180742 0.311602 0.010936
Si Si5 0.519723 0.245495 0.394889
Si Si6 0.000000 0.779562 0.750000
Si Si7 0.000000 0.355367 0.750000
Si Si8 0.250000 0.500000 0.946341
O O1 0.632792 0.567143 0.342144
O O2 0.846977 0.573492 0.250743
O O3 0.452853 0.294704 0.570335
O O4 0.558577 0.291289 0.690941
O O5 0.644783 0.432636 0.601619
O O6 0.900536 0.147415 0.869613
O O7 0.670046 0.164266 0.771751
O O8 0.000000 0.100851 0.750000
O O9 0.750000 0.000000 0.805625
O O10 0.350508 0.295650 0.053291
O O11 0.158498 0.422129 0.992400
O O12 0.145734 0.251267 0.942231
O O13 0.502752 0.298675 0.321560
#
# Coordination Sequence:
#
# PCOD9424529 Si02
#       8
#     4   8   8   8   8   4   4   4
#     4  12  25  41  64 102 150 202 264 324 358 416
#     4  12  26  44  65 105 153 206 266 313 364 443
#     4  12  27  52  86 120 148 189 252 329 418 494
#     4  12  25  46  66 102 157 206 258 307 363 453
#     4  12  27  48  77 107 150 201 258 320 394 465
#     4  12  27  47  78 116 156 196 260 335 385 466
#     4  12  25  45  68 104 150 202 262 323 367 444
#     4  12  27  41  66  98 152 224 258 296 358 432
#
# _framework density 21.655674999999999
#
# number of rings (size 3 to 8) (size 9 to 14) (size 15 to 20)
#    0.000    0.000    6.667    2.500    2.333    6.000 
#    0.000    0.833    0.000    0.000    0.000    0.000 
#    0.000    0.000    0.000    0.000    0.000    0.000 
#
# Total GULP energy -268063.022426 kJ/mol
# GULP energy per Si atom -5584.646301 kJ/mol
# Density = 2.160639 g / cm^3
# Si number density = 21.655675 Si / 1000 Ang^3
#
#
#
# Elastic Constant Matrix: (Units=GPa)
#
#
# Indices 1 2 3 4 5 6 
#
# 1 90.4911 30.3587 38.4911 0.0000 0.0000 0.0000
# 2 30.3587 105.4476 43.5243 0.0000 0.0000 0.0000
# 3 38.4911 43.5243 137.5203 0.0000 0.0000 0.0000
# 4 0.0000 0.0000 0.0000 6.7617 0.0000 0.0000
# 5 0.0000 0.0000 0.0000 0.0000 49.7534 0.0000
# 6 0.0000 0.0000 0.0000 0.0000 0.0000 47.2472
#
#
#
# Elastic Compliance Matrix: (Units=1/GPa)
#
#
# Indices 1 2 3 4 5 6 
#
# 1 0.013138 -0.002605 -0.002853 0.000000 0.000000 0.000000
# 2 -0.002605 0.011425 -0.002887 0.000000 0.000000 0.000000
# 3 -0.002853 -0.002887 0.008984 0.000000 0.000000 0.000000
# 4 0.000000 0.000000 0.000000 0.147891 0.000000 0.000000
# 5 0.000000 0.000000 0.000000 0.000000 0.020099 0.000000
# 6 0.000000 0.000000 0.000000 0.000000 0.000000 0.021165
#
#
# Mechanical properties :
#
#
# Convention : Reuss Voigt Hill
#
# Bulk Modulus (GPa) = 59.32018 62.02303 60.67160
# Shear Modulus (GPa) = 20.40722 35.49146 27.94934
#
# Velocity S-wave (km/s) = 3.07310 4.05272 3.59642
# Velocity P-wave (km/s) = 6.32802 7.11352 6.73224
#
# Compressibility (1/GPa) = 0.01685767
#
# Stress axis : x y z
#
# Youngs Moduli (GPa) = 76.11369 87.52799 111.31147
#
# Poissons Ratio (x) = 0.22801 0.31755
# Poissons Ratio (y) = 0.19828 0.32133
# Poissons Ratio (z) = 0.21714 0.25268
#
# Static dielectric constant tensor:
#      x y z
#    x 2.084360 0.000000 0.000000 
#    y 0.000000 1.781380 0.000000 
#    z 0.000000 0.000000 1.995920 
# 
# From -- ./inp_files/16705.got.cif
#   From: 2010.05.17/outbox.cif.g08.bks.cpg/sg54_9_cif.got.tgz:16705.got - 2010.06.03 13:09:01.
