data_PCOD9424998
_publ_section_title
;
Structure prediction by ZEFSAII (Michael W. Deem and Ramdas Pophale) SiO2 
 PCOD9424998
Probable space group: P B A M
;
_chemical_formula_sum "Si O2"
_cell_formula_units_Z 64
_cell_length_a 11.657644
_cell_length_b 27.537100
_cell_length_c 10.354337
_cell_angle_alpha 90.000000
_cell_angle_beta 90.000000
_cell_angle_gamma 90.000000
_cell_volume 3323.925538
_symmetry_space_group_name_H-M "P B A M"
_symmetry_group_IT_number 55
_symmetry_cell_setting 'orthorhombic'
loop_
_space_group_symop_operation_xyz
x,y,z
-x,-y,z
1/2+x,1/2-y,-z
1/2-x,1/2+y,-z
-x,-y,-z
x,y,-z
1/2-x,1/2+y,z
1/2+x,1/2-y,z
loop_
_atom_site_type_symbol
_atom_site_label
_atom_site_fract_x
_atom_site_fract_y
_atom_site_fract_z
Si Si1 0.107993 0.529524 0.151986
Si Si2 0.152841 0.364954 0.353446
Si Si3 0.541468 0.229794 0.355473
Si Si4 0.749206 0.883478 0.156495
Si Si5 0.361898 0.299348 0.267128
Si Si6 0.744142 0.562785 0.849899
Si Si7 0.007539 0.889903 0.154924
Si Si8 0.710484 0.273537 0.854747
O O1 0.150748 0.580657 0.207640
O O2 0.214995 0.492495 0.157834
O O3 0.000000 0.500000 0.208393
O O4 0.079037 0.537795 0.000000
O O5 0.146125 0.384036 0.500000
O O6 0.047710 0.327867 0.328686
O O7 0.263219 0.329148 0.340386
O O8 0.177018 0.405096 0.245030
O O9 0.589108 0.235894 0.500000
O O10 0.421507 0.257461 0.349660
O O11 0.617009 0.256253 0.247607
O O12 0.877492 0.900019 0.197936
O O13 0.740036 0.826192 0.182966
O O14 0.745849 0.888168 0.000000
O O15 0.450028 0.339520 0.216369
O O16 0.304034 0.269167 0.151507
O O17 0.610585 0.572269 0.816661
O O18 0.760571 0.578362 0.000000
O O19 0.004038 0.884990 0.000000
O O20 0.663723 0.277909 0.000000
#
# Coordination Sequence:
#
# PCOD9424998 Si02
#       8
#     8   8   8   8   8   8   8   8
#     4   9  18  32  50  73 104 135 168 211 261 316
#     4   9  19  33  49  72 101 134 171 212 258 307
#     4  10  20  33  50  72 103 142 179 213 256 313
#     4   9  17  30  48  72 103 137 170 212 265 313
#     4  10  18  30  49  73 102 139 174 211 253 311
#     4   9  18  32  52  77  99 128 170 216 262 309
#     4   9  16  28  47  73 103 129 164 215 262 303
#     4  10  20  32  50  77 106 137 175 217 265 313
#
# _framework density 19.254342999999999
#
# number of rings (size 3 to 8) (size 9 to 14) (size 15 to 20)
#    0.000    2.625    1.250    0.750    0.000    5.500 
#    0.000    3.750    0.000    1.125    0.000    1.750 
#    0.000    0.000    0.000    0.000    0.000    0.000 
#
# Total GULP energy -356339.219708 kJ/mol
# GULP energy per Si atom -5567.800308 kJ/mol
# Density = 1.921052 g / cm^3
# Si number density = 19.254343 Si / 1000 Ang^3
#
#
#
# Elastic Constant Matrix: (Units=GPa)
#
#
# Indices 1 2 3 4 5 6 
#
# 1 33.8863 6.1386 -5.1791 0.0000 0.0000 0.0000
# 2 6.1386 45.5918 18.1774 0.0000 0.0000 0.0000
# 3 -5.1791 18.1774 54.8560 0.0000 0.0000 0.0000
# 4 0.0000 0.0000 0.0000 10.8701 0.0000 0.0000
# 5 0.0000 0.0000 0.0000 0.0000 9.0594 0.0000
# 6 0.0000 0.0000 0.0000 0.0000 0.0000 30.8473
#
#
#
# Elastic Compliance Matrix: (Units=1/GPa)
#
#
# Indices 1 2 3 4 5 6 
#
# 1 0.031409 -0.006235 0.005031 0.000000 0.000000 0.000000
# 2 -0.006235 0.026510 -0.009373 0.000000 0.000000 0.000000
# 3 0.005031 -0.009373 0.021811 0.000000 0.000000 0.000000
# 4 0.000000 0.000000 0.000000 0.091995 0.000000 0.000000
# 5 0.000000 0.000000 0.000000 0.000000 0.110382 0.000000
# 6 0.000000 0.000000 0.000000 0.000000 0.000000 0.032418
#
#
# Mechanical properties :
#
#
# Convention : Reuss Voigt Hill
#
# Bulk Modulus (GPa) = 17.07178 19.17865 18.12522
# Shear Modulus (GPa) = 14.07640 17.83517 15.95578
#
# Velocity S-wave (km/s) = 2.70678 3.04681 2.88181
# Velocity P-wave (km/s) = 4.31909 4.72860 4.52848
#
# Compressibility (1/GPa) = 0.05857619
#
# Stress axis : x y z
#
# Youngs Moduli (GPa) = 31.83809 37.72101 45.84931
#
# Poissons Ratio (x) = 0.23519 -0.23069
# Poissons Ratio (y) = 0.19851 0.42976
# Poissons Ratio (z) = -0.16019 0.35357
#
# Static dielectric constant tensor:
#      x y z
#    x 1.750040 0.000000 0.000000 
#    y 0.000000 1.682090 0.000000 
#    z 0.000000 0.000000 1.663920 
# 
# From -- ./inp_files/13645.got.cif
#   From: 2010.05.17/outbox.cif.g08.bks.cpg/sg55_7_cif.got.tgz:13645.got - 2010.06.03 13:27:54.
