data_PCOD9424964
_publ_section_title
;
Structure prediction by ZEFSAII (Michael W. Deem and Ramdas Pophale) SiO2 
 PCOD9424964
Probable space group: P B A M
;
_chemical_formula_sum "Si O2"
_cell_formula_units_Z 36
_cell_length_a 5.335987
_cell_length_b 19.406809
_cell_length_c 16.533690
_cell_angle_alpha 90.000000
_cell_angle_beta 90.000000
_cell_angle_gamma 90.000000
_cell_volume 1712.137679
_symmetry_space_group_name_H-M "P B A M"
_symmetry_group_IT_number 55
_symmetry_cell_setting 'orthorhombic'
loop_
_space_group_symop_operation_xyz
x,y,z
-x,-y,z
1/2+x,1/2-y,-z
1/2-x,1/2+y,-z
-x,-y,-z
x,y,-z
1/2-x,1/2+y,z
1/2+x,1/2-y,z
loop_
_atom_site_type_symbol
_atom_site_label
_atom_site_fract_x
_atom_site_fract_y
_atom_site_fract_z
Si Si1 0.921137 0.926429 0.903011
Si Si2 0.418769 0.182192 0.742889
Si Si3 0.531506 0.702415 0.500000
Si Si4 0.921076 0.655473 0.905743
Si Si5 0.417576 0.335124 0.676794
O O1 0.633347 0.903536 0.891414
O O2 0.142380 0.871205 0.887740
O O3 0.936197 0.932951 0.000000
O O4 0.000000 0.000000 0.867056
O O5 0.490894 0.205233 0.833862
O O6 0.393217 0.252375 0.692094
O O7 0.651130 0.138803 0.708268
O O8 0.157606 0.143381 0.729236
O O9 0.281085 0.749531 0.500000
O O10 0.537605 0.657810 0.581813
O O11 0.938259 0.678252 0.000000
#
# Coordination Sequence:
#
# PCOD9424964 Si02
#       5
#     8   8   4   8   8
#     4   9  17  30  47  65  83 108 146 188 231 270
#     4  10  18  30  42  62  90 119 152 180 217 253
#     4  12  16  30  48  68  84 114 154 178 222 276
#     4  10  19  30  45  64  88 120 152 184 217 256
#     4  10  19  30  45  64  89 123 145 180 222 256
#
# _framework density 21.026346
#
# number of rings (size 3 to 8) (size 9 to 14) (size 15 to 20)
#    0.000    2.000    4.444    2.000    0.000    2.667 
#    0.000    4.444    0.000    0.000    0.000    0.000 
#    0.000    0.000    0.000  116.000    0.000    0.000 
#
# Total GULP energy -200489.583911 kJ/mol
# GULP energy per Si atom -5569.155109 kJ/mol
# Density = 2.097849 g / cm^3
# Si number density = 21.026346 Si / 1000 Ang^3
#
#
#
# Elastic Constant Matrix: (Units=GPa)
#
#
# Indices 1 2 3 4 5 6 
#
# 1 163.0352 -9.6706 16.1970 0.0000 0.0000 0.0000
# 2 -9.6706 10.6947 -6.0242 0.0000 0.0000 0.0000
# 3 16.1970 -6.0242 124.3116 0.0000 0.0000 0.0000
# 4 0.0000 0.0000 0.0000 2.6406 0.0000 0.0000
# 5 0.0000 0.0000 0.0000 0.0000 31.0823 0.0000
# 6 0.0000 0.0000 0.0000 0.0000 0.0000 5.8462
#
#
#
# Elastic Compliance Matrix: (Units=1/GPa)
#
#
# Indices 1 2 3 4 5 6 
#
# 1 0.006522 0.005571 -0.000580 0.000000 0.000000 0.000000
# 2 0.005571 0.100886 0.004163 0.000000 0.000000 0.000000
# 3 -0.000580 0.004163 0.008322 0.000000 0.000000 0.000000
# 4 0.000000 0.000000 0.000000 0.378708 0.000000 0.000000
# 5 0.000000 0.000000 0.000000 0.000000 0.032173 0.000000
# 6 0.000000 0.000000 0.000000 0.000000 0.000000 0.171050
#
#
# Mechanical properties :
#
#
# Convention : Reuss Voigt Hill
#
# Bulk Modulus (GPa) = 7.46059 33.22732 20.34396
# Shear Modulus (GPa) = 6.90578 27.74979 17.32778
#
# Velocity S-wave (km/s) = 1.81424 3.63679 2.87383
# Velocity P-wave (km/s) = 2.81861 5.78550 4.55064
#
# Compressibility (1/GPa) = 0.13403762
#
# Stress axis : x y z
#
# Youngs Moduli (GPa) = 153.33494 9.91215 120.16932
#
# Poissons Ratio (x) = -0.05522 0.06967
# Poissons Ratio (y) = -0.85417 -0.50029
# Poissons Ratio (z) = 0.08890 -0.04127
#
# Static dielectric constant tensor:
#      x y z
#    x 1.890210 0.000000 0.000000 
#    y 0.000000 1.812010 0.000000 
#    z 0.000000 0.000000 1.822580 
# 
# From -- ./inp_files/16536.got.cif
#   From: 2010.05.17/outbox.cif.g08.bks.cpg/sg55_9_cif.got.tgz:16536.got - 2010.06.03 13:27:54.
