data_PCOD9424236
_publ_section_title
;
Structure prediction by ZEFSAII (Michael W. Deem and Ramdas Pophale) SiO2 
 PCOD9424236
Probable space group: P C C A
;
_chemical_formula_sum "Si O2"
_cell_formula_units_Z 24
_cell_length_a 12.051970
_cell_length_b 8.792131
_cell_length_c 9.259882
_cell_angle_alpha 90.000000
_cell_angle_beta 90.000000
_cell_angle_gamma 90.000000
_cell_volume 981.200238
_symmetry_space_group_name_H-M "P C C A"
_symmetry_group_IT_number 54
_symmetry_cell_setting 'orthorhombic'
loop_
_space_group_symop_operation_xyz
x,y,z
1/2-x,-y,z
1/2+x,-y,1/2-z
-x,y,1/2-z
-x,-y,-z
1/2+x,y,-z
1/2-x,y,1/2+z
x,-y,1/2+z
loop_
_atom_site_type_symbol
_atom_site_label
_atom_site_fract_x
_atom_site_fract_y
_atom_site_fract_z
Si Si1 0.065741 0.892813 0.883052
Si Si2 0.621902 0.789964 0.692226
Si Si3 0.757929 0.321166 0.956783
O O1 0.000000 0.818053 0.750000
O O2 0.130169 0.028581 0.799277
O O3 0.143362 0.774148 0.965205
O O4 0.000000 0.000000 0.000000
O O5 0.500000 0.745499 0.750000
O O6 0.714959 0.711213 0.790431
O O7 0.646123 0.743725 0.527803
O O8 0.750000 0.500000 0.981410
#
# Coordination Sequence:
#
# PCOD9424236 Si02
#       3
#     8   8   8
#     4  11  23  47  80 115 148 210 272 330 394 494
#     4  11  26  48  72 112 158 212 267 321 404 483
#     4  12  27  46  74 115 161 207 266 339 403 466
#
# _framework density 24.459838999999999
#
# number of rings (size 3 to 8) (size 9 to 14) (size 15 to 20)
#    0.000    0.667    6.667    2.000    4.667    5.333 
#    0.000    0.000    0.000    0.000    0.000    0.000 
#    0.000    0.000    0.000    0.000    0.000    0.000 
#
# Total GULP energy -134132.121682 kJ/mol
# GULP energy per Si atom -5588.838403 kJ/mol
# Density = 2.440417 g / cm^3
# Si number density = 24.459839 Si / 1000 Ang^3
#
#
#
# Elastic Constant Matrix: (Units=GPa)
#
#
# Indices 1 2 3 4 5 6 
#
# 1 106.9294 25.1632 55.3525 0.0000 0.0000 0.0000
# 2 25.1632 141.4075 22.2720 0.0000 0.0000 0.0000
# 3 55.3525 22.2720 128.7850 0.0000 0.0000 0.0000
# 4 0.0000 0.0000 0.0000 34.1307 0.0000 0.0000
# 5 0.0000 0.0000 0.0000 0.0000 50.9938 0.0000
# 6 0.0000 0.0000 0.0000 0.0000 0.0000 -66.1566
#
#
#
# Elastic Compliance Matrix: (Units=1/GPa)
#
#
# Indices 1 2 3 4 5 6 
#
# 1 0.012289 -0.001393 -0.005041 0.000000 0.000000 0.000000
# 2 -0.001393 0.007428 -0.000686 0.000000 0.000000 0.000000
# 3 -0.005041 -0.000686 0.010050 0.000000 0.000000 0.000000
# 4 0.000000 0.000000 0.000000 0.029299 0.000000 0.000000
# 5 0.000000 0.000000 0.000000 0.000000 0.019610 0.000000
# 6 0.000000 0.000000 0.000000 0.000000 0.000000 -0.015116
#
#
# Mechanical properties :
#
#
# Convention : Reuss Voigt Hill
#
# Bulk Modulus (GPa) = 64.40222 64.74413 64.57317
# Shear Modulus (GPa) = 60.25810 22.08253 41.17032
#
# Velocity S-wave (km/s) = 4.96880 3.00794 4.10711
# Velocity P-wave (km/s) = 7.70101 6.21213 6.99629
#
# Compressibility (1/GPa) = 0.01552742
#
# Stress axis : x y z
#
# Youngs Moduli (GPa) = 81.37157 134.63215 99.50050
#
# Poissons Ratio (x) = 0.18752 0.50160
# Poissons Ratio (y) = 0.11334 0.06824
# Poissons Ratio (z) = 0.41020 0.09234
#
# Static dielectric constant tensor:
#      x y z
#    x 2.128670 0.000000 0.000000 
#    y 0.000000 1.893140 0.000000 
#    z 0.000000 0.000000 2.040580 
# 
# From -- ./inp_files/3150.got.cif
#   From: 2010.05.17/outbox.cif.g08.bks.cpg/sg54_2_cif.got.tgz:3150.got - 2010.06.03 13:09:01.
