data_PCOD9424424
_publ_section_title
;
Structure prediction by ZEFSAII (Michael W. Deem and Ramdas Pophale) SiO2 
 PCOD9424424
Probable space group: P C C A
;
_chemical_formula_sum "Si O2"
_cell_formula_units_Z 32
_cell_length_a 5.227481
_cell_length_b 8.477057
_cell_length_c 28.962812
_cell_angle_alpha 90.000000
_cell_angle_beta 90.000000
_cell_angle_gamma 90.000000
_cell_volume 1283.448042
_symmetry_space_group_name_H-M "P C C A"
_symmetry_group_IT_number 54
_symmetry_cell_setting 'orthorhombic'
loop_
_space_group_symop_operation_xyz
x,y,z
1/2-x,-y,z
1/2+x,-y,1/2-z
-x,y,1/2-z
-x,-y,-z
1/2+x,y,-z
1/2-x,y,1/2+z
x,-y,1/2+z
loop_
_atom_site_type_symbol
_atom_site_label
_atom_site_fract_x
_atom_site_fract_y
_atom_site_fract_z
Si Si1 0.750000 0.000000 0.712303
Si Si2 0.750000 0.500000 0.830818
Si Si3 0.059221 0.259078 0.095868
Si Si4 0.000000 0.707724 0.250000
Si Si5 0.250000 0.000000 0.964258
Si Si6 0.750000 0.500000 0.471359
Si Si7 0.750000 0.000000 0.847350
O O1 0.502283 0.012684 0.681656
O O2 0.778979 0.165633 0.738390
O O3 0.948734 0.600430 0.864084
O O4 0.586101 0.607674 0.794642
O O5 0.220230 0.343239 0.057004
O O6 0.258851 0.146488 0.120062
O O7 0.836158 0.149001 0.071159
O O8 0.500000 0.000000 0.000000
O O9 0.500000 0.500000 0.500000
#
# Coordination Sequence:
#
# PCOD9424424 Si02
#       7
#     4   4   8   4   4   4   4
#     4  12  28  50  85 111 172 220 302 342 436 495
#     4  11  28  52  79 132 178 238 291 376 462 517
#     4  11  26  52  80 123 176 216 291 360 443 532
#     4  12  28  52  86 124 176 238 308 372 436 538
#     4  12  26  50  90 128 172 228 298 370 448 546
#     4  11  26  50  81 116 164 214 271 354 448 527
#     4  12  26  50  79 123 154 236 278 358 416 531
#
# _framework density 24.932836000000002
#
# number of rings (size 3 to 8) (size 9 to 14) (size 15 to 20)
#    0.000    0.500    2.500    3.750    3.500    4.000 
#    0.000    0.000    0.000    0.000    0.000    0.000 
#    0.000    0.000    0.000    0.000    0.000    0.000 
#
# Total GULP energy -178303.708072 kJ/mol
# GULP energy per Si atom -5571.990877 kJ/mol
# Density = 2.487609 g / cm^3
# Si number density = 24.932836 Si / 1000 Ang^3
#
#
#
# Elastic Constant Matrix: (Units=GPa)
#
#
# Indices 1 2 3 4 5 6 
#
# 1 203.8303 82.1875 112.6462 0.0000 0.0000 0.0000
# 2 82.1875 179.0305 107.2889 0.0000 0.0000 0.0000
# 3 112.6462 107.2889 188.5279 0.0000 0.0000 0.0000
# 4 0.0000 0.0000 0.0000 67.6588 0.0000 0.0000
# 5 0.0000 0.0000 0.0000 0.0000 -76.5158 0.0000
# 6 0.0000 0.0000 0.0000 0.0000 0.0000 45.0728
#
#
#
# Elastic Compliance Matrix: (Units=1/GPa)
#
#
# Indices 1 2 3 4 5 6 
#
# 1 0.007477 -0.001146 -0.003815 0.000000 0.000000 0.000000
# 2 -0.001146 0.008652 -0.004239 0.000000 0.000000 0.000000
# 3 -0.003815 -0.004239 0.009996 0.000000 0.000000 0.000000
# 4 0.000000 0.000000 0.000000 0.014780 0.000000 0.000000
# 5 0.000000 0.000000 0.000000 0.000000 -0.013069 0.000000
# 6 0.000000 0.000000 0.000000 0.000000 0.000000 0.022186
#
#
# Mechanical properties :
#
#
# Convention : Reuss Voigt Hill
#
# Bulk Modulus (GPa) = 129.45757 130.62599 130.04178
# Shear Modulus (GPa) = 70.42536 25.19423 47.80980
#
# Velocity S-wave (km/s) = 5.32047 3.18226 4.38373
# Velocity P-wave (km/s) = 9.47514 8.12448 8.82569
#
# Compressibility (1/GPa) = 0.00772454
#
# Stress axis : x y z
#
# Youngs Moduli (GPa) = 133.75236 115.57884 100.03785
#
# Poissons Ratio (x) = 0.13245 0.38165
# Poissons Ratio (y) = 0.15327 0.42407
# Poissons Ratio (z) = 0.51028 0.48995
#
# Static dielectric constant tensor:
#      x y z
#    x 1.933300 0.000000 0.000000 
#    y 0.000000 -0.251490 0.000000 
#    z 0.000000 0.000000 2.026710 
# 
# From -- ./inp_files/26931.got.cif
#   From: 2010.05.17/outbox.cif.g08.bks.cpg/sg54_14_cif.got.tgz:26931.got - 2010.06.03 13:09:01.
