data_PCOD9424916
_publ_section_title
;
Structure prediction by ZEFSAII (Michael W. Deem and Ramdas Pophale) SiO2 
 PCOD9424916
Probable space group: P B A M
;
_chemical_formula_sum "Si O2"
_cell_formula_units_Z 52
_cell_length_a 32.039502
_cell_length_b 5.505097
_cell_length_c 13.858581
_cell_angle_alpha 90.000000
_cell_angle_beta 90.000000
_cell_angle_gamma 90.000000
_cell_volume 2444.384365
_symmetry_space_group_name_H-M "P B A M"
_symmetry_group_IT_number 55
_symmetry_cell_setting 'orthorhombic'
loop_
_space_group_symop_operation_xyz
x,y,z
-x,-y,z
1/2+x,1/2-y,-z
1/2-x,1/2+y,-z
-x,-y,-z
x,y,-z
1/2-x,1/2+y,z
1/2+x,1/2-y,z
loop_
_atom_site_type_symbol
_atom_site_label
_atom_site_fract_x
_atom_site_fract_y
_atom_site_fract_z
Si Si1 0.050498 0.749508 0.674403
Si Si2 0.986770 0.749959 0.148099
Si Si3 0.419499 0.749494 0.606132
Si Si4 0.636698 0.750275 0.797747
Si Si5 0.272395 0.311626 0.000000
Si Si6 0.888339 0.750283 0.184952
Si Si7 0.275614 0.244819 0.780070
O O1 0.053442 0.496587 0.617097
O O2 0.093539 0.749376 0.736575
O O3 0.013294 0.749878 0.751694
O O4 0.053463 0.002333 0.617045
O O5 0.937441 0.749803 0.163011
O O6 0.000000 0.500000 0.100732
O O7 0.000000 0.000000 0.100790
O O8 0.399986 0.749617 0.500000
O O9 0.387564 0.749339 0.696976
O O10 0.632835 0.494390 0.852153
O O11 0.678532 0.750732 0.733186
O O12 0.633073 0.006665 0.851910
O O13 0.289442 0.254980 0.106454
O O14 0.263919 0.601510 0.000000
O O15 0.249020 0.491678 0.762517
#
# Coordination Sequence:
#
# PCOD9424916 Si02
#       7
#     8   8   8   8   4   8   8
#     4  10  19  30  43  60  85 115 149 193 228 261
#     4  12  16  30  45  57  86 120 150 186 238 265
#     4  10  18  29  41  56  83 116 154 184 227 276
#     4  10  18  30  46  65  90 119 149 184 220 254
#     4   8  16  30  48  70 100 130 144 160 200 260
#     4  10  19  30  44  62  89 117 150 197 227 260
#     4  10  19  32  50  74 101 126 148 170 208 263
#
# _framework density 21.273251999999999
#
# number of rings (size 3 to 8) (size 9 to 14) (size 15 to 20)
#    0.000    1.846    6.154    1.385    0.000    0.000 
#    0.000    3.077    0.000    0.000    0.000    0.000 
#    0.000  201.846    0.000    0.000    0.000    0.000 
#
# Total GULP energy -289489.731821 kJ/mol
# GULP energy per Si atom -5567.110227 kJ/mol
# Density = 2.122483 g / cm^3
# Si number density = 21.273252 Si / 1000 Ang^3
#
#
#
# Elastic Constant Matrix: (Units=GPa)
#
#
# Indices 1 2 3 4 5 6 
#
# 1 124.4088 48.8994 -24.2803 0.0000 0.0000 0.0000
# 2 48.8994 247.3147 -5.8126 0.0000 0.0000 0.0000
# 3 -24.2803 -5.8126 28.9693 0.0000 0.0000 0.0000
# 4 0.0000 0.0000 0.0000 -59.9745 0.0000 0.0000
# 5 0.0000 0.0000 0.0000 0.0000 9.0914 0.0000
# 6 0.0000 0.0000 0.0000 0.0000 0.0000 35.1677
#
#
#
# Elastic Compliance Matrix: (Units=1/GPa)
#
#
# Indices 1 2 3 4 5 6 
#
# 1 0.010397 -0.001860 0.008341 0.000000 0.000000 0.000000
# 2 -0.001860 0.004395 -0.000677 0.000000 0.000000 0.000000
# 3 0.008341 -0.000677 0.041374 0.000000 0.000000 0.000000
# 4 0.000000 0.000000 0.000000 -0.016674 0.000000 0.000000
# 5 0.000000 0.000000 0.000000 0.000000 0.109995 0.000000
# 6 0.000000 0.000000 0.000000 0.000000 0.000000 0.028435
#
#
# Mechanical properties :
#
#
# Convention : Reuss Voigt Hill
#
# Bulk Modulus (GPa) = 14.75466 48.70064 31.72765
# Shear Modulus (GPa) = 26.46830 22.31598 24.39214
#
# Velocity S-wave (km/s) = 3.53116 3.24237 3.38984
# Velocity P-wave (km/s) = 4.85554 6.07946 5.50164
#
# Compressibility (1/GPa) = 0.06777521
#
# Stress axis : x y z
#
# Youngs Moduli (GPa) = 96.18350 227.52011 24.16958
#
# Poissons Ratio (x) = 0.42310 -0.20159
# Poissons Ratio (y) = 0.17887 0.01636
# Poissons Ratio (z) = -0.80225 0.15397
#
# Static dielectric constant tensor:
#      x y z
#    x 1.840330 0.000000 0.000000 
#    y 0.000000 1.958900 0.000000 
#    z 0.000000 0.000000 1.815350 
# 
# From -- ./inp_files/22128.got.cif
#   From: 2010.05.17/outbox.cif.g08.bks.cpg/sg55_12_cif.got.tgz:22128.got - 2010.06.03 13:27:54.
