data_PCOD9424431
_publ_section_title
;
Structure prediction by ZEFSAII (Michael W. Deem and Ramdas Pophale) SiO2 
 PCOD9424431
Probable space group: P C C A
;
_chemical_formula_sum "Si O2"
_cell_formula_units_Z 36
_cell_length_a 8.743128
_cell_length_b 18.273495
_cell_length_c 9.287181
_cell_angle_alpha 90.000000
_cell_angle_beta 90.000000
_cell_angle_gamma 90.000000
_cell_volume 1483.789744
_symmetry_space_group_name_H-M "P C C A"
_symmetry_group_IT_number 54
_symmetry_cell_setting 'orthorhombic'
loop_
_space_group_symop_operation_xyz
x,y,z
1/2-x,-y,z
1/2+x,-y,1/2-z
-x,y,1/2-z
-x,-y,-z
1/2+x,y,-z
1/2-x,y,1/2+z
x,-y,1/2+z
loop_
_atom_site_type_symbol
_atom_site_label
_atom_site_fract_x
_atom_site_fract_y
_atom_site_fract_z
Si Si1 0.354055 0.569334 0.666617
Si Si2 0.630172 0.345355 0.627704
Si Si3 0.870733 0.943753 0.463259
Si Si4 0.337081 0.185881 0.837180
Si Si5 0.500000 0.173322 0.250000
O O1 0.250000 0.500000 0.633882
O O2 0.500000 0.539873 0.750000
O O3 0.274161 0.623936 0.781792
O O4 0.392563 0.607934 0.515974
O O5 0.500000 0.349280 0.750000
O O6 0.632889 0.260593 0.575320
O O7 0.805994 0.893701 0.592900
O O8 0.954710 0.880610 0.377618
O O9 0.750000 0.000000 0.393011
O O10 0.000000 0.000000 0.500000
O O11 0.500000 0.176641 0.750000
O O12 0.168565 0.208094 0.773769
#
# Coordination Sequence:
#
# PCOD9424431 Si02
#       5
#     8   8   8   8   4
#     4  12  27  50  83 114 157 205 257 316 393 470
#     4  11  27  49  76 116 158 202 257 323 388 470
#     4  12  26  45  70 103 145 198 257 322 387 461
#     4  11  28  49  75 111 153 198 262 321 390 473
#     4  12  28  46  76 100 148 202 252 320 400 456
#
# _framework density 24.262198999999999
#
# number of rings (size 3 to 8) (size 9 to 14) (size 15 to 20)
#    0.000    0.444    2.222    4.000    9.333    4.444 
#    0.000    1.111    0.000    0.000    0.000    0.000 
#    0.000    0.000    0.000    0.000    0.000    0.000 
#
# Total GULP energy -200652.980917 kJ/mol
# GULP energy per Si atom -5573.693914 kJ/mol
# Density = 2.420698 g / cm^3
# Si number density = 24.262199 Si / 1000 Ang^3
#
#
#
# Elastic Constant Matrix: (Units=GPa)
#
#
# Indices 1 2 3 4 5 6 
#
# 1 145.5322 19.9918 25.4374 0.0000 0.0000 0.0000
# 2 19.9918 163.6198 42.2217 0.0000 0.0000 0.0000
# 3 25.4374 42.2217 95.5156 0.0000 0.0000 0.0000
# 4 0.0000 0.0000 0.0000 -50.7130 0.0000 0.0000
# 5 0.0000 0.0000 0.0000 0.0000 20.7781 0.0000
# 6 0.0000 0.0000 0.0000 0.0000 0.0000 -5.1239
#
#
#
# Elastic Compliance Matrix: (Units=1/GPa)
#
#
# Indices 1 2 3 4 5 6 
#
# 1 0.007234 -0.000437 -0.001734 0.000000 0.000000 0.000000
# 2 -0.000437 0.006925 -0.002945 0.000000 0.000000 0.000000
# 3 -0.001734 -0.002945 0.012233 0.000000 0.000000 0.000000
# 4 0.000000 0.000000 0.000000 -0.019719 0.000000 0.000000
# 5 0.000000 0.000000 0.000000 0.000000 0.048128 0.000000
# 6 0.000000 0.000000 0.000000 0.000000 0.000000 -0.195164
#
#
# Mechanical properties :
#
#
# Convention : Reuss Voigt Hill
#
# Bulk Modulus (GPa) = 61.87304 64.44103 63.15703
# Shear Modulus (GPa) = -40.08145 14.12269 -12.97938
#
# Velocity S-wave (km/s) = -4.06890 2.41526 -2.31544
# Velocity P-wave (km/s) = 1.86616 5.86480 4.35192
#
# Compressibility (1/GPa) = 0.01616213
#
# Stress axis : x y z
#
# Youngs Moduli (GPa) = 138.22990 144.40466 81.74651
#
# Poissons Ratio (x) = 0.06304 0.14172
# Poissons Ratio (y) = 0.06035 0.24073
# Poissons Ratio (z) = 0.23964 0.42525
#
# Static dielectric constant tensor:
#      x y z
#    x 2.020660 0.000000 0.000000 
#    y 0.000000 2.077410 0.000000 
#    z 0.000000 0.000000 2.041590 
# 
# From -- ./inp_files/2476.got.cif
#   From: 2010.05.17/outbox.cif.g08.bks.cpg/sg54_2_cif.got.tgz:2476.got - 2010.06.03 13:09:01.
