data_PCOD9424823
_publ_section_title
;
Structure prediction by ZEFSAII (Michael W. Deem and Ramdas Pophale) SiO2 
 PCOD9424823
Probable space group: P B A M
;
_chemical_formula_sum "Si O2"
_cell_formula_units_Z 32
_cell_length_a 14.612338
_cell_length_b 10.535428
_cell_length_c 8.335573
_cell_angle_alpha 90.000000
_cell_angle_beta 90.000000
_cell_angle_gamma 90.000000
_cell_volume 1283.238415
_symmetry_space_group_name_H-M "P B A M"
_symmetry_group_IT_number 55
_symmetry_cell_setting 'orthorhombic'
loop_
_space_group_symop_operation_xyz
x,y,z
-x,-y,z
1/2+x,1/2-y,-z
1/2-x,1/2+y,-z
-x,-y,-z
x,y,-z
1/2-x,1/2+y,z
1/2+x,1/2-y,z
loop_
_atom_site_type_symbol
_atom_site_label
_atom_site_fract_x
_atom_site_fract_y
_atom_site_fract_z
Si Si1 0.479464 0.813634 0.692937
Si Si2 0.817954 0.536679 0.813063
Si Si3 0.341412 0.302512 0.690911
Si Si4 0.644604 0.413755 0.311750
O O1 0.488167 0.806154 0.500000
O O2 0.413774 0.931724 0.730069
O O3 0.583004 0.795634 0.754526
O O4 0.421106 0.692928 0.757654
O O5 0.752837 0.660292 0.777578
O O6 0.749728 0.427823 0.747579
O O7 0.831859 0.521497 0.000000
O O8 0.323143 0.284329 0.500000
O O9 0.391259 0.441956 0.704165
O O10 0.650208 0.386847 0.500000
#
# Coordination Sequence:
#
# PCOD9424823 Si02
#       4
#     8   8   8   8
#     4  10  17  30  54  72  90 123 159 197 234 268
#     4  10  20  30  42  69 104 128 150 185 232 287
#     4   8  16  31  49  71  94 118 156 197 232 270
#     4   8  16  31  49  71  94 118 156 197 232 270
#
# _framework density 24.936910000000001
#
# number of rings (size 3 to 8) (size 9 to 14) (size 15 to 20)
#    1.500    1.500    0.000    2.250    0.000    5.000 
#    0.000    1.250    0.000    1.500    0.000   10.500 
#    0.000    0.000    0.000    0.000    0.000    0.000 
#
# Total GULP energy -178482.567238 kJ/mol
# GULP energy per Si atom -5577.580226 kJ/mol
# Density = 2.488015 g / cm^3
# Si number density = 24.936910 Si / 1000 Ang^3
#
#
#
# Elastic Constant Matrix: (Units=GPa)
#
#
# Indices 1 2 3 4 5 6 
#
# 1 154.5586 15.7862 4.9781 0.0000 0.0000 0.0000
# 2 15.7862 79.9570 -29.5593 0.0000 0.0000 0.0000
# 3 4.9781 -29.5593 41.6235 0.0000 0.0000 0.0000
# 4 0.0000 0.0000 0.0000 4.5108 0.0000 0.0000
# 5 0.0000 0.0000 0.0000 0.0000 33.2293 0.0000
# 6 0.0000 0.0000 0.0000 0.0000 0.0000 34.8607
#
#
#
# Elastic Compliance Matrix: (Units=1/GPa)
#
#
# Indices 1 2 3 4 5 6 
#
# 1 0.006774 -0.002220 -0.002386 0.000000 0.000000 0.000000
# 2 -0.002220 0.017686 0.012826 0.000000 0.000000 0.000000
# 3 -0.002386 0.012826 0.033419 0.000000 0.000000 0.000000
# 4 0.000000 0.000000 0.000000 0.221689 0.000000 0.000000
# 5 0.000000 0.000000 0.000000 0.000000 0.030094 0.000000
# 6 0.000000 0.000000 0.000000 0.000000 0.000000 0.028686
#
#
# Mechanical properties :
#
#
# Convention : Reuss Voigt Hill
#
# Bulk Modulus (GPa) = 13.45567 28.72767 21.09167
# Shear Modulus (GPa) = 14.42251 33.51578 23.96914
#
# Velocity S-wave (km/s) = 2.40752 3.67007 3.10367
# Velocity P-wave (km/s) = 3.62433 5.43179 4.61737
#
# Compressibility (1/GPa) = 0.07431814
#
# Stress axis : x y z
#
# Youngs Moduli (GPa) = 147.63206 56.54046 29.92351
#
# Poissons Ratio (x) = 0.12549 0.07141
# Poissons Ratio (y) = 0.32768 -0.38379
# Poissons Ratio (z) = 0.35230 -0.72517
#
# Static dielectric constant tensor:
#      x y z
#    x 2.015300 0.000000 0.000000 
#    y 0.000000 2.211790 0.000000 
#    z 0.000000 0.000000 1.831490 
# 
# From -- ./inp_files/3309.got.cif
#   From: 2010.05.17/outbox.cif.g08.bks.cpg/sg55_2_cif.got.tgz:3309.got - 2010.06.03 13:27:54.
