data_PCOD9424640
_publ_section_title
;
Structure prediction by ZEFSAII (Michael W. Deem and Ramdas Pophale) SiO2 
 PCOD9424640
Probable space group: P C C A
;
_chemical_formula_sum "Si O2"
_cell_formula_units_Z 36
_cell_length_a 12.000000
_cell_length_b 12.000000
_cell_length_c 12.000000
_cell_angle_alpha 90.000000
_cell_angle_beta 90.000000
_cell_angle_gamma 90.000000
_cell_volume 1728.000000
_symmetry_space_group_name_H-M "P C C A"
_symmetry_group_IT_number 54
_symmetry_cell_setting 'orthorhombic'
loop_
_space_group_symop_operation_xyz
x,y,z
1/2-x,-y,z
1/2+x,-y,1/2-z
-x,y,1/2-z
-x,-y,-z
1/2+x,y,-z
1/2-x,y,1/2+z
x,-y,1/2+z
loop_
_atom_site_type_symbol
_atom_site_label
_atom_site_fract_x
_atom_site_fract_y
_atom_site_fract_z
Si Si1 0.545313 0.665728 0.406960
Si Si2 0.095343 0.730806 0.343679
Si Si3 0.684598 0.609050 0.207268
Si Si4 0.000000 0.864917 0.750000
Si Si5 0.884452 0.016196 0.577512
O O1 0.568682 0.668914 0.538087
O O2 0.629903 0.594794 0.330165
O O3 0.418548 0.632688 0.375481
O O4 0.555477 0.786011 0.344460
O O5 0.217339 0.699497 0.297373
O O6 0.000000 0.710559 0.250000
O O7 0.101809 0.859134 0.378538
O O8 0.750000 0.500000 0.172694
O O9 0.090950 0.935601 0.817315
O O10 0.750000 0.000000 0.540510
O O11 0.000000 0.000000 0.500000
#
# Coordination Sequence:
#
# PCOD9424640 Si02
#       5
#     8   8   8   4   8
#     4  10  24  47  70  99 148 179 234 304 353 421
#     4  12  27  43  72 109 140 186 245 288 359 440
#     4  10  25  47  73  98 135 186 236 298 367 415
#     4  10  20  46  64 100 142 194 226 292 358 412
#     4  12  25  43  71 104 146 193 241 295 359 433
#
# _framework density 20.833333
#
# number of rings (size 3 to 8) (size 9 to 14) (size 15 to 20)
#    0.000    1.333    3.333    2.667    6.222    2.667 
#    0.000    0.000    0.000    0.000    0.000    0.000 
#    0.000    0.000    0.000    0.000    0.000    0.000 
#
# Total GULP energy -200698.624171 kJ/mol
# GULP energy per Si atom -5574.961783 kJ/mol
# Density = 2.078592 g / cm^3
# Si number density = 20.833333 Si / 1000 Ang^3
#
#
#
# Elastic Constant Matrix: (Units=GPa)
#
#
# Indices 1 2 3 4 5 6 
#
# 1 202.2144 35.8390 68.5703 0.0000 0.0000 0.0000
# 2 35.8390 64.4332 5.3164 0.0000 0.0000 0.0000
# 3 68.5703 5.3164 130.9621 0.0000 0.0000 0.0000
# 4 0.0000 0.0000 0.0000 -5.0977 0.0000 0.0000
# 5 0.0000 0.0000 0.0000 0.0000 33.0224 0.0000
# 6 0.0000 0.0000 0.0000 0.0000 0.0000 21.4471
#
#
#
# Elastic Compliance Matrix: (Units=1/GPa)
#
#
# Indices 1 2 3 4 5 6 
#
# 1 0.006698 -0.003448 -0.003367 0.000000 0.000000 0.000000
# 2 -0.003448 0.017347 0.001101 0.000000 0.000000 0.000000
# 3 -0.003367 0.001101 0.009354 0.000000 0.000000 0.000000
# 4 0.000000 0.000000 0.000000 -0.196168 0.000000 0.000000
# 5 0.000000 0.000000 0.000000 0.000000 0.030282 0.000000
# 6 0.000000 0.000000 0.000000 0.000000 0.000000 0.046626
#
#
# Mechanical properties :
#
#
# Convention : Reuss Voigt Hill
#
# Bulk Modulus (GPa) = 45.51393 68.56236 57.03814
# Shear Modulus (GPa) = -74.50522 29.06665 -22.71928
#
# Velocity S-wave (km/s) = -5.98666 3.73929 -3.30589
# Velocity P-wave (km/s) = 5.08849 7.18501 3.58690
#
# Compressibility (1/GPa) = 0.02197130
#
# Stress axis : x y z
#
# Youngs Moduli (GPa) = 149.29679 57.64741 106.90550
#
# Poissons Ratio (x) = 0.19876 0.35996
# Poissons Ratio (y) = 0.51474 -0.11770
# Poissons Ratio (z) = 0.50269 -0.06347
#
# Static dielectric constant tensor:
#      x y z
#    x 1.766540 0.000000 0.000000 
#    y 0.000000 1.882640 0.000000 
#    z 0.000000 0.000000 1.763110 
# 
# From -- ./inp_files/7420.got.cif
#   From: 2010.05.17/outbox.ucp.g08.bks.cvg/sg54_4_cif.got.tgz:7420.got - 2010.06.11 16:34:40.
