data_PCOD9424918
_publ_section_title
;
Structure prediction by ZEFSAII (Michael W. Deem and Ramdas Pophale) SiO2 
 PCOD9424918
Probable space group: P B A M
;
_chemical_formula_sum "Si O2"
_cell_formula_units_Z 64
_cell_length_a 11.891812
_cell_length_b 19.712027
_cell_length_c 11.428596
_cell_angle_alpha 90.000000
_cell_angle_beta 90.000000
_cell_angle_gamma 90.000000
_cell_volume 2678.996837
_symmetry_space_group_name_H-M "P B A M"
_symmetry_group_IT_number 55
_symmetry_cell_setting 'orthorhombic'
loop_
_space_group_symop_operation_xyz
x,y,z
-x,-y,z
1/2+x,1/2-y,-z
1/2-x,1/2+y,-z
-x,-y,-z
x,y,-z
1/2-x,1/2+y,z
1/2+x,1/2-y,z
loop_
_atom_site_type_symbol
_atom_site_label
_atom_site_fract_x
_atom_site_fract_y
_atom_site_fract_z
Si Si1 0.905649 0.809367 0.873631
Si Si2 0.592229 0.372979 0.364443
Si Si3 0.327387 0.838189 0.127619
Si Si4 0.356018 0.175669 0.626251
Si Si5 0.687832 0.668518 0.368359
Si Si6 0.833530 0.019572 0.365445
Si Si7 0.877745 0.515670 0.799067
Si Si8 0.150422 0.631434 0.124734
O O1 0.953797 0.834742 0.750738
O O2 0.903978 0.728331 0.871831
O O3 0.775381 0.835432 0.874335
O O4 0.954702 0.832031 0.000000
O O5 0.553592 0.361258 0.500000
O O6 0.724192 0.346934 0.371690
O O7 0.598318 0.452839 0.330689
O O8 0.258585 0.830676 0.248472
O O9 0.380985 0.912830 0.134418
O O10 0.266252 0.834867 0.000000
O O11 0.402613 0.151510 0.500000
O O12 0.365407 0.257029 0.627420
O O13 0.403133 0.149823 0.749686
O O14 0.743997 0.663029 0.500000
O O15 0.621572 0.596668 0.359100
O O16 0.811595 0.005648 0.500000
O O17 0.717467 0.020857 0.297553
O O18 0.843295 0.450077 0.873794
O O19 0.000000 0.500000 0.749589
O O20 0.099047 0.652600 0.000000
#
# Coordination Sequence:
#
# PCOD9424918 Si02
#       8
#     8   8   8   8   8   8   8   8
#     4   9  16  27  42  61  79 100 137 184 229 256
#     4   9  14  24  41  60  81 105 137 175 218 264
#     4  10  19  30  43  59  81 109 145 185 219 255
#     4   9  15  25  41  60  79 102 137 177 219 261
#     4   9  16  26  41  60  81 106 138 176 218 263
#     4   9  17  29  43  61  87 119 152 184 218 257
#     4  11  22  33  44  61  89 128 163 184 210 257
#     4  10  18  29  43  60  82 108 144 184 218 255
#
# _framework density 23.889541000000001
#
# number of rings (size 3 to 8) (size 9 to 14) (size 15 to 20)
#    0.000    2.500    5.000    0.375    0.000    1.250 
#    0.000    0.000    0.000    0.000    0.000    0.000 
#    0.000    0.000    0.000    4.500    0.000   51.500 
#
# Total GULP energy -356725.298025 kJ/mol
# GULP energy per Si atom -5573.832782 kJ/mol
# Density = 2.383517 g / cm^3
# Si number density = 23.889541 Si / 1000 Ang^3
#
#
#
# Elastic Constant Matrix: (Units=GPa)
#
#
# Indices 1 2 3 4 5 6 
#
# 1 49.0062 30.0782 31.1621 0.0000 0.0000 0.0000
# 2 30.0782 174.4534 74.6062 0.0000 0.0000 0.0000
# 3 31.1621 74.6062 205.9042 0.0000 0.0000 0.0000
# 4 0.0000 0.0000 0.0000 -27.7173 0.0000 0.0000
# 5 0.0000 0.0000 0.0000 0.0000 9.0391 0.0000
# 6 0.0000 0.0000 0.0000 0.0000 0.0000 29.4784
#
#
#
# Elastic Compliance Matrix: (Units=1/GPa)
#
#
# Indices 1 2 3 4 5 6 
#
# 1 0.023869 -0.003042 -0.002510 0.000000 0.000000 0.000000
# 2 -0.003042 0.007171 -0.002138 0.000000 0.000000 0.000000
# 3 -0.002510 -0.002138 0.006011 0.000000 0.000000 0.000000
# 4 0.000000 0.000000 0.000000 -0.036078 0.000000 0.000000
# 5 0.000000 0.000000 0.000000 0.000000 0.110630 0.000000
# 6 0.000000 0.000000 0.000000 0.000000 0.000000 0.033923
#
#
# Mechanical properties :
#
#
# Convention : Reuss Voigt Hill
#
# Bulk Modulus (GPa) = 46.14468 77.89520 62.01994
# Shear Modulus (GPa) = 29.73902 21.72787 25.73344
#
# Velocity S-wave (km/s) = 3.53208 3.01909 3.28561
# Velocity P-wave (km/s) = 5.99932 6.69555 6.35697
#
# Compressibility (1/GPa) = 0.02167097
#
# Stress axis : x y z
#
# Youngs Moduli (GPa) = 41.89587 139.45190 166.35692
#
# Poissons Ratio (x) = 0.42418 0.41759
# Poissons Ratio (y) = 0.12744 0.35566
# Poissons Ratio (z) = 0.10517 0.29814
#
# Static dielectric constant tensor:
#      x y z
#    x 1.973080 0.000000 0.000000 
#    y 0.000000 2.030810 0.000000 
#    z 0.000000 0.000000 1.949260 
# 
# From -- ./inp_files/15467.got.cif
#   From: 2010.05.17/outbox.cif.g08.bks.cpg/sg55_8_cif.got.tgz:15467.got - 2010.06.03 13:27:54.
