data_PCOD9424406
_publ_section_title
;
Structure prediction by ZEFSAII (Michael W. Deem and Ramdas Pophale) SiO2 
 PCOD9424406
Probable space group: P C C A
;
_chemical_formula_sum "Si O2"
_cell_formula_units_Z 40
_cell_length_a 11.524942
_cell_length_b 9.290967
_cell_length_c 17.698315
_cell_angle_alpha 90.000000
_cell_angle_beta 90.000000
_cell_angle_gamma 90.000000
_cell_volume 1895.097621
_symmetry_space_group_name_H-M "P C C A"
_symmetry_group_IT_number 54
_symmetry_cell_setting 'orthorhombic'
loop_
_space_group_symop_operation_xyz
x,y,z
1/2-x,-y,z
1/2+x,-y,1/2-z
-x,y,1/2-z
-x,-y,-z
1/2+x,y,-z
1/2-x,y,1/2+z
x,-y,1/2+z
loop_
_atom_site_type_symbol
_atom_site_label
_atom_site_fract_x
_atom_site_fract_y
_atom_site_fract_z
Si Si1 0.042397 0.685529 0.124035
Si Si2 0.539342 0.629955 0.332495
Si Si3 0.845813 0.628610 0.536631
Si Si4 0.754535 0.827930 0.803218
Si Si5 0.211759 0.832531 0.367482
O O1 0.066741 0.539423 0.171350
O O2 0.134278 0.792601 0.158083
O O3 0.918690 0.766268 0.128250
O O4 0.080587 0.642916 0.039314
O O5 0.500000 0.678374 0.250000
O O6 0.438202 0.623443 0.394927
O O7 0.645679 0.739071 0.348009
O O8 0.750000 0.500000 0.534456
O O9 0.772653 0.767883 0.558786
O O10 0.755395 0.779099 0.715156
O O11 0.750000 0.000000 0.802766
O O12 0.250000 0.000000 0.367598
#
# Coordination Sequence:
#
# PCOD9424406 Si02
#       5
#     8   8   8   8   8
#     4  12  27  44  74 103 144 188 243 296 369 432
#     4  12  24  44  74 101 138 190 238 294 364 430
#     4  12  26  46  70 105 146 183 242 303 362 425
#     4  11  26  45  71 106 143 186 243 295 357 437
#     4  11  26  47  71 103 145 192 238 301 361 431
#
# _framework density 21.107092999999999
#
# number of rings (size 3 to 8) (size 9 to 14) (size 15 to 20)
#    0.000    0.400    4.000    4.200    5.600    1.600 
#    0.000    0.000    0.000    0.000    0.000    0.000 
#    0.000    0.000    0.000    0.000    0.000    0.000 
#
# Total GULP energy -222924.679653 kJ/mol
# GULP energy per Si atom -5573.116991 kJ/mol
# Density = 2.105905 g / cm^3
# Si number density = 21.107093 Si / 1000 Ang^3
#
#
#
# Elastic Constant Matrix: (Units=GPa)
#
#
# Indices 1 2 3 4 5 6 
#
# 1 134.4087 74.7154 32.1284 0.0000 0.0000 0.0000
# 2 74.7154 107.0015 23.4488 0.0000 0.0000 0.0000
# 3 32.1284 23.4488 72.5267 0.0000 0.0000 0.0000
# 4 0.0000 0.0000 0.0000 46.8109 0.0000 0.0000
# 5 0.0000 0.0000 0.0000 0.0000 72.2601 0.0000
# 6 0.0000 0.0000 0.0000 0.0000 0.0000 17.9811
#
#
#
# Elastic Compliance Matrix: (Units=1/GPa)
#
#
# Indices 1 2 3 4 5 6 
#
# 1 0.012730 -0.008237 -0.002976 0.000000 0.000000 0.000000
# 2 -0.008237 0.015388 -0.001326 0.000000 0.000000 0.000000
# 3 -0.002976 -0.001326 0.015535 0.000000 0.000000 0.000000
# 4 0.000000 0.000000 0.000000 0.021363 0.000000 0.000000
# 5 0.000000 0.000000 0.000000 0.000000 0.013839 0.000000
# 6 0.000000 0.000000 0.000000 0.000000 0.000000 0.055614
#
#
# Mechanical properties :
#
#
# Convention : Reuss Voigt Hill
#
# Bulk Modulus (GPa) = 53.83696 63.83577 58.83637
# Shear Modulus (GPa) = 30.16799 39.65337 34.91068
#
# Velocity S-wave (km/s) = 3.78469 4.33907 4.07133
# Velocity P-wave (km/s) = 6.68284 7.44398 7.07366
#
# Compressibility (1/GPa) = 0.01857460
#
# Stress axis : x y z
#
# Youngs Moduli (GPa) = 78.55416 64.98681 64.36968
#
# Poissons Ratio (x) = 0.53528 0.19158
# Poissons Ratio (y) = 0.64703 0.08537
# Poissons Ratio (z) = 0.23379 0.08619
#
# Static dielectric constant tensor:
#      x y z
#    x 1.805870 0.000000 0.000000 
#    y 0.000000 2.512170 0.000000 
#    z 0.000000 0.000000 1.758820 
# 
# From -- ./inp_files/17087.got.cif
#   From: 2010.05.17/outbox.cif.g08.bks.cpg/sg54_9_cif.got.tgz:17087.got - 2010.06.03 13:09:01.
