data_PCOD9424996
_publ_section_title
;
Structure prediction by ZEFSAII (Michael W. Deem and Ramdas Pophale) SiO2 
 PCOD9424996
Probable space group: P B A M
;
_chemical_formula_sum "Si O2"
_cell_formula_units_Z 64
_cell_length_a 28.682637
_cell_length_b 15.084742
_cell_length_c 7.939034
_cell_angle_alpha 90.000000
_cell_angle_beta 90.000000
_cell_angle_gamma 90.000000
_cell_volume 3434.983262
_symmetry_space_group_name_H-M "P B A M"
_symmetry_group_IT_number 55
_symmetry_cell_setting 'orthorhombic'
loop_
_space_group_symop_operation_xyz
x,y,z
-x,-y,z
1/2+x,1/2-y,-z
1/2-x,1/2+y,-z
-x,-y,-z
x,y,-z
1/2-x,1/2+y,z
1/2+x,1/2-y,z
loop_
_atom_site_type_symbol
_atom_site_label
_atom_site_fract_x
_atom_site_fract_y
_atom_site_fract_z
Si Si1 0.554519 0.098362 0.293922
Si Si2 0.363052 0.222996 0.199395
Si Si3 0.052925 0.601340 0.703263
Si Si4 0.323230 0.593575 0.702256
Si Si5 0.782364 0.408362 0.203665
Si Si6 0.713714 0.111420 0.197460
Si Si7 0.183031 0.894710 0.301847
Si Si8 0.368616 0.766629 0.303026
O O1 0.555913 0.097978 0.500000
O O2 0.500857 0.114721 0.245063
O O3 0.590162 0.172544 0.230584
O O4 0.567464 0.998079 0.240760
O O5 0.411724 0.175265 0.234482
O O6 0.322002 0.158208 0.265398
O O7 0.355429 0.320010 0.274460
O O8 0.356875 0.231258 0.000000
O O9 0.053828 0.601900 0.500000
O O10 0.328527 0.592767 0.500000
O O11 0.269543 0.617280 0.741038
O O12 0.330121 0.492726 0.763740
O O13 0.357005 0.670052 0.771063
O O14 0.791352 0.509790 0.259119
O O15 0.782973 0.409127 0.000000
O O16 0.768155 0.134420 0.218804
O O17 0.678765 0.176598 0.290114
O O18 0.702024 0.114855 0.000000
O O19 0.192675 0.903224 0.500000
O O20 0.379990 0.753951 0.500000
#
# Coordination Sequence:
#
# PCOD9424996 Si02
#       8
#     8   8   8   8   8   8   8   8
#     4   8  16  31  52  75  99 124 155 192 234 284
#     4  11  21  32  48  72  97 125 160 198 237 282
#     4   9  17  32  52  74  98 126 155 189 235 288
#     4   9  19  32  47  67  92 121 158 197 232 269
#     4   9  19  32  45  64  96 129 155 185 228 277
#     4  10  19  31  46  69  99 128 155 188 229 278
#     4  10  20  34  48  65  91 126 163 198 232 272
#     4  10  18  30  49  72  95 123 157 195 234 278
#
# _framework density 18.631823000000001
#
# number of rings (size 3 to 8) (size 9 to 14) (size 15 to 20)
#    0.000    2.500    0.000    3.375    0.000    4.500 
#    0.000    1.875    0.000    0.750    0.000    5.250 
#    0.000    0.000    0.000    0.000    0.000    0.000 
#
# Total GULP energy -357115.894736 kJ/mol
# GULP energy per Si atom -5579.935855 kJ/mol
# Density = 1.858942 g / cm^3
# Si number density = 18.631823 Si / 1000 Ang^3
#
#
#
# Elastic Constant Matrix: (Units=GPa)
#
#
# Indices 1 2 3 4 5 6 
#
# 1 75.9578 71.7888 -5.1271 0.0000 0.0000 0.0000
# 2 71.7888 106.2368 -0.0508 0.0000 0.0000 0.0000
# 3 -5.1271 -0.0508 17.9056 0.0000 0.0000 0.0000
# 4 0.0000 0.0000 0.0000 10.7386 0.0000 0.0000
# 5 0.0000 0.0000 0.0000 0.0000 158.2629 0.0000
# 6 0.0000 0.0000 0.0000 0.0000 0.0000 32.4736
#
#
#
# Elastic Compliance Matrix: (Units=1/GPa)
#
#
# Indices 1 2 3 4 5 6 
#
# 1 0.038464 -0.025986 0.010940 0.000000 0.000000 0.000000
# 2 -0.025986 0.026970 -0.007364 0.000000 0.000000 0.000000
# 3 0.010940 -0.007364 0.058960 0.000000 0.000000 0.000000
# 4 0.000000 0.000000 0.000000 0.093122 0.000000 0.000000
# 5 0.000000 0.000000 0.000000 0.000000 0.006319 0.000000
# 6 0.000000 0.000000 0.000000 0.000000 0.000000 0.030794
#
#
# Mechanical properties :
#
#
# Convention : Reuss Voigt Hill
#
# Bulk Modulus (GPa) = 12.56727 37.03579 24.80153
# Shear Modulus (GPa) = 15.33866 49.19430 32.26648
#
# Velocity S-wave (km/s) = 2.87235 5.14400 4.16600
# Velocity P-wave (km/s) = 4.21429 7.42979 6.03995
#
# Compressibility (1/GPa) = 0.07957179
#
# Stress axis : x y z
#
# Youngs Moduli (GPa) = 25.99853 37.07891 16.96061
#
# Poissons Ratio (x) = 0.96355 -0.18555
# Poissons Ratio (y) = 0.67561 0.12491
# Poissons Ratio (z) = -0.28442 0.27307
#
# Static dielectric constant tensor:
#      x y z
#    x 1.618650 0.000000 0.000000 
#    y 0.000000 1.676470 0.000000 
#    z 0.000000 0.000000 1.663660 
# 
# From -- ./inp_files/6924.got.cif
#   From: 2010.05.17/outbox.cif.g08.bks.cpg/sg55_4_cif.got.tgz:6924.got - 2010.06.03 13:27:54.
