data_PCOD9424167
_publ_section_title
;
Structure prediction by ZEFSAII (Michael W. Deem and Ramdas Pophale) SiO2 
 PCOD9424167
Probable space group: P C C A
;
_chemical_formula_sum "Si O2"
_cell_formula_units_Z 40
_cell_length_a 7.422389
_cell_length_b 13.161450
_cell_length_c 19.098565
_cell_angle_alpha 90.000000
_cell_angle_beta 90.000000
_cell_angle_gamma 90.000000
_cell_volume 1865.727388
_symmetry_space_group_name_H-M "P C C A"
_symmetry_group_IT_number 54
_symmetry_cell_setting 'orthorhombic'
loop_
_space_group_symop_operation_xyz
x,y,z
1/2-x,-y,z
1/2+x,-y,1/2-z
-x,y,1/2-z
-x,-y,-z
1/2+x,y,-z
1/2-x,y,1/2+z
x,-y,1/2+z
loop_
_atom_site_type_symbol
_atom_site_label
_atom_site_fract_x
_atom_site_fract_y
_atom_site_fract_z
Si Si1 0.164991 0.283423 0.574673
Si Si2 0.439694 0.049696 0.072787
Si Si3 0.972602 0.290011 0.167721
Si Si4 0.871263 0.924315 0.688944
Si Si5 0.293179 0.386921 0.434466
O O1 0.082486 0.170063 0.571307
O O2 0.331331 0.282989 0.629912
O O3 0.247056 0.312704 0.499307
O O4 0.998011 0.360456 0.588123
O O5 0.250000 0.000000 0.089871
O O6 0.569083 0.008629 0.132912
O O7 0.500000 0.000000 0.000000
O O8 0.000000 0.313866 0.250000
O O9 0.856139 0.185261 0.152940
O O10 0.848486 0.370977 0.128187
O O11 0.000000 0.887579 0.750000
O O12 0.750000 0.000000 0.734850
O O13 0.250000 0.500000 0.461166
#
# Coordination Sequence:
#
# PCOD9424167 Si02
#       5
#     8   8   8   8   8
#     4  12  24  44  76 102 146 185 240 301 354 428
#     4  12  22  38  63  99 135 178 226 276 339 400
#     4  11  26  47  69 107 145 184 243 299 358 439
#     4  11  23  41  65  93 140 186 228 273 342 428
#     4  12  26  48  75 105 135 189 242 302 373 430
#
# _framework density 21.439361000000002
#
# number of rings (size 3 to 8) (size 9 to 14) (size 15 to 20)
#    0.000    0.400    4.000    5.400    2.800    0.800 
#    3.600    0.000    0.000    0.000    0.000    0.000 
#    0.000    0.000    0.000    0.000    0.000    0.000 
#
# Total GULP energy -222911.596211 kJ/mol
# GULP energy per Si atom -5572.789905 kJ/mol
# Density = 2.139056 g / cm^3
# Si number density = 21.439361 Si / 1000 Ang^3
#
#
#
# Elastic Constant Matrix: (Units=GPa)
#
#
# Indices 1 2 3 4 5 6 
#
# 1 93.2592 4.5497 13.4722 0.0000 0.0000 0.0000
# 2 4.5497 62.4673 7.1994 0.0000 0.0000 0.0000
# 3 13.4722 7.1994 123.1272 0.0000 0.0000 0.0000
# 4 0.0000 0.0000 0.0000 20.2156 0.0000 0.0000
# 5 0.0000 0.0000 0.0000 0.0000 -12.8885 0.0000
# 6 0.0000 0.0000 0.0000 0.0000 0.0000 23.3485
#
#
#
# Elastic Compliance Matrix: (Units=1/GPa)
#
#
# Indices 1 2 3 4 5 6 
#
# 1 0.010922 -0.000662 -0.001156 0.000000 0.000000 0.000000
# 2 -0.000662 0.016157 -0.000872 0.000000 0.000000 0.000000
# 3 -0.001156 -0.000872 0.008299 0.000000 0.000000 0.000000
# 4 0.000000 0.000000 0.000000 0.049467 0.000000 0.000000
# 5 0.000000 0.000000 0.000000 0.000000 -0.077589 0.000000
# 6 0.000000 0.000000 0.000000 0.000000 0.000000 0.042829
#
#
# Mechanical properties :
#
#
# Convention : Reuss Voigt Hill
#
# Bulk Modulus (GPa) = 33.33688 36.58847 34.96268
# Shear Modulus (GPa) = 76.37476 23.04394 49.70935
#
# Velocity S-wave (km/s) = 5.97503 3.28204 4.82041
# Velocity P-wave (km/s) = 7.94886 5.60941 6.87931
#
# Compressibility (1/GPa) = 0.02999681
#
# Stress axis : x y z
#
# Youngs Moduli (GPa) = 91.55706 61.89220 120.49339
#
# Poissons Ratio (x) = 0.04099 0.13933
# Poissons Ratio (y) = 0.06063 0.10510
# Poissons Ratio (z) = 0.10587 0.05399
#
# Static dielectric constant tensor:
#      x y z
#    x 1.903730 0.000000 0.000000 
#    y 0.000000 1.855040 0.000000 
#    z 0.000000 0.000000 1.640200 
# 
# From -- ./inp_files/16316.got.cif
#   From: 2010.05.17/outbox.cif.g08.bks.cpg/sg54_9_cif.got.tgz:16316.got - 2010.06.03 13:09:01.
