data_PCOD9424753
_publ_section_title
;
Structure prediction by ZEFSAII (Michael W. Deem and Ramdas Pophale) SiO2 
 PCOD9424753
Probable space group: P B A M
;
_chemical_formula_sum "Si O2"
_cell_formula_units_Z 48
_cell_length_a 7.339849
_cell_length_b 33.711268
_cell_length_c 8.179427
_cell_angle_alpha 90.000000
_cell_angle_beta 90.000000
_cell_angle_gamma 90.000000
_cell_volume 2023.881564
_symmetry_space_group_name_H-M "P B A M"
_symmetry_group_IT_number 55
_symmetry_cell_setting 'orthorhombic'
loop_
_space_group_symop_operation_xyz
x,y,z
-x,-y,z
1/2+x,1/2-y,-z
1/2-x,1/2+y,-z
-x,-y,-z
x,y,-z
1/2-x,1/2+y,z
1/2+x,1/2-y,z
loop_
_atom_site_type_symbol
_atom_site_label
_atom_site_fract_x
_atom_site_fract_y
_atom_site_fract_z
Si Si1 0.213322 0.044059 0.304859
Si Si2 0.204111 0.210136 0.316409
Si Si3 0.224299 0.958445 0.697346
Si Si4 0.176294 0.127076 0.192175
Si Si5 0.319469 0.292495 0.814605
Si Si6 0.759053 0.127183 0.692145
O O1 0.242317 0.045605 0.500000
O O2 0.275001 0.085924 0.233254
O O3 0.994483 0.042281 0.275625
O O4 0.287939 0.001704 0.243332
O O5 0.271892 0.216104 0.500000
O O6 0.270216 0.167863 0.248283
O O7 0.236267 0.249301 0.210125
O O8 0.986088 0.206426 0.310728
O O9 0.250007 0.958286 0.500000
O O10 0.300302 0.916220 0.757394
O O11 0.979765 0.125622 0.282866
O O12 0.142017 0.128783 0.000000
O O13 0.202030 0.331829 0.778148
O O14 0.387395 0.296017 0.000000
O O15 0.716781 0.129748 0.500000
#
# Coordination Sequence:
#
# PCOD9424753 Si02
#       6
#     8   8   8   8   8   8
#     4   8  12  21  34  50  74 109 146 180 217 266
#     4  11  21  35  52  70  92 126 164 196 231 284
#     4   7  11  19  34  52  74 106 146 182 215 259
#     4  10  17  25  37  58  85 114 146 187 232 273
#     4  11  21  34  50  72  98 124 154 198 245 282
#     4   9  15  26  41  58  81 115 152 185 222 274
#
# _framework density 23.716804
#
# number of rings (size 3 to 8) (size 9 to 14) (size 15 to 20)
#    0.000    2.667    0.000    9.000    0.000    0.000 
#    0.000    7.500    0.000    0.000    0.000    0.000 
#    0.000    1.333    0.000   14.333    0.000   14.667 
#
# Total GULP energy -267621.757400 kJ/mol
# GULP energy per Si atom -5575.453279 kJ/mol
# Density = 2.366282 g / cm^3
# Si number density = 23.716804 Si / 1000 Ang^3
#
#
#
# Elastic Constant Matrix: (Units=GPa)
#
#
# Indices 1 2 3 4 5 6 
#
# 1 57.7607 13.8770 -8.9270 0.0000 0.0000 0.0000
# 2 13.8770 308.7373 39.1851 0.0000 0.0000 0.0000
# 3 -8.9270 39.1851 59.4204 0.0000 0.0000 0.0000
# 4 0.0000 0.0000 0.0000 -83.8977 0.0000 0.0000
# 5 0.0000 0.0000 0.0000 0.0000 -1.2114 0.0000
# 6 0.0000 0.0000 0.0000 0.0000 0.0000 -1.5141
#
#
#
# Elastic Compliance Matrix: (Units=1/GPa)
#
#
# Indices 1 2 3 4 5 6 
#
# 1 0.018169 -0.001269 0.003567 0.000000 0.000000 0.000000
# 2 -0.001269 0.003624 -0.002580 0.000000 0.000000 0.000000
# 3 0.003567 -0.002580 0.019067 0.000000 0.000000 0.000000
# 4 0.000000 0.000000 0.000000 -0.011919 0.000000 0.000000
# 5 0.000000 0.000000 0.000000 0.000000 -0.825519 0.000000
# 6 0.000000 0.000000 0.000000 0.000000 0.000000 -0.660466
#
#
# Mechanical properties :
#
#
# Convention : Reuss Voigt Hill
#
# Bulk Modulus (GPa) = 24.81800 57.13207 40.97504
# Shear Modulus (GPa) = -3.46489 8.12759 2.33135
#
# Velocity S-wave (km/s) = -1.21001 1.85321 0.99254
# Velocity P-wave (km/s) = 2.92145 5.35917 4.31599
#
# Compressibility (1/GPa) = 0.04029333
#
# Stress axis : x y z
#
# Youngs Moduli (GPa) = 55.03883 275.97311 52.44762
#
# Poissons Ratio (x) = 0.35030 -0.18706
# Poissons Ratio (y) = 0.06986 0.13533
# Poissons Ratio (z) = -0.19631 0.71208
#
# Static dielectric constant tensor:
#      x y z
#    x 2.082920 0.000000 0.000000 
#    y 0.000000 2.031250 0.000000 
#    z 0.000000 0.000000 1.787830 
# 
# From -- ./inp_files/4366.got.cif
#   From: 2010.05.17/outbox.cif.g08.bks.cpg/sg55_3_cif.got.tgz:4366.got - 2010.06.03 13:27:54.
