data_PCOD9424212
_publ_section_title
;
Structure prediction by ZEFSAII (Michael W. Deem and Ramdas Pophale) SiO2 
 PCOD9424212
Probable space group: P C C A
;
_chemical_formula_sum "Si O2"
_cell_formula_units_Z 32
_cell_length_a 5.181474
_cell_length_b 8.902476
_cell_length_c 30.323901
_cell_angle_alpha 90.000000
_cell_angle_beta 90.000000
_cell_angle_gamma 90.000000
_cell_volume 1398.779326
_symmetry_space_group_name_H-M "P C C A"
_symmetry_group_IT_number 54
_symmetry_cell_setting 'orthorhombic'
loop_
_space_group_symop_operation_xyz
x,y,z
1/2-x,-y,z
1/2+x,-y,1/2-z
-x,y,1/2-z
-x,-y,-z
1/2+x,y,-z
1/2-x,y,1/2+z
x,-y,1/2+z
loop_
_atom_site_type_symbol
_atom_site_label
_atom_site_fract_x
_atom_site_fract_y
_atom_site_fract_z
Si Si1 0.187709 0.179081 0.521259
Si Si2 0.826309 0.826179 0.208457
Si Si3 0.665029 0.172990 0.379858
Si Si4 0.497800 0.399604 0.666144
O O1 0.473394 0.240926 0.512172
O O2 0.074166 0.198365 0.570304
O O3 0.250000 0.000000 0.515520
O O4 0.584889 0.716718 0.203521
O O5 0.000000 0.784489 0.250000
O O6 0.974981 0.809306 0.161655
O O7 0.750000 0.000000 0.213212
O O8 0.897106 0.290082 0.372334
O O9 0.750000 0.000000 0.377636
O O10 0.750000 0.500000 0.656083
O O11 0.250000 0.500000 0.678170
#
# Coordination Sequence:
#
# PCOD9424212 Si02
#       4
#     8   8   8   8
#     4   9  20  35  63 103 140 176 232 300 358 413
#     4  12  27  47  77 110 145 189 245 297 352 427
#     4  11  23  44  74 105 144 193 242 298 359 424
#     4  12  27  49  72 106 145 190 239 293 357 427
#
# _framework density 22.877091
#
# number of rings (size 3 to 8) (size 9 to 14) (size 15 to 20)
#    0.000    1.000    5.000    0.750    3.500    1.000 
#    4.500    0.000    0.000    4.500    0.000    0.000 
#    0.000    0.000    0.000    0.000    0.000    0.000 
#
# Total GULP energy -178719.772897 kJ/mol
# GULP energy per Si atom -5584.992903 kJ/mol
# Density = 2.282502 g / cm^3
# Si number density = 22.877091 Si / 1000 Ang^3
#
#
#
# Elastic Constant Matrix: (Units=GPa)
#
#
# Indices 1 2 3 4 5 6 
#
# 1 136.8852 41.9747 43.1749 0.0000 0.0000 0.0000
# 2 41.9747 120.8942 1.0294 0.0000 0.0000 0.0000
# 3 43.1749 1.0294 115.7061 0.0000 0.0000 0.0000
# 4 0.0000 0.0000 0.0000 738.5691 0.0000 0.0000
# 5 0.0000 0.0000 0.0000 0.0000 39.6854 0.0000
# 6 0.0000 0.0000 0.0000 0.0000 0.0000 28.0925
#
#
#
# Elastic Compliance Matrix: (Units=1/GPa)
#
#
# Indices 1 2 3 4 5 6 
#
# 1 0.009393 -0.003232 -0.003476 0.000000 0.000000 0.000000
# 2 -0.003232 0.009384 0.001122 0.000000 0.000000 0.000000
# 3 -0.003476 0.001122 0.009930 0.000000 0.000000 0.000000
# 4 0.000000 0.000000 0.000000 0.001354 0.000000 0.000000
# 5 0.000000 0.000000 0.000000 0.000000 0.025198 0.000000
# 6 0.000000 0.000000 0.000000 0.000000 0.000000 0.035597
#
#
# Mechanical properties :
#
#
# Convention : Reuss Voigt Hill
#
# Bulk Modulus (GPa) = 57.02571 60.64927 58.83749
# Shear Modulus (GPa) = 46.35154 180.42317 113.38736
#
# Velocity S-wave (km/s) = 4.50612 8.89030 7.04779
# Velocity P-wave (km/s) = 7.21489 11.48703 9.59183
#
# Compressibility (1/GPa) = 0.01753595
#
# Stress axis : x y z
#
# Youngs Moduli (GPa) = 106.46548 106.56273 100.70819
#
# Poissons Ratio (x) = 0.34436 0.35007
# Poissons Ratio (y) = 0.34405 -0.11303
# Poissons Ratio (z) = 0.37008 -0.11960
#
# Static dielectric constant tensor:
#      x y z
#    x 1.866920 0.000000 0.000000 
#    y 0.000000 1.877280 0.000000 
#    z 0.000000 0.000000 1.863180 
# 
# From -- ./inp_files/26934.got.cif
#   From: 2010.05.17/outbox.cif.g08.bks.cpg/sg54_14_cif.got.tgz:26934.got - 2010.06.03 13:09:01.
