data_PCOD9424580
_publ_section_title
;
Structure prediction by ZEFSAII (Michael W. Deem and Ramdas Pophale) SiO2 
 PCOD9424580
Probable space group: P C C A
;
_chemical_formula_sum "Si O2"
_cell_formula_units_Z 40
_cell_length_a 10.066593
_cell_length_b 19.410972
_cell_length_c 8.678063
_cell_angle_alpha 90.000000
_cell_angle_beta 90.000000
_cell_angle_gamma 90.000000
_cell_volume 1695.713946
_symmetry_space_group_name_H-M "P C C A"
_symmetry_group_IT_number 54
_symmetry_cell_setting 'orthorhombic'
loop_
_space_group_symop_operation_xyz
x,y,z
1/2-x,-y,z
1/2+x,-y,1/2-z
-x,y,1/2-z
-x,-y,-z
1/2+x,y,-z
1/2-x,y,1/2+z
x,-y,1/2+z
loop_
_atom_site_type_symbol
_atom_site_label
_atom_site_fract_x
_atom_site_fract_y
_atom_site_fract_z
Si Si1 0.481666 0.742481 0.076916
Si Si2 0.500000 0.928746 0.250000
Si Si3 0.744345 0.343072 0.517549
Si Si4 0.250000 0.000000 0.837599
Si Si5 0.151651 0.562295 0.225506
Si Si6 0.564515 0.878647 0.579774
O O1 0.500000 0.771488 0.250000
O O2 0.625503 0.712572 0.030112
O O3 0.369044 0.683869 0.082241
O O4 0.419160 0.797685 0.957882
O O5 0.630006 0.974163 0.265435
O O6 0.483937 0.897950 0.423144
O O7 0.676588 0.410401 0.445553
O O8 0.812692 0.370493 0.672772
O O9 0.188163 0.068392 0.917745
O O10 0.250000 0.500000 0.257535
O O11 0.000000 0.542113 0.250000
O O12 0.500000 0.883250 0.750000
#
# Coordination Sequence:
#
# PCOD9424580 Si02
#       6
#     8   4   8   4   8   8
#     4  12  28  51  79 112 157 208 266 332 404 482
#     4  12  28  52  76 112 156 204 258 330 404 478
#     4  12  27  49  76 112 155 206 264 330 397 472
#     4  12  28  54  80 116 160 208 268 334 408 498
#     4  12  28  47  78 115 159 209 267 327 395 469
#     4  12  30  49  83 118 158 209 268 333 413 492
#
# _framework density 23.588882000000002
#
# number of rings (size 3 to 8) (size 9 to 14) (size 15 to 20)
#    0.000    0.000    6.000    1.800   11.200    1.600 
#    0.000    0.000    0.000    0.000    0.000    0.000 
#    0.000    0.000    0.000    0.000    0.000    0.000 
#
# Total GULP energy -223101.899485 kJ/mol
# GULP energy per Si atom -5577.547487 kJ/mol
# Density = 2.353519 g / cm^3
# Si number density = 23.588882 Si / 1000 Ang^3
#
#
#
# Elastic Constant Matrix: (Units=GPa)
#
#
# Indices 1 2 3 4 5 6 
#
# 1 165.9949 39.0382 34.7580 0.0000 0.0000 0.0000
# 2 39.0382 79.6568 26.9681 0.0000 0.0000 0.0000
# 3 34.7580 26.9681 111.1803 0.0000 0.0000 0.0000
# 4 0.0000 0.0000 0.0000 75.4521 0.0000 0.0000
# 5 0.0000 0.0000 0.0000 0.0000 25.8205 0.0000
# 6 0.0000 0.0000 0.0000 0.0000 0.0000 33.4977
#
#
#
# Elastic Compliance Matrix: (Units=1/GPa)
#
#
# Indices 1 2 3 4 5 6 
#
# 1 0.007027 -0.002941 -0.001483 0.000000 0.000000 0.000000
# 2 -0.002941 0.014908 -0.002697 0.000000 0.000000 0.000000
# 3 -0.001483 -0.002697 0.010112 0.000000 0.000000 0.000000
# 4 0.000000 0.000000 0.000000 0.013253 0.000000 0.000000
# 5 0.000000 0.000000 0.000000 0.000000 0.038729 0.000000
# 6 0.000000 0.000000 0.000000 0.000000 0.000000 0.029853
#
#
# Mechanical properties :
#
#
# Convention : Reuss Voigt Hill
#
# Bulk Modulus (GPa) = 56.16538 62.04007 59.10272
# Shear Modulus (GPa) = 37.29678 44.02524 40.66101
#
# Velocity S-wave (km/s) = 3.98064 4.32482 4.15629
# Velocity P-wave (km/s) = 6.70739 7.16215 6.93850
#
# Compressibility (1/GPa) = 0.01780456
#
# Stress axis : x y z
#
# Youngs Moduli (GPa) = 142.31600 67.07653 98.89047
#
# Poissons Ratio (x) = 0.19730 0.14668
# Poissons Ratio (y) = 0.41861 0.26667
# Poissons Ratio (z) = 0.21109 0.18088
#
# Static dielectric constant tensor:
#      x y z
#    x 1.796640 0.000000 0.000000 
#    y 0.000000 1.992230 0.000000 
#    z 0.000000 0.000000 1.923200 
# 
# From -- ./inp_files/2545.got.cif
#   From: 2010.05.17/outbox.cif.g08.bks.cpg/sg54_2_cif.got.tgz:2545.got - 2010.06.03 13:09:01.
