data_PCOD9424969
_publ_section_title
;
Structure prediction by ZEFSAII (Michael W. Deem and Ramdas Pophale) SiO2 
 PCOD9424969
Probable space group: P B A M
;
_chemical_formula_sum "Si O2"
_cell_formula_units_Z 64
_cell_length_a 27.318448
_cell_length_b 19.018001
_cell_length_c 8.542292
_cell_angle_alpha 90.000000
_cell_angle_beta 90.000000
_cell_angle_gamma 90.000000
_cell_volume 4438.081788
_symmetry_space_group_name_H-M "P B A M"
_symmetry_group_IT_number 55
_symmetry_cell_setting 'orthorhombic'
loop_
_space_group_symop_operation_xyz
x,y,z
-x,-y,z
1/2+x,1/2-y,-z
1/2-x,1/2+y,-z
-x,-y,-z
x,y,-z
1/2-x,1/2+y,z
1/2+x,1/2-y,z
loop_
_atom_site_type_symbol
_atom_site_label
_atom_site_fract_x
_atom_site_fract_y
_atom_site_fract_z
Si Si1 0.254710 0.926486 0.190344
Si Si2 0.761122 0.417471 0.315417
Si Si3 0.445685 0.077143 0.686102
Si Si4 0.703336 0.293939 0.818870
Si Si5 0.947154 0.579286 0.188002
Si Si6 0.196403 0.797747 0.818825
Si Si7 0.855654 0.336459 0.188574
Si Si8 0.649042 0.160707 0.809135
O O1 0.211935 0.873305 0.247482
O O2 0.306780 0.891616 0.237211
O O3 0.250858 0.004819 0.252812
O O4 0.253639 0.927130 0.000000
O O5 0.769222 0.418867 0.500000
O O6 0.717381 0.363499 0.274287
O O7 0.810075 0.386278 0.235145
O O8 0.444197 0.069767 0.500000
O O9 0.500365 0.097596 0.739202
O O10 0.405004 0.131560 0.743294
O O11 0.435594 0.000774 0.762205
O O12 0.752682 0.246211 0.819528
O O13 0.662318 0.239923 0.757796
O O14 0.693220 0.312539 0.000000
O O15 0.902920 0.629595 0.239545
O O16 0.950967 0.581693 0.000000
O O17 0.157573 0.742322 0.751438
O O18 0.182433 0.809513 0.000000
O O19 0.858107 0.334612 0.000000
O O20 0.649871 0.162568 0.000000
#
# Coordination Sequence:
#
# PCOD9424969 Si02
#       8
#     8   8   8   8   8   8   8   8
#     4   9  15  27  44  61  81 109 138 168 203 242
#     4  11  20  27  37  61  89 112 137 167 200 243
#     4  11  21  31  41  60  87 112 138 174 210 244
#     4   8  14  28  44  58  77 105 136 170 204 238
#     4  10  18  30  46  63  82 111 145 176 206 241
#     4   7  13  25  43  61  76  98 136 174 203 236
#     4  10  18  31  47  60  76 107 144 176 207 244
#     4   8  15  27  46  64  77 100 143 181 204 234
#
# _framework density 14.420643999999999
#
# number of rings (size 3 to 8) (size 9 to 14) (size 15 to 20)
#    0.000    2.750    0.000    6.750    0.000    1.000 
#    0.000    8.125    0.000    0.000    0.000    0.000 
#    0.000    1.000    0.000   11.500    0.000    4.500 
#
# Total GULP energy -356391.519147 kJ/mol
# GULP energy per Si atom -5568.617487 kJ/mol
# Density = 1.438782 g / cm^3
# Si number density = 14.420644 Si / 1000 Ang^3
#
#
#
# Elastic Constant Matrix: (Units=GPa)
#
#
# Indices 1 2 3 4 5 6 
#
# 1 75.0691 46.0385 3.5217 0.0000 0.0000 0.0000
# 2 46.0385 98.2329 7.7247 0.0000 0.0000 0.0000
# 3 3.5217 7.7247 27.2094 0.0000 0.0000 0.0000
# 4 0.0000 0.0000 0.0000 -13.1606 0.0000 0.0000
# 5 0.0000 0.0000 0.0000 0.0000 6.2933 0.0000
# 6 0.0000 0.0000 0.0000 0.0000 0.0000 28.5490
#
#
#
# Elastic Compliance Matrix: (Units=1/GPa)
#
#
# Indices 1 2 3 4 5 6 
#
# 1 0.018694 -0.008767 0.000069 0.000000 0.000000 0.000000
# 2 -0.008767 0.014524 -0.002989 0.000000 0.000000 0.000000
# 3 0.000069 -0.002989 0.037591 0.000000 0.000000 0.000000
# 4 0.000000 0.000000 0.000000 -0.075985 0.000000 0.000000
# 5 0.000000 0.000000 0.000000 0.000000 0.158898 0.000000
# 6 0.000000 0.000000 0.000000 0.000000 0.000000 0.035027
#
#
# Mechanical properties :
#
#
# Convention : Reuss Voigt Hill
#
# Bulk Modulus (GPa) = 21.08049 35.00903 28.04476
# Shear Modulus (GPa) = 21.93603 13.88479 17.91041
#
# Velocity S-wave (km/s) = 3.90443 3.10633 3.52802
# Velocity P-wave (km/s) = 5.91406 6.09881 6.00714
#
# Compressibility (1/GPa) = 0.04743723
#
# Stress axis : x y z
#
# Youngs Moduli (GPa) = 53.49205 68.85320 26.60177
#
# Poissons Ratio (x) = 0.60363 -0.00184
# Poissons Ratio (y) = 0.46896 0.07950
# Poissons Ratio (z) = -0.00371 0.20577
#
# Static dielectric constant tensor:
#      x y z
#    x 1.470420 0.000000 0.000000 
#    y 0.000000 1.487110 0.000000 
#    z 0.000000 0.000000 1.480930 
# 
# From -- ./inp_files/10304.got.cif
#   From: 2010.05.17/outbox.cif.g08.bks.cpg/sg55_6_cif.got.tgz:10304.got - 2010.06.03 13:27:54.
