data_PCOD9424954
_publ_section_title
;
Structure prediction by ZEFSAII (Michael W. Deem and Ramdas Pophale) SiO2 
 PCOD9424954
Probable space group: P B A M
;
_chemical_formula_sum "Si O2"
_cell_formula_units_Z 58
_cell_length_a 14.770921
_cell_length_b 23.045694
_cell_length_c 7.387385
_cell_angle_alpha 90.000000
_cell_angle_beta 90.000000
_cell_angle_gamma 90.000000
_cell_volume 2514.711105
_symmetry_space_group_name_H-M "P B A M"
_symmetry_group_IT_number 55
_symmetry_cell_setting 'orthorhombic'
loop_
_space_group_symop_operation_xyz
x,y,z
-x,-y,z
1/2+x,1/2-y,-z
1/2-x,1/2+y,-z
-x,-y,-z
x,y,-z
1/2-x,1/2+y,z
1/2+x,1/2-y,z
loop_
_atom_site_type_symbol
_atom_site_label
_atom_site_fract_x
_atom_site_fract_y
_atom_site_fract_z
Si Si1 0.000000 0.500000 0.500000
Si Si2 0.123974 0.052554 0.781044
Si Si3 0.080213 0.923113 0.782950
Si Si4 0.834967 0.202303 0.713612
Si Si5 0.557028 0.812443 0.278278
Si Si6 0.654240 0.042809 0.703758
Si Si7 0.682797 0.918072 0.291605
Si Si8 0.148022 0.332016 0.722512
O O1 0.952170 0.540759 0.344554
O O2 0.209055 0.089375 0.709677
O O3 0.024953 0.074897 0.723322
O O4 0.126426 0.984141 0.725621
O O5 0.127717 0.054928 0.000000
O O6 0.127202 0.862876 0.733961
O O7 0.078937 0.926086 0.000000
O O8 0.829702 0.212972 0.500000
O O9 0.900561 0.251871 0.785567
O O10 0.731857 0.207255 0.781010
O O11 0.556608 0.813439 0.500000
O O12 0.623087 0.865384 0.221977
O O13 0.453108 0.817549 0.220100
O O14 0.697278 0.042264 0.500000
O O15 0.674308 0.103589 0.789270
O O16 0.673320 0.981660 0.795321
O O17 0.648324 0.928717 0.500000
O O18 0.147151 0.333924 0.500000
#
# Coordination Sequence:
#
# PCOD9424954 Si02
#       8
#     2   8   8   8   8   8   8   8
#     4   8  12  20  36  64  94 118 156 200 230 284
#     4   9  19  35  54  77 103 135 167 209 267 318
#     4   9  19  37  57  73  98 136 175 207 256 322
#     4  10  20  33  51  77 102 132 175 218 253 292
#     4   9  19  31  46  72 109 143 167 203 259 310
#     4   8  14  21  40  68  95 123 161 203 242 285
#     4  10  18  29  49  79 109 132 172 214 254 302
#     4   9  16  28  46  68 102 135 164 204 252 304
#
# _framework density 23.064278999999999
#
# number of rings (size 3 to 8) (size 9 to 14) (size 15 to 20)
#    0.414    2.483    0.000    2.483    1.931    3.310 
#    0.000    4.828    0.000    1.655    0.000    5.310 
#    0.000    0.000    0.000    0.000    0.000    0.000 
#
# Total GULP energy -322914.120595 kJ/mol
# GULP energy per Si atom -5567.484838 kJ/mol
# Density = 2.301178 g / cm^3
# Si number density = 23.064279 Si / 1000 Ang^3
#
#
#
# Elastic Constant Matrix: (Units=GPa)
#
#
# Indices 1 2 3 4 5 6 
#
# 1 175.2644 96.8950 4.3144 0.0000 0.0000 0.0000
# 2 96.8950 117.5635 -0.3778 0.0000 0.0000 0.0000
# 3 4.3144 -0.3778 79.9808 0.0000 0.0000 0.0000
# 4 0.0000 0.0000 0.0000 -4.7510 0.0000 0.0000
# 5 0.0000 0.0000 0.0000 0.0000 61.1578 0.0000
# 6 0.0000 0.0000 0.0000 0.0000 0.0000 26.9376
#
#
#
# Elastic Compliance Matrix: (Units=1/GPa)
#
#
# Indices 1 2 3 4 5 6 
#
# 1 0.010511 -0.008665 -0.000608 0.000000 0.000000 0.000000
# 2 -0.008665 0.015650 0.000541 0.000000 0.000000 0.000000
# 3 -0.000608 0.000541 0.012538 0.000000 0.000000 0.000000
# 4 0.000000 0.000000 0.000000 -0.210483 0.000000 0.000000
# 5 0.000000 0.000000 0.000000 0.000000 0.016351 0.000000
# 6 0.000000 0.000000 0.000000 0.000000 0.000000 0.037123
#
#
# Mechanical properties :
#
#
# Convention : Reuss Voigt Hill
#
# Bulk Modulus (GPa) = 47.09087 63.83023 55.46055
# Shear Modulus (GPa) = -53.32337 34.80070 -9.26133
#
# Velocity S-wave (km/s) = -4.81349 3.88862 -2.00603
# Velocity P-wave (km/s) = 3.22975 6.92075 4.32813
#
# Compressibility (1/GPa) = 0.02123554
#
# Stress axis : x y z
#
# Youngs Moduli (GPa) = 95.13675 63.89952 79.75533
#
# Poissons Ratio (x) = 0.55370 0.04849
# Poissons Ratio (y) = 0.82438 -0.04318
# Poissons Ratio (z) = 0.05784 -0.03459
#
# Static dielectric constant tensor:
#      x y z
#    x 1.552950 0.000000 0.000000 
#    y 0.000000 1.439020 0.000000 
#    z 0.000000 0.000000 1.975130 
# 
# From -- ./inp_files/6478.got.cif
#   From: 2010.05.17/outbox.cif.g08.bks.cpg/sg55_4_cif.got.tgz:6478.got - 2010.06.03 13:27:54.
