data_PCOD9424557
_publ_section_title
;
Structure prediction by ZEFSAII (Michael W. Deem and Ramdas Pophale) SiO2 
 PCOD9424557
Probable space group: P C C A
;
_chemical_formula_sum "Si O2"
_cell_formula_units_Z 36
_cell_length_a 7.917204
_cell_length_b 9.243725
_cell_length_c 22.605449
_cell_angle_alpha 90.000000
_cell_angle_beta 90.000000
_cell_angle_gamma 90.000000
_cell_volume 1654.367500
_symmetry_space_group_name_H-M "P C C A"
_symmetry_group_IT_number 54
_symmetry_cell_setting 'orthorhombic'
loop_
_space_group_symop_operation_xyz
x,y,z
1/2-x,-y,z
1/2+x,-y,1/2-z
-x,y,1/2-z
-x,-y,-z
1/2+x,y,-z
1/2-x,y,1/2+z
x,-y,1/2+z
loop_
_atom_site_type_symbol
_atom_site_label
_atom_site_fract_x
_atom_site_fract_y
_atom_site_fract_z
Si Si1 0.250000 0.000000 0.664969
Si Si2 0.390223 0.213696 0.565937
Si Si3 0.899834 0.383515 0.654080
Si Si4 0.750000 0.500000 0.884166
Si Si5 0.226032 0.161964 0.936447
Si Si6 0.500000 0.175447 0.250000
O O1 0.161416 0.886400 0.620939
O O2 0.386651 0.920455 0.706240
O O3 0.298798 0.365070 0.575305
O O4 0.590250 0.233072 0.564931
O O5 0.339285 0.146955 0.503132
O O6 0.750000 0.500000 0.650123
O O7 0.893022 0.269340 0.599858
O O8 0.883260 0.281729 0.711213
O O9 0.083229 0.459322 0.653166
O O10 0.250000 0.000000 0.911032
#
# Coordination Sequence:
#
# PCOD9424557 Si02
#       6
#     4   8   8   4   8   4
#     4  12  28  50  74 114 144 210 250 324 376 464
#     4  12  26  46  78 111 158 194 255 318 388 459
#     4  12  28  51  77 112 152 209 256 319 383 454
#     4  12  26  50  74 112 156 196 260 312 386 456
#     4  12  26  46  78 114 155 199 251 320 389 459
#     4  12  30  48  80 106 158 196 270 310 382 458
#
# _framework density 21.760580999999998
#
# number of rings (size 3 to 8) (size 9 to 14) (size 15 to 20)
#    0.000    0.000    5.556    3.333    7.778    1.778 
#    0.000    0.000    0.000    0.000    0.000    0.000 
#    0.000    0.000    0.000    0.000    0.000    0.000 
#
# Total GULP energy -201583.296792 kJ/mol
# GULP energy per Si atom -5599.536022 kJ/mol
# Density = 2.171105 g / cm^3
# Si number density = 21.760581 Si / 1000 Ang^3
#
#
#
# Elastic Constant Matrix: (Units=GPa)
#
#
# Indices 1 2 3 4 5 6 
#
# 1 123.1146 36.5003 30.1204 0.0000 0.0000 0.0000
# 2 36.5003 124.7980 45.8165 0.0000 0.0000 0.0000
# 3 30.1204 45.8165 122.3718 0.0000 0.0000 0.0000
# 4 0.0000 0.0000 0.0000 48.0907 0.0000 0.0000
# 5 0.0000 0.0000 0.0000 0.0000 23.6054 0.0000
# 6 0.0000 0.0000 0.0000 0.0000 0.0000 32.1544
#
#
#
# Elastic Compliance Matrix: (Units=1/GPa)
#
#
# Indices 1 2 3 4 5 6 
#
# 1 0.009108 -0.002134 -0.001443 0.000000 0.000000 0.000000
# 2 -0.002134 0.009790 -0.003140 0.000000 0.000000 0.000000
# 3 -0.001443 -0.003140 0.009703 0.000000 0.000000 0.000000
# 4 0.000000 0.000000 0.000000 0.020794 0.000000 0.000000
# 5 0.000000 0.000000 0.000000 0.000000 0.042363 0.000000
# 6 0.000000 0.000000 0.000000 0.000000 0.000000 0.031100
#
#
# Mechanical properties :
#
#
# Convention : Reuss Voigt Hill
#
# Bulk Modulus (GPa) = 65.93462 66.12874 66.03168
# Shear Modulus (GPa) = 35.37373 37.95992 36.66683
#
# Velocity S-wave (km/s) = 4.03623 4.18117 4.10934
# Velocity P-wave (km/s) = 7.21716 7.33245 7.27503
#
# Compressibility (1/GPa) = 0.01516654
#
# Stress axis : x y z
#
# Youngs Moduli (GPa) = 109.79058 102.14542 103.06503
#
# Poissons Ratio (x) = 0.21800 0.14870
# Poissons Ratio (y) = 0.23432 0.32363
# Poissons Ratio (z) = 0.15841 0.32075
#
# Static dielectric constant tensor:
#      x y z
#    x 1.781320 0.000000 0.000000 
#    y 0.000000 1.789740 0.000000 
#    z 0.000000 0.000000 1.773060 
# 
# From -- ./inp_files/20169.got.cif
#   From: 2010.05.17/outbox.cif.g08.bks.cpg/sg54_11_cif.got.tgz:20169.got - 2010.06.03 13:09:01.
