data_PCOD9424055
_publ_section_title
;
Structure prediction by ZEFSAII (Michael W. Deem and Ramdas Pophale) SiO2 
 PCOD9424055
Probable space group: P C C A
;
_chemical_formula_sum "Si O2"
_cell_formula_units_Z 48
_cell_length_a 33.753608
_cell_length_b 7.610056
_cell_length_c 8.828298
_cell_angle_alpha 90.000000
_cell_angle_beta 90.000000
_cell_angle_gamma 90.000000
_cell_volume 2267.697072
_symmetry_space_group_name_H-M "P C C A"
_symmetry_group_IT_number 54
_symmetry_cell_setting 'orthorhombic'
loop_
_space_group_symop_operation_xyz
x,y,z
1/2-x,-y,z
1/2+x,-y,1/2-z
-x,y,1/2-z
-x,-y,-z
1/2+x,y,-z
1/2-x,y,1/2+z
x,-y,1/2+z
loop_
_atom_site_type_symbol
_atom_site_label
_atom_site_fract_x
_atom_site_fract_y
_atom_site_fract_z
Si Si1 0.866090 0.417760 0.289517
Si Si2 0.220609 0.839946 0.419263
Si Si3 0.971437 0.078005 0.871546
Si Si4 0.223826 0.641981 0.708943
Si Si5 0.418233 0.118291 0.863102
Si Si6 0.368283 0.759608 0.878990
O O1 0.819650 0.416826 0.243831
O O2 0.889571 0.271804 0.193523
O O3 0.868818 0.352173 0.463711
O O4 0.879198 0.616220 0.249287
O O5 0.216728 0.804632 0.597189
O O6 0.245746 0.690900 0.338232
O O7 0.176129 0.836904 0.355572
O O8 0.250000 0.000000 0.396984
O O9 0.000000 0.175655 0.750000
O O10 0.949615 0.928683 0.770708
O O11 0.938909 0.169764 0.978027
O O12 0.000000 0.000000 0.000000
O O13 0.250000 0.500000 0.619942
O O14 0.396254 0.930224 0.886978
#
# Coordination Sequence:
#
# PCOD9424055 Si02
#       6
#     8   8   8   8   8   8
#     4  11  25  40  64  95 135 180 224 282 334 391
#     4  11  23  39  59  86 121 170 228 275 326 386
#     4   9  20  40  73 102 129 176 215 268 340 412
#     4  11  22  40  58  83 125 175 219 272 330 379
#     4  11  21  43  68 100 134 171 224 267 335 407
#     4  11  25  41  62  98 133 177 223 280 338 388
#
# _framework density 21.166848999999999
#
# number of rings (size 3 to 8) (size 9 to 14) (size 15 to 20)
#    0.000    1.333    3.333    2.000    4.667    1.333 
#    0.000    0.000    0.000   20.000    0.000    0.000 
#    0.000    0.000    0.000    0.000    0.000    0.000 
#
# Total GULP energy -267550.210304 kJ/mol
# GULP energy per Si atom -5573.962715 kJ/mol
# Density = 2.111867 g / cm^3
# Si number density = 21.166849 Si / 1000 Ang^3
#
#
#
# Elastic Constant Matrix: (Units=GPa)
#
#
# Indices 1 2 3 4 5 6 
#
# 1 113.7029 44.5737 46.1986 0.0000 0.0000 0.0000
# 2 44.5737 86.2522 21.1391 0.0000 0.0000 0.0000
# 3 46.1986 21.1391 91.0929 0.0000 0.0000 0.0000
# 4 0.0000 0.0000 0.0000 24.6729 0.0000 0.0000
# 5 0.0000 0.0000 0.0000 0.0000 69.1408 0.0000
# 6 0.0000 0.0000 0.0000 0.0000 0.0000 15.8924
#
#
#
# Elastic Compliance Matrix: (Units=1/GPa)
#
#
# Indices 1 2 3 4 5 6 
#
# 1 0.013126 -0.005462 -0.005389 0.000000 0.000000 0.000000
# 2 -0.005462 0.014566 -0.000610 0.000000 0.000000 0.000000
# 3 -0.005389 -0.000610 0.013853 0.000000 0.000000 0.000000
# 4 0.000000 0.000000 0.000000 0.040530 0.000000 0.000000
# 5 0.000000 0.000000 0.000000 0.000000 0.014463 0.000000
# 6 0.000000 0.000000 0.000000 0.000000 0.000000 0.062923
#
#
# Mechanical properties :
#
#
# Convention : Reuss Voigt Hill
#
# Bulk Modulus (GPa) = 53.70158 57.20786 55.45472
# Shear Modulus (GPa) = 26.51227 33.88367 30.19797
#
# Velocity S-wave (km/s) = 3.54296 4.00533 3.78122
# Velocity P-wave (km/s) = 6.49326 6.96247 6.73195
#
# Compressibility (1/GPa) = 0.01862143
#
# Stress axis : x y z
#
# Youngs Moduli (GPa) = 76.18488 68.65167 72.18859
#
# Poissons Ratio (x) = 0.37500 0.38905
# Poissons Ratio (y) = 0.41615 0.04403
# Poissons Ratio (z) = 0.41059 0.04187
#
# Static dielectric constant tensor:
#      x y z
#    x 1.769710 0.000000 0.000000 
#    y 0.000000 1.386070 0.000000 
#    z 0.000000 0.000000 1.785750 
# 
# From -- ./inp_files/5816.got.cif
#   From: 2010.05.17/outbox.cif.g08.bks.cpg/sg54_3_cif.got.tgz:5816.got - 2010.06.03 13:09:01.
