data_PCOD9424814
_publ_section_title
;
Structure prediction by ZEFSAII (Michael W. Deem and Ramdas Pophale) SiO2 
 PCOD9424814
Probable space group: P B A M
;
_chemical_formula_sum "Si O2"
_cell_formula_units_Z 64
_cell_length_a 13.732819
_cell_length_b 22.455284
_cell_length_c 8.417642
_cell_angle_alpha 90.000000
_cell_angle_beta 90.000000
_cell_angle_gamma 90.000000
_cell_volume 2595.784887
_symmetry_space_group_name_H-M "P B A M"
_symmetry_group_IT_number 55
_symmetry_cell_setting 'orthorhombic'
loop_
_space_group_symop_operation_xyz
x,y,z
-x,-y,z
1/2+x,1/2-y,-z
1/2-x,1/2+y,-z
-x,-y,-z
x,y,-z
1/2-x,1/2+y,z
1/2+x,1/2-y,z
loop_
_atom_site_type_symbol
_atom_site_label
_atom_site_fract_x
_atom_site_fract_y
_atom_site_fract_z
Si Si1 0.371004 0.713595 0.691742
Si Si2 0.619484 0.031277 0.809159
Si Si3 0.982508 0.904970 0.311838
Si Si4 0.163481 0.847394 0.183493
Si Si5 0.140904 0.723405 0.686221
Si Si6 0.377711 0.842769 0.685799
Si Si7 0.118338 0.597971 0.813391
Si Si8 0.689594 0.473608 0.814985
O O1 0.382306 0.714721 0.500000
O O2 0.423760 0.654083 0.745538
O O3 0.255704 0.713340 0.721064
O O4 0.407787 0.777952 0.751428
O O5 0.585807 0.096618 0.763921
O O6 0.579949 0.966632 0.753279
O O7 0.734761 0.025021 0.762710
O O8 0.615384 0.026851 0.000000
O O9 0.999130 0.901698 0.500000
O O10 0.908648 0.958834 0.276458
O O11 0.085777 0.898342 0.226120
O O12 0.114243 0.782609 0.217048
O O13 0.260477 0.845156 0.289284
O O14 0.192847 0.852251 0.000000
O O15 0.126675 0.736459 0.500000
O O16 0.096086 0.658998 0.725049
O O17 0.399459 0.845106 0.500000
O O18 0.234879 0.582614 0.802642
O O19 0.095848 0.605040 0.000000
O O20 0.666210 0.481935 0.000000
#
# Coordination Sequence:
#
# PCOD9424814 Si02
#       8
#     8   8   8   8   8   8   8   8
#     4   8  16  28  46  69  93 119 149 193 240 281
#     4   8  16  30  47  70  99 129 160 196 235 280
#     4  11  19  32  50  71  96 125 161 199 242 286
#     4  11  23  35  47  66  98 134 161 194 242 291
#     4  10  17  30  49  73  96 120 158 199 242 284
#     4  10  19  33  50  72  98 126 161 199 239 285
#     4   8  15  27  46  70  96 123 154 192 233 277
#     4   8  16  29  46  68  95 123 156 193 230 275
#
# _framework density 24.655356999999999
#
# number of rings (size 3 to 8) (size 9 to 14) (size 15 to 20)
#    0.750    2.000    1.250    3.000    0.000    1.000 
#    0.000    2.500    0.000    3.750    0.000    0.875 
#    0.000    7.000    0.000    0.000    0.000    0.000 
#
# Total GULP energy -357408.303539 kJ/mol
# GULP energy per Si atom -5584.504743 kJ/mol
# Density = 2.459924 g / cm^3
# Si number density = 24.655357 Si / 1000 Ang^3
#
#
#
# Elastic Constant Matrix: (Units=GPa)
#
#
# Indices 1 2 3 4 5 6 
#
# 1 85.6787 22.9338 -5.6936 0.0000 0.0000 0.0000
# 2 22.9338 136.4367 4.6958 0.0000 0.0000 0.0000
# 3 -5.6936 4.6958 30.4654 0.0000 0.0000 0.0000
# 4 0.0000 0.0000 0.0000 34.0929 0.0000 0.0000
# 5 0.0000 0.0000 0.0000 0.0000 2.9478 0.0000
# 6 0.0000 0.0000 0.0000 0.0000 0.0000 49.8039
#
#
#
# Elastic Compliance Matrix: (Units=1/GPa)
#
#
# Indices 1 2 3 4 5 6 
#
# 1 0.012432 -0.002181 0.002660 0.000000 0.000000 0.000000
# 2 -0.002181 0.007751 -0.001602 0.000000 0.000000 0.000000
# 3 0.002660 -0.001602 0.033568 0.000000 0.000000 0.000000
# 4 0.000000 0.000000 0.000000 0.029332 0.000000 0.000000
# 5 0.000000 0.000000 0.000000 0.000000 0.339233 0.000000
# 6 0.000000 0.000000 0.000000 0.000000 0.000000 0.020079
#
#
# Mechanical properties :
#
#
# Convention : Reuss Voigt Hill
#
# Bulk Modulus (GPa) = 19.41620 32.93920 26.17770
# Shear Modulus (GPa) = 10.82695 32.74526 21.78610
#
# Velocity S-wave (km/s) = 2.09782 3.64829 2.97581
# Velocity P-wave (km/s) = 3.70944 5.57992 4.73791
#
# Compressibility (1/GPa) = 0.05150338
#
# Stress axis : x y z
#
# Youngs Moduli (GPa) = 80.43689 129.01224 29.79015
#
# Poissons Ratio (x) = 0.28141 -0.07923
# Poissons Ratio (y) = 0.17545 0.04774
# Poissons Ratio (z) = -0.21393 0.20673
#
# Static dielectric constant tensor:
#      x y z
#    x 2.138490 0.000000 0.000000 
#    y 0.000000 2.018470 0.000000 
#    z 0.000000 0.000000 1.823930 
# 
# From -- ./inp_files/9210.got.cif
#   From: 2010.05.17/outbox.cif.g08.bks.cpg/sg55_5_cif.got.tgz:9210.got - 2010.06.03 13:27:54.
