data_PCOD9424456
_publ_section_title
;
Structure prediction by ZEFSAII (Michael W. Deem and Ramdas Pophale) SiO2 
 PCOD9424456
Probable space group: P C C A
;
_chemical_formula_sum "Si O2"
_cell_formula_units_Z 52
_cell_length_a 7.724667
_cell_length_b 17.053277
_cell_length_c 18.622953
_cell_angle_alpha 90.000000
_cell_angle_beta 90.000000
_cell_angle_gamma 90.000000
_cell_volume 2453.218100
_symmetry_space_group_name_H-M "P C C A"
_symmetry_group_IT_number 54
_symmetry_cell_setting 'orthorhombic'
loop_
_space_group_symop_operation_xyz
x,y,z
1/2-x,-y,z
1/2+x,-y,1/2-z
-x,y,1/2-z
-x,-y,-z
1/2+x,y,-z
1/2-x,y,1/2+z
x,-y,1/2+z
loop_
_atom_site_type_symbol
_atom_site_label
_atom_site_fract_x
_atom_site_fract_y
_atom_site_fract_z
Si Si1 0.376921 0.065089 0.029434
Si Si2 0.750000 0.500000 0.451100
Si Si3 0.110789 0.562198 0.909461
Si Si4 0.418011 0.127984 0.875470
Si Si5 0.250000 0.000000 0.276383
Si Si6 0.321267 0.136302 0.163948
Si Si7 0.000000 0.727130 0.250000
Si Si8 0.650639 0.705759 0.189649
O O1 0.438493 0.115486 0.095599
O O2 0.250000 0.000000 0.064408
O O3 0.348642 0.115728 0.957069
O O4 0.500000 0.000000 0.000000
O O5 0.675378 0.435249 0.507415
O O6 0.583500 0.528514 0.408456
O O7 0.250000 0.500000 0.877002
O O8 0.106339 0.646042 0.873278
O O9 0.625766 0.142454 0.868377
O O10 0.337641 0.204481 0.837822
O O11 0.374346 0.050176 0.829117
O O12 0.179059 0.931926 0.223691
O O13 0.394767 0.215402 0.196727
O O14 0.842142 0.680780 0.215264
O O15 0.500000 0.702728 0.250000
#
# Coordination Sequence:
#
# PCOD9424456 Si02
#       8
#     8   4   8   8   4   8   4   8
#     4  12  25  41  59  92 127 171 238 307 351 413
#     4   8  18  46  76 112 142 176 228 266 332 424
#     4   9  20  45  77 109 141 182 222 274 339 419
#     4  12  25  45  64  94 137 184 238 299 352 416
#     4  12  22  38  74  90 126 188 244 300 358 416
#     4  12  26  43  64  92 127 186 243 294 364 416
#     4  12  28  46  68  94 140 194 232 284 366 420
#     4  12  26  48  67 104 145 179 236 287 342 425
#
# _framework density 21.196648
#
# number of rings (size 3 to 8) (size 9 to 14) (size 15 to 20)
#    0.462    0.308    6.154    0.462    6.462    1.231 
#    8.308    0.000    0.000    0.000    0.000    0.000 
#    0.000    0.000    0.000    0.000    0.000    0.000 
#
# Total GULP energy -289799.919117 kJ/mol
# GULP energy per Si atom -5573.075368 kJ/mol
# Density = 2.114840 g / cm^3
# Si number density = 21.196648 Si / 1000 Ang^3
#
#
#
# Elastic Constant Matrix: (Units=GPa)
#
#
# Indices 1 2 3 4 5 6 
#
# 1 101.8536 25.5437 10.3779 0.0000 0.0000 0.0000
# 2 25.5437 56.9861 23.9458 0.0000 0.0000 0.0000
# 3 10.3779 23.9458 93.1080 0.0000 0.0000 0.0000
# 4 0.0000 0.0000 0.0000 29.9120 0.0000 0.0000
# 5 0.0000 0.0000 0.0000 0.0000 14.2309 0.0000
# 6 0.0000 0.0000 0.0000 0.0000 0.0000 14.5812
#
#
#
# Elastic Compliance Matrix: (Units=1/GPa)
#
#
# Indices 1 2 3 4 5 6 
#
# 1 0.011062 -0.004978 0.000047 0.000000 0.000000 0.000000
# 2 -0.004978 0.021915 -0.005081 0.000000 0.000000 0.000000
# 3 0.000047 -0.005081 0.012042 0.000000 0.000000 0.000000
# 4 0.000000 0.000000 0.000000 0.033431 0.000000 0.000000
# 5 0.000000 0.000000 0.000000 0.000000 0.070270 0.000000
# 6 0.000000 0.000000 0.000000 0.000000 0.000000 0.068581
#
#
# Mechanical properties :
#
#
# Convention : Reuss Voigt Hill
#
# Bulk Modulus (GPa) = 40.00960 41.29804 40.65382
# Shear Modulus (GPa) = 20.35364 24.55016 22.45190
#
# Velocity S-wave (km/s) = 3.10212 3.40694 3.25810
# Velocity P-wave (km/s) = 5.63447 5.91624 5.77707
#
# Compressibility (1/GPa) = 0.02499400
#
# Stress axis : x y z
#
# Youngs Moduli (GPa) = 90.40225 45.63132 83.04442
#
# Poissons Ratio (x) = 0.22716 -0.00393
# Poissons Ratio (y) = 0.45004 0.42197
# Poissons Ratio (z) = -0.00428 0.23186
#
# Static dielectric constant tensor:
#      x y z
#    x 1.872320 0.000000 0.000000 
#    y 0.000000 2.037030 0.000000 
#    z 0.000000 0.000000 1.890290 
# 
# From -- ./inp_files/16804.got.cif
#   From: 2010.05.17/outbox.cif.g08.bks.cpg/sg54_9_cif.got.tgz:16804.got - 2010.06.03 13:09:01.
