data_PCOD9424865
_publ_section_title
;
Structure prediction by ZEFSAII (Michael W. Deem and Ramdas Pophale) SiO2 
 PCOD9424865
Probable space group: P B A M
;
_chemical_formula_sum "Si O2"
_cell_formula_units_Z 64
_cell_length_a 35.148392
_cell_length_b 13.940628
_cell_length_c 9.359329
_cell_angle_alpha 90.000000
_cell_angle_beta 90.000000
_cell_angle_gamma 90.000000
_cell_volume 4585.983772
_symmetry_space_group_name_H-M "P B A M"
_symmetry_group_IT_number 55
_symmetry_cell_setting 'orthorhombic'
loop_
_space_group_symop_operation_xyz
x,y,z
-x,-y,z
1/2+x,1/2-y,-z
1/2-x,1/2+y,-z
-x,-y,-z
x,y,-z
1/2-x,1/2+y,z
1/2+x,1/2-y,z
loop_
_atom_site_type_symbol
_atom_site_label
_atom_site_fract_x
_atom_site_fract_y
_atom_site_fract_z
Si Si1 0.042707 0.115343 0.667074
Si Si2 0.264419 0.889773 0.329846
Si Si3 0.381560 0.612230 0.829512
Si Si4 0.229605 0.610418 0.669321
Si Si5 0.804021 0.212882 0.828312
Si Si6 0.616739 0.614304 0.170390
Si Si7 0.541602 0.617391 0.666333
Si Si8 0.811465 0.796629 0.331968
O O1 0.047837 0.140806 0.500000
O O2 0.078548 0.145711 0.760862
O O3 0.000632 0.148689 0.714750
O O4 0.041753 0.998996 0.673533
O O5 0.255336 0.883905 0.500000
O O6 0.227862 0.856402 0.240386
O O7 0.297408 0.811805 0.303077
O O8 0.275675 0.998669 0.297802
O O9 0.377148 0.498509 0.794485
O O10 0.346354 0.668595 0.762157
O O11 0.382386 0.621617 0.000000
O O12 0.222416 0.626358 0.500000
O O13 0.204570 0.682971 0.761939
O O14 0.273793 0.638989 0.694000
O O15 0.845728 0.173501 0.790286
O O16 0.800405 0.214018 0.000000
O O17 0.578211 0.649311 0.245612
O O18 0.611773 0.619920 0.000000
O O19 0.545595 0.643347 0.500000
O O20 0.821124 0.804995 0.500000
#
# Coordination Sequence:
#
# PCOD9424865 Si02
#       8
#     8   8   8   8   8   8   8   8
#     4   8  14  25  38  54  77 103 133 167 200 233
#     4   9  18  32  47  61  79 106 140 175 210 245
#     4  10  18  26  38  57  81 110 140 166 195 235
#     4   9  18  32  47  61  79 106 140 175 209 245
#     4  10  19  29  42  62  86 110 137 169 206 246
#     4   9  18  28  37  55  84 112 136 165 199 235
#     4   8  14  24  39  56  74 102 137 167 196 233
#     4   9  17  28  42  60  80 103 132 168 207 240
#
# _framework density 13.955565
#
# number of rings (size 3 to 8) (size 9 to 14) (size 15 to 20)
#    0.000    3.000    0.000    3.000    0.000    4.500 
#    0.000    2.500    0.000    0.000    0.000    0.000 
#    0.000    1.000    0.000   11.250    0.000    6.125 
#
# Total GULP energy -356359.095992 kJ/mol
# GULP energy per Si atom -5568.110875 kJ/mol
# Density = 1.392380 g / cm^3
# Si number density = 13.955565 Si / 1000 Ang^3
#
#
#
# Elastic Constant Matrix: (Units=GPa)
#
#
# Indices 1 2 3 4 5 6 
#
# 1 134.7929 50.8407 68.2595 0.0000 0.0000 0.0000
# 2 50.8407 69.5277 36.5588 0.0000 0.0000 0.0000
# 3 68.2595 36.5588 50.8034 0.0000 0.0000 0.0000
# 4 0.0000 0.0000 0.0000 16.6717 0.0000 0.0000
# 5 0.0000 0.0000 0.0000 0.0000 22.3515 0.0000
# 6 0.0000 0.0000 0.0000 0.0000 0.0000 17.6655
#
#
#
# Elastic Compliance Matrix: (Units=1/GPa)
#
#
# Indices 1 2 3 4 5 6 
#
# 1 0.023250 -0.000925 -0.030573 0.000000 0.000000 0.000000
# 2 -0.000925 0.023175 -0.015433 0.000000 0.000000 0.000000
# 3 -0.030573 -0.015433 0.071867 0.000000 0.000000 0.000000
# 4 0.000000 0.000000 0.000000 0.059982 0.000000 0.000000
# 5 0.000000 0.000000 0.000000 0.000000 0.044740 0.000000
# 6 0.000000 0.000000 0.000000 0.000000 0.000000 0.056608
#
#
# Mechanical properties :
#
#
# Convention : Reuss Voigt Hill
#
# Bulk Modulus (GPa) = 40.93518 62.93801 51.93659
# Shear Modulus (GPa) = 13.10180 17.96873 15.53527
#
# Velocity S-wave (km/s) = 3.06735 3.59216 3.34008
# Velocity P-wave (km/s) = 6.47619 7.89947 7.22297
#
# Compressibility (1/GPa) = 0.02442886
#
# Stress axis : x y z
#
# Youngs Moduli (GPa) = 43.01087 43.15079 13.91454
#
# Poissons Ratio (x) = 0.03993 0.42541
# Poissons Ratio (y) = 0.03980 0.21475
# Poissons Ratio (z) = 1.31496 0.66596
#
# Static dielectric constant tensor:
#      x y z
#    x 1.455410 0.000000 0.000000 
#    y 0.000000 1.445190 0.000000 
#    z 0.000000 0.000000 1.463250 
# 
# From -- ./inp_files/10899.got.cif
#   From: 2010.05.17/outbox.cif.g08.bks.cpg/sg55_6_cif.got.tgz:10899.got - 2010.06.03 13:27:54.
