data_PCOD9424908
_publ_section_title
;
Structure prediction by ZEFSAII (Michael W. Deem and Ramdas Pophale) SiO2 
 PCOD9424908
Probable space group: P B A M
;
_chemical_formula_sum "Si O2"
_cell_formula_units_Z 56
_cell_length_a 21.574092
_cell_length_b 18.840491
_cell_length_c 8.810964
_cell_angle_alpha 90.000000
_cell_angle_beta 90.000000
_cell_angle_gamma 90.000000
_cell_volume 3581.361577
_symmetry_space_group_name_H-M "P B A M"
_symmetry_group_IT_number 55
_symmetry_cell_setting 'orthorhombic'
loop_
_space_group_symop_operation_xyz
x,y,z
-x,-y,z
1/2+x,1/2-y,-z
1/2-x,1/2+y,-z
-x,-y,-z
x,y,-z
1/2-x,1/2+y,z
1/2+x,1/2-y,z
loop_
_atom_site_type_symbol
_atom_site_label
_atom_site_fract_x
_atom_site_fract_y
_atom_site_fract_z
Si Si1 0.130705 0.651956 0.682511
Si Si2 0.750563 0.926038 0.816768
Si Si3 0.320040 0.708931 0.825618
Si Si4 0.499326 0.081850 0.314880
Si Si5 0.185852 0.787102 0.824588
Si Si6 0.375727 0.841810 0.682108
Si Si7 0.752485 0.081165 0.682244
O O1 0.135659 0.650775 0.500000
O O2 0.185884 0.603927 0.750808
O O3 0.140627 0.731818 0.742453
O O4 0.064391 0.620194 0.728416
O O5 0.804256 0.870068 0.769173
O O6 0.761597 0.004566 0.755774
O O7 0.747514 0.924607 0.000000
O O8 0.252712 0.747372 0.822572
O O9 0.364772 0.761459 0.736120
O O10 0.340551 0.705116 0.000000
O O11 0.500889 0.081353 0.500000
O O12 0.560708 0.123056 0.262364
O O13 0.500000 0.000000 0.265103
O O14 0.198029 0.861109 0.740640
O O15 0.168559 0.797730 0.000000
O O16 0.376603 0.842110 0.500000
O O17 0.315674 0.888539 0.727771
O O18 0.754159 0.076497 0.500000
#
# Coordination Sequence:
#
# PCOD9424908 Si02
#       7
#     8   8   8   8   8   8   8
#     4  10  18  29  46  65  88 120 157 189 215 257
#     4  10  19  30  44  64  92 121 147 181 230 273
#     4   8  16  29  43  60  84 115 146 178 218 264
#     4   9  17  29  44  64  91 121 151 184 221 255
#     4   9  17  30  45  62  89 119 146 181 227 271
#     4   9  17  29  45  64  87 117 150 183 219 259
#     4  10  18  28  46  70  91 114 149 187 223 267
#
# _framework density 15.636511
#
# number of rings (size 3 to 8) (size 9 to 14) (size 15 to 20)
#    0.000    2.714    0.000    3.429    0.000    6.857 
#    0.000    1.429    0.000    3.000    0.000    1.000 
#    0.000    8.000    0.000    0.000    0.000    0.000 
#
# Total GULP energy -311995.803373 kJ/mol
# GULP energy per Si atom -5571.353632 kJ/mol
# Density = 1.560092 g / cm^3
# Si number density = 15.636511 Si / 1000 Ang^3
#
#
#
# Elastic Constant Matrix: (Units=GPa)
#
#
# Indices 1 2 3 4 5 6 
#
# 1 77.4227 68.6986 24.0969 0.0000 0.0000 0.0000
# 2 68.6986 163.9565 41.8846 0.0000 0.0000 0.0000
# 3 24.0969 41.8846 41.5098 0.0000 0.0000 0.0000
# 4 0.0000 0.0000 0.0000 28.6679 0.0000 0.0000
# 5 0.0000 0.0000 0.0000 0.0000 9.2336 0.0000
# 6 0.0000 0.0000 0.0000 0.0000 0.0000 24.8572
#
#
#
# Elastic Compliance Matrix: (Units=1/GPa)
#
#
# Indices 1 2 3 4 5 6 
#
# 1 0.021166 -0.007720 -0.004498 0.000000 0.000000 0.000000
# 2 -0.007720 0.011033 -0.006651 0.000000 0.000000 0.000000
# 3 -0.004498 -0.006651 0.033413 0.000000 0.000000 0.000000
# 4 0.000000 0.000000 0.000000 0.034882 0.000000 0.000000
# 5 0.000000 0.000000 0.000000 0.000000 0.108300 0.000000
# 6 0.000000 0.000000 0.000000 0.000000 0.000000 0.040230
#
#
# Mechanical properties :
#
#
# Convention : Reuss Voigt Hill
#
# Bulk Modulus (GPa) = 35.87499 61.36102 48.61800
# Shear Modulus (GPa) = 16.88898 22.43235 19.66066
#
# Velocity S-wave (km/s) = 3.29005 3.79174 3.54977
# Velocity P-wave (km/s) = 6.11764 7.64834 6.92541
#
# Compressibility (1/GPa) = 0.02787458
#
# Stress axis : x y z
#
# Youngs Moduli (GPa) = 47.24635 90.63879 29.92864
#
# Poissons Ratio (x) = 0.69969 0.13461
# Poissons Ratio (y) = 0.36472 0.19906
# Poissons Ratio (z) = 0.21250 0.60285
#
# Static dielectric constant tensor:
#      x y z
#    x 1.505880 0.000000 0.000000 
#    y 0.000000 1.525570 0.000000 
#    z 0.000000 0.000000 1.530120 
# 
# From -- ./inp_files/7867.got.cif
#   From: 2010.05.17/outbox.cif.g08.bks.cpg/sg55_4_cif.got.tgz:7867.got - 2010.06.03 13:27:54.
