data_PCOD9424373
_publ_section_title
;
Structure prediction by ZEFSAII (Michael W. Deem and Ramdas Pophale) SiO2 
 PCOD9424373
Probable space group: P C C A
;
_chemical_formula_sum "Si O2"
_cell_formula_units_Z 32
_cell_length_a 10.164410
_cell_length_b 13.022528
_cell_length_c 10.479161
_cell_angle_alpha 90.000000
_cell_angle_beta 90.000000
_cell_angle_gamma 90.000000
_cell_volume 1387.087914
_symmetry_space_group_name_H-M "P C C A"
_symmetry_group_IT_number 54
_symmetry_cell_setting 'orthorhombic'
loop_
_space_group_symop_operation_xyz
x,y,z
1/2-x,-y,z
1/2+x,-y,1/2-z
-x,y,1/2-z
-x,-y,-z
1/2+x,y,-z
1/2-x,y,1/2+z
x,-y,1/2+z
loop_
_atom_site_type_symbol
_atom_site_label
_atom_site_fract_x
_atom_site_fract_y
_atom_site_fract_z
Si Si1 0.236588 0.121225 0.065695
Si Si2 0.844623 0.715554 0.757821
Si Si3 0.303806 0.385329 0.475969
Si Si4 0.010062 0.226137 0.902832
O O1 0.500000 0.221181 0.250000
O O2 0.187351 0.167893 0.201260
O O3 0.127724 0.159379 0.964692
O O4 0.250000 0.000000 0.066850
O O5 0.788589 0.651329 0.878399
O O6 0.000000 0.702242 0.750000
O O7 0.877793 0.825263 0.456161
O O8 0.250000 0.500000 0.466690
O O9 0.452580 0.343924 0.442576
O O10 0.222948 0.325754 0.367619
#
# Coordination Sequence:
#
# PCOD9424373 Si02
#       4
#     8   8   8   8
#     4  11  26  48  78 113 160 211 265 331 413 476
#     4  11  27  48  75 117 158 202 273 336 395 497
#     4  11  26  49  79 111 158 211 263 334 412 470
#     4  11  25  46  74 114 157 203 271 335 393 496
#
# _framework density 23.069913
#
# number of rings (size 3 to 8) (size 9 to 14) (size 15 to 20)
#    0.000    1.000    2.500    1.500   14.000    4.000 
#    0.000    0.000    0.000    0.000    0.000    0.000 
#    0.000    0.000    0.000    0.000    0.000    0.000 
#
# Total GULP energy -178845.959339 kJ/mol
# GULP energy per Si atom -5588.936229 kJ/mol
# Density = 2.301740 g / cm^3
# Si number density = 23.069913 Si / 1000 Ang^3
#
#
#
# Elastic Constant Matrix: (Units=GPa)
#
#
# Indices 1 2 3 4 5 6 
#
# 1 179.2824 75.6754 71.3046 0.0000 0.0000 0.0000
# 2 75.6754 202.1165 78.3737 0.0000 0.0000 0.0000
# 3 71.3046 78.3737 153.4926 0.0000 0.0000 0.0000
# 4 0.0000 0.0000 0.0000 24.7297 0.0000 0.0000
# 5 0.0000 0.0000 0.0000 0.0000 45.2256 0.0000
# 6 0.0000 0.0000 0.0000 0.0000 0.0000 35.8928
#
#
#
# Elastic Compliance Matrix: (Units=1/GPa)
#
#
# Indices 1 2 3 4 5 6 
#
# 1 0.007318 -0.001773 -0.002494 0.000000 0.000000 0.000000
# 2 -0.001773 0.006599 -0.002546 0.000000 0.000000 0.000000
# 3 -0.002494 -0.002546 0.008974 0.000000 0.000000 0.000000
# 4 0.000000 0.000000 0.000000 0.040437 0.000000 0.000000
# 5 0.000000 0.000000 0.000000 0.000000 0.022111 0.000000
# 6 0.000000 0.000000 0.000000 0.000000 0.000000 0.027861
#
#
# Mechanical properties :
#
#
# Convention : Reuss Voigt Hill
#
# Bulk Modulus (GPa) = 107.93928 109.51101 108.72514
# Shear Modulus (GPa) = 38.45749 41.80547 40.13148
#
# Velocity S-wave (km/s) = 4.08732 4.26152 4.17533
# Velocity P-wave (km/s) = 8.31651 8.47268 8.39496
#
# Compressibility (1/GPa) = 0.00926447
#
# Stress axis : x y z
#
# Youngs Moduli (GPa) = 136.64582 151.54918 111.43801
#
# Poissons Ratio (x) = 0.26866 0.27798
# Poissons Ratio (y) = 0.24224 0.28369
# Poissons Ratio (z) = 0.34086 0.38580
#
# Static dielectric constant tensor:
#      x y z
#    x 1.967590 0.000000 0.000000 
#    y 0.000000 1.883830 0.000000 
#    z 0.000000 0.000000 1.873420 
# 
# From -- ./inp_files/11243.got.cif
#   From: 2010.05.17/outbox.cif.g08.bks.cpg/sg54_6_cif.got.tgz:11243.got - 2010.06.03 13:09:01.
