data_PCOD9424961
_publ_section_title
;
Structure prediction by ZEFSAII (Michael W. Deem and Ramdas Pophale) SiO2 
 PCOD9424961
Probable space group: P B A M
;
_chemical_formula_sum "Si O2"
_cell_formula_units_Z 36
_cell_length_a 7.888697
_cell_length_b 15.663293
_cell_length_c 13.946483
_cell_angle_alpha 90.000000
_cell_angle_beta 90.000000
_cell_angle_gamma 90.000000
_cell_volume 1723.268895
_symmetry_space_group_name_H-M "P B A M"
_symmetry_group_IT_number 55
_symmetry_cell_setting 'orthorhombic'
loop_
_space_group_symop_operation_xyz
x,y,z
-x,-y,z
1/2+x,1/2-y,-z
1/2-x,1/2+y,-z
-x,-y,-z
x,y,-z
1/2-x,1/2+y,z
1/2+x,1/2-y,z
loop_
_atom_site_type_symbol
_atom_site_label
_atom_site_fract_x
_atom_site_fract_y
_atom_site_fract_z
Si Si1 0.914948 0.627705 0.799344
Si Si2 0.655760 0.122534 0.000000
Si Si3 0.034208 0.187888 0.000000
Si Si4 0.303295 0.681687 0.796157
Si Si5 0.500000 0.000000 0.644227
Si Si6 0.636294 0.422498 0.394205
O O1 0.109927 0.654413 0.801987
O O2 0.899558 0.567417 0.709676
O O3 0.812488 0.715534 0.790188
O O4 0.871636 0.579573 0.898174
O O5 0.541479 0.208700 0.000000
O O6 0.843890 0.157931 0.000000
O O7 0.114741 0.158653 0.100808
O O8 0.378288 0.637532 0.700252
O O9 0.335412 0.047526 0.600177
O O10 0.500000 0.500000 0.383781
O O11 0.599326 0.382943 0.500000
#
# Coordination Sequence:
#
# PCOD9424961 Si02
#       6
#     8   4   4   8   4   8
#     4  10  20  35  58  86 118 160 194 246 290 357
#     4  10  18  29  53  82 119 157 196 234 302 342
#     4  10  18  30  54  86 117 156 188 250 289 352
#     4  10  20  36  59  86 118 153 202 239 295 355
#     4  10  23  39  64  86 124 157 192 250 301 352
#     4  10  23  42  64  86 116 155 196 248 302 352
#
# _framework density 20.890529999999998
#
# number of rings (size 3 to 8) (size 9 to 14) (size 15 to 20)
#    0.000    2.000    0.000    6.333    6.222    0.444 
#    0.000    7.222    0.000    0.000    0.000    0.000 
#    0.000    0.000    0.000    0.000    0.000    0.000 
#
# Total GULP energy -200643.137486 kJ/mol
# GULP energy per Si atom -5573.420486 kJ/mol
# Density = 2.084298 g / cm^3
# Si number density = 20.890530 Si / 1000 Ang^3
#
#
#
# Elastic Constant Matrix: (Units=GPa)
#
#
# Indices 1 2 3 4 5 6 
#
# 1 26.9298 -2.3355 3.0127 0.0000 0.0000 0.0000
# 2 -2.3355 34.4415 40.8008 0.0000 0.0000 0.0000
# 3 3.0127 40.8008 174.2980 0.0000 0.0000 0.0000
# 4 0.0000 0.0000 0.0000 -134.6132 0.0000 0.0000
# 5 0.0000 0.0000 0.0000 0.0000 -57.0590 0.0000
# 6 0.0000 0.0000 0.0000 0.0000 0.0000 44.3060
#
#
#
# Elastic Compliance Matrix: (Units=1/GPa)
#
#
# Indices 1 2 3 4 5 6 
#
# 1 0.037727 0.004609 -0.001731 0.000000 0.000000 0.000000
# 2 0.004609 0.040739 -0.009616 0.000000 0.000000 0.000000
# 3 -0.001731 -0.009616 0.008018 0.000000 0.000000 0.000000
# 4 0.000000 0.000000 0.000000 -0.007429 0.000000 0.000000
# 5 0.000000 0.000000 0.000000 0.000000 -0.017526 0.000000
# 6 0.000000 0.000000 0.000000 0.000000 0.000000 0.022570
#
#
# Mechanical properties :
#
#
# Convention : Reuss Voigt Hill
#
# Bulk Modulus (GPa) = 13.69719 35.40281 24.55000
# Shear Modulus (GPa) = 41.01313 -16.52715 12.24299
#
# Velocity S-wave (km/s) = 4.43565 -2.81576 2.42348
# Velocity P-wave (km/s) = 5.72750 2.53225 4.42812
#
# Compressibility (1/GPa) = 0.07300768
#
# Stress axis : x y z
#
# Youngs Moduli (GPa) = 26.50625 24.54657 124.71608
#
# Poissons Ratio (x) = -0.11313 0.21588
# Poissons Ratio (y) = -0.12216 1.19928
# Poissons Ratio (z) = 0.04588 0.23604
#
# Static dielectric constant tensor:
#      x y z
#    x 1.743410 0.000000 0.000000 
#    y 0.000000 1.772450 0.000000 
#    z 0.000000 0.000000 1.820540 
# 
# From -- ./inp_files/17023.got.cif
#   From: 2010.05.17/outbox.cif.g08.bks.cpg/sg55_9_cif.got.tgz:17023.got - 2010.06.03 13:27:54.
