data_PCOD9424377
_publ_section_title
;
Structure prediction by ZEFSAII (Michael W. Deem and Ramdas Pophale) SiO2 
 PCOD9424377
Probable space group: P C C A
;
_chemical_formula_sum "Si O2"
_cell_formula_units_Z 64
_cell_length_a 29.131776
_cell_length_b 5.134330
_cell_length_c 18.529168
_cell_angle_alpha 90.000000
_cell_angle_beta 90.000000
_cell_angle_gamma 90.000000
_cell_volume 2771.447523
_symmetry_space_group_name_H-M "P C C A"
_symmetry_group_IT_number 54
_symmetry_cell_setting 'orthorhombic'
loop_
_space_group_symop_operation_xyz
x,y,z
1/2-x,-y,z
1/2+x,-y,1/2-z
-x,y,1/2-z
-x,-y,-z
1/2+x,y,-z
1/2-x,y,1/2+z
x,-y,1/2+z
loop_
_atom_site_type_symbol
_atom_site_label
_atom_site_fract_x
_atom_site_fract_y
_atom_site_fract_z
Si Si1 0.400989 0.015901 0.773300
Si Si2 0.718178 0.255564 0.397516
Si Si3 0.198891 0.578946 0.409047
Si Si4 0.700648 0.858877 0.741103
Si Si5 0.450113 0.474115 0.212451
Si Si6 0.844023 0.109085 0.028523
Si Si7 0.526265 0.317271 0.944428
Si Si8 0.436215 0.004883 0.433480
O O1 0.346282 0.024187 0.763440
O O2 0.422437 0.793037 0.722212
O O3 0.423936 0.291039 0.753429
O O4 0.415930 0.928197 0.854721
O O5 0.750000 0.500000 0.413831
O O6 0.698988 0.288829 0.317171
O O7 0.678180 0.204963 0.454487
O O8 0.750000 0.000000 0.399449
O O9 0.250000 0.500000 0.433849
O O10 0.200181 0.676678 0.327906
O O11 0.175365 0.300285 0.411069
O O12 0.173552 0.813331 0.453715
O O13 0.750000 0.000000 0.739128
O O14 0.500000 0.444454 0.250000
O O15 0.456686 0.551071 0.128632
O O16 0.897495 0.180664 0.033980
O O17 0.487533 0.101924 0.923118
O O18 0.500000 0.500000 0.000000
O O19 0.563267 0.203056 0.999461
#
# Coordination Sequence:
#
# PCOD9424377 Si02
#       8
#     8   8   8   8   8   8   8   8
#     4  12  28  49  77 113 151 204 259 316 378 469
#     4  11  25  47  69 101 149 193 237 303 374 440
#     4  12  25  43  73 104 142 189 247 305 368 431
#     4  11  27  49  74 108 152 198 254 314 382 443
#     4  12  27  48  81 113 155 199 254 310 386 456
#     4  12  26  44  74 106 142 193 249 303 366 450
#     4  11  27  49  78 111 160 198 245 315 391 461
#     4  11  27  48  76 113 152 198 250 320 385 455
#
# _framework density 23.092624000000001
#
# number of rings (size 3 to 8) (size 9 to 14) (size 15 to 20)
#    0.000    0.500    2.500    4.500    8.750    3.000 
#    0.000    0.000    0.000    0.000    0.000    0.000 
#    0.000    0.000    0.000    0.000    0.000    0.000 
#
# Total GULP energy -357702.960035 kJ/mol
# GULP energy per Si atom -5589.108751 kJ/mol
# Density = 2.304006 g / cm^3
# Si number density = 23.092624 Si / 1000 Ang^3
#
#
#
# Elastic Constant Matrix: (Units=GPa)
#
#
# Indices 1 2 3 4 5 6 
#
# 1 97.7477 13.7248 7.0808 0.0000 0.0000 0.0000
# 2 13.7248 66.6058 -25.8507 0.0000 0.0000 0.0000
# 3 7.0808 -25.8507 131.6130 0.0000 0.0000 0.0000
# 4 0.0000 0.0000 0.0000 22.1118 0.0000 0.0000
# 5 0.0000 0.0000 0.0000 0.0000 -166.2724 0.0000
# 6 0.0000 0.0000 0.0000 0.0000 0.0000 28.1670
#
#
#
# Elastic Compliance Matrix: (Units=1/GPa)
#
#
# Indices 1 2 3 4 5 6 
#
# 1 0.010678 -0.002623 -0.001090 0.000000 0.000000 0.000000
# 2 -0.002623 0.016897 0.003460 0.000000 0.000000 0.000000
# 3 -0.001090 0.003460 0.008336 0.000000 0.000000 0.000000
# 4 0.000000 0.000000 0.000000 0.045225 0.000000 0.000000
# 5 0.000000 0.000000 0.000000 0.000000 -0.006014 0.000000
# 6 0.000000 0.000000 0.000000 0.000000 0.000000 0.035503
#
#
# Mechanical properties :
#
#
# Convention : Reuss Voigt Hill
#
# Bulk Modulus (GPa) = 28.24442 31.76404 30.00423
# Shear Modulus (GPa) = 40.67305 -3.13127 18.77089
#
# Velocity S-wave (km/s) = 4.20134 -1.16572 2.85415
# Velocity P-wave (km/s) = 5.98268 3.46021 4.88700
#
# Compressibility (1/GPa) = 0.03540522
#
# Stress axis : x y z
#
# Youngs Moduli (GPa) = 93.65334 59.18174 119.95813
#
# Poissons Ratio (x) = 0.15524 0.13072
# Poissons Ratio (y) = 0.24567 -0.41505
# Poissons Ratio (z) = 0.10205 -0.20477
#
# Static dielectric constant tensor:
#      x y z
#    x 1.830280 0.000000 0.000000 
#    y 0.000000 1.855310 0.000000 
#    z 0.000000 0.000000 1.799520 
# 
# From -- ./inp_files/19346.got.cif
#   From: 2010.05.17/outbox.cif.g08.bks.cpg/sg54_10_cif.got.tgz:19346.got - 2010.06.03 13:09:01.
