data_PCOD9424936
_publ_section_title
;
Structure prediction by ZEFSAII (Michael W. Deem and Ramdas Pophale) SiO2 
 PCOD9424936
Probable space group: P B A M
;
_chemical_formula_sum "Si O2"
_cell_formula_units_Z 56
_cell_length_a 21.712481
_cell_length_b 18.973972
_cell_length_c 8.439711
_cell_angle_alpha 90.000000
_cell_angle_beta 90.000000
_cell_angle_gamma 90.000000
_cell_volume 3476.924675
_symmetry_space_group_name_H-M "P B A M"
_symmetry_group_IT_number 55
_symmetry_cell_setting 'orthorhombic'
loop_
_space_group_symop_operation_xyz
x,y,z
-x,-y,z
1/2+x,1/2-y,-z
1/2-x,1/2+y,-z
-x,-y,-z
x,y,-z
1/2-x,1/2+y,z
1/2+x,1/2-y,z
loop_
_atom_site_type_symbol
_atom_site_label
_atom_site_fract_x
_atom_site_fract_y
_atom_site_fract_z
Si Si1 0.746278 0.079350 0.188766
Si Si2 0.498464 0.418623 0.691685
Si Si3 0.249582 0.077221 0.688442
Si Si4 0.692718 0.212667 0.688927
Si Si5 0.876649 0.845668 0.307983
Si Si6 0.125869 0.847132 0.808579
Si Si7 0.312925 0.209217 0.813309
O O1 0.695450 0.131168 0.264676
O O2 0.813923 0.107719 0.242603
O O3 0.739433 0.998420 0.235485
O O4 0.743442 0.087045 0.000000
O O5 0.500000 0.500000 0.744001
O O6 0.499292 0.418330 0.500000
O O7 0.559678 0.378374 0.749946
O O8 0.436301 0.381133 0.746479
O O9 0.246129 0.069185 0.500000
O O10 0.183629 0.109822 0.743693
O O11 0.301644 0.134927 0.729420
O O12 0.703246 0.219594 0.500000
O O13 0.635672 0.263527 0.730453
O O14 0.750033 0.247547 0.780732
O O15 0.877487 0.850296 0.500000
O O16 0.135939 0.765581 0.757979
O O17 0.125501 0.847726 0.000000
O O18 0.320248 0.197096 0.000000
#
# Coordination Sequence:
#
# PCOD9424936 Si02
#       7
#     8   8   8   8   8   8   8
#     4  10  19  30  44  65  93 119 146 184 231 271
#     4  10  19  30  45  65  90 121 154 186 219 254
#     4  10  18  29  47  69  91 116 149 184 223 271
#     4   9  16  28  45  63  86 116 152 188 221 265
#     4   8  16  29  43  63  90 118 149 185 220 257
#     4   9  19  32  44  62  90 123 154 183 216 260
#     4   9  17  30  45  63  90 118 146 183 227 268
#
# _framework density 16.106186999999998
#
# number of rings (size 3 to 8) (size 9 to 14) (size 15 to 20)
#    0.000    2.714    0.000    4.286    0.000    4.857 
#    0.000    4.286    0.000    0.000    0.000    1.000 
#    0.000    8.000    0.000    0.000    0.000    0.000 
#
# Total GULP energy -311864.710638 kJ/mol
# GULP energy per Si atom -5569.012690 kJ/mol
# Density = 1.606953 g / cm^3
# Si number density = 16.106187 Si / 1000 Ang^3
#
#
#
# Elastic Constant Matrix: (Units=GPa)
#
#
# Indices 1 2 3 4 5 6 
#
# 1 78.8297 64.6181 11.0054 0.0000 0.0000 0.0000
# 2 64.6181 139.2619 11.6588 0.0000 0.0000 0.0000
# 3 11.0054 11.6588 14.7277 0.0000 0.0000 0.0000
# 4 0.0000 0.0000 0.0000 20.2585 0.0000 0.0000
# 5 0.0000 0.0000 0.0000 0.0000 13.8491 0.0000
# 6 0.0000 0.0000 0.0000 0.0000 0.0000 26.7305
#
#
#
# Elastic Compliance Matrix: (Units=1/GPa)
#
#
# Indices 1 2 3 4 5 6 
#
# 1 0.021473 -0.009232 -0.008738 0.000000 0.000000 0.000000
# 2 -0.009232 0.011660 -0.002331 0.000000 0.000000 0.000000
# 3 -0.008738 -0.002331 0.076274 0.000000 0.000000 0.000000
# 4 0.000000 0.000000 0.000000 0.049362 0.000000 0.000000
# 5 0.000000 0.000000 0.000000 0.000000 0.072207 0.000000
# 6 0.000000 0.000000 0.000000 0.000000 0.000000 0.037410
#
#
# Mechanical properties :
#
#
# Convention : Reuss Voigt Hill
#
# Bulk Modulus (GPa) = 14.53392 45.26489 29.89940
# Shear Modulus (GPa) = 15.06375 21.87009 18.46692
#
# Velocity S-wave (km/s) = 3.06155 3.68892 3.38978
# Velocity P-wave (km/s) = 4.64121 6.80509 5.82452
#
# Compressibility (1/GPa) = 0.06880458
#
# Stress axis : x y z
#
# Youngs Moduli (GPa) = 46.56968 85.76595 13.11067
#
# Poissons Ratio (x) = 0.79180 0.11456
# Poissons Ratio (y) = 0.42994 0.03056
# Poissons Ratio (z) = 0.40691 0.19994
#
# Static dielectric constant tensor:
#      x y z
#    x 1.527080 0.000000 0.000000 
#    y 0.000000 1.566680 0.000000 
#    z 0.000000 0.000000 1.552030 
# 
# From -- ./inp_files/7823.got.cif
#   From: 2010.05.17/outbox.cif.g08.bks.cpg/sg55_4_cif.got.tgz:7823.got - 2010.06.03 13:27:54.
