data_PCOD9424957
_publ_section_title
;
Structure prediction by ZEFSAII (Michael W. Deem and Ramdas Pophale) SiO2 
 PCOD9424957
Probable space group: P B A M
;
_chemical_formula_sum "Si O2"
_cell_formula_units_Z 56
_cell_length_a 8.003643
_cell_length_b 13.903461
_cell_length_c 20.082095
_cell_angle_alpha 90.000000
_cell_angle_beta 90.000000
_cell_angle_gamma 90.000000
_cell_volume 2234.702161
_symmetry_space_group_name_H-M "P B A M"
_symmetry_group_IT_number 55
_symmetry_cell_setting 'orthorhombic'
loop_
_space_group_symop_operation_xyz
x,y,z
-x,-y,z
1/2+x,1/2-y,-z
1/2-x,1/2+y,-z
-x,-y,-z
x,y,-z
1/2-x,1/2+y,z
1/2+x,1/2-y,z
loop_
_atom_site_type_symbol
_atom_site_label
_atom_site_fract_x
_atom_site_fract_y
_atom_site_fract_z
Si Si1 0.602554 0.615854 0.784202
Si Si2 0.708277 0.835041 0.214939
Si Si3 0.976192 0.384942 0.348982
Si Si4 0.829842 0.093202 0.360053
Si Si5 0.776557 0.335497 0.928994
Si Si6 0.118286 0.883973 0.928424
Si Si7 0.842877 0.884673 0.576955
O O1 0.403351 0.636060 0.779983
O O2 0.692424 0.719323 0.782323
O O3 0.658271 0.562130 0.717459
O O4 0.648818 0.570317 0.855891
O O5 0.593671 0.869715 0.275071
O O6 0.646391 0.866514 0.141319
O O7 0.160507 0.347488 0.364745
O O8 0.000000 0.500000 0.356868
O O9 0.835147 0.348133 0.398639
O O10 0.000155 0.146448 0.378463
O O11 0.827781 0.999991 0.407469
O O12 0.580669 0.362134 0.928581
O O13 0.791725 0.219419 0.928455
O O14 0.851794 0.367111 0.000000
O O15 0.158598 0.931529 0.000000
O O16 0.873682 0.867039 0.500000
#
# Coordination Sequence:
#
# PCOD9424957 Si02
#       7
#     8   8   8   8   8   8   8
#     4  10  18  29  51  77 110 143 176 218 273 320
#     4  10  18  31  48  77 109 143 180 220 267 320
#     4  10  21  35  55  81 109 137 178 221 260 310
#     4  10  19  33  54  83 106 134 169 214 262 309
#     4   8  14  24  41  64  97 136 174 217 262 303
#     4   8  14  24  39  66 100 135 173 214 258 309
#     4  10  21  38  60  83 104 132 172 215 261 312
#
# _framework density 25.059270000000001
#
# number of rings (size 3 to 8) (size 9 to 14) (size 15 to 20)
#    0.000    2.571    1.429    1.714    0.000    4.286 
#    0.000    0.000    0.000    2.143    0.000    5.000 
#    0.000    0.000    0.000    0.000    0.000    0.000 
#
# Total GULP energy -312956.704751 kJ/mol
# GULP energy per Si atom -5588.512585 kJ/mol
# Density = 2.500223 g / cm^3
# Si number density = 25.059270 Si / 1000 Ang^3
#
#
#
# Elastic Constant Matrix: (Units=GPa)
#
#
# Indices 1 2 3 4 5 6 
#
# 1 117.6812 7.2695 46.4477 0.0000 0.0000 0.0000
# 2 7.2695 72.6428 -10.8499 0.0000 0.0000 0.0000
# 3 46.4477 -10.8499 189.3646 0.0000 0.0000 0.0000
# 4 0.0000 0.0000 0.0000 11.6520 0.0000 0.0000
# 5 0.0000 0.0000 0.0000 0.0000 8.0265 0.0000
# 6 0.0000 0.0000 0.0000 0.0000 0.0000 29.6660
#
#
#
# Elastic Compliance Matrix: (Units=1/GPa)
#
#
# Indices 1 2 3 4 5 6 
#
# 1 0.009531 -0.001314 -0.002413 0.000000 0.000000 0.000000
# 2 -0.001314 0.014066 0.001128 0.000000 0.000000 0.000000
# 3 -0.002413 0.001128 0.005937 0.000000 0.000000 0.000000
# 4 0.000000 0.000000 0.000000 0.085822 0.000000 0.000000
# 5 0.000000 0.000000 0.000000 0.000000 0.124587 0.000000
# 6 0.000000 0.000000 0.000000 0.000000 0.000000 0.033709
#
#
# Mechanical properties :
#
#
# Convention : Reuss Voigt Hill
#
# Bulk Modulus (GPa) = 41.09065 51.71367 46.40216
# Shear Modulus (GPa) = 17.42389 32.32367 24.87378
#
# Velocity S-wave (km/s) = 2.63973 3.59540 3.15397
# Velocity P-wave (km/s) = 5.07187 6.15769 5.64097
#
# Compressibility (1/GPa) = 0.02433644
#
# Stress axis : x y z
#
# Youngs Moduli (GPa) = 104.91908 71.09326 168.42506
#
# Poissons Ratio (x) = 0.09343 0.40643
# Poissons Ratio (y) = 0.13789 -0.19003
# Poissons Ratio (z) = 0.25318 -0.08021
#
# Static dielectric constant tensor:
#      x y z
#    x 1.999810 0.000000 0.000000 
#    y 0.000000 2.071030 0.000000 
#    z 0.000000 0.000000 1.975000 
# 
# From -- ./inp_files/21037.got.cif
#   From: 2010.05.17/outbox.cif.g08.bks.cpg/sg55_11_cif.got.tgz:21037.got - 2010.06.03 13:27:54.
