data_PCOD9424398
_publ_section_title
;
Structure prediction by ZEFSAII (Michael W. Deem and Ramdas Pophale) SiO2 
 PCOD9424398
Probable space group: P C C A
;
_chemical_formula_sum "Si O2"
_cell_formula_units_Z 32
_cell_length_a 14.319881
_cell_length_b 7.197476
_cell_length_c 11.800911
_cell_angle_alpha 90.000000
_cell_angle_beta 90.000000
_cell_angle_gamma 90.000000
_cell_volume 1216.284492
_symmetry_space_group_name_H-M "P C C A"
_symmetry_group_IT_number 54
_symmetry_cell_setting 'orthorhombic'
loop_
_space_group_symop_operation_xyz
x,y,z
1/2-x,-y,z
1/2+x,-y,1/2-z
-x,y,1/2-z
-x,-y,-z
1/2+x,y,-z
1/2-x,y,1/2+z
x,-y,1/2+z
loop_
_atom_site_type_symbol
_atom_site_label
_atom_site_fract_x
_atom_site_fract_y
_atom_site_fract_z
Si Si1 0.366368 0.766406 0.250702
Si Si2 0.017764 0.525573 0.867175
Si Si3 0.895688 0.995560 0.047901
Si Si4 0.750433 0.278693 0.451796
O O1 0.250000 0.500000 0.041090
O O2 0.445230 0.694579 0.162324
O O3 0.378504 0.601972 0.343025
O O4 0.274013 0.767600 0.179180
O O5 0.000000 0.403068 0.750000
O O6 0.000000 0.500000 0.000000
O O7 0.840012 0.158257 0.981633
O O8 0.833856 0.812603 0.026452
O O9 0.888965 0.050260 0.179832
O O10 0.000000 0.000000 0.000000
#
# Coordination Sequence:
#
# PCOD9424398 Si02
#       4
#     8   8   8   8
#     4   9  22  44  75 112 174 220 292 374 460 540
#     4   8  18  36  74 112 167 221 297 363 450 550
#     4  11  25  50  86 120 182 236 298 379 472 557
#     4  11  27  48  81 126 178 235 311 379 470 553
#
# _framework density 26.309633000000002
#
# number of rings (size 3 to 8) (size 9 to 14) (size 15 to 20)
#    1.500    0.500    0.000    3.000    3.500    6.000 
#    0.000    0.000   16.500    0.000    0.000    0.000 
#    0.000    0.000    0.000    0.000    0.000    0.000 
#
# Total GULP energy -178243.976968 kJ/mol
# GULP energy per Si atom -5570.124280 kJ/mol
# Density = 2.624975 g / cm^3
# Si number density = 26.309633 Si / 1000 Ang^3
#
#
#
# Elastic Constant Matrix: (Units=GPa)
#
#
# Indices 1 2 3 4 5 6 
#
# 1 154.1487 74.2426 57.3119 0.0000 0.0000 0.0000
# 2 74.2426 172.3858 71.8673 0.0000 0.0000 0.0000
# 3 57.3119 71.8673 241.7062 0.0000 0.0000 0.0000
# 4 0.0000 0.0000 0.0000 58.0144 0.0000 0.0000
# 5 0.0000 0.0000 0.0000 0.0000 54.4035 0.0000
# 6 0.0000 0.0000 0.0000 0.0000 0.0000 24.1928
#
#
#
# Elastic Compliance Matrix: (Units=1/GPa)
#
#
# Indices 1 2 3 4 5 6 
#
# 1 0.008411 -0.003186 -0.001047 0.000000 0.000000 0.000000
# 2 -0.003186 0.007829 -0.001572 0.000000 0.000000 0.000000
# 3 -0.001047 -0.001572 0.004853 0.000000 0.000000 0.000000
# 4 0.000000 0.000000 0.000000 0.017237 0.000000 0.000000
# 5 0.000000 0.000000 0.000000 0.000000 0.018381 0.000000
# 6 0.000000 0.000000 0.000000 0.000000 0.000000 0.041335
#
#
# Mechanical properties :
#
#
# Convention : Reuss Voigt Hill
#
# Bulk Modulus (GPa) = 105.46265 108.34268 106.90266
# Shear Modulus (GPa) = 44.31978 51.64340 47.98159
#
# Velocity S-wave (km/s) = 4.10877 4.43528 4.27514
# Velocity P-wave (km/s) = 7.91717 8.21573 8.06783
#
# Compressibility (1/GPa) = 0.00948203
#
# Stress axis : x y z
#
# Youngs Moduli (GPa) = 118.89251 127.73838 206.05733
#
# Poissons Ratio (x) = 0.40696 0.21576
# Poissons Ratio (y) = 0.37878 0.32398
# Poissons Ratio (z) = 0.12449 0.20084
#
# Static dielectric constant tensor:
#      x y z
#    x 2.209230 0.000000 0.000000 
#    y 0.000000 2.168670 0.000000 
#    z 0.000000 0.000000 2.251050 
# 
# From -- ./inp_files/7286.got.cif
#   From: 2010.05.17/outbox.cif.g08.bks.cpg/sg54_4_cif.got.tgz:7286.got - 2010.06.03 13:09:01.
