data_PCOD9424643
_publ_section_title
;
Structure prediction by ZEFSAII (Michael W. Deem and Ramdas Pophale) SiO2 
 PCOD9424643
Probable space group: P C C A
;
_chemical_formula_sum "Si O2"
_cell_formula_units_Z 64
_cell_length_a 30.000000
_cell_length_b 12.000000
_cell_length_c 9.000000
_cell_angle_alpha 90.000000
_cell_angle_beta 90.000000
_cell_angle_gamma 90.000000
_cell_volume 3240.000000
_symmetry_space_group_name_H-M "P C C A"
_symmetry_group_IT_number 54
_symmetry_cell_setting 'orthorhombic'
loop_
_space_group_symop_operation_xyz
x,y,z
1/2-x,-y,z
1/2+x,-y,1/2-z
-x,y,1/2-z
-x,-y,-z
1/2+x,y,-z
1/2-x,y,1/2+z
x,-y,1/2+z
loop_
_atom_site_type_symbol
_atom_site_label
_atom_site_fract_x
_atom_site_fract_y
_atom_site_fract_z
Si Si1 0.345559 0.517504 0.575765
Si Si2 0.210298 0.587187 0.826723
Si Si3 0.185766 0.897593 0.021499
Si Si4 0.446457 0.080414 0.244177
Si Si5 0.613076 0.263578 0.377796
Si Si6 0.744307 0.183988 0.198460
Si Si7 0.109469 0.081542 0.047739
Si Si8 0.842413 0.723544 0.054191
O O1 0.329197 0.466717 0.730813
O O2 0.305904 0.588673 0.497428
O O3 0.386142 0.605325 0.582676
O O4 0.348790 0.404645 0.483051
O O5 0.250000 0.500000 0.817899
O O6 0.227361 0.704415 0.763421
O O7 0.219536 0.893662 0.883554
O O8 0.147477 0.802074 0.015755
O O9 0.216918 0.872169 0.166333
O O10 0.154308 0.006307 0.027416
O O11 0.500000 0.070557 0.250000
O O12 0.431009 0.188441 0.145538
O O13 0.423236 0.087451 0.405258
O O14 0.420872 0.975047 0.172090
O O15 0.636095 0.258231 0.216108
O O16 0.707719 0.231742 0.080291
O O17 0.130361 0.203585 0.064722
#
# Coordination Sequence:
#
# PCOD9424643 Si02
#       8
#     8   8   8   8   8   8   8   8
#     4  12  20  35  55  79 115 159 207 249 304 334
#     4  12  22  30  52  78 113 160 218 262 276 329
#     4  10  21  37  56  80 118 165 205 254 291 344
#     4  10  21  42  73  95 113 145 194 257 322 398
#     4   9  19  38  57  86 118 149 196 252 313 359
#     4  11  21  35  53  81 118 167 221 251 286 327
#     4  10  23  42  63  88 124 153 197 248 317 376
#     4  10  21  36  54  81 119 165 198 248 293 344
#
# _framework density 19.753086
#
# number of rings (size 3 to 8) (size 9 to 14) (size 15 to 20)
#    0.000    1.500    3.750    3.000    0.000    2.500 
#    0.000    5.000    0.000    3.750    0.000    0.000 
#    0.000    0.000    0.000    0.000    0.000    0.000 
#
# Total GULP energy -356971.503019 kJ/mol
# GULP energy per Si atom -5577.679735 kJ/mol
# Density = 1.970813 g / cm^3
# Si number density = 19.753086 Si / 1000 Ang^3
#
#
#
# Elastic Constant Matrix: (Units=GPa)
#
#
# Indices 1 2 3 4 5 6 
#
# 1 69.4540 28.4587 29.2946 0.0000 0.0000 0.0000
# 2 28.4587 79.5113 -2.7981 0.0000 0.0000 0.0000
# 3 29.2946 -2.7981 24.3882 0.0000 0.0000 0.0000
# 4 0.0000 0.0000 0.0000 16.1308 0.0000 0.0000
# 5 0.0000 0.0000 0.0000 0.0000 18.1432 0.0000
# 6 0.0000 0.0000 0.0000 0.0000 0.0000 16.0705
#
#
#
# Elastic Compliance Matrix: (Units=1/GPa)
#
#
# Indices 1 2 3 4 5 6 
#
# 1 0.046554 -0.018706 -0.058066 0.000000 0.000000 0.000000
# 2 -0.018706 0.020144 0.024781 0.000000 0.000000 0.000000
# 3 -0.058066 0.024781 0.113594 0.000000 0.000000 0.000000
# 4 0.000000 0.000000 0.000000 0.061993 0.000000 0.000000
# 5 0.000000 0.000000 0.000000 0.000000 0.055117 0.000000
# 6 0.000000 0.000000 0.000000 0.000000 0.000000 0.062226
#
#
# Mechanical properties :
#
#
# Convention : Reuss Voigt Hill
#
# Bulk Modulus (GPa) = 13.10456 31.47376 22.28916
# Shear Modulus (GPa) = 10.22395 17.96212 14.09304
#
# Velocity S-wave (km/s) = 2.27752 3.01879 2.67397
# Velocity P-wave (km/s) = 3.68303 5.30273 4.56529
#
# Compressibility (1/GPa) = 0.07630932
#
# Stress axis : x y z
#
# Youngs Moduli (GPa) = 21.48040 49.64215 8.80328
#
# Poissons Ratio (x) = 0.92861 0.51117
# Poissons Ratio (y) = 0.40181 -0.21815
# Poissons Ratio (z) = 1.24728 -1.23016
#
# Static dielectric constant tensor:
#      x y z
#    x 1.656140 0.000000 0.000000 
#    y 0.000000 1.767680 0.000000 
#    z 0.000000 0.000000 1.787310 
# 
# From -- ./inp_files/5971.got.cif
#   From: 2010.05.17/outbox.ucp.g08.bks.cvg/sg54_3_cif.got.tgz:5971.got - 2010.06.11 16:34:40.
