data_PCOD9424007
_publ_section_title
;
Structure prediction by ZEFSAII (Michael W. Deem and Ramdas Pophale) SiO2 
 PCOD9424007
Probable space group: P C C A
;
_chemical_formula_sum "Si O2"
_cell_formula_units_Z 32
_cell_length_a 8.076959
_cell_length_b 7.966398
_cell_length_c 24.311064
_cell_angle_alpha 90.000000
_cell_angle_beta 90.000000
_cell_angle_gamma 90.000000
_cell_volume 1564.277667
_symmetry_space_group_name_H-M "P C C A"
_symmetry_group_IT_number 54
_symmetry_cell_setting 'orthorhombic'
loop_
_space_group_symop_operation_xyz
x,y,z
1/2-x,-y,z
1/2+x,-y,1/2-z
-x,y,1/2-z
-x,-y,-z
1/2+x,y,-z
1/2-x,y,1/2+z
x,-y,1/2+z
loop_
_atom_site_type_symbol
_atom_site_label
_atom_site_fract_x
_atom_site_fract_y
_atom_site_fract_z
Si Si1 0.557617 0.450841 0.189820
Si Si2 0.565178 0.066770 0.557767
Si Si3 0.120465 0.124351 0.654350
Si Si4 0.630372 0.633142 0.409896
O O1 0.750000 0.500000 0.183722
O O2 0.500000 0.510047 0.250000
O O3 0.501166 0.254773 0.184962
O O4 0.457514 0.541814 0.141313
O O5 0.483839 0.986784 0.612082
O O6 0.750000 0.000000 0.560094
O O7 0.500000 0.000000 0.500000
O O8 0.511269 0.262360 0.559101
O O9 0.239628 0.236453 0.615995
O O10 0.250000 0.000000 0.686039
O O11 0.750000 0.500000 0.440663
#
# Coordination Sequence:
#
# PCOD9424007 Si02
#       4
#     8   8   8   8
#     4  11  21  37  60  86 115 152 194 243 295 352
#     4  11  21  37  58  83 115 153 191 238 295 354
#     4   9  19  37  56  81 114 147 187 237 289 347
#     4   9  19  37  58  82 113 148 190 240 287 345
#
# _framework density 20.456726
#
# number of rings (size 3 to 8) (size 9 to 14) (size 15 to 20)
#    0.000    2.000    0.000    6.000    0.000    0.000 
#    0.000   23.750    0.000    0.000    0.000    0.000 
#    0.000    0.000    0.000    0.000    0.000    0.000 
#
# Total GULP energy -178161.778189 kJ/mol
# GULP energy per Si atom -5567.555568 kJ/mol
# Density = 2.041017 g / cm^3
# Si number density = 20.456726 Si / 1000 Ang^3
#
#
#
# Elastic Constant Matrix: (Units=GPa)
#
#
# Indices 1 2 3 4 5 6 
#
# 1 165.2364 54.1617 16.7559 0.0000 0.0000 0.0000
# 2 54.1617 102.6501 15.1373 0.0000 0.0000 0.0000
# 3 16.7559 15.1373 58.5718 0.0000 0.0000 0.0000
# 4 0.0000 0.0000 0.0000 32.6309 0.0000 0.0000
# 5 0.0000 0.0000 0.0000 0.0000 14.3218 0.0000
# 6 0.0000 0.0000 0.0000 0.0000 0.0000 52.8399
#
#
#
# Elastic Compliance Matrix: (Units=1/GPa)
#
#
# Indices 1 2 3 4 5 6 
#
# 1 0.007391 -0.003730 -0.001150 0.000000 0.000000 0.000000
# 2 -0.003730 0.012010 -0.002037 0.000000 0.000000 0.000000
# 3 -0.001150 -0.002037 0.017929 0.000000 0.000000 0.000000
# 4 0.000000 0.000000 0.000000 0.030646 0.000000 0.000000
# 5 0.000000 0.000000 0.000000 0.000000 0.069824 0.000000
# 6 0.000000 0.000000 0.000000 0.000000 0.000000 0.018925
#
#
# Mechanical properties :
#
#
# Convention : Reuss Voigt Hill
#
# Bulk Modulus (GPa) = 42.56180 55.39646 48.97913
# Shear Modulus (GPa) = 28.02821 35.98542 32.00682
#
# Velocity S-wave (km/s) = 3.70553 4.19871 3.95981
# Velocity P-wave (km/s) = 6.25771 7.11647 6.70086
#
# Compressibility (1/GPa) = 0.02349525
#
# Stress axis : x y z
#
# Youngs Moduli (GPa) = 135.29405 83.26111 55.77691
#
# Poissons Ratio (x) = 0.31059 0.06417
# Poissons Ratio (y) = 0.50468 0.11361
# Poissons Ratio (z) = 0.15564 0.16959
#
# Static dielectric constant tensor:
#      x y z
#    x 1.668370 0.000000 0.000000 
#    y 0.000000 1.820060 0.000000 
#    z 0.000000 0.000000 1.656140 
# 
# From -- ./inp_files/20033.got.cif
#   From: 2010.05.17/outbox.cif.g08.bks.cpg/sg54_11_cif.got.tgz:20033.got - 2010.06.03 13:09:01.
