data_PCOD9424361
_publ_section_title
;
Structure prediction by ZEFSAII (Michael W. Deem and Ramdas Pophale) SiO2 
 PCOD9424361
Probable space group: P C C A
;
_chemical_formula_sum "Si O2"
_cell_formula_units_Z 24
_cell_length_a 10.304653
_cell_length_b 4.877455
_cell_length_c 19.847569
_cell_angle_alpha 90.000000
_cell_angle_beta 90.000000
_cell_angle_gamma 90.000000
_cell_volume 997.548371
_symmetry_space_group_name_H-M "P C C A"
_symmetry_group_IT_number 54
_symmetry_cell_setting 'orthorhombic'
loop_
_space_group_symop_operation_xyz
x,y,z
1/2-x,-y,z
1/2+x,-y,1/2-z
-x,y,1/2-z
-x,-y,-z
1/2+x,y,-z
1/2-x,y,1/2+z
x,-y,1/2+z
loop_
_atom_site_type_symbol
_atom_site_label
_atom_site_fract_x
_atom_site_fract_y
_atom_site_fract_z
Si Si1 0.610009 0.505572 0.699668
Si Si2 0.442974 0.012675 0.390132
Si Si3 0.376214 0.311455 0.019415
O O1 0.750000 0.500000 0.734478
O O2 0.500000 0.606223 0.750000
O O3 0.560203 0.224491 0.665917
O O4 0.628741 0.725606 0.640396
O O5 0.375498 0.892058 0.456207
O O6 0.581600 0.131623 0.415677
O O7 0.250000 0.500000 0.027913
O O8 0.500000 0.500000 0.000000
#
# Coordination Sequence:
#
# PCOD9424361 Si02
#       3
#     8   8   8
#     4  12  27  49  74 103 143 197 253 309 368 438
#     4  11  25  46  74 106 148 192 240 301 376 441
#     4  11  25  45  74 114 149 189 238 299 376 452
#
# _framework density 24.058986000000001
#
# number of rings (size 3 to 8) (size 9 to 14) (size 15 to 20)
#    0.000    0.667    3.333    3.000    4.667    5.333 
#    6.000    0.000    0.000    0.000    0.000    0.000 
#    0.000    0.000    0.000    0.000    0.000    0.000 
#
# Total GULP energy -134363.435782 kJ/mol
# GULP energy per Si atom -5598.476491 kJ/mol
# Density = 2.400423 g / cm^3
# Si number density = 24.058986 Si / 1000 Ang^3
#
#
#
# Elastic Constant Matrix: (Units=GPa)
#
#
# Indices 1 2 3 4 5 6 
#
# 1 190.6695 55.1603 44.8111 0.0000 0.0000 0.0000
# 2 55.1603 147.5511 13.3543 0.0000 0.0000 0.0000
# 3 44.8111 13.3543 39.8606 0.0000 0.0000 0.0000
# 4 0.0000 0.0000 0.0000 35.3143 0.0000 0.0000
# 5 0.0000 0.0000 0.0000 0.0000 23.5798 0.0000
# 6 0.0000 0.0000 0.0000 0.0000 0.0000 45.8557
#
#
#
# Elastic Compliance Matrix: (Units=1/GPa)
#
#
# Indices 1 2 3 4 5 6 
#
# 1 0.007750 -0.002175 -0.007984 0.000000 0.000000 0.000000
# 2 -0.002175 0.007599 -0.000101 0.000000 0.000000 0.000000
# 3 -0.007984 -0.000101 0.034097 0.000000 0.000000 0.000000
# 4 0.000000 0.000000 0.000000 0.028317 0.000000 0.000000
# 5 0.000000 0.000000 0.000000 0.000000 0.042409 0.000000
# 6 0.000000 0.000000 0.000000 0.000000 0.000000 0.021808
#
#
# Mechanical properties :
#
#
# Convention : Reuss Voigt Hill
#
# Bulk Modulus (GPa) = 34.57030 67.19249 50.88139
# Shear Modulus (GPa) = 29.04559 38.60033 33.82296
#
# Velocity S-wave (km/s) = 3.47834 4.00985 3.75351
# Velocity P-wave (km/s) = 5.52558 7.03046 6.32295
#
# Compressibility (1/GPa) = 0.02892657
#
# Stress axis : x y z
#
# Youngs Moduli (GPa) = 129.02783 131.58813 29.32801
#
# Poissons Ratio (x) = 0.28617 0.23416
# Poissons Ratio (y) = 0.28060 0.00297
# Poissons Ratio (z) = 1.03018 0.01332
#
# Static dielectric constant tensor:
#      x y z
#    x 2.066440 0.000000 0.000000 
#    y 0.000000 2.013040 0.000000 
#    z 0.000000 0.000000 1.882060 
# 
# From -- ./inp_files/16899.got.cif
#   From: 2010.05.17/outbox.cif.g08.bks.cpg/sg54_9_cif.got.tgz:16899.got - 2010.06.03 13:09:01.
