data_PCOD9424340
_publ_section_title
;
Structure prediction by ZEFSAII (Michael W. Deem and Ramdas Pophale) SiO2 
 PCOD9424340
Probable space group: P C C A
;
_chemical_formula_sum "Si O2"
_cell_formula_units_Z 24
_cell_length_a 10.046145
_cell_length_b 6.844258
_cell_length_c 15.846350
_cell_angle_alpha 90.000000
_cell_angle_beta 90.000000
_cell_angle_gamma 90.000000
_cell_volume 1089.569803
_symmetry_space_group_name_H-M "P C C A"
_symmetry_group_IT_number 54
_symmetry_cell_setting 'orthorhombic'
loop_
_space_group_symop_operation_xyz
x,y,z
1/2-x,-y,z
1/2+x,-y,1/2-z
-x,y,1/2-z
-x,-y,-z
1/2+x,y,-z
1/2-x,y,1/2+z
x,-y,1/2+z
loop_
_atom_site_type_symbol
_atom_site_label
_atom_site_fract_x
_atom_site_fract_y
_atom_site_fract_z
Si Si1 0.750000 0.000000 0.318720
Si Si2 0.500000 0.217436 0.250000
Si Si3 0.610092 0.531925 0.608697
Si Si4 0.933830 0.808282 0.957166
O O1 0.634276 0.093268 0.261449
O O2 0.830248 0.139454 0.383661
O O3 0.489655 0.353200 0.331523
O O4 0.750000 0.500000 0.654136
O O5 0.549104 0.327544 0.580823
O O6 0.633065 0.672645 0.528500
O O7 0.000000 0.000000 0.000000
#
# Coordination Sequence:
#
# PCOD9424340 Si02
#       4
#     4   4   8   8
#     4  12  28  48  78 108 158 198 252 302 388 446
#     4  12  30  46  74 118 152 196 244 324 382 450
#     4  11  27  45  76 107 146 191 253 307 381 441
#     4  11  24  50  76 106 143 203 253 308 361 461
#
# _framework density 22.027044
#
# number of rings (size 3 to 8) (size 9 to 14) (size 15 to 20)
#    0.000    0.667    3.333    2.000   14.000    1.333 
#    0.000    0.000    0.000    0.000    0.000    0.000 
#    0.000    0.000    0.000    0.000    0.000    0.000 
#
# Total GULP energy -134266.067231 kJ/mol
# GULP energy per Si atom -5594.419468 kJ/mol
# Density = 2.197691 g / cm^3
# Si number density = 22.027044 Si / 1000 Ang^3
#
#
#
# Elastic Constant Matrix: (Units=GPa)
#
#
# Indices 1 2 3 4 5 6 
#
# 1 124.2260 62.9941 10.9114 0.0000 0.0000 0.0000
# 2 62.9941 140.4498 38.4598 0.0000 0.0000 0.0000
# 3 10.9114 38.4598 55.3934 0.0000 0.0000 0.0000
# 4 0.0000 0.0000 0.0000 -59.4898 0.0000 0.0000
# 5 0.0000 0.0000 0.0000 0.0000 32.7319 0.0000
# 6 0.0000 0.0000 0.0000 0.0000 0.0000 18.8558
#
#
#
# Elastic Compliance Matrix: (Units=1/GPa)
#
#
# Indices 1 2 3 4 5 6 
#
# 1 0.010518 -0.005124 0.001486 0.000000 0.000000 0.000000
# 2 -0.005124 0.011288 -0.006828 0.000000 0.000000 0.000000
# 3 0.001486 -0.006828 0.022501 0.000000 0.000000 0.000000
# 4 0.000000 0.000000 0.000000 -0.016810 0.000000 0.000000
# 5 0.000000 0.000000 0.000000 0.000000 0.030551 0.000000
# 6 0.000000 0.000000 0.000000 0.000000 0.000000 0.053034
#
#
# Mechanical properties :
#
#
# Convention : Reuss Voigt Hill
#
# Bulk Modulus (GPa) = 42.78251 60.53331 51.65791
# Shear Modulus (GPa) = 35.76380 12.26649 24.01515
#
# Velocity S-wave (km/s) = 4.03380 2.36240 3.30549
# Velocity P-wave (km/s) = 6.41563 5.91458 6.17019
#
# Compressibility (1/GPa) = 0.02337404
#
# Stress axis : x y z
#
# Youngs Moduli (GPa) = 95.07649 88.58918 44.44320
#
# Poissons Ratio (x) = 0.45396 -0.06604
# Poissons Ratio (y) = 0.48721 0.30346
# Poissons Ratio (z) = -0.14129 0.60488
#
# Static dielectric constant tensor:
#      x y z
#    x 1.837530 0.000000 0.000000 
#    y 0.000000 1.804930 0.000000 
#    z 0.000000 0.000000 1.822560 
# 
# From -- ./inp_files/12031.got.cif
#   From: 2010.05.17/outbox.cif.g08.bks.cpg/sg54_7_cif.got.tgz:12031.got - 2010.06.03 13:09:01.
