data_PCOD9424033
_publ_section_title
;
Structure prediction by ZEFSAII (Michael W. Deem and Ramdas Pophale) SiO2 
 PCOD9424033
Probable space group: P C C A
;
_chemical_formula_sum "Si O2"
_cell_formula_units_Z 48
_cell_length_a 18.316762
_cell_length_b 11.375454
_cell_length_c 11.647633
_cell_angle_alpha 90.000000
_cell_angle_beta 90.000000
_cell_angle_gamma 90.000000
_cell_volume 2426.918092
_symmetry_space_group_name_H-M "P C C A"
_symmetry_group_IT_number 54
_symmetry_cell_setting 'orthorhombic'
loop_
_space_group_symop_operation_xyz
x,y,z
1/2-x,-y,z
1/2+x,-y,1/2-z
-x,y,1/2-z
-x,-y,-z
1/2+x,y,-z
1/2-x,y,1/2+z
x,-y,1/2+z
loop_
_atom_site_type_symbol
_atom_site_label
_atom_site_fract_x
_atom_site_fract_y
_atom_site_fract_z
Si Si1 0.692574 0.333486 0.859296
Si Si2 0.919398 0.230881 0.194182
Si Si3 0.467219 0.629042 0.503872
Si Si4 0.645319 0.398762 0.302018
Si Si5 0.112575 0.263007 0.924950
Si Si6 0.456321 0.018619 0.375902
O O1 0.645204 0.246137 0.782906
O O2 0.777230 0.338519 0.828693
O O3 0.659237 0.463535 0.831281
O O4 0.678141 0.292449 0.988914
O O5 0.000000 0.238961 0.250000
O O6 0.914950 0.104630 0.136046
O O7 0.917808 0.336575 0.103353
O O8 0.500000 0.500000 0.500000
O O9 0.418758 0.644064 0.615582
O O10 0.537546 0.711570 0.507050
O O11 0.620749 0.358052 0.176442
O O12 0.098240 0.130040 0.884058
O O13 0.500000 0.031551 0.250000
O O14 0.500000 0.000000 0.500000
#
# Coordination Sequence:
#
# PCOD9424033 Si02
#       6
#     8   8   8   8   8   8
#     4  11  25  44  63  96 136 183 212 277 359 414
#     4  11  21  40  67  95 132 174 220 275 332 404
#     4  12  21  38  67  98 127 162 223 278 332 393
#     4  11  26  40  66  95 136 172 219 277 348 415
#     4  12  23  43  67  96 131 172 232 280 335 411
#     4  11  22  41  69 101 133 177 230 292 342 396
#
# _framework density 19.778169999999999
#
# number of rings (size 3 to 8) (size 9 to 14) (size 15 to 20)
#    0.000    0.667    5.000    3.500    2.333    1.333 
#    0.000    0.833    0.000    0.000    0.000    0.000 
#    0.000    0.000    0.000    0.000    0.000    0.000 
#
# Total GULP energy -267746.296828 kJ/mol
# GULP energy per Si atom -5578.047851 kJ/mol
# Density = 1.973315 g / cm^3
# Si number density = 19.778170 Si / 1000 Ang^3
#
#
#
# Elastic Constant Matrix: (Units=GPa)
#
#
# Indices 1 2 3 4 5 6 
#
# 1 53.1074 3.2767 7.5836 0.0000 0.0000 0.0000
# 2 3.2767 107.0608 25.2536 0.0000 0.0000 0.0000
# 3 7.5836 25.2536 108.4886 0.0000 0.0000 0.0000
# 4 0.0000 0.0000 0.0000 22.7274 0.0000 0.0000
# 5 0.0000 0.0000 0.0000 0.0000 9.2241 0.0000
# 6 0.0000 0.0000 0.0000 0.0000 0.0000 12.1400
#
#
#
# Elastic Compliance Matrix: (Units=1/GPa)
#
#
# Indices 1 2 3 4 5 6 
#
# 1 0.019028 -0.000284 -0.001264 0.000000 0.000000 0.000000
# 2 -0.000284 0.009887 -0.002282 0.000000 0.000000 0.000000
# 3 -0.001264 -0.002282 0.009837 0.000000 0.000000 0.000000
# 4 0.000000 0.000000 0.000000 0.044000 0.000000 0.000000
# 5 0.000000 0.000000 0.000000 0.000000 0.108412 0.000000
# 6 0.000000 0.000000 0.000000 0.000000 0.000000 0.082373
#
#
# Mechanical properties :
#
#
# Convention : Reuss Voigt Hill
#
# Bulk Modulus (GPa) = 32.16205 37.87607 35.01906
# Shear Modulus (GPa) = 17.14909 24.32114 20.73512
#
# Velocity S-wave (km/s) = 2.94780 3.51051 3.24139
# Velocity P-wave (km/s) = 5.28041 5.96855 5.63499
#
# Compressibility (1/GPa) = 0.03109254
#
# Stress axis : x y z
#
# Youngs Moduli (GPa) = 52.55466 101.13893 101.65667
#
# Poissons Ratio (x) = 0.02875 0.12849
# Poissons Ratio (y) = 0.01494 0.23195
# Poissons Ratio (z) = 0.06643 0.23077
#
# Static dielectric constant tensor:
#      x y z
#    x 1.697870 0.000000 0.000000 
#    y 0.000000 1.726560 0.000000 
#    z 0.000000 0.000000 1.686070 
# 
# From -- ./inp_files/8966.got.cif
#   From: 2010.05.17/outbox.cif.g08.bks.cpg/sg54_5_cif.got.tgz:8966.got - 2010.06.03 13:09:01.
