data_PCOD9424805
_publ_section_title
;
Structure prediction by ZEFSAII (Michael W. Deem and Ramdas Pophale) SiO2 
 PCOD9424805
Probable space group: P B A M
;
_chemical_formula_sum "Si O2"
_cell_formula_units_Z 56
_cell_length_a 27.253985
_cell_length_b 10.075186
_cell_length_c 12.691571
_cell_angle_alpha 90.000000
_cell_angle_beta 90.000000
_cell_angle_gamma 90.000000
_cell_volume 3484.965385
_symmetry_space_group_name_H-M "P B A M"
_symmetry_group_IT_number 55
_symmetry_cell_setting 'orthorhombic'
loop_
_space_group_symop_operation_xyz
x,y,z
-x,-y,z
1/2+x,1/2-y,-z
1/2-x,1/2+y,-z
-x,-y,-z
x,y,-z
1/2-x,1/2+y,z
1/2+x,1/2-y,z
loop_
_atom_site_type_symbol
_atom_site_label
_atom_site_fract_x
_atom_site_fract_y
_atom_site_fract_z
Si Si1 0.331027 0.580090 0.378293
Si Si2 0.198303 0.791425 0.876149
Si Si3 0.347245 0.014168 0.377820
Si Si4 0.757858 0.469294 0.226821
Si Si5 0.916472 0.717864 0.373019
Si Si6 0.875191 0.194337 0.690507
Si Si7 0.016128 0.846355 0.374751
O O1 0.319244 0.611295 0.500000
O O2 0.283830 0.588913 0.304522
O O3 0.374879 0.676231 0.341289
O O4 0.351570 0.430794 0.369433
O O5 0.222144 0.649970 0.845137
O O6 0.149030 0.805007 0.806243
O O7 0.234009 0.910030 0.837574
O O8 0.189676 0.800029 0.000000
O O9 0.335148 0.985277 0.500000
O O10 0.302116 0.981323 0.301443
O O11 0.359350 0.168503 0.363655
O O12 0.394588 0.925919 0.348315
O O13 0.919660 0.728749 0.500000
O O14 0.970498 0.757442 0.335875
O O15 0.933497 0.179720 0.685296
O O16 0.025130 0.821021 0.500000
O O17 0.000000 0.000000 0.366056
#
# Coordination Sequence:
#
# PCOD9424805 Si02
#       7
#     8   8   8   8   8   8   8
#     4  10  17  29  47  73 103 133 163 191 228 294
#     4  10  21  37  53  71  94 124 168 216 251 286
#     4  10  19  31  44  72 111 135 157 193 238 296
#     4  10  20  32  52  75  97 132 164 196 249 293
#     4   9  18  28  44  68 101 137 163 190 227 275
#     4  10  20  31  49  72  94 130 171 201 246 290
#     4  10  17  29  49  73  98 130 166 197 232 287
#
# _framework density 16.069026000000001
#
# number of rings (size 3 to 8) (size 9 to 14) (size 15 to 20)
#    0.000    2.143    1.429    3.000    0.000    0.571 
#    0.000    6.429    0.000    0.429    0.000    9.000 
#    0.000    0.000    0.000    0.000    0.000    0.000 
#
# Total GULP energy -312328.154163 kJ/mol
# GULP energy per Si atom -5577.288467 kJ/mol
# Density = 1.603245 g / cm^3
# Si number density = 16.069026 Si / 1000 Ang^3
#
#
#
# Elastic Constant Matrix: (Units=GPa)
#
#
# Indices 1 2 3 4 5 6 
#
# 1 101.3133 12.3393 41.6675 0.0000 0.0000 0.0000
# 2 12.3393 58.2496 22.1232 0.0000 0.0000 0.0000
# 3 41.6675 22.1232 88.0274 0.0000 0.0000 0.0000
# 4 0.0000 0.0000 0.0000 12.4123 0.0000 0.0000
# 5 0.0000 0.0000 0.0000 0.0000 11.2445 0.0000
# 6 0.0000 0.0000 0.0000 0.0000 0.0000 26.8632
#
#
#
# Elastic Compliance Matrix: (Units=1/GPa)
#
#
# Indices 1 2 3 4 5 6 
#
# 1 0.012266 -0.000435 -0.005697 0.000000 0.000000 0.000000
# 2 -0.000435 0.018995 -0.004568 0.000000 0.000000 0.000000
# 3 -0.005697 -0.004568 0.015205 0.000000 0.000000 0.000000
# 4 0.000000 0.000000 0.000000 0.080565 0.000000 0.000000
# 5 0.000000 0.000000 0.000000 0.000000 0.088932 0.000000
# 6 0.000000 0.000000 0.000000 0.000000 0.000000 0.037226
#
#
# Mechanical properties :
#
#
# Convention : Reuss Voigt Hill
#
# Bulk Modulus (GPa) = 39.89418 44.42779 42.16098
# Shear Modulus (GPa) = 17.67139 21.53469 19.60304
#
# Velocity S-wave (km/s) = 3.31980 3.66476 3.49653
# Velocity P-wave (km/s) = 6.29090 6.75392 6.52651
#
# Compressibility (1/GPa) = 0.02506631
#
# Stress axis : x y z
#
# Youngs Moduli (GPa) = 81.52390 52.64678 65.76878
#
# Poissons Ratio (x) = 0.02289 0.37468
# Poissons Ratio (y) = 0.03544 0.30043
# Poissons Ratio (z) = 0.46444 0.24049
#
# Static dielectric constant tensor:
#      x y z
#    x 1.537230 0.000000 0.000000 
#    y 0.000000 1.553410 0.000000 
#    z 0.000000 0.000000 1.505410 
# 
# From -- ./inp_files/15710.got.cif
#   From: 2010.05.17/outbox.cif.g08.bks.cpg/sg55_8_cif.got.tgz:15710.got - 2010.06.03 13:27:54.
