data_PCOD9424641
_publ_section_title
;
Structure prediction by ZEFSAII (Michael W. Deem and Ramdas Pophale) SiO2 
 PCOD9424641
Probable space group: P C C A
;
_chemical_formula_sum "Si O2"
_cell_formula_units_Z 60
_cell_length_a 24.000000
_cell_length_b 15.000000
_cell_length_c 9.000000
_cell_angle_alpha 90.000000
_cell_angle_beta 90.000000
_cell_angle_gamma 90.000000
_cell_volume 3240.000000
_symmetry_space_group_name_H-M "P C C A"
_symmetry_group_IT_number 54
_symmetry_cell_setting 'orthorhombic'
loop_
_space_group_symop_operation_xyz
x,y,z
1/2-x,-y,z
1/2+x,-y,1/2-z
-x,y,1/2-z
-x,-y,-z
1/2+x,y,-z
1/2-x,y,1/2+z
x,-y,1/2+z
loop_
_atom_site_type_symbol
_atom_site_label
_atom_site_fract_x
_atom_site_fract_y
_atom_site_fract_z
Si Si1 0.892844 0.899284 0.714441
Si Si2 0.943879 0.944558 0.034536
Si Si3 0.809504 0.546905 0.334293
Si Si4 0.500000 0.196179 0.250000
Si Si5 0.814718 0.743341 0.220620
Si Si6 0.411706 0.748291 0.531543
Si Si7 0.803597 0.224993 0.357978
Si Si8 0.849102 0.609339 0.656179
O O1 0.925974 0.911001 0.870600
O O2 0.913134 0.827194 0.591153
O O3 0.835513 0.858024 0.780155
O O4 0.899505 0.991358 0.620671
O O5 0.959813 0.867554 0.151777
O O6 0.000000 0.000000 0.000000
O O7 0.750000 0.500000 0.316921
O O8 0.811415 0.635943 0.234918
O O9 0.815476 0.574927 0.508468
O O10 0.853691 0.476078 0.265271
O O11 0.532540 0.253246 0.372169
O O12 0.865328 0.764974 0.337218
O O13 0.760716 0.780889 0.308119
O O14 0.813830 0.768033 0.040495
O O15 0.398373 0.660599 0.433362
O O16 0.824513 0.313357 0.265998
#
# Coordination Sequence:
#
# PCOD9424641 Si02
#       8
#     8   8   8   4   8   8   8   8
#     4  11  22  39  62  95 127 154 201 257 325 374
#     4  12  21  37  65  97 119 155 204 268 320 374
#     4  11  19  30  56  86 122 161 208 261 293 358
#     4  12  22  40  66  88 124 156 212 274 316 372
#     4  11  22  39  59  90 127 173 213 246 318 365
#     4  10  23  38  59  91 125 165 208 263 320 378
#     4  11  22  37  59  86 130 167 198 256 304 387
#     4  10  21  33  52  89 124 159 208 255 312 361
#
# _framework density 18.518519000000001
#
# number of rings (size 3 to 8) (size 9 to 14) (size 15 to 20)
#    0.000    1.067    4.000    4.400    0.000    0.000 
#    0.000    0.000    0.000   20.000    0.000    0.000 
#    0.000    0.000    0.000    0.000    0.000    0.000 
#
# Total GULP energy -334034.139115 kJ/mol
# GULP energy per Si atom -5567.235652 kJ/mol
# Density = 1.847637 g / cm^3
# Si number density = 18.518519 Si / 1000 Ang^3
#
#
#
# Elastic Constant Matrix: (Units=GPa)
#
#
# Indices 1 2 3 4 5 6 
#
# 1 54.8531 41.0780 22.9674 0.0000 0.0000 0.0000
# 2 41.0780 59.3259 32.7685 0.0000 0.0000 0.0000
# 3 22.9674 32.7685 166.8700 0.0000 0.0000 0.0000
# 4 0.0000 0.0000 0.0000 44.5115 0.0000 0.0000
# 5 0.0000 0.0000 0.0000 0.0000 36.8104 0.0000
# 6 0.0000 0.0000 0.0000 0.0000 0.0000 27.5296
#
#
#
# Elastic Compliance Matrix: (Units=1/GPa)
#
#
# Indices 1 2 3 4 5 6 
#
# 1 0.037865 -0.026179 -0.000071 0.000000 0.000000 0.000000
# 2 -0.026179 0.037007 -0.003664 0.000000 0.000000 0.000000
# 3 -0.000071 -0.003664 0.006722 0.000000 0.000000 0.000000
# 4 0.000000 0.000000 0.000000 0.022466 0.000000 0.000000
# 5 0.000000 0.000000 0.000000 0.000000 0.027166 0.000000
# 6 0.000000 0.000000 0.000000 0.000000 0.000000 0.036325
#
#
# Mechanical properties :
#
#
# Convention : Reuss Voigt Hill
#
# Bulk Modulus (GPa) = 45.94329 52.74189 49.34259
# Shear Modulus (GPa) = 21.30986 34.05263 27.68124
#
# Velocity S-wave (km/s) = 3.39592 4.29282 3.87044
# Velocity P-wave (km/s) = 6.34347 7.28791 6.83203
#
# Compressibility (1/GPa) = 0.02176596
#
# Stress axis : x y z
#
# Youngs Moduli (GPa) = 26.40963 27.02223 148.76745
#
# Poissons Ratio (x) = 0.70742 0.01053
# Poissons Ratio (y) = 0.69138 0.54506
# Poissons Ratio (z) = 0.00187 0.09900
#
# Static dielectric constant tensor:
#      x y z
#    x 1.708540 0.000000 0.000000 
#    y 0.000000 1.680950 0.000000 
#    z 0.000000 0.000000 1.620730 
# 
# From -- ./inp_files/5272.got.cif
#   From: 2010.05.17/outbox.ucp.g08.bks.cvg/sg54_3_cif.got.tgz:5272.got - 2010.06.11 16:34:40.
