data_PCOD9424750
_publ_section_title
;
Structure prediction by ZEFSAII (Michael W. Deem and Ramdas Pophale) SiO2 
 PCOD9424750
Probable space group: P B A M
;
_chemical_formula_sum "Si O2"
_cell_formula_units_Z 26
_cell_length_a 16.972269
_cell_length_b 5.133073
_cell_length_c 14.511284
_cell_angle_alpha 90.000000
_cell_angle_beta 90.000000
_cell_angle_gamma 90.000000
_cell_volume 1264.221549
_symmetry_space_group_name_H-M "P B A M"
_symmetry_group_IT_number 55
_symmetry_cell_setting 'orthorhombic'
loop_
_space_group_symop_operation_xyz
x,y,z
-x,-y,z
1/2+x,1/2-y,-z
1/2-x,1/2+y,-z
-x,-y,-z
x,y,-z
1/2-x,1/2+y,z
1/2+x,1/2-y,z
loop_
_atom_site_type_symbol
_atom_site_label
_atom_site_fract_x
_atom_site_fract_y
_atom_site_fract_z
Si Si1 0.055235 0.745417 0.851210
Si Si2 0.420834 0.162042 0.363183
Si Si3 0.000000 0.000000 0.500000
Si Si4 0.200352 0.431930 0.500000
Si Si5 0.692908 0.725687 0.000000
O O1 0.081434 0.704595 0.745224
O O2 0.132564 0.768076 0.913814
O O3 0.000000 0.500000 0.877570
O O4 0.000000 0.000000 0.858373
O O5 0.435397 0.424673 0.419433
O O6 0.350573 0.005101 0.409900
O O7 0.500000 0.000000 0.387244
O O8 0.229264 0.139251 0.500000
O O9 0.748310 0.471716 0.000000
#
# Coordination Sequence:
#
# PCOD9424750 Si02
#       5
#     8   8   2   4   4
#     4  11  23  43  69  99 124 170 225 274 316 385
#     4  10  23  38  66  89 124 170 222 266 315 375
#     4  10  16  36  60  88 120 154 212 260 314 350
#     4  11  26  37  56  88 130 167 204 261 321 379
#     4  12  26  44  68  98 138 174 204 268 340 402
#
# _framework density 20.566013999999999
#
# number of rings (size 3 to 8) (size 9 to 14) (size 15 to 20)
#    0.000    1.231    1.538    4.615    8.615    2.462 
#    0.000    0.000    0.000    0.000    0.000    0.000 
#    0.000    0.000    0.000    0.000    0.000    0.000 
#
# Total GULP energy -144845.571938 kJ/mol
# GULP energy per Si atom -5570.983536 kJ/mol
# Density = 2.051920 g / cm^3
# Si number density = 20.566014 Si / 1000 Ang^3
#
#
#
# Elastic Constant Matrix: (Units=GPa)
#
#
# Indices 1 2 3 4 5 6 
#
# 1 152.5907 58.8393 81.5617 0.0000 0.0000 0.0000
# 2 58.8393 113.7120 20.4300 0.0000 0.0000 0.0000
# 3 81.5617 20.4300 138.3541 0.0000 0.0000 0.0000
# 4 0.0000 0.0000 0.0000 0.3827 0.0000 0.0000
# 5 0.0000 0.0000 0.0000 0.0000 49.0574 0.0000
# 6 0.0000 0.0000 0.0000 0.0000 0.0000 56.5507
#
#
#
# Elastic Compliance Matrix: (Units=1/GPa)
#
#
# Indices 1 2 3 4 5 6 
#
# 1 0.011803 -0.004989 -0.006221 0.000000 0.000000 0.000000
# 2 -0.004989 0.011143 0.001296 0.000000 0.000000 0.000000
# 3 -0.006221 0.001296 0.010704 0.000000 0.000000 0.000000
# 4 0.000000 0.000000 0.000000 2.613048 0.000000 0.000000
# 5 0.000000 0.000000 0.000000 0.000000 0.020384 0.000000
# 6 0.000000 0.000000 0.000000 0.000000 0.000000 0.017683
#
#
# Mechanical properties :
#
#
# Convention : Reuss Voigt Hill
#
# Bulk Modulus (GPa) = 72.35692 80.70210 76.52951
# Shear Modulus (GPa) = 1.84556 37.45320 19.64938
#
# Velocity S-wave (km/s) = 0.94833 4.27209 3.09436
# Velocity P-wave (km/s) = 6.03807 7.97872 7.07525
#
# Compressibility (1/GPa) = 0.01382038
#
# Stress axis : x y z
#
# Youngs Moduli (GPa) = 84.72653 89.74177 93.42411
#
# Poissons Ratio (x) = 0.44777 0.58120
# Poissons Ratio (y) = 0.42274 -0.12107
# Poissons Ratio (z) = 0.52709 -0.11630
#
# Static dielectric constant tensor:
#      x y z
#    x 1.713730 0.000000 0.000000 
#    y 0.000000 1.844520 0.000000 
#    z 0.000000 0.000000 1.708350 
# 
# From -- ./inp_files/18645.got.cif
#   From: 2010.05.17/outbox.cif.g08.bks.cpg/sg55_10_cif.got.tgz:18645.got - 2010.06.03 13:27:54.
