data_PCOD9424535
_publ_section_title
;
Structure prediction by ZEFSAII (Michael W. Deem and Ramdas Pophale) SiO2 
 PCOD9424535
Probable space group: P C C A
;
_chemical_formula_sum "Si O2"
_cell_formula_units_Z 40
_cell_length_a 6.807241
_cell_length_b 9.892000
_cell_length_c 26.229934
_cell_angle_alpha 90.000000
_cell_angle_beta 90.000000
_cell_angle_gamma 90.000000
_cell_volume 1766.251045
_symmetry_space_group_name_H-M "P C C A"
_symmetry_group_IT_number 54
_symmetry_cell_setting 'orthorhombic'
loop_
_space_group_symop_operation_xyz
x,y,z
1/2-x,-y,z
1/2+x,-y,1/2-z
-x,y,1/2-z
-x,-y,-z
1/2+x,y,-z
1/2-x,y,1/2+z
x,-y,1/2+z
loop_
_atom_site_type_symbol
_atom_site_label
_atom_site_fract_x
_atom_site_fract_y
_atom_site_fract_z
Si Si1 0.250000 0.500000 0.197841
Si Si2 0.500000 0.720050 0.250000
Si Si3 0.876172 0.605539 0.010609
Si Si4 0.171359 0.151008 0.067708
Si Si5 0.847374 0.856832 0.653143
Si Si6 0.997024 0.671093 0.122956
O O1 0.324632 0.619787 0.233736
O O2 0.084260 0.555203 0.159006
O O3 0.474378 0.813101 0.298954
O O4 0.898389 0.619870 0.071201
O O5 0.626014 0.570149 0.001665
O O6 0.868272 0.749273 0.979805
O O7 0.329852 0.229076 0.103492
O O8 0.975424 0.140902 0.101715
O O9 0.250000 0.000000 0.054820
O O10 0.671346 0.751049 0.651097
O O11 0.750000 0.000000 0.660721
#
# Coordination Sequence:
#
# PCOD9424535 Si02
#       6
#     4   4   8   8   8   8
#     4  12  26  50  78 112 148 200 256 328 394 464
#     4  12  28  48  78 112 144 194 264 326 392 456
#     4  12  25  44  73 112 150 204 252 305 375 456
#     4  12  26  50  75 110 159 204 255 312 376 462
#     4  12  28  49  76 110 148 200 255 318 390 457
#     4  12  26  47  76 107 156 194 251 314 383 458
#
# _framework density 22.646837999999999
#
# number of rings (size 3 to 8) (size 9 to 14) (size 15 to 20)
#    0.000    0.000    6.000    3.600    2.800    4.000 
#    0.000    0.000    0.000    0.000    0.000    0.000 
#    0.000    0.000    0.000    0.000    0.000    0.000 
#
# Total GULP energy -223748.681283 kJ/mol
# GULP energy per Si atom -5593.717032 kJ/mol
# Density = 2.259529 g / cm^3
# Si number density = 22.646838 Si / 1000 Ang^3
#
#
#
# Elastic Constant Matrix: (Units=GPa)
#
#
# Indices 1 2 3 4 5 6 
#
# 1 97.6217 50.6234 9.8340 0.0000 0.0000 0.0000
# 2 50.6234 150.8964 58.0260 0.0000 0.0000 0.0000
# 3 9.8340 58.0260 96.4190 0.0000 0.0000 0.0000
# 4 0.0000 0.0000 0.0000 22.9380 0.0000 0.0000
# 5 0.0000 0.0000 0.0000 0.0000 -7.7257 0.0000
# 6 0.0000 0.0000 0.0000 0.0000 0.0000 44.2390
#
#
#
# Elastic Compliance Matrix: (Units=1/GPa)
#
#
# Indices 1 2 3 4 5 6 
#
# 1 0.012597 -0.004856 0.001637 0.000000 0.000000 0.000000
# 2 -0.004856 0.010494 -0.005820 0.000000 0.000000 0.000000
# 3 0.001637 -0.005820 0.013707 0.000000 0.000000 0.000000
# 4 0.000000 0.000000 0.000000 0.043596 0.000000 0.000000
# 5 0.000000 0.000000 0.000000 0.000000 -0.129439 0.000000
# 6 0.000000 0.000000 0.000000 0.000000 0.000000 0.022604
#
#
# Mechanical properties :
#
#
# Convention : Reuss Voigt Hill
#
# Bulk Modulus (GPa) = 53.41614 64.65599 59.03607
# Shear Modulus (GPa) = -2354.74090 26.98719 -1163.87686
#
# Velocity S-wave (km/s) = -32.28038 3.45578 -22.69450
# Velocity P-wave (km/s) = 36.95573 6.67344 25.70206
#
# Compressibility (1/GPa) = 0.01872093
#
# Stress axis : x y z
#
# Youngs Moduli (GPa) = 79.38625 95.29076 72.95484
#
# Poissons Ratio (x) = 0.46270 -0.11946
# Poissons Ratio (y) = 0.38547 0.42462
# Poissons Ratio (z) = -0.12999 0.55462
#
# Static dielectric constant tensor:
#      x y z
#    x 1.975990 0.000000 0.000000 
#    y 0.000000 2.089870 0.000000 
#    z 0.000000 0.000000 1.747520 
# 
# From -- ./inp_files/25182.got.cif
#   From: 2010.05.17/outbox.cif.g08.bks.cpg/sg54_13_cif.got.tgz:25182.got - 2010.06.03 13:09:01.
