data_PCOD9424206
_publ_section_title
;
Structure prediction by ZEFSAII (Michael W. Deem and Ramdas Pophale) SiO2 
 PCOD9424206
Probable space group: P C C A
;
_chemical_formula_sum "Si O2"
_cell_formula_units_Z 40
_cell_length_a 16.656106
_cell_length_b 11.792264
_cell_length_c 10.172442
_cell_angle_alpha 90.000000
_cell_angle_beta 90.000000
_cell_angle_gamma 90.000000
_cell_volume 1998.001877
_symmetry_space_group_name_H-M "P C C A"
_symmetry_group_IT_number 54
_symmetry_cell_setting 'orthorhombic'
loop_
_space_group_symop_operation_xyz
x,y,z
1/2-x,-y,z
1/2+x,-y,1/2-z
-x,y,1/2-z
-x,-y,-z
1/2+x,y,-z
1/2-x,y,1/2+z
x,-y,1/2+z
loop_
_atom_site_type_symbol
_atom_site_label
_atom_site_fract_x
_atom_site_fract_y
_atom_site_fract_z
Si Si1 0.557396 0.990166 0.624559
Si Si2 0.086797 0.452049 0.039100
Si Si3 0.336140 0.449855 0.796693
Si Si4 0.680709 0.811559 0.203480
Si Si5 0.166496 0.203827 0.992067
O O1 0.500000 0.976106 0.750000
O O2 0.617078 0.096594 0.650393
O O3 0.500000 0.000000 0.500000
O O4 0.610655 0.883252 0.585465
O O5 0.148937 0.512337 0.943143
O O6 0.114025 0.319932 0.014821
O O7 0.101777 0.491290 0.187682
O O8 0.000000 0.500000 0.000000
O O9 0.250000 0.500000 0.755534
O O10 0.350250 0.316281 0.794698
O O11 0.693932 0.835945 0.360440
O O12 0.756292 0.796175 0.104758
#
# Coordination Sequence:
#
# PCOD9424206 Si02
#       5
#     8   8   8   8   8
#     4  12  27  47  70 102 141 184 238 296 363 418
#     4  11  25  42  69 104 141 183 235 297 358 416
#     4  11  23  44  69 101 140 181 231 285 357 431
#     4  11  26  45  73  98 142 184 240 291 353 430
#     4  11  26  47  69 104 138 194 239 294 361 430
#
# _framework density 20.020002000000002
#
# number of rings (size 3 to 8) (size 9 to 14) (size 15 to 20)
#    0.000    0.800    4.000    1.800    8.400    3.200 
#    0.000    0.000    0.000    0.000    0.000    0.000 
#    0.000    0.000    0.000    0.000    0.000    0.000 
#
# Total GULP energy -222733.944120 kJ/mol
# GULP energy per Si atom -5568.348603 kJ/mol
# Density = 1.997444 g / cm^3
# Si number density = 20.020002 Si / 1000 Ang^3
#
#
#
# Elastic Constant Matrix: (Units=GPa)
#
#
# Indices 1 2 3 4 5 6 
#
# 1 76.3810 8.5495 39.0838 0.0000 0.0000 0.0000
# 2 8.5495 84.4838 29.3516 0.0000 0.0000 0.0000
# 3 39.0838 29.3516 133.2515 0.0000 0.0000 0.0000
# 4 0.0000 0.0000 0.0000 29.5188 0.0000 0.0000
# 5 0.0000 0.0000 0.0000 0.0000 54.9924 0.0000
# 6 0.0000 0.0000 0.0000 0.0000 0.0000 30.8639
#
#
#
# Elastic Compliance Matrix: (Units=1/GPa)
#
#
# Indices 1 2 3 4 5 6 
#
# 1 0.015404 0.000012 -0.004521 0.000000 0.000000 0.000000
# 2 0.000012 0.012817 -0.002827 0.000000 0.000000 0.000000
# 3 -0.004521 -0.002827 0.009453 0.000000 0.000000 0.000000
# 4 0.000000 0.000000 0.000000 0.033877 0.000000 0.000000
# 5 0.000000 0.000000 0.000000 0.000000 0.018184 0.000000
# 6 0.000000 0.000000 0.000000 0.000000 0.000000 0.032400
#
#
# Mechanical properties :
#
#
# Convention : Reuss Voigt Hill
#
# Bulk Modulus (GPa) = 43.47190 49.78731 46.62961
# Shear Modulus (GPa) = 34.60790 37.55044 36.07917
#
# Velocity S-wave (km/s) = 4.16223 4.33557 4.24979
# Velocity P-wave (km/s) = 6.69778 7.07006 6.88644
#
# Compressibility (1/GPa) = 0.02300336
#
# Stress axis : x y z
#
# Youngs Moduli (GPa) = 64.91732 78.01842 105.78370
#
# Poissons Ratio (x) = -0.00092 0.47822
# Poissons Ratio (y) = -0.00076 0.29903
# Poissons Ratio (z) = 0.29348 0.22054
#
# Static dielectric constant tensor:
#      x y z
#    x 2.059200 0.000000 0.000000 
#    y 0.000000 1.787030 0.000000 
#    z 0.000000 0.000000 1.636230 
# 
# From -- ./inp_files/3947.got.cif
#   From: 2010.05.17/outbox.cif.g08.bks.cpg/sg54_2_cif.got.tgz:3947.got - 2010.06.03 13:09:01.
