data_PCOD9424887
_publ_section_title
;
Structure prediction by ZEFSAII (Michael W. Deem and Ramdas Pophale) SiO2 
 PCOD9424887
Probable space group: P B A M
;
_chemical_formula_sum "Si O2"
_cell_formula_units_Z 64
_cell_length_a 27.316843
_cell_length_b 18.885323
_cell_length_c 8.876918
_cell_angle_alpha 90.000000
_cell_angle_beta 90.000000
_cell_angle_gamma 90.000000
_cell_volume 4579.490177
_symmetry_space_group_name_H-M "P B A M"
_symmetry_group_IT_number 55
_symmetry_cell_setting 'orthorhombic'
loop_
_space_group_symop_operation_xyz
x,y,z
-x,-y,z
1/2+x,1/2-y,-z
1/2-x,1/2+y,-z
-x,-y,-z
x,y,-z
1/2-x,1/2+y,z
1/2+x,1/2-y,z
loop_
_atom_site_type_symbol
_atom_site_label
_atom_site_fract_x
_atom_site_fract_y
_atom_site_fract_z
Si Si1 0.698881 0.199994 0.173503
Si Si2 0.245014 0.921536 0.680525
Si Si3 0.353220 0.663330 0.818298
Si Si4 0.740435 0.415870 0.681261
Si Si5 0.055520 0.919793 0.317290
Si Si6 0.148879 0.832338 0.317779
Si Si7 0.556304 0.416430 0.682424
Si Si8 0.701589 0.794214 0.174124
O O1 0.711724 0.128937 0.261491
O O2 0.658033 0.255353 0.228986
O O3 0.748594 0.247113 0.178492
O O4 0.688906 0.182242 0.000000
O O5 0.245954 0.921139 0.500000
O O6 0.193376 0.885303 0.725851
O O7 0.247385 0.002845 0.729937
O O8 0.309820 0.615057 0.750064
O O9 0.404345 0.633824 0.759175
O O10 0.350226 0.660863 0.000000
O O11 0.737204 0.412881 0.500000
O O12 0.784045 0.365311 0.738301
O O13 0.056016 0.919256 0.500000
O O14 0.097917 0.866882 0.266629
O O15 0.999995 0.901361 0.273274
O O16 0.066098 0.001359 0.275039
O O17 0.148985 0.827343 0.500000
O O18 0.161135 0.755889 0.249402
O O19 0.560195 0.411365 0.500000
O O20 0.690453 0.808904 0.000000
#
# Coordination Sequence:
#
# PCOD9424887 Si02
#       8
#     8   8   8   8   8   8   8   8
#     4   8  16  28  39  52  76 106 132 159 195 233
#     4   9  17  26  40  61  80  99 131 167 197 232
#     4  10  19  29  40  58  82 108 137 168 199 237
#     4  10  18  28  42  60  80 105 135 166 199 238
#     4   8  15  27  43  61  81 105 139 175 203 232
#     4   9  15  26  42  58  78 107 137 166 198 233
#     4   9  16  28  44  60  79 107 139 172 204 235
#     4   9  17  28  39  56  80 105 133 165 197 234
#
# _framework density 13.975355
#
# number of rings (size 3 to 8) (size 9 to 14) (size 15 to 20)
#    0.000    3.000    0.000    3.375    0.000    6.500 
#    0.000    5.000    0.000    0.000    0.000    0.000 
#    0.000    1.000    0.000   11.250    0.000    5.625 
#
# Total GULP energy -356306.573963 kJ/mol
# GULP energy per Si atom -5567.290218 kJ/mol
# Density = 1.394355 g / cm^3
# Si number density = 13.975355 Si / 1000 Ang^3
#
#
#
# Elastic Constant Matrix: (Units=GPa)
#
#
# Indices 1 2 3 4 5 6 
#
# 1 86.8634 56.7419 23.3493 0.0000 0.0000 0.0000
# 2 56.7419 107.4618 33.1590 0.0000 0.0000 0.0000
# 3 23.3493 33.1590 30.9917 0.0000 0.0000 0.0000
# 4 0.0000 0.0000 0.0000 8.8745 0.0000 0.0000
# 5 0.0000 0.0000 0.0000 0.0000 13.3089 0.0000
# 6 0.0000 0.0000 0.0000 0.0000 0.0000 27.7518
#
#
#
# Elastic Compliance Matrix: (Units=1/GPa)
#
#
# Indices 1 2 3 4 5 6 
#
# 1 0.018096 -0.007984 -0.005091 0.000000 0.000000 0.000000
# 2 -0.007984 0.017415 -0.012617 0.000000 0.000000 0.000000
# 3 -0.005091 -0.012617 0.049602 0.000000 0.000000 0.000000
# 4 0.000000 0.000000 0.000000 0.112682 0.000000 0.000000
# 5 0.000000 0.000000 0.000000 0.000000 0.075138 0.000000
# 6 0.000000 0.000000 0.000000 0.000000 0.000000 0.036034
#
#
# Mechanical properties :
#
#
# Convention : Reuss Voigt Hill
#
# Bulk Modulus (GPa) = 29.64925 50.20192 39.92558
# Shear Modulus (GPa) = 13.45551 17.45816 15.45683
#
# Velocity S-wave (km/s) = 3.10627 3.53825 3.32928
# Velocity P-wave (km/s) = 5.84180 7.25893 6.58858
#
# Compressibility (1/GPa) = 0.03372767
#
# Stress axis : x y z
#
# Youngs Moduli (GPa) = 55.25937 57.42278 20.16048
#
# Poissons Ratio (x) = 0.45848 0.10264
# Poissons Ratio (y) = 0.44121 0.25437
# Poissons Ratio (z) = 0.28134 0.72451
#
# Static dielectric constant tensor:
#      x y z
#    x 1.451670 0.000000 0.000000 
#    y 0.000000 1.458990 0.000000 
#    z 0.000000 0.000000 1.471000 
# 
# From -- ./inp_files/8236.got.cif
#   From: 2010.05.17/outbox.cif.g08.bks.cpg/sg55_5_cif.got.tgz:8236.got - 2010.06.03 13:27:54.
