data_PCOD9424141
_publ_section_title
;
Structure prediction by ZEFSAII (Michael W. Deem and Ramdas Pophale) SiO2 
 PCOD9424141
Probable space group: P C C A
;
_chemical_formula_sum "Si O2"
_cell_formula_units_Z 56
_cell_length_a 14.489147
_cell_length_b 14.421354
_cell_length_c 13.006919
_cell_angle_alpha 90.000000
_cell_angle_beta 90.000000
_cell_angle_gamma 90.000000
_cell_volume 2717.836281
_symmetry_space_group_name_H-M "P C C A"
_symmetry_group_IT_number 54
_symmetry_cell_setting 'orthorhombic'
loop_
_space_group_symop_operation_xyz
x,y,z
1/2-x,-y,z
1/2+x,-y,1/2-z
-x,y,1/2-z
-x,-y,-z
1/2+x,y,-z
1/2-x,y,1/2+z
x,-y,1/2+z
loop_
_atom_site_type_symbol
_atom_site_label
_atom_site_fract_x
_atom_site_fract_y
_atom_site_fract_z
Si Si1 0.106806 0.458083 0.279061
Si Si2 0.683007 0.350785 0.527294
Si Si3 0.466474 0.227396 0.067202
Si Si4 0.250000 0.000000 0.615854
Si Si5 0.250000 0.500000 0.122816
Si Si6 0.361067 0.140752 0.249670
Si Si7 0.133689 0.666830 0.355403
Si Si8 0.082895 0.070456 0.975117
O O1 0.132129 0.392174 0.373377
O O2 0.179327 0.438446 0.188775
O O3 0.131170 0.564845 0.307854
O O4 0.000000 0.450755 0.250000
O O5 0.625159 0.264557 0.485576
O O6 0.687161 0.432696 0.444760
O O7 0.788860 0.331221 0.556671
O O8 0.437944 0.160492 0.161674
O O9 0.529405 0.310663 0.109450
O O10 0.536692 0.169323 0.997022
O O11 0.214968 0.082403 0.689326
O O12 0.331237 0.038451 0.543147
O O13 0.338610 0.246447 0.283244
O O14 0.385800 0.085454 0.355395
O O15 0.000000 0.000000 0.000000
#
# Coordination Sequence:
#
# PCOD9424141 Si02
#       8
#     8   8   8   4   4   8   8   8
#     4  12  25  45  70 102 140 189 240 302 360 425
#     4  12  26  44  67 108 139 184 251 294 361 435
#     4  11  26  42  72 101 137 190 233 299 355 440
#     4  12  26  44  76 106 142 190 230 316 362 428
#     4  12  22  44  70  94 142 192 236 298 368 424
#     4  11  25  45  70 105 139 186 239 289 366 440
#     4  11  22  46  69  97 141 182 236 288 353 444
#     4  11  24  47  74 103 140 186 241 287 367 443
#
# _framework density 20.604624999999999
#
# number of rings (size 3 to 8) (size 9 to 14) (size 15 to 20)
#    0.000    0.571    4.286    4.714    6.000    2.286 
#    2.571    0.000    0.000    0.000    0.000    0.000 
#    0.000    0.000    0.000    0.000    0.000    0.000 
#
# Total GULP energy -312664.367735 kJ/mol
# GULP energy per Si atom -5583.292281 kJ/mol
# Density = 2.055773 g / cm^3
# Si number density = 20.604625 Si / 1000 Ang^3
#
#
#
# Elastic Constant Matrix: (Units=GPa)
#
#
# Indices 1 2 3 4 5 6 
#
# 1 108.0912 -3.4075 45.0300 0.0000 0.0000 0.0000
# 2 -3.4075 40.8755 17.7115 0.0000 0.0000 0.0000
# 3 45.0300 17.7115 100.1626 0.0000 0.0000 0.0000
# 4 0.0000 0.0000 0.0000 82.9528 0.0000 0.0000
# 5 0.0000 0.0000 0.0000 0.0000 15.3842 0.0000
# 6 0.0000 0.0000 0.0000 0.0000 0.0000 46.0095
#
#
#
# Elastic Compliance Matrix: (Units=1/GPa)
#
#
# Indices 1 2 3 4 5 6 
#
# 1 0.011845 0.003568 -0.005956 0.000000 0.000000 0.000000
# 2 0.003568 0.027569 -0.006479 0.000000 0.000000 0.000000
# 3 -0.005956 -0.006479 0.013807 0.000000 0.000000 0.000000
# 4 0.000000 0.000000 0.000000 0.012055 0.000000 0.000000
# 5 0.000000 0.000000 0.000000 0.000000 0.065002 0.000000
# 6 0.000000 0.000000 0.000000 0.000000 0.000000 0.021735
#
#
# Mechanical properties :
#
#
# Convention : Reuss Voigt Hill
#
# Bulk Modulus (GPa) = 28.17884 40.86637 34.52260
# Shear Modulus (GPa) = 27.53654 41.52231 34.52943
#
# Velocity S-wave (km/s) = 3.65968 4.49396 4.09811
# Velocity P-wave (km/s) = 5.61813 6.84136 6.25970
#
# Compressibility (1/GPa) = 0.03548762
#
# Stress axis : x y z
#
# Youngs Moduli (GPa) = 84.42193 36.27199 72.42593
#
# Poissons Ratio (x) = -0.12943 0.43139
# Poissons Ratio (y) = -0.30124 0.46926
# Poissons Ratio (z) = 0.50284 0.23501
#
# Static dielectric constant tensor:
#      x y z
#    x 1.802180 0.000000 0.000000 
#    y 0.000000 1.760250 0.000000 
#    z 0.000000 0.000000 1.809270 
# 
# From -- ./inp_files/8484.got.cif
#   From: 2010.05.17/outbox.cif.g08.bks.cpg/sg54_5_cif.got.tgz:8484.got - 2010.06.03 13:09:01.
