data_PCOD9424491
_publ_section_title
;
Structure prediction by ZEFSAII (Michael W. Deem and Ramdas Pophale) SiO2 
 PCOD9424491
Probable space group: P C C A
;
_chemical_formula_sum "Si O2"
_cell_formula_units_Z 40
_cell_length_a 8.852793
_cell_length_b 8.114513
_cell_length_c 23.799089
_cell_angle_alpha 90.000000
_cell_angle_beta 90.000000
_cell_angle_gamma 90.000000
_cell_volume 1709.633830
_symmetry_space_group_name_H-M "P C C A"
_symmetry_group_IT_number 54
_symmetry_cell_setting 'orthorhombic'
loop_
_space_group_symop_operation_xyz
x,y,z
1/2-x,-y,z
1/2+x,-y,1/2-z
-x,y,1/2-z
-x,-y,-z
1/2+x,y,-z
1/2-x,y,1/2+z
x,-y,1/2+z
loop_
_atom_site_type_symbol
_atom_site_label
_atom_site_fract_x
_atom_site_fract_y
_atom_site_fract_z
Si Si1 0.654612 0.667345 0.058316
Si Si2 0.180622 0.681434 0.236894
Si Si3 0.447955 0.176331 0.476523
Si Si4 0.117533 0.107201 0.633972
Si Si5 0.367167 0.867291 0.333243
O O1 0.750000 0.500000 0.060723
O O2 0.610740 0.725535 0.120767
O O3 0.771312 0.797184 0.030912
O O4 0.510343 0.684589 0.018676
O O5 0.250000 0.500000 0.239204
O O6 0.187678 0.759965 0.175442
O O7 0.281917 0.792067 0.279379
O O8 0.000000 0.679001 0.250000
O O9 0.519210 0.190041 0.414360
O O10 0.500000 0.000000 0.500000
O O11 0.250000 0.000000 0.606726
O O12 0.017203 0.978458 0.671070
O O13 0.250000 0.000000 0.357788
#
# Coordination Sequence:
#
# PCOD9424491 Si02
#       5
#     8   8   8   8   8
#     4  12  25  43  71 107 147 187 238 303 372 429
#     4  12  28  47  72 106 149 192 242 312 379 436
#     4  12  23  46  72 104 141 191 241 296 360 448
#     4  12  27  45  75 107 140 190 256 302 356 444
#     4  12  23  49  75 100 141 196 249 296 365 442
#
# _framework density 23.396823000000001
#
# number of rings (size 3 to 8) (size 9 to 14) (size 15 to 20)
#    0.000    0.000    6.000    3.600    2.800    0.800 
#    0.000    0.000    0.000    0.000    0.000    0.000 
#    0.000    0.000    0.000    0.000    0.000    0.000 
#
# Total GULP energy -223865.311977 kJ/mol
# GULP energy per Si atom -5596.632799 kJ/mol
# Density = 2.334357 g / cm^3
# Si number density = 23.396823 Si / 1000 Ang^3
#
#
#
# Elastic Constant Matrix: (Units=GPa)
#
#
# Indices 1 2 3 4 5 6 
#
# 1 41.4495 -23.7843 -7.2740 0.0000 0.0000 0.0000
# 2 -23.7843 94.1812 11.2543 0.0000 0.0000 0.0000
# 3 -7.2740 11.2543 116.4853 0.0000 0.0000 0.0000
# 4 0.0000 0.0000 0.0000 25.3655 0.0000 0.0000
# 5 0.0000 0.0000 0.0000 0.0000 28.9255 0.0000
# 6 0.0000 0.0000 0.0000 0.0000 0.0000 36.7626
#
#
#
# Elastic Compliance Matrix: (Units=1/GPa)
#
#
# Indices 1 2 3 4 5 6 
#
# 1 0.028351 0.007029 0.001091 0.000000 0.000000 0.000000
# 2 0.007029 0.012485 -0.000767 0.000000 0.000000 0.000000
# 3 0.001091 -0.000767 0.008727 0.000000 0.000000 0.000000
# 4 0.000000 0.000000 0.000000 0.039424 0.000000 0.000000
# 5 0.000000 0.000000 0.000000 0.000000 0.034572 0.000000
# 6 0.000000 0.000000 0.000000 0.000000 0.000000 0.027202
#
#
# Mechanical properties :
#
#
# Convention : Reuss Voigt Hill
#
# Bulk Modulus (GPa) = 15.55966 23.61201 19.58583
# Shear Modulus (GPa) = 31.75093 36.33872 34.04483
#
# Velocity S-wave (km/s) = 3.68783 3.94527 3.81872
# Velocity P-wave (km/s) = 4.97978 5.55585 5.27568
#
# Compressibility (1/GPa) = 0.06426876
#
# Stress axis : x y z
#
# Youngs Moduli (GPa) = 35.27253 80.09828 114.58627
#
# Poissons Ratio (x) = -0.56303 -0.12504
# Poissons Ratio (y) = -0.24794 0.08792
# Poissons Ratio (z) = -0.03849 0.06146
#
# Static dielectric constant tensor:
#      x y z
#    x 1.950260 0.000000 0.000000 
#    y 0.000000 1.886670 0.000000 
#    z 0.000000 0.000000 1.847130 
# 
# From -- ./inp_files/23225.got.cif
#   From: 2010.05.17/outbox.cif.g08.bks.cpg/sg54_12_cif.got.tgz:23225.got - 2010.06.03 13:09:01.
