data_PCOD9424626
_publ_section_title
;
Structure prediction by ZEFSAII (Michael W. Deem and Ramdas Pophale) SiO2 
 PCOD9424626
Probable space group: P C C A
;
_chemical_formula_sum "Si O2"
_cell_formula_units_Z 48
_cell_length_a 15.000000
_cell_length_b 9.000000
_cell_length_c 18.000000
_cell_angle_alpha 90.000000
_cell_angle_beta 90.000000
_cell_angle_gamma 90.000000
_cell_volume 2430.000000
_symmetry_space_group_name_H-M "P C C A"
_symmetry_group_IT_number 54
_symmetry_cell_setting 'orthorhombic'
loop_
_space_group_symop_operation_xyz
x,y,z
1/2-x,-y,z
1/2+x,-y,1/2-z
-x,y,1/2-z
-x,-y,-z
1/2+x,y,-z
1/2-x,y,1/2+z
x,-y,1/2+z
loop_
_atom_site_type_symbol
_atom_site_label
_atom_site_fract_x
_atom_site_fract_y
_atom_site_fract_z
Si Si1 0.860284 0.097167 0.090969
Si Si2 0.080256 0.166594 0.700303
Si Si3 0.653604 0.025476 0.925494
Si Si4 0.815591 0.215274 0.661074
Si Si5 0.028495 0.283542 0.059096
Si Si6 0.522728 0.607174 0.608082
O O1 0.784219 0.200574 0.128843
O O2 0.954275 0.175246 0.091644
O O3 0.858050 0.937226 0.129356
O O4 0.843469 0.057898 0.004620
O O5 0.166542 0.198510 0.751080
O O6 0.000000 0.104462 0.750000
O O7 0.041625 0.318328 0.667539
O O8 0.091921 0.059480 0.631530
O O9 0.621355 0.194819 0.934095
O O10 0.750000 0.000000 0.892127
O O11 0.875745 0.353542 0.633188
O O12 0.009813 0.439855 0.097836
O O13 0.012971 0.314033 0.971926
#
# Coordination Sequence:
#
# PCOD9424626 Si02
#       6
#     8   8   8   8   8   8
#     4  11  20  37  65  94 119 158 217 265 308 373
#     4  10  22  40  64  85 125 169 198 252 328 375
#     4  12  22  39  64  94 123 158 213 273 311 372
#     4  10  21  39  60  91 125 164 201 257 323 376
#     4  11  21  36  63  94 119 158 216 256 309 371
#     4  10  20  38  61  88 125 164 201 253 314 387
#
# _framework density 19.753086
#
# number of rings (size 3 to 8) (size 9 to 14) (size 15 to 20)
#    0.000    1.333    5.000    2.500    2.333    0.667 
#    0.000    8.333    7.333    0.000    0.000    0.000 
#    0.000    0.000    0.000    0.000    0.000    0.000 
#
# Total GULP energy -267374.312248 kJ/mol
# GULP energy per Si atom -5570.298172 kJ/mol
# Density = 1.970813 g / cm^3
# Si number density = 19.753086 Si / 1000 Ang^3
#
#
#
# Elastic Constant Matrix: (Units=GPa)
#
#
# Indices 1 2 3 4 5 6 
#
# 1 84.7317 48.6514 19.8931 0.0000 0.0000 0.0000
# 2 48.6514 48.1649 12.9061 0.0000 0.0000 0.0000
# 3 19.8931 12.9061 74.6110 0.0000 0.0000 0.0000
# 4 0.0000 0.0000 0.0000 19.1564 0.0000 0.0000
# 5 0.0000 0.0000 0.0000 0.0000 20.9103 0.0000
# 6 0.0000 0.0000 0.0000 0.0000 0.0000 20.8979
#
#
#
# Elastic Compliance Matrix: (Units=1/GPa)
#
#
# Indices 1 2 3 4 5 6 
#
# 1 0.028630 -0.028180 -0.002759 0.000000 0.000000 0.000000
# 2 -0.028180 0.049508 -0.001050 0.000000 0.000000 0.000000
# 3 -0.002759 -0.001050 0.014320 0.000000 0.000000 0.000000
# 4 0.000000 0.000000 0.000000 0.052202 0.000000 0.000000
# 5 0.000000 0.000000 0.000000 0.000000 0.047823 0.000000
# 6 0.000000 0.000000 0.000000 0.000000 0.000000 0.047852
#
#
# Mechanical properties :
#
#
# Convention : Reuss Voigt Hill
#
# Bulk Modulus (GPa) = 35.11272 41.15652 38.13462
# Shear Modulus (GPa) = 15.93335 20.59672 18.26504
#
# Velocity S-wave (km/s) = 2.84320 3.23260 3.04413
# Velocity P-wave (km/s) = 5.34722 5.90031 5.63056
#
# Compressibility (1/GPa) = 0.02847971
#
# Stress axis : x y z
#
# Youngs Moduli (GPa) = 34.92828 20.19873 69.83171
#
# Poissons Ratio (x) = 0.56920 0.19266
# Poissons Ratio (y) = 0.98428 0.07335
# Poissons Ratio (z) = 0.09636 0.02122
#
# Static dielectric constant tensor:
#      x y z
#    x 1.795440 0.000000 0.000000 
#    y 0.000000 1.763890 0.000000 
#    z 0.000000 0.000000 1.731630 
# 
# From -- ./inp_files/18035.got.cif
#   From: 2010.05.17/outbox.ucp.g08.bks.cvg/sg54_10_cif.got.tgz:18035.got - 2010.06.11 16:34:40.
