data_PCOD9424840
_publ_section_title
;
Structure prediction by ZEFSAII (Michael W. Deem and Ramdas Pophale) SiO2 
 PCOD9424840
Probable space group: P B A M
;
_chemical_formula_sum "Si O2"
_cell_formula_units_Z 64
_cell_length_a 7.489887
_cell_length_b 14.330033
_cell_length_c 23.760463
_cell_angle_alpha 90.000000
_cell_angle_beta 90.000000
_cell_angle_gamma 90.000000
_cell_volume 2550.218284
_symmetry_space_group_name_H-M "P B A M"
_symmetry_group_IT_number 55
_symmetry_cell_setting 'orthorhombic'
loop_
_space_group_symop_operation_xyz
x,y,z
-x,-y,z
1/2+x,1/2-y,-z
1/2-x,1/2+y,-z
-x,-y,-z
x,y,-z
1/2-x,1/2+y,z
1/2+x,1/2-y,z
loop_
_atom_site_type_symbol
_atom_site_label
_atom_site_fract_x
_atom_site_fract_y
_atom_site_fract_z
Si Si1 0.880423 0.895133 0.613683
Si Si2 0.215785 0.516377 0.063119
Si Si3 0.169578 0.433222 0.595242
Si Si4 0.071902 0.725310 0.564005
Si Si5 0.284976 0.878208 0.839613
Si Si6 0.368124 0.866715 0.279650
Si Si7 0.207673 0.145450 0.267824
Si Si8 0.294076 0.163919 0.852495
O O1 0.028162 0.828860 0.585731
O O2 0.704940 0.829440 0.604787
O O3 0.898392 0.902089 0.681142
O O4 0.827588 0.992863 0.585300
O O5 0.279911 0.446457 0.111851
O O6 0.258975 0.618126 0.088528
O O7 0.000000 0.500000 0.060496
O O8 0.283011 0.501994 0.000000
O O9 0.109628 0.337136 0.566227
O O10 0.181943 0.409786 0.661207
O O11 0.000000 0.500000 0.583742
O O12 0.134835 0.721955 0.500000
O O13 0.266504 0.908281 0.774540
O O14 0.501003 0.868119 0.844309
O O15 0.209375 0.775246 0.849982
O O16 0.582185 0.877120 0.274988
O O17 0.325711 0.756293 0.277415
O O18 0.176917 0.130372 0.201191
#
# Coordination Sequence:
#
# PCOD9424840 Si02
#       8
#     8   8   8   8   8   8   8   8
#     4  11  21  37  59  81 106 142 178 224 269 316
#     4   9  18  33  52  78 110 146 187 224 263 319
#     4  10  20  33  56  84 103 135 177 220 259 313
#     4  11  23  39  57  80 110 143 179 218 265 320
#     4   9  19  32  53  79 107 143 180 221 272 318
#     4  10  18  32  55  82 111 138 177 222 272 323
#     4  10  17  32  55  80 112 137 178 220 274 321
#     4   9  19  32  52  81 106 143 179 228 268 317
#
# _framework density 25.095891999999999
#
# number of rings (size 3 to 8) (size 9 to 14) (size 15 to 20)
#    0.000    2.125    3.750    0.375    1.750    3.750 
#    0.000    1.250    0.000    2.250    0.000    0.000 
#    0.000    0.000    0.000    0.000    0.000    0.000 
#
# Total GULP energy -358004.549549 kJ/mol
# GULP energy per Si atom -5593.821087 kJ/mol
# Density = 2.503877 g / cm^3
# Si number density = 25.095892 Si / 1000 Ang^3
#
#
#
# Elastic Constant Matrix: (Units=GPa)
#
#
# Indices 1 2 3 4 5 6 
#
# 1 69.0953 -11.3125 1.2449 0.0000 0.0000 0.0000
# 2 -11.3125 113.5031 22.8889 0.0000 0.0000 0.0000
# 3 1.2449 22.8889 148.8716 0.0000 0.0000 0.0000
# 4 0.0000 0.0000 0.0000 -77.1729 0.0000 0.0000
# 5 0.0000 0.0000 0.0000 0.0000 12.6190 0.0000
# 6 0.0000 0.0000 0.0000 0.0000 0.0000 29.0610
#
#
#
# Elastic Compliance Matrix: (Units=1/GPa)
#
#
# Indices 1 2 3 4 5 6 
#
# 1 0.014732 0.001541 -0.000360 0.000000 0.000000 0.000000
# 2 0.001541 0.009253 -0.001436 0.000000 0.000000 0.000000
# 3 -0.000360 -0.001436 0.006941 0.000000 0.000000 0.000000
# 4 0.000000 0.000000 0.000000 -0.012958 0.000000 0.000000
# 5 0.000000 0.000000 0.000000 0.000000 0.079246 0.000000
# 6 0.000000 0.000000 0.000000 0.000000 0.000000 0.034410
#
#
# Mechanical properties :
#
#
# Convention : Reuss Voigt Hill
#
# Bulk Modulus (GPa) = 32.87718 39.67916 36.27817
# Shear Modulus (GPa) = 35.14380 14.14466 24.64423
#
# Velocity S-wave (km/s) = 3.74623 2.37665 3.13709
# Velocity P-wave (km/s) = 5.64281 4.83494 5.25443
#
# Compressibility (1/GPa) = 0.03041623
#
# Stress axis : x y z
#
# Youngs Moduli (GPa) = 67.88158 108.06830 144.07288
#
# Poissons Ratio (x) = -0.16652 0.05188
# Poissons Ratio (y) = -0.10460 0.20683
# Poissons Ratio (z) = 0.02444 0.15514
#
# Static dielectric constant tensor:
#      x y z
#    x 2.191110 0.000000 0.000000 
#    y 0.000000 2.000060 0.000000 
#    z 0.000000 0.000000 1.923850 
# 
# From -- ./inp_files/23484.got.cif
#   From: 2010.05.17/outbox.cif.g08.bks.cpg/sg55_12_cif.got.tgz:23484.got - 2010.06.03 13:27:54.
