data_PCOD9424420
_publ_section_title
;
Structure prediction by ZEFSAII (Michael W. Deem and Ramdas Pophale) SiO2 
 PCOD9424420
Probable space group: P C C A
;
_chemical_formula_sum "Si O2"
_cell_formula_units_Z 24
_cell_length_a 13.208830
_cell_length_b 4.863481
_cell_length_c 14.185170
_cell_angle_alpha 90.000000
_cell_angle_beta 90.000000
_cell_angle_gamma 90.000000
_cell_volume 911.267999
_symmetry_space_group_name_H-M "P C C A"
_symmetry_group_IT_number 54
_symmetry_cell_setting 'orthorhombic'
loop_
_space_group_symop_operation_xyz
x,y,z
1/2-x,-y,z
1/2+x,-y,1/2-z
-x,y,1/2-z
-x,-y,-z
1/2+x,y,-z
1/2-x,y,1/2+z
x,-y,1/2+z
loop_
_atom_site_type_symbol
_atom_site_label
_atom_site_fract_x
_atom_site_fract_y
_atom_site_fract_z
Si Si1 0.641992 0.625736 0.587807
Si Si2 0.441560 0.719590 0.105404
Si Si3 0.847190 0.185616 0.799705
O O1 0.750000 0.500000 0.561285
O O2 0.600856 0.791173 0.498085
O O3 0.554296 0.399026 0.601268
O O4 0.657760 0.767851 0.688274
O O5 0.436863 0.990263 0.166699
O O6 0.371173 0.478093 0.151189
O O7 0.750000 0.000000 0.828117
#
# Coordination Sequence:
#
# PCOD9424420 Si02
#       3
#     8   8   8
#     4  11  26  48  77 109 145 194 247 296 362 435
#     4  11  28  50  74 107 150 191 240 304 361 427
#     4  12  26  47  75 109 147 191 241 296 362 432
#
# _framework density 26.336925999999998
#
# number of rings (size 3 to 8) (size 9 to 14) (size 15 to 20)
#    0.000    0.667    0.000    6.000    0.000   22.667 
#    0.000    0.000    0.000    0.000    0.000    0.000 
#    0.000    0.000    0.000    0.000    0.000    0.000 
#
# Total GULP energy -134728.506761 kJ/mol
# GULP energy per Si atom -5613.687782 kJ/mol
# Density = 2.627698 g / cm^3
# Si number density = 26.336926 Si / 1000 Ang^3
#
#
#
# Elastic Constant Matrix: (Units=GPa)
#
#
# Indices 1 2 3 4 5 6 
#
# 1 125.1288 4.5674 8.0957 0.0000 0.0000 0.0000
# 2 4.5674 128.2933 35.7992 0.0000 0.0000 0.0000
# 3 8.0957 35.7992 129.1676 0.0000 0.0000 0.0000
# 4 0.0000 0.0000 0.0000 35.2545 0.0000 0.0000
# 5 0.0000 0.0000 0.0000 0.0000 41.8662 0.0000
# 6 0.0000 0.0000 0.0000 0.0000 0.0000 10.0618
#
#
#
# Elastic Compliance Matrix: (Units=1/GPa)
#
#
# Indices 1 2 3 4 5 6 
#
# 1 0.008027 -0.000158 -0.000459 0.000000 0.000000 0.000000
# 2 -0.000158 0.008451 -0.002332 0.000000 0.000000 0.000000
# 3 -0.000459 -0.002332 0.008417 0.000000 0.000000 0.000000
# 4 0.000000 0.000000 0.000000 0.028365 0.000000 0.000000
# 5 0.000000 0.000000 0.000000 0.000000 0.023886 0.000000
# 6 0.000000 0.000000 0.000000 0.000000 0.000000 0.099386
#
#
# Mechanical properties :
#
#
# Convention : Reuss Voigt Hill
#
# Bulk Modulus (GPa) = 52.64084 53.27934 52.96009
# Shear Modulus (GPa) = 26.48824 39.71168 33.09996
#
# Velocity S-wave (km/s) = 3.17479 3.88729 3.54897
# Velocity P-wave (km/s) = 5.78532 6.35782 6.07831
#
# Compressibility (1/GPa) = 0.01899666
#
# Stress axis : x y z
#
# Youngs Moduli (GPa) = 124.57581 118.32817 118.80577
#
# Poissons Ratio (x) = 0.01865 0.05458
# Poissons Ratio (y) = 0.01963 0.27710
# Poissons Ratio (z) = 0.05724 0.27598
#
# Static dielectric constant tensor:
#      x y z
#    x 2.113720 0.000000 0.000000 
#    y 0.000000 2.007620 0.000000 
#    z 0.000000 0.000000 1.991460 
# 
# From -- ./inp_files/12858.got.cif
#   From: 2010.05.17/outbox.cif.g08.bks.cpg/sg54_7_cif.got.tgz:12858.got - 2010.06.03 13:09:01.
