data_PCOD9424447
_publ_section_title
;
Structure prediction by ZEFSAII (Michael W. Deem and Ramdas Pophale) SiO2 
 PCOD9424447
Probable space group: P C C A
;
_chemical_formula_sum "Si O2"
_cell_formula_units_Z 40
_cell_length_a 15.804065
_cell_length_b 8.313046
_cell_length_c 14.228385
_cell_angle_alpha 90.000000
_cell_angle_beta 90.000000
_cell_angle_gamma 90.000000
_cell_volume 1869.324074
_symmetry_space_group_name_H-M "P C C A"
_symmetry_group_IT_number 54
_symmetry_cell_setting 'orthorhombic'
loop_
_space_group_symop_operation_xyz
x,y,z
1/2-x,-y,z
1/2+x,-y,1/2-z
-x,y,1/2-z
-x,-y,-z
1/2+x,y,-z
1/2-x,y,1/2+z
x,-y,1/2+z
loop_
_atom_site_type_symbol
_atom_site_label
_atom_site_fract_x
_atom_site_fract_y
_atom_site_fract_z
Si Si1 0.133196 0.673813 0.378171
Si Si2 0.750000 0.500000 0.470835
Si Si3 0.251554 0.699728 0.697538
Si Si4 0.081540 0.341667 0.313534
Si Si5 0.087595 0.024250 0.445560
Si Si6 0.750000 0.000000 0.423552
O O1 0.195947 0.615677 0.462249
O O2 0.183793 0.705061 0.282290
O O3 0.075378 0.514683 0.366013
O O4 0.096144 0.848562 0.398064
O O5 0.704765 0.391260 0.391553
O O6 0.165918 0.640799 0.749551
O O7 0.223511 0.860971 0.647391
O O8 0.000000 0.319030 0.250000
O O9 0.088398 0.183819 0.379951
O O10 0.169744 0.040973 0.512098
O O11 0.000000 0.000000 0.500000
#
# Coordination Sequence:
#
# PCOD9424447 Si02
#       6
#     8   4   8   8   8   4
#     4  12  25  48  74 107 146 188 251 311 361 452
#     4  12  20  44  78 102 140 180 256 300 368 452
#     4  12  23  44  74 105 138 188 244 296 370 443
#     4  12  26  45  68 104 149 191 241 306 370 436
#     4  12  28  48  72 110 148 193 252 303 365 451
#     4  12  24  44  78 100 142 202 236 306 380 428
#
# _framework density 21.398107
#
# number of rings (size 3 to 8) (size 9 to 14) (size 15 to 20)
#    0.000    0.000    6.000    4.800    0.000    3.200 
#    0.000    0.000    0.000    0.000    0.000    0.000 
#    0.000    0.000    0.000    0.000    0.000    0.000 
#
# Total GULP energy -223012.072733 kJ/mol
# GULP energy per Si atom -5575.301818 kJ/mol
# Density = 2.134940 g / cm^3
# Si number density = 21.398107 Si / 1000 Ang^3
#
#
#
# Elastic Constant Matrix: (Units=GPa)
#
#
# Indices 1 2 3 4 5 6 
#
# 1 85.3835 25.0843 49.2543 0.0000 0.0000 0.0000
# 2 25.0843 142.5481 56.4981 0.0000 0.0000 0.0000
# 3 49.2543 56.4981 149.1710 0.0000 0.0000 0.0000
# 4 0.0000 0.0000 0.0000 37.9191 0.0000 0.0000
# 5 0.0000 0.0000 0.0000 0.0000 30.4626 0.0000
# 6 0.0000 0.0000 0.0000 0.0000 0.0000 -672.7785
#
#
#
# Elastic Compliance Matrix: (Units=1/GPa)
#
#
# Indices 1 2 3 4 5 6 
#
# 1 0.014539 -0.000772 -0.004508 0.000000 0.000000 0.000000
# 2 -0.000772 0.008295 -0.002887 0.000000 0.000000 0.000000
# 3 -0.004508 -0.002887 0.009286 0.000000 0.000000 0.000000
# 4 0.000000 0.000000 0.000000 0.026372 0.000000 0.000000
# 5 0.000000 0.000000 0.000000 0.000000 0.032827 0.000000
# 6 0.000000 0.000000 0.000000 0.000000 0.000000 -0.001486
#
#
# Mechanical properties :
#
#
# Convention : Reuss Voigt Hill
#
# Bulk Modulus (GPa) = 63.34653 70.97510 67.16081
# Shear Modulus (GPa) = 44.87157 -104.46162 -29.79503
#
# Velocity S-wave (km/s) = 4.58426 -6.99458 -3.73555
# Velocity P-wave (km/s) = 7.59530 5.65609 3.58450
#
# Compressibility (1/GPa) = 0.01578618
#
# Stress axis : x y z
#
# Youngs Moduli (GPa) = 68.77919 120.55156 107.69143
#
# Poissons Ratio (x) = 0.09302 0.48552
# Poissons Ratio (y) = 0.05307 0.31091
# Poissons Ratio (z) = 0.31009 0.34803
#
# Static dielectric constant tensor:
#      x y z
#    x 1.807020 0.000000 0.000000 
#    y 0.000000 1.958510 0.000000 
#    z 0.000000 0.000000 1.749240 
# 
# From -- ./inp_files/8770.got.cif
#   From: 2010.05.17/outbox.cif.g08.bks.cpg/sg54_5_cif.got.tgz:8770.got - 2010.06.03 13:09:01.
