data_PCOD9424380
_publ_section_title
;
Structure prediction by ZEFSAII (Michael W. Deem and Ramdas Pophale) SiO2 
 PCOD9424380
Probable space group: P C C A
;
_chemical_formula_sum "Si O2"
_cell_formula_units_Z 64
_cell_length_a 24.529974
_cell_length_b 14.296851
_cell_length_c 7.727645
_cell_angle_alpha 90.000000
_cell_angle_beta 90.000000
_cell_angle_gamma 90.000000
_cell_volume 2710.095791
_symmetry_space_group_name_H-M "P C C A"
_symmetry_group_IT_number 54
_symmetry_cell_setting 'orthorhombic'
loop_
_space_group_symop_operation_xyz
x,y,z
1/2-x,-y,z
1/2+x,-y,1/2-z
-x,y,1/2-z
-x,-y,-z
1/2+x,y,-z
1/2-x,y,1/2+z
x,-y,1/2+z
loop_
_atom_site_type_symbol
_atom_site_label
_atom_site_fract_x
_atom_site_fract_y
_atom_site_fract_z
Si Si1 0.630776 0.893121 0.645373
Si Si2 0.804553 0.294000 0.565466
Si Si3 0.097237 0.392950 0.901152
Si Si4 0.319564 0.282363 0.840050
Si Si5 0.081328 0.603363 0.013657
Si Si6 0.486617 0.733176 0.066385
Si Si7 0.366401 0.913957 0.264462
Si Si8 0.460296 0.911898 0.548711
O O1 0.667546 0.799187 0.650015
O O2 0.618322 0.902496 0.438614
O O3 0.579895 0.903284 0.781198
O O4 0.662693 0.987110 0.701045
O O5 0.839199 0.378837 0.642557
O O6 0.740445 0.298009 0.586769
O O7 0.817212 0.305444 0.362654
O O8 0.070218 0.382453 0.715579
O O9 0.088087 0.494086 0.979483
O O10 0.071469 0.310558 0.018924
O O11 0.331932 0.172323 0.834978
O O12 0.367041 0.338805 0.939130
O O13 0.027650 0.645798 0.929622
O O14 0.500000 0.777990 0.250000
O O15 0.505083 0.816681 0.944214
O O16 0.418973 0.911730 0.387118
O O17 0.500000 0.000000 0.500000
#
# Coordination Sequence:
#
# PCOD9424380 Si02
#       8
#     8   8   8   8   8   8   8   8
#     4  11  26  46  71 101 152 189 252 298 371 437
#     4  11  26  46  74 111 143 190 241 308 373 452
#     4  12  27  46  74 106 143 190 242 304 375 448
#     4  11  25  47  76 106 144 188 243 305 377 442
#     4  12  25  50  74 103 144 189 245 307 371 453
#     4  12  27  47  72 104 148 197 247 303 375 450
#     4  11  25  47  70 104 147 195 244 307 362 445
#     4  12  29  46  72 108 151 202 249 310 369 439
#
# _framework density 23.615402
#
# number of rings (size 3 to 8) (size 9 to 14) (size 15 to 20)
#    0.000    0.500    2.500    4.500    7.000    1.500 
#    0.000    5.000    0.000    0.000    0.000    0.000 
#    0.000    0.000    0.000    0.000    0.000    0.000 
#
# Total GULP energy -357715.257943 kJ/mol
# GULP energy per Si atom -5589.300905 kJ/mol
# Density = 2.356165 g / cm^3
# Si number density = 23.615402 Si / 1000 Ang^3
#
#
#
# Elastic Constant Matrix: (Units=GPa)
#
#
# Indices 1 2 3 4 5 6 
#
# 1 125.1984 16.0495 25.8698 0.0000 0.0000 0.0000
# 2 16.0495 85.4188 2.0298 0.0000 0.0000 0.0000
# 3 25.8698 2.0298 112.0933 0.0000 0.0000 0.0000
# 4 0.0000 0.0000 0.0000 -39.8718 0.0000 0.0000
# 5 0.0000 0.0000 0.0000 0.0000 35.4321 0.0000
# 6 0.0000 0.0000 0.0000 0.0000 0.0000 127.0854
#
#
#
# Elastic Compliance Matrix: (Units=1/GPa)
#
#
# Indices 1 2 3 4 5 6 
#
# 1 0.008592 -0.001568 -0.001955 0.000000 0.000000 0.000000
# 2 -0.001568 0.011998 0.000145 0.000000 0.000000 0.000000
# 3 -0.001955 0.000145 0.009370 0.000000 0.000000 0.000000
# 4 0.000000 0.000000 0.000000 -0.025080 0.000000 0.000000
# 5 0.000000 0.000000 0.000000 0.000000 0.028223 0.000000
# 6 0.000000 0.000000 0.000000 0.000000 0.000000 0.007869
#
#
# Mechanical properties :
#
#
# Convention : Reuss Voigt Hill
#
# Bulk Modulus (GPa) = 43.09577 45.62318 44.35948
# Shear Modulus (GPa) = 90.15197 43.11324 66.63261
#
# Velocity S-wave (km/s) = 6.18530 4.27739 5.31761
# Velocity P-wave (km/s) = 8.32462 6.61483 7.51848
#
# Compressibility (1/GPa) = 0.02320413
#
# Stress axis : x y z
#
# Youngs Moduli (GPa) = 116.38467 83.34587 106.72795
#
# Poissons Ratio (x) = 0.13068 0.20861
# Poissons Ratio (y) = 0.18249 -0.01543
# Poissons Ratio (z) = 0.22748 -0.01205
#
# Static dielectric constant tensor:
#      x y z
#    x 1.894200 0.000000 0.000000 
#    y 0.000000 1.951020 0.000000 
#    z 0.000000 0.000000 1.999000 
# 
# From -- ./inp_files/5302.got.cif
#   From: 2010.05.17/outbox.cif.g08.bks.cpg/sg54_3_cif.got.tgz:5302.got - 2010.06.03 13:09:01.
