data_PCOD9424639
_publ_section_title
;
Structure prediction by ZEFSAII (Michael W. Deem and Ramdas Pophale) SiO2 
 PCOD9424639
Probable space group: P C C A
;
_chemical_formula_sum "Si O2"
_cell_formula_units_Z 56
_cell_length_a 15.000000
_cell_length_b 15.000000
_cell_length_c 12.000000
_cell_angle_alpha 90.000000
_cell_angle_beta 90.000000
_cell_angle_gamma 90.000000
_cell_volume 2700.000000
_symmetry_space_group_name_H-M "P C C A"
_symmetry_group_IT_number 54
_symmetry_cell_setting 'orthorhombic'
loop_
_space_group_symop_operation_xyz
x,y,z
1/2-x,-y,z
1/2+x,-y,1/2-z
-x,y,1/2-z
-x,-y,-z
1/2+x,y,-z
1/2-x,y,1/2+z
x,-y,1/2+z
loop_
_atom_site_type_symbol
_atom_site_label
_atom_site_fract_x
_atom_site_fract_y
_atom_site_fract_z
Si Si1 0.097533 0.105323 0.288570
Si Si2 0.316675 0.162630 0.007878
Si Si3 0.250000 0.000000 0.154469
Si Si4 0.934810 0.579985 0.464526
Si Si5 0.910238 0.317952 0.196700
Si Si6 0.579830 0.270295 0.304193
Si Si7 0.750000 0.500000 0.489848
Si Si8 0.229213 0.326214 0.865929
O O1 0.119538 0.112542 0.419483
O O2 0.170692 0.040776 0.231836
O O3 0.097806 0.213700 0.265116
O O4 0.000000 0.074975 0.250000
O O5 0.267792 0.084364 0.074185
O O6 0.369904 0.215902 0.101507
O O7 0.259995 0.238721 0.939401
O O8 0.922279 0.648936 0.568498
O O9 0.962532 0.642727 0.363326
O O10 0.838405 0.538653 0.432798
O O11 0.000000 0.500000 0.500000
O O12 0.810795 0.351698 0.217889
O O13 0.000000 0.354468 0.250000
O O14 0.500000 0.215308 0.250000
O O15 0.647851 0.297609 0.208807
O O16 0.715349 0.585511 0.560990
#
# Coordination Sequence:
#
# PCOD9424639 Si02
#       8
#     8   8   4   8   8   8   4   8
#     4  10  22  44  69 100 135 179 230 275 359 425
#     4  11  23  47  68 101 142 177 233 294 351 422
#     4  12  26  42  78 104 136 178 236 300 354 424
#     4  11  23  40  63 101 142 180 238 290 341 412
#     4   9  19  41  67  91 133 183 230 280 345 421
#     4  12  25  43  67 103 141 183 236 288 351 422
#     4  10  20  42  64  92 134 188 228 282 346 414
#     4  10  22  42  65  96 140 181 236 282 349 419
#
# _framework density 20.740741
#
# number of rings (size 3 to 8) (size 9 to 14) (size 15 to 20)
#    0.000    1.429    4.286    3.000    0.000    6.857 
#    7.714    0.000    0.000    0.000    0.000    0.000 
#    0.000    0.000    0.000    0.000    0.000    0.000 
#
# Total GULP energy -311782.424242 kJ/mol
# GULP energy per Si atom -5567.543290 kJ/mol
# Density = 2.069353 g / cm^3
# Si number density = 20.740741 Si / 1000 Ang^3
#
#
#
# Elastic Constant Matrix: (Units=GPa)
#
#
# Indices 1 2 3 4 5 6 
#
# 1 112.3014 28.5593 58.9351 0.0000 0.0000 0.0000
# 2 28.5593 101.6687 41.3718 0.0000 0.0000 0.0000
# 3 58.9351 41.3718 78.3556 0.0000 0.0000 0.0000
# 4 0.0000 0.0000 0.0000 12.2686 0.0000 0.0000
# 5 0.0000 0.0000 0.0000 0.0000 31.0540 0.0000
# 6 0.0000 0.0000 0.0000 0.0000 0.0000 14.2377
#
#
#
# Elastic Compliance Matrix: (Units=1/GPa)
#
#
# Indices 1 2 3 4 5 6 
#
# 1 0.014729 0.000472 -0.011328 0.000000 0.000000 0.000000
# 2 0.000472 0.012543 -0.006978 0.000000 0.000000 0.000000
# 3 -0.011328 -0.006978 0.024967 0.000000 0.000000 0.000000
# 4 0.000000 0.000000 0.000000 0.081509 0.000000 0.000000
# 5 0.000000 0.000000 0.000000 0.000000 0.032202 0.000000
# 6 0.000000 0.000000 0.000000 0.000000 0.000000 0.070236
#
#
# Mechanical properties :
#
#
# Convention : Reuss Voigt Hill
#
# Bulk Modulus (GPa) = 60.34309 61.11757 60.73033
# Shear Modulus (GPa) = 18.02602 22.40936 20.21769
#
# Velocity S-wave (km/s) = 2.95127 3.29059 3.12554
# Velocity P-wave (km/s) = 6.38518 6.63089 6.50919
#
# Compressibility (1/GPa) = 0.01657190
#
# Stress axis : x y z
#
# Youngs Moduli (GPa) = 67.89151 79.72804 40.05315
#
# Poissons Ratio (x) = -0.03764 0.45372
# Poissons Ratio (y) = -0.03205 0.27948
# Poissons Ratio (z) = 0.76907 0.55631
#
# Static dielectric constant tensor:
#      x y z
#    x 1.813050 0.000000 0.000000 
#    y 0.000000 1.726020 0.000000 
#    z 0.000000 0.000000 1.764670 
# 
# From -- ./inp_files/8490.got.cif
#   From: 2010.05.17/outbox.ucp.g08.bks.cvg/sg54_5_cif.got.tgz:8490.got - 2010.06.11 16:34:40.
