data_PCOD9424457
_publ_section_title
;
Structure prediction by ZEFSAII (Michael W. Deem and Ramdas Pophale) SiO2 
 PCOD9424457
Probable space group: P C C A
;
_chemical_formula_sum "Si O2"
_cell_formula_units_Z 36
_cell_length_a 5.044318
_cell_length_b 12.998031
_cell_length_c 25.353539
_cell_angle_alpha 90.000000
_cell_angle_beta 90.000000
_cell_angle_gamma 90.000000
_cell_volume 1662.335253
_symmetry_space_group_name_H-M "P C C A"
_symmetry_group_IT_number 54
_symmetry_cell_setting 'orthorhombic'
loop_
_space_group_symop_operation_xyz
x,y,z
1/2-x,-y,z
1/2+x,-y,1/2-z
-x,y,1/2-z
-x,-y,-z
1/2+x,y,-z
1/2-x,y,1/2+z
x,-y,1/2+z
loop_
_atom_site_type_symbol
_atom_site_label
_atom_site_fract_x
_atom_site_fract_y
_atom_site_fract_z
Si Si1 0.750000 0.000000 0.415136
Si Si2 0.581904 0.213709 0.192840
Si Si3 0.750000 0.000000 0.662239
Si Si4 0.250000 0.500000 0.711023
Si Si5 0.898904 0.698242 0.857538
Si Si6 0.750429 0.223841 0.467275
O O1 0.496797 0.995747 0.377245
O O2 0.763001 0.103898 0.449826
O O3 0.500000 0.253567 0.250000
O O4 0.306300 0.213650 0.161708
O O5 0.803789 0.278883 0.161987
O O6 0.708732 0.101158 0.196901
O O7 0.500000 0.510535 0.750000
O O8 0.299959 0.403243 0.672536
O O9 0.857104 0.704618 0.919928
O O10 0.447919 0.241753 0.483851
#
# Coordination Sequence:
#
# PCOD9424457 Si02
#       6
#     4   8   4   4   8   8
#     4  12  22  42  64  96 138 186 234 280 320 388
#     4  12  24  41  66  95 137 182 217 272 341 408
#     4  12  22  40  62  96 140 180 224 266 338 404
#     4  12  26  48  76 104 128 174 226 280 352 412
#     4  12  25  46  68  99 136 170 229 288 331 405
#     4  12  24  42  68  99 135 182 230 279 338 392
#
# _framework density 21.656282000000001
#
# number of rings (size 3 to 8) (size 9 to 14) (size 15 to 20)
#    0.000    0.000    4.444    7.333    0.000    2.667 
#    0.000    1.111    0.000    0.000    0.000    0.000 
#    0.000    0.000    0.000    0.000    0.000    0.000 
#
# Total GULP energy -201405.212519 kJ/mol
# GULP energy per Si atom -5594.589237 kJ/mol
# Density = 2.160699 g / cm^3
# Si number density = 21.656282 Si / 1000 Ang^3
#
#
#
# Elastic Constant Matrix: (Units=GPa)
#
#
# Indices 1 2 3 4 5 6 
#
# 1 134.0519 -6.3539 24.2718 0.0000 0.0000 0.0000
# 2 -6.3539 83.7732 27.7690 0.0000 0.0000 0.0000
# 3 24.2718 27.7690 93.3494 0.0000 0.0000 0.0000
# 4 0.0000 0.0000 0.0000 26.3567 0.0000 0.0000
# 5 0.0000 0.0000 0.0000 0.0000 46.9156 0.0000
# 6 0.0000 0.0000 0.0000 0.0000 0.0000 10.9280
#
#
#
# Elastic Compliance Matrix: (Units=1/GPa)
#
#
# Indices 1 2 3 4 5 6 
#
# 1 0.007981 0.001435 -0.002502 0.000000 0.000000 0.000000
# 2 0.001435 0.013501 -0.004389 0.000000 0.000000 0.000000
# 3 -0.002502 -0.004389 0.012669 0.000000 0.000000 0.000000
# 4 0.000000 0.000000 0.000000 0.037941 0.000000 0.000000
# 5 0.000000 0.000000 0.000000 0.000000 0.021315 0.000000
# 6 0.000000 0.000000 0.000000 0.000000 0.000000 0.091508
#
#
# Mechanical properties :
#
#
# Convention : Reuss Voigt Hill
#
# Bulk Modulus (GPa) = 43.03410 44.72759 43.88084
# Shear Modulus (GPa) = 24.56124 34.53924 29.55024
#
# Velocity S-wave (km/s) = 3.37135 3.99793 3.69794
# Velocity P-wave (km/s) = 5.92193 6.48147 6.20801
#
# Compressibility (1/GPa) = 0.02323739
#
# Stress axis : x y z
#
# Youngs Moduli (GPa) = 125.30089 74.07024 78.93530
#
# Poissons Ratio (x) = -0.10626 0.19748
# Poissons Ratio (y) = -0.17976 0.34646
# Poissons Ratio (z) = 0.31348 0.32510
#
# Static dielectric constant tensor:
#      x y z
#    x 1.752860 0.000000 0.000000 
#    y 0.000000 1.819060 0.000000 
#    z 0.000000 0.000000 1.841310 
# 
# From -- ./inp_files/22723.got.cif
#   From: 2010.05.17/outbox.cif.g08.bks.cpg/sg54_12_cif.got.tgz:22723.got - 2010.06.03 13:09:01.
