data_PCOD9424262
_publ_section_title
;
Structure prediction by ZEFSAII (Michael W. Deem and Ramdas Pophale) SiO2 
 PCOD9424262
Probable space group: P C C A
;
_chemical_formula_sum "Si O2"
_cell_formula_units_Z 32
_cell_length_a 4.899928
_cell_length_b 8.233731
_cell_length_c 34.076760
_cell_angle_alpha 90.000000
_cell_angle_beta 90.000000
_cell_angle_gamma 90.000000
_cell_volume 1374.816287
_symmetry_space_group_name_H-M "P C C A"
_symmetry_group_IT_number 54
_symmetry_cell_setting 'orthorhombic'
loop_
_space_group_symop_operation_xyz
x,y,z
1/2-x,-y,z
1/2+x,-y,1/2-z
-x,y,1/2-z
-x,-y,-z
1/2+x,y,-z
1/2-x,y,1/2+z
x,-y,1/2+z
loop_
_atom_site_type_symbol
_atom_site_label
_atom_site_fract_x
_atom_site_fract_y
_atom_site_fract_z
Si Si1 0.067610 0.336865 0.658055
Si Si2 0.750000 0.000000 0.073790
Si Si3 0.250000 0.000000 0.632787
Si Si4 0.478882 0.288374 0.526556
Si Si5 0.250000 0.500000 0.409650
Si Si6 0.250000 0.500000 0.277337
O O1 0.250000 0.500000 0.660580
O O2 0.240637 0.170733 0.656556
O O3 0.893046 0.369255 0.618532
O O4 0.862504 0.356619 0.694619
O O5 0.505104 0.027473 0.104280
O O6 0.902730 0.123291 0.044501
O O7 0.171807 0.307253 0.511726
O O8 0.541069 0.411751 0.561593
O O9 0.500000 0.553102 0.250000
#
# Coordination Sequence:
#
# PCOD9424262 Si02
#       6
#     8   4   4   8   4   4
#     4  11  25  46  81 109 146 192 238 292 361 431
#     4  12  24  45  64  95 144 182 246 318 364 425
#     4  12  26  45  76 109 142 184 250 302 350 429
#     4  12  25  41  62  91 135 191 248 308 374 427
#     4  11  24  42  64 101 138 188 252 303 364 426
#     4  11  24  48  82 115 152 192 228 283 362 444
#
# _framework density 23.275834
#
# number of rings (size 3 to 8) (size 9 to 14) (size 15 to 20)
#    0.000    0.500    3.750    4.500    7.000    0.000 
#    0.000    0.000    5.500    0.000    0.000    0.000 
#    0.000    0.000    0.000    0.000    0.000    0.000 
#
# Total GULP energy -178863.005153 kJ/mol
# GULP energy per Si atom -5589.468911 kJ/mol
# Density = 2.322286 g / cm^3
# Si number density = 23.275834 Si / 1000 Ang^3
#
#
#
# Elastic Constant Matrix: (Units=GPa)
#
#
# Indices 1 2 3 4 5 6 
#
# 1 103.2391 24.2024 28.0825 0.0000 0.0000 0.0000
# 2 24.2024 156.4585 49.9137 0.0000 0.0000 0.0000
# 3 28.0825 49.9137 113.2872 0.0000 0.0000 0.0000
# 4 0.0000 0.0000 0.0000 4.3547 0.0000 0.0000
# 5 0.0000 0.0000 0.0000 0.0000 90.2442 0.0000
# 6 0.0000 0.0000 0.0000 0.0000 0.0000 31.2649
#
#
#
# Elastic Compliance Matrix: (Units=1/GPa)
#
#
# Indices 1 2 3 4 5 6 
#
# 1 0.010500 -0.000924 -0.002196 0.000000 0.000000 0.000000
# 2 -0.000924 0.007518 -0.003083 0.000000 0.000000 0.000000
# 3 -0.002196 -0.003083 0.010730 0.000000 0.000000 0.000000
# 4 0.000000 0.000000 0.000000 0.229635 0.000000 0.000000
# 5 0.000000 0.000000 0.000000 0.000000 0.011081 0.000000
# 6 0.000000 0.000000 0.000000 0.000000 0.000000 0.031985
#
#
# Mechanical properties :
#
#
# Convention : Reuss Voigt Hill
#
# Bulk Modulus (GPa) = 61.19159 64.15357 62.67258
# Shear Modulus (GPa) = 15.65913 43.22516 29.44215
#
# Velocity S-wave (km/s) = 2.59658 4.31406 3.56043
# Velocity P-wave (km/s) = 5.94445 7.24134 6.62471
#
# Compressibility (1/GPa) = 0.01634211
#
# Stress axis : x y z
#
# Youngs Moduli (GPa) = 95.23708 133.01331 93.19670
#
# Poissons Ratio (x) = 0.12287 0.20465
# Poissons Ratio (y) = 0.08797 0.28737
# Poissons Ratio (z) = 0.20913 0.41014
#
# Static dielectric constant tensor:
#      x y z
#    x 1.904610 0.000000 0.000000 
#    y 0.000000 2.003900 0.000000 
#    z 0.000000 0.000000 1.907760 
# 
# From -- ./inp_files/26922.got.cif
#   From: 2010.05.17/outbox.cif.g08.bks.cpg/sg54_14_cif.got.tgz:26922.got - 2010.06.03 13:09:01.
