data_PCOD9424766
_publ_section_title
;
Structure prediction by ZEFSAII (Michael W. Deem and Ramdas Pophale) SiO2 
 PCOD9424766
Probable space group: P B A M
;
_chemical_formula_sum "Si O2"
_cell_formula_units_Z 56
_cell_length_a 23.048670
_cell_length_b 18.292593
_cell_length_c 8.859404
_cell_angle_alpha 90.000000
_cell_angle_beta 90.000000
_cell_angle_gamma 90.000000
_cell_volume 3735.301378
_symmetry_space_group_name_H-M "P B A M"
_symmetry_group_IT_number 55
_symmetry_cell_setting 'orthorhombic'
loop_
_space_group_symop_operation_xyz
x,y,z
-x,-y,z
1/2+x,1/2-y,-z
1/2-x,1/2+y,-z
-x,-y,-z
x,y,-z
1/2-x,1/2+y,z
1/2+x,1/2-y,z
loop_
_atom_site_type_symbol
_atom_site_label
_atom_site_fract_x
_atom_site_fract_y
_atom_site_fract_z
Si Si1 0.779678 0.571085 0.682199
Si Si2 0.433833 0.502812 0.816024
Si Si3 0.179758 0.276158 0.325786
Si Si4 0.848866 0.870273 0.819069
Si Si5 0.683971 0.769729 0.675295
Si Si6 0.156852 0.878845 0.818579
Si Si7 0.217479 0.583173 0.181009
O O1 0.776046 0.571131 0.500000
O O2 0.820003 0.639998 0.728280
O O3 0.715841 0.587256 0.749790
O O4 0.799776 0.493271 0.744315
O O5 0.500000 0.500000 0.763073
O O6 0.398306 0.574307 0.764377
O O7 0.396349 0.431409 0.776166
O O8 0.434832 0.505404 0.000000
O O9 0.161713 0.274310 0.500000
O O10 0.146807 0.212605 0.237981
O O11 0.248006 0.254009 0.319302
O O12 0.785187 0.901489 0.776431
O O13 0.850198 0.869504 0.000000
O O14 0.667658 0.775711 0.500000
O O15 0.651167 0.703283 0.756308
O O16 0.681750 0.847502 0.757991
O O17 0.162418 0.877806 0.000000
O O18 0.214275 0.579041 0.000000
#
# Coordination Sequence:
#
# PCOD9424766 Si02
#       7
#     8   8   8   8   8   8   8
#     4  10  18  27  40  59  85 115 142 170 211 259
#     4   9  17  29  44  62  84 111 146 185 221 252
#     4   8  16  27  38  55  78 108 139 166 204 251
#     4   9  16  27  41  58  78 106 141 175 211 245
#     4   9  17  28  40  58  82 111 140 169 213 260
#     4  10  17  28  43  59  80 110 147 183 215 249
#     4  10  17  26  41  63  85 109 143 176 206 248
#
# _framework density 14.992096999999999
#
# number of rings (size 3 to 8) (size 9 to 14) (size 15 to 20)
#    0.000    2.714    1.429    2.571    0.000    4.571 
#    0.000    0.000    0.000    3.857    0.000    0.000 
#    0.000    1.143    0.000   13.143    0.000    3.286 
#
# Total GULP energy -311834.337353 kJ/mol
# GULP energy per Si atom -5568.470310 kJ/mol
# Density = 1.495797 g / cm^3
# Si number density = 14.992097 Si / 1000 Ang^3
#
#
#
# Elastic Constant Matrix: (Units=GPa)
#
#
# Indices 1 2 3 4 5 6 
#
# 1 50.0816 46.0719 17.2006 0.0000 0.0000 0.0000
# 2 46.0719 171.0978 44.6856 0.0000 0.0000 0.0000
# 3 17.2006 44.6856 41.3935 0.0000 0.0000 0.0000
# 4 0.0000 0.0000 0.0000 27.5163 0.0000 0.0000
# 5 0.0000 0.0000 0.0000 0.0000 6.1104 0.0000
# 6 0.0000 0.0000 0.0000 0.0000 0.0000 13.2412
#
#
#
# Elastic Compliance Matrix: (Units=1/GPa)
#
#
# Indices 1 2 3 4 5 6 
#
# 1 0.027191 -0.006087 -0.004728 0.000000 0.000000 0.000000
# 2 -0.006087 0.009502 -0.007728 0.000000 0.000000 0.000000
# 3 -0.004728 -0.007728 0.034466 0.000000 0.000000 0.000000
# 4 0.000000 0.000000 0.000000 0.036342 0.000000 0.000000
# 5 0.000000 0.000000 0.000000 0.000000 0.163655 0.000000
# 6 0.000000 0.000000 0.000000 0.000000 0.000000 0.075522
#
#
# Mechanical properties :
#
#
# Convention : Reuss Voigt Hill
#
# Bulk Modulus (GPa) = 29.34908 53.16546 41.25727
# Shear Modulus (GPa) = 12.65433 19.68123 16.16778
#
# Velocity S-wave (km/s) = 2.90843 3.62715 3.28749
# Velocity P-wave (km/s) = 5.55855 7.28567 6.47991
#
# Compressibility (1/GPa) = 0.03407262
#
# Stress axis : x y z
#
# Youngs Moduli (GPa) = 36.77711 105.23974 29.01407
#
# Poissons Ratio (x) = 0.64059 0.13717
# Poissons Ratio (y) = 0.22386 0.22423
# Poissons Ratio (z) = 0.17387 0.81334
#
# Static dielectric constant tensor:
#      x y z
#    x 1.466460 0.000000 0.000000 
#    y 0.000000 1.525770 0.000000 
#    z 0.000000 0.000000 1.504130 
# 
# From -- ./inp_files/7829.got.cif
#   From: 2010.05.17/outbox.cif.g08.bks.cpg/sg55_4_cif.got.tgz:7829.got - 2010.06.03 13:27:54.
