data_PCOD9424578
_publ_section_title
;
Structure prediction by ZEFSAII (Michael W. Deem and Ramdas Pophale) SiO2 
 PCOD9424578
Probable space group: P C C A
;
_chemical_formula_sum "Si O2"
_cell_formula_units_Z 32
_cell_length_a 9.398298
_cell_length_b 4.906089
_cell_length_c 27.316065
_cell_angle_alpha 90.000000
_cell_angle_beta 90.000000
_cell_angle_gamma 90.000000
_cell_volume 1259.513339
_symmetry_space_group_name_H-M "P C C A"
_symmetry_group_IT_number 54
_symmetry_cell_setting 'orthorhombic'
loop_
_space_group_symop_operation_xyz
x,y,z
1/2-x,-y,z
1/2+x,-y,1/2-z
-x,y,1/2-z
-x,-y,-z
1/2+x,y,-z
1/2-x,y,1/2+z
x,-y,1/2+z
loop_
_atom_site_type_symbol
_atom_site_label
_atom_site_fract_x
_atom_site_fract_y
_atom_site_fract_z
Si Si1 0.250000 0.000000 0.190331
Si Si2 0.000000 0.652215 0.750000
Si Si3 0.054517 0.157837 0.598980
Si Si4 0.750000 0.000000 0.125636
Si Si5 0.895379 0.635991 0.961442
Si Si6 0.250000 0.500000 0.307828
O O1 0.132085 0.174225 0.223360
O O2 0.138312 0.878569 0.149909
O O3 0.897395 0.448457 0.719894
O O4 0.104852 0.949594 0.555394
O O5 0.072252 0.475646 0.588516
O O6 0.887739 0.095749 0.597684
O O7 0.793637 0.246264 0.159798
O O8 0.750000 0.500000 0.978330
O O9 0.000000 0.500000 0.000000
#
# Coordination Sequence:
#
# PCOD9424578 Si02
#       6
#     4   4   8   4   8   4
#     4  12  27  54  77 118 154 218 264 335 394 467
#     4  12  30  46  82 110 164 206 278 336 394 476
#     4  12  27  49  80 108 161 201 262 316 398 473
#     4  12  27  48  75 112 144 206 262 323 390 471
#     4  12  27  49  78 116 152 203 249 322 392 476
#     4  12  28  48  70 110 148 200 260 330 390 446
#
# _framework density 25.406637
#
# number of rings (size 3 to 8) (size 9 to 14) (size 15 to 20)
#    0.000    0.000    5.000    3.000    7.000    1.000 
#    0.000    0.000    0.000    0.000    0.000    0.000 
#    0.000    0.000    0.000    0.000    0.000    0.000 
#
# Total GULP energy -178290.978663 kJ/mol
# GULP energy per Si atom -5571.593083 kJ/mol
# Density = 2.534881 g / cm^3
# Si number density = 25.406637 Si / 1000 Ang^3
#
#
#
# Elastic Constant Matrix: (Units=GPa)
#
#
# Indices 1 2 3 4 5 6 
#
# 1 219.5841 -11.0181 17.7586 0.0000 0.0000 0.0000
# 2 -11.0181 58.7991 -12.3806 0.0000 0.0000 0.0000
# 3 17.7586 -12.3806 42.2176 0.0000 0.0000 0.0000
# 4 0.0000 0.0000 0.0000 33.1204 0.0000 0.0000
# 5 0.0000 0.0000 0.0000 0.0000 24.9871 0.0000
# 6 0.0000 0.0000 0.0000 0.0000 0.0000 37.7758
#
#
#
# Elastic Compliance Matrix: (Units=1/GPa)
#
#
# Indices 1 2 3 4 5 6 
#
# 1 0.004728 0.000498 -0.001843 0.000000 0.000000 0.000000
# 2 0.000498 0.018179 0.005122 0.000000 0.000000 0.000000
# 3 -0.001843 0.005122 0.025964 0.000000 0.000000 0.000000
# 4 0.000000 0.000000 0.000000 0.030193 0.000000 0.000000
# 5 0.000000 0.000000 0.000000 0.000000 0.040021 0.000000
# 6 0.000000 0.000000 0.000000 0.000000 0.000000 0.026472
#
#
# Mechanical properties :
#
#
# Convention : Reuss Voigt Hill
#
# Bulk Modulus (GPa) = 17.72289 34.36897 26.04593
# Shear Modulus (GPa) = 31.88553 40.92604 36.40578
#
# Velocity S-wave (km/s) = 3.54645 4.01788 3.78951
# Velocity P-wave (km/s) = 4.87448 5.92296 5.42411
#
# Compressibility (1/GPa) = 0.05642420
#
# Stress axis : x y z
#
# Youngs Moduli (GPa) = 211.50216 55.00927 38.51500
#
# Poissons Ratio (x) = -0.02739 0.07098
# Poissons Ratio (y) = -0.10532 -0.19726
# Poissons Ratio (z) = 0.38976 -0.28173
#
# Static dielectric constant tensor:
#      x y z
#    x 2.038690 0.000000 0.000000 
#    y 0.000000 1.949990 0.000000 
#    z 0.000000 0.000000 2.166790 
# 
# From -- ./inp_files/27455.got.cif
#   From: 2010.05.17/outbox.cif.g08.bks.cpg/sg54_14_cif.got.tgz:27455.got - 2010.06.03 13:09:01.
