data_PCOD9424325
_publ_section_title
;
Structure prediction by ZEFSAII (Michael W. Deem and Ramdas Pophale) SiO2 
 PCOD9424325
Probable space group: P C C A
;
_chemical_formula_sum "Si O2"
_cell_formula_units_Z 64
_cell_length_a 29.750415
_cell_length_b 11.652457
_cell_length_c 8.504404
_cell_angle_alpha 90.000000
_cell_angle_beta 90.000000
_cell_angle_gamma 90.000000
_cell_volume 2948.182882
_symmetry_space_group_name_H-M "P C C A"
_symmetry_group_IT_number 54
_symmetry_cell_setting 'orthorhombic'
loop_
_space_group_symop_operation_xyz
x,y,z
1/2-x,-y,z
1/2+x,-y,1/2-z
-x,y,1/2-z
-x,-y,-z
1/2+x,y,-z
1/2-x,y,1/2+z
x,-y,1/2+z
loop_
_atom_site_type_symbol
_atom_site_label
_atom_site_fract_x
_atom_site_fract_y
_atom_site_fract_z
Si Si1 0.872037 0.076218 0.305170
Si Si2 0.547328 0.290287 0.325132
Si Si3 0.949045 0.234242 0.192509
Si Si4 0.209720 0.315386 0.949910
Si Si5 0.089655 0.478851 0.226847
Si Si6 0.869935 0.164917 0.663968
Si Si7 0.846315 0.525917 0.527405
Si Si8 0.193988 0.258897 0.316197
O O1 0.918456 0.125591 0.235611
O O2 0.872888 0.113553 0.487456
O O3 0.832303 0.140069 0.207996
O O4 0.865858 0.941703 0.281601
O O5 0.500000 0.257845 0.250000
O O6 0.551305 0.251614 0.505184
O O7 0.553582 0.427809 0.322826
O O8 0.587135 0.236403 0.220810
O O9 0.927277 0.348250 0.274579
O O10 0.000000 0.222097 0.250000
O O11 0.202006 0.295810 0.135405
O O12 0.173159 0.246902 0.847022
O O13 0.196545 0.448832 0.929882
O O14 0.258154 0.269291 0.900840
O O15 0.104786 0.508794 0.404077
O O16 0.139004 0.503504 0.150919
O O17 0.837210 0.654407 0.583734
#
# Coordination Sequence:
#
# PCOD9424325 Si02
#       8
#     8   8   8   8   8   8   8   8
#     4  11  24  47  69  95 129 172 221 280 336 395
#     4  12  26  42  68 101 133 178 223 272 332 397
#     4  12  26  43  67 100 137 175 221 275 330 398
#     4  11  25  41  65  97 132 174 216 273 327 394
#     4  12  23  40  69  95 137 177 217 267 328 391
#     4  11  25  46  71  94 129 171 222 278 336 396
#     4  12  22  41  66  97 133 177 216 266 329 389
#     4  11  25  42  65  97 134 172 220 271 331 394
#
# _framework density 21.708286999999999
#
# number of rings (size 3 to 8) (size 9 to 14) (size 15 to 20)
#    0.000    0.500    5.000    3.000    3.500    5.000 
#    0.000    5.000    0.000    0.000    0.000    0.000 
#    0.000    0.000    0.000    0.000    0.000    0.000 
#
# Total GULP energy -357561.562715 kJ/mol
# GULP energy per Si atom -5586.899417 kJ/mol
# Density = 2.165888 g / cm^3
# Si number density = 21.708287 Si / 1000 Ang^3
#
#
#
# Elastic Constant Matrix: (Units=GPa)
#
#
# Indices 1 2 3 4 5 6 
#
# 1 100.0023 2.3936 13.9252 0.0000 0.0000 0.0000
# 2 2.3936 58.7357 0.1717 0.0000 0.0000 0.0000
# 3 13.9252 0.1717 51.4585 0.0000 0.0000 0.0000
# 4 0.0000 0.0000 0.0000 29.6695 0.0000 0.0000
# 5 0.0000 0.0000 0.0000 0.0000 39.4988 0.0000
# 6 0.0000 0.0000 0.0000 0.0000 0.0000 9.5738
#
#
#
# Elastic Compliance Matrix: (Units=1/GPa)
#
#
# Indices 1 2 3 4 5 6 
#
# 1 0.010401 -0.000416 -0.002813 0.000000 0.000000 0.000000
# 2 -0.000416 0.017042 0.000056 0.000000 0.000000 0.000000
# 3 -0.002813 0.000056 0.020194 0.000000 0.000000 0.000000
# 4 0.000000 0.000000 0.000000 0.033705 0.000000 0.000000
# 5 0.000000 0.000000 0.000000 0.000000 0.025317 0.000000
# 6 0.000000 0.000000 0.000000 0.000000 0.000000 0.104452
#
#
# Mechanical properties :
#
#
# Convention : Reuss Voigt Hill
#
# Bulk Modulus (GPa) = 24.21827 27.01973 25.61900
# Shear Modulus (GPa) = 21.62424 28.66215 25.14319
#
# Velocity S-wave (km/s) = 3.15957 3.63758 3.40697
# Velocity P-wave (km/s) = 4.94884 5.48784 5.22529
#
# Compressibility (1/GPa) = 0.04129114
#
# Stress axis : x y z
#
# Youngs Moduli (GPa) = 96.14024 58.67787 49.51902
#
# Poissons Ratio (x) = 0.02439 0.13931
# Poissons Ratio (y) = 0.03996 -0.00275
# Poissons Ratio (z) = 0.27048 -0.00326
#
# Static dielectric constant tensor:
#      x y z
#    x 1.772780 0.000000 0.000000 
#    y 0.000000 1.762320 0.000000 
#    z 0.000000 0.000000 1.791590 
# 
# From -- ./inp_files/5969.got.cif
#   From: 2010.05.17/outbox.cif.g08.bks.cpg/sg54_3_cif.got.tgz:5969.got - 2010.06.03 13:09:01.
