data_PCOD9424461
_publ_section_title
;
Structure prediction by ZEFSAII (Michael W. Deem and Ramdas Pophale) SiO2 
 PCOD9424461
Probable space group: P C C A
;
_chemical_formula_sum "Si O2"
_cell_formula_units_Z 44
_cell_length_a 5.099345
_cell_length_b 13.570998
_cell_length_c 31.411313
_cell_angle_alpha 90.000000
_cell_angle_beta 90.000000
_cell_angle_gamma 90.000000
_cell_volume 2173.763401
_symmetry_space_group_name_H-M "P C C A"
_symmetry_group_IT_number 54
_symmetry_cell_setting 'orthorhombic'
loop_
_space_group_symop_operation_xyz
x,y,z
1/2-x,-y,z
1/2+x,-y,1/2-z
-x,y,1/2-z
-x,-y,-z
1/2+x,y,-z
1/2-x,y,1/2+z
x,-y,1/2+z
loop_
_atom_site_type_symbol
_atom_site_label
_atom_site_fract_x
_atom_site_fract_y
_atom_site_fract_z
Si Si1 0.883678 0.208492 0.883824
Si Si2 0.500000 0.821873 0.250000
Si Si3 0.750000 0.000000 0.213459
Si Si4 0.250000 0.500000 0.866046
Si Si5 0.395013 0.709793 0.337369
Si Si6 0.750000 0.000000 0.847178
Si Si7 0.725741 0.709085 0.973606
Si Si8 0.250000 0.500000 0.071602
O O1 0.659141 0.280331 0.864953
O O2 0.881755 0.229536 0.933681
O O3 0.159528 0.229244 0.860155
O O4 0.787982 0.098624 0.873975
O O5 0.731512 0.901601 0.242047
O O6 0.477667 0.754093 0.291684
O O7 0.503364 0.992245 0.182530
O O8 0.208985 0.598006 0.838043
O O9 0.498552 0.504179 0.897518
O O10 0.728926 0.595815 0.958085
O O11 0.522665 0.728118 0.011810
#
# Coordination Sequence:
#
# PCOD9424461 Si02
#       8
#     8   4   4   4   8   4   8   4
#     4  12  24  46  68 100 138 186 224 283 353 419
#     4  12  26  44  70 110 136 180 222 304 336 400
#     4  12  25  40  72 103 142 160 236 297 342 390
#     4  12  22  45  67 102 136 196 230 274 331 443
#     4  12  25  43  71  97 143 184 229 279 349 407
#     4  12  23  46  70 103 128 188 228 277 352 420
#     4  12  24  41  67 105 138 174 233 295 346 409
#     4  12  22  41  71  98 140 174 242 282 357 397
#
# _framework density 20.241392999999999
#
# number of rings (size 3 to 8) (size 9 to 14) (size 15 to 20)
#    0.000    0.000    7.273    3.273    0.000    2.182 
#    0.000    3.636    0.000    0.000    0.000    0.000 
#    0.000    0.000    0.000    0.000    0.000    0.000 
#
# Total GULP energy -245897.993635 kJ/mol
# GULP energy per Si atom -5588.590764 kJ/mol
# Density = 2.019532 g / cm^3
# Si number density = 20.241393 Si / 1000 Ang^3
#
#
#
# Elastic Constant Matrix: (Units=GPa)
#
#
# Indices 1 2 3 4 5 6 
#
# 1 130.6691 2.5123 30.1361 0.0000 0.0000 0.0000
# 2 2.5123 87.2312 34.0495 0.0000 0.0000 0.0000
# 3 30.1361 34.0495 101.0439 0.0000 0.0000 0.0000
# 4 0.0000 0.0000 0.0000 16.0244 0.0000 0.0000
# 5 0.0000 0.0000 0.0000 0.0000 34.6028 0.0000
# 6 0.0000 0.0000 0.0000 0.0000 0.0000 26.5900
#
#
#
# Elastic Compliance Matrix: (Units=1/GPa)
#
#
# Indices 1 2 3 4 5 6 
#
# 1 0.008271 0.000834 -0.002748 0.000000 0.000000 0.000000
# 2 0.000834 0.013284 -0.004725 0.000000 0.000000 0.000000
# 3 -0.002748 -0.004725 0.012309 0.000000 0.000000 0.000000
# 4 0.000000 0.000000 0.000000 0.062405 0.000000 0.000000
# 5 0.000000 0.000000 0.000000 0.000000 0.028899 0.000000
# 6 0.000000 0.000000 0.000000 0.000000 0.000000 0.037608
#
#
# Mechanical properties :
#
#
# Convention : Reuss Voigt Hill
#
# Bulk Modulus (GPa) = 48.57721 50.26001 49.41861
# Shear Modulus (GPa) = 27.33507 32.25987 29.79747
#
# Velocity S-wave (km/s) = 3.67884 3.99652 3.84097
# Velocity P-wave (km/s) = 6.48816 6.79562 6.64367
#
# Compressibility (1/GPa) = 0.02058579
#
# Stress axis : x y z
#
# Youngs Moduli (GPa) = 120.91005 75.27726 81.24433
#
# Poissons Ratio (x) = -0.06281 0.22325
# Poissons Ratio (y) = -0.10089 0.38391
# Poissons Ratio (z) = 0.33224 0.35571
#
# Static dielectric constant tensor:
#      x y z
#    x 1.753920 0.000000 0.000000 
#    y 0.000000 1.740390 0.000000 
#    z 0.000000 0.000000 1.735990 
# 
# From -- ./inp_files/25348.got.cif
#   From: 2010.05.17/outbox.cif.g08.bks.cpg/sg54_13_cif.got.tgz:25348.got - 2010.06.03 13:09:01.
