data_PCOD9424260
_publ_section_title
;
Structure prediction by ZEFSAII (Michael W. Deem and Ramdas Pophale) SiO2 
 PCOD9424260
Probable space group: P C C A
;
_chemical_formula_sum "Si O2"
_cell_formula_units_Z 36
_cell_length_a 5.215424
_cell_length_b 16.951532
_cell_length_c 19.439465
_cell_angle_alpha 90.000000
_cell_angle_beta 90.000000
_cell_angle_gamma 90.000000
_cell_volume 1718.631959
_symmetry_space_group_name_H-M "P C C A"
_symmetry_group_IT_number 54
_symmetry_cell_setting 'orthorhombic'
loop_
_space_group_symop_operation_xyz
x,y,z
1/2-x,-y,z
1/2+x,-y,1/2-z
-x,y,1/2-z
-x,-y,-z
1/2+x,y,-z
1/2-x,y,1/2+z
x,-y,1/2+z
loop_
_atom_site_type_symbol
_atom_site_label
_atom_site_fract_x
_atom_site_fract_y
_atom_site_fract_z
Si Si1 0.000000 0.132473 0.750000
Si Si2 0.250000 0.000000 0.420969
Si Si3 0.250592 0.414498 0.798504
Si Si4 0.872561 0.827173 0.536113
Si Si5 0.151125 0.757494 0.823251
Si Si6 0.250000 0.000000 0.174178
O O1 0.900366 0.189668 0.690962
O O2 0.225218 0.075819 0.723247
O O3 0.175316 0.078212 0.462901
O O4 0.498309 0.009376 0.372291
O O5 0.250000 0.500000 0.835152
O O6 0.500000 0.418239 0.750000
O O7 0.279417 0.333091 0.839337
O O8 0.000000 0.406941 0.750000
O O9 0.587799 0.798910 0.517032
O O10 0.969915 0.799076 0.610716
O O11 0.000000 0.758148 0.750000
#
# Coordination Sequence:
#
# PCOD9424260 Si02
#       6
#     4   4   8   8   8   4
#     4  12  24  38  60  94 126 166 208 274 322 368
#     4  12  23  45  60  80 120 170 220 258 314 372
#     4   9  18  34  60  96 129 156 196 259 319 373
#     4  12  27  44  62  88 126 167 212 264 318 373
#     4  11  24  41  69  94 128 164 218 261 319 380
#     4  12  25  37  60  90 126 160 212 272 314 366
#
# _framework density 20.946891999999998
#
# number of rings (size 3 to 8) (size 9 to 14) (size 15 to 20)
#    0.000    0.889    3.333    4.000    4.667    0.000 
#    0.000    0.000    0.000    1.333    0.000    0.000 
#    0.000    0.000    0.000    0.000    0.000    0.000 
#
# Total GULP energy -200953.191565 kJ/mol
# GULP energy per Si atom -5582.033099 kJ/mol
# Density = 2.089922 g / cm^3
# Si number density = 20.946892 Si / 1000 Ang^3
#
#
#
# Elastic Constant Matrix: (Units=GPa)
#
#
# Indices 1 2 3 4 5 6 
#
# 1 127.4077 9.3109 24.5655 0.0000 0.0000 0.0000
# 2 9.3109 133.9317 8.2350 0.0000 0.0000 0.0000
# 3 24.5655 8.2350 65.3441 0.0000 0.0000 0.0000
# 4 0.0000 0.0000 0.0000 -4.2462 0.0000 0.0000
# 5 0.0000 0.0000 0.0000 0.0000 34.4393 0.0000
# 6 0.0000 0.0000 0.0000 0.0000 0.0000 15.7301
#
#
#
# Elastic Compliance Matrix: (Units=1/GPa)
#
#
# Indices 1 2 3 4 5 6 
#
# 1 0.008483 -0.000397 -0.003139 0.000000 0.000000 0.000000
# 2 -0.000397 0.007543 -0.000802 0.000000 0.000000 0.000000
# 3 -0.003139 -0.000802 0.016585 0.000000 0.000000 0.000000
# 4 0.000000 0.000000 0.000000 -0.235503 0.000000 0.000000
# 5 0.000000 0.000000 0.000000 0.000000 0.029037 0.000000
# 6 0.000000 0.000000 0.000000 0.000000 0.000000 0.063572
#
#
# Mechanical properties :
#
#
# Convention : Reuss Voigt Hill
#
# Bulk Modulus (GPa) = 41.77734 45.65628 43.71681
# Shear Modulus (GPa) = -53.40189 28.15610 -12.62289
#
# Velocity S-wave (km/s) = -5.05463 3.67026 -2.45748
# Velocity P-wave (km/s) = 3.75207 6.30909 3.58655
#
# Compressibility (1/GPa) = 0.02393642
#
# Stress axis : x y z
#
# Youngs Moduli (GPa) = 117.88183 132.56705 60.29639
#
# Poissons Ratio (x) = 0.05259 0.18928
# Poissons Ratio (y) = 0.04677 0.04833
# Poissons Ratio (z) = 0.37005 0.10625
#
# Static dielectric constant tensor:
#      x y z
#    x 1.831180 0.000000 0.000000 
#    y 0.000000 1.806910 0.000000 
#    z 0.000000 0.000000 1.772440 
# 
# From -- ./inp_files/19642.got.cif
#   From: 2010.05.17/outbox.cif.g08.bks.cpg/sg54_10_cif.got.tgz:19642.got - 2010.06.03 13:09:01.
