data_PCOD9424772
_publ_section_title
;
Structure prediction by ZEFSAII (Michael W. Deem and Ramdas Pophale) SiO2 
 PCOD9424772
Probable space group: P B A M
;
_chemical_formula_sum "Si O2"
_cell_formula_units_Z 58
_cell_length_a 9.552122
_cell_length_b 24.309472
_cell_length_c 12.596135
_cell_angle_alpha 90.000000
_cell_angle_beta 90.000000
_cell_angle_gamma 90.000000
_cell_volume 2924.911253
_symmetry_space_group_name_H-M "P B A M"
_symmetry_group_IT_number 55
_symmetry_cell_setting 'orthorhombic'
loop_
_space_group_symop_operation_xyz
x,y,z
-x,-y,z
1/2+x,1/2-y,-z
1/2-x,1/2+y,-z
-x,-y,-z
x,y,-z
1/2-x,1/2+y,z
1/2+x,1/2-y,z
loop_
_atom_site_type_symbol
_atom_site_label
_atom_site_fract_x
_atom_site_fract_y
_atom_site_fract_z
Si Si1 0.710046 0.162208 0.122472
Si Si2 0.500000 0.500000 0.500000
Si Si3 0.091250 0.630903 0.838610
Si Si4 0.465013 0.088824 0.383474
Si Si5 0.506245 0.617187 0.870863
Si Si6 0.707585 0.471782 0.121272
Si Si7 0.231975 0.482643 0.657202
Si Si8 0.684431 0.283429 0.877308
O O1 0.566562 0.129739 0.122639
O O2 0.687852 0.222857 0.171393
O O3 0.838642 0.128399 0.168203
O O4 0.751486 0.172863 0.000000
O O5 0.377759 0.485361 0.592756
O O6 0.179764 0.578651 0.878666
O O7 0.165046 0.687008 0.874799
O O8 0.081169 0.627783 0.711809
O O9 0.451824 0.113324 0.500000
O O10 0.360062 0.036606 0.375216
O O11 0.623962 0.066887 0.367657
O O12 0.433672 0.559957 0.843522
O O13 0.416281 0.669506 0.831220
O O14 0.497377 0.616498 0.000000
O O15 0.749295 0.511790 0.215723
O O16 0.697097 0.493672 0.000000
O O17 0.639048 0.276976 0.000000
#
# Coordination Sequence:
#
# PCOD9424772 Si02
#       8
#     8   2   8   8   8   8   8   8
#     4  10  17  26  44  72 103 134 174 212 245 295
#     4  12  20  34  58  84  96 122 188 234 244 306
#     4  10  19  29  52  77  99 140 176 216 251 308
#     4  10  19  39  56  74 105 131 174 222 276 304
#     4   8  15  26  40  61  98 138 162 200 250 302
#     4   9  18  34  50  72 110 145 172 202 267 333
#     4  10  20  35  59  80 101 137 174 227 262 308
#     4   9  16  28  44  68 103 138 172 205 246 304
#
# _framework density 19.829661999999999
#
# number of rings (size 3 to 8) (size 9 to 14) (size 15 to 20)
#    0.000    2.483    1.379    3.310    0.000    3.310 
#    0.000    7.241    0.000    0.828    0.000    0.000 
#    0.000    0.000    0.000    0.000    0.000    0.000 
#
# Total GULP energy -322925.075597 kJ/mol
# GULP energy per Si atom -5567.673717 kJ/mol
# Density = 1.978453 g / cm^3
# Si number density = 19.829662 Si / 1000 Ang^3
#
#
#
# Elastic Constant Matrix: (Units=GPa)
#
#
# Indices 1 2 3 4 5 6 
#
# 1 121.1100 17.8161 -1.3716 0.0000 0.0000 0.0000
# 2 17.8161 50.2470 16.5301 0.0000 0.0000 0.0000
# 3 -1.3716 16.5301 101.1607 0.0000 0.0000 0.0000
# 4 0.0000 0.0000 0.0000 6.4244 0.0000 0.0000
# 5 0.0000 0.0000 0.0000 0.0000 23.0060 0.0000
# 6 0.0000 0.0000 0.0000 0.0000 0.0000 8.4820
#
#
#
# Elastic Compliance Matrix: (Units=1/GPa)
#
#
# Indices 1 2 3 4 5 6 
#
# 1 0.008753 -0.003321 0.000661 0.000000 0.000000 0.000000
# 2 -0.003321 0.022292 -0.003688 0.000000 0.000000 0.000000
# 3 0.000661 -0.003688 0.010497 0.000000 0.000000 0.000000
# 4 0.000000 0.000000 0.000000 0.155655 0.000000 0.000000
# 5 0.000000 0.000000 0.000000 0.000000 0.043467 0.000000
# 6 0.000000 0.000000 0.000000 0.000000 0.000000 0.117897
#
#
# Mechanical properties :
#
#
# Convention : Reuss Voigt Hill
#
# Bulk Modulus (GPa) = 34.66528 37.60744 36.13636
# Shear Modulus (GPa) = 13.12776 23.55203 18.33990
#
# Velocity S-wave (km/s) = 2.57578 3.45007 3.04447
# Velocity P-wave (km/s) = 5.13475 5.90568 5.53366
#
# Compressibility (1/GPa) = 0.02884731
#
# Stress axis : x y z
#
# Youngs Moduli (GPa) = 114.24652 44.85825 95.26695
#
# Poissons Ratio (x) = 0.14898 -0.06301
# Poissons Ratio (y) = 0.37943 0.35132
# Poissons Ratio (z) = -0.07556 0.16542
#
# Static dielectric constant tensor:
#      x y z
#    x 1.751430 0.000000 0.000000 
#    y 0.000000 1.722730 0.000000 
#    z 0.000000 0.000000 1.712790 
# 
# From -- ./inp_files/17876.got.cif
#   From: 2010.05.17/outbox.cif.g08.bks.cpg/sg55_9_cif.got.tgz:17876.got - 2010.06.03 13:27:54.
