data_PCOD9424694
_publ_section_title
;
Structure prediction by ZEFSAII (Michael W. Deem and Ramdas Pophale) SiO2 
 PCOD9424694
Probable space group: P B A M
;
_chemical_formula_sum "Si O2"
_cell_formula_units_Z 46
_cell_length_a 14.754072
_cell_length_b 5.354234
_cell_length_c 26.198894
_cell_angle_alpha 90.000000
_cell_angle_beta 90.000000
_cell_angle_gamma 90.000000
_cell_volume 2069.627583
_symmetry_space_group_name_H-M "P B A M"
_symmetry_group_IT_number 55
_symmetry_cell_setting 'orthorhombic'
loop_
_space_group_symop_operation_xyz
x,y,z
-x,-y,z
1/2+x,1/2-y,-z
1/2-x,1/2+y,-z
-x,-y,-z
x,y,-z
1/2-x,1/2+y,z
1/2+x,1/2-y,z
loop_
_atom_site_type_symbol
_atom_site_label
_atom_site_fract_x
_atom_site_fract_y
_atom_site_fract_z
Si Si1 0.189018 0.275427 0.211050
Si Si2 0.138139 0.329044 0.899204
Si Si3 0.345639 0.329377 0.059536
Si Si4 0.084980 0.361252 0.414245
Si Si5 0.500000 0.500000 0.500000
Si Si6 0.804352 0.383753 0.500000
Si Si7 0.305953 0.666879 0.319583
O O1 0.260631 0.044510 0.208815
O O2 0.129237 0.268062 0.160343
O O3 0.143829 0.232223 0.266339
O O4 0.102899 0.598908 0.914995
O O5 0.246860 0.351323 0.912955
O O6 0.107228 0.094295 0.932080
O O7 0.330219 0.278078 0.000000
O O8 0.139345 0.563797 0.448650
O O9 0.142118 0.226365 0.371300
O O10 0.000000 0.500000 0.389671
O O11 0.950809 0.830868 0.455876
O O12 0.729635 0.601708 0.500000
O O13 0.273694 0.379072 0.319111
#
# Coordination Sequence:
#
# PCOD9424694 Si02
#       7
#     8   8   8   8   2   4   8
#     4  10  16  29  45  65  89 129 171 224 268 312
#     4  10  14  22  33  49  79 114 162 214 254 307
#     4  10  16  20  30  49  78 118 166 210 254 311
#     4  11  25  41  63  89 120 156 186 227 282 341
#     4  10  24  40  64  78 116 142 184 204 276 336
#     4  11  24  39  64  88 120 149 186 223 273 321
#     4  10  23  39  61  85 115 146 194 241 278 327
#
# _framework density 22.226217999999999
#
# number of rings (size 3 to 8) (size 9 to 14) (size 15 to 20)
#    0.000    1.739    3.478    4.696    7.304    0.000 
#    0.000    0.000    0.000    0.000    0.000    0.000 
#    0.000    0.000    0.000    0.000    0.000    9.565 
#
# Total GULP energy -256350.499356 kJ/mol
# GULP energy per Si atom -5572.836943 kJ/mol
# Density = 2.217563 g / cm^3
# Si number density = 22.226218 Si / 1000 Ang^3
#
#
#
# Elastic Constant Matrix: (Units=GPa)
#
#
# Indices 1 2 3 4 5 6 
#
# 1 12.9989 3.6374 -5.6316 0.0000 0.0000 0.0000
# 2 3.6374 126.2285 -12.9551 0.0000 0.0000 0.0000
# 3 -5.6316 -12.9551 135.1624 0.0000 0.0000 0.0000
# 4 0.0000 0.0000 0.0000 60.9661 0.0000 0.0000
# 5 0.0000 0.0000 0.0000 0.0000 -4.2897 0.0000
# 6 0.0000 0.0000 0.0000 0.0000 0.0000 14.4125
#
#
#
# Elastic Compliance Matrix: (Units=1/GPa)
#
#
# Indices 1 2 3 4 5 6 
#
# 1 0.078818 -0.001953 0.003097 0.000000 0.000000 0.000000
# 2 -0.001953 0.008049 0.000690 0.000000 0.000000 0.000000
# 3 0.003097 0.000690 0.007594 0.000000 0.000000 0.000000
# 4 0.000000 0.000000 0.000000 0.016403 0.000000 0.000000
# 5 0.000000 0.000000 0.000000 0.000000 -0.233117 0.000000
# 6 0.000000 0.000000 0.000000 0.000000 0.000000 0.069384
#
#
# Mechanical properties :
#
#
# Convention : Reuss Voigt Hill
#
# Bulk Modulus (GPa) = 10.19077 27.16568 18.67822
# Shear Modulus (GPa) = -209.84762 33.50705 -88.17028
#
# Velocity S-wave (km/s) = -9.72725 3.88693 -6.30521
# Velocity P-wave (km/s) = 11.02562 5.69150 6.67724
#
# Compressibility (1/GPa) = 0.09812804
#
# Stress axis : x y z
#
# Youngs Moduli (GPa) = 12.68745 124.23510 131.68843
#
# Poissons Ratio (x) = 0.24268 -0.40781
# Poissons Ratio (y) = 0.02478 -0.09088
# Poissons Ratio (z) = -0.03929 -0.08574
#
# Static dielectric constant tensor:
#      x y z
#    x 1.882210 0.000000 0.000000 
#    y 0.000000 1.873390 0.000000 
#    z 0.000000 0.000000 1.790750 
# 
# From -- ./inp_files/23656.got.cif
#   From: 2010.05.17/outbox.cif.g08.bks.cpg/sg55_12_cif.got.tgz:23656.got - 2010.06.03 13:27:54.
