data_PCOD9424287
_publ_section_title
;
Structure prediction by ZEFSAII (Michael W. Deem and Ramdas Pophale) SiO2 
 PCOD9424287
Probable space group: P C C A
;
_chemical_formula_sum "Si O2"
_cell_formula_units_Z 20
_cell_length_a 5.051165
_cell_length_b 5.113453
_cell_length_c 32.813758
_cell_angle_alpha 90.000000
_cell_angle_beta 90.000000
_cell_angle_gamma 90.000000
_cell_volume 847.543104
_symmetry_space_group_name_H-M "P C C A"
_symmetry_group_IT_number 54
_symmetry_cell_setting 'orthorhombic'
loop_
_space_group_symop_operation_xyz
x,y,z
1/2-x,-y,z
1/2+x,-y,1/2-z
-x,y,1/2-z
-x,-y,-z
1/2+x,y,-z
1/2-x,y,1/2+z
x,-y,1/2+z
loop_
_atom_site_type_symbol
_atom_site_label
_atom_site_fract_x
_atom_site_fract_y
_atom_site_fract_z
Si Si1 0.750000 0.000000 0.275113
Si Si2 0.250000 0.000000 0.587490
Si Si3 0.750000 0.500000 0.970386
Si Si4 0.493527 0.318552 0.152111
O O1 0.593717 0.200206 0.304499
O O2 0.500000 0.882093 0.250000
O O3 0.283818 0.246186 0.557962
O O4 0.018356 0.086685 0.618924
O O5 0.500000 0.500000 0.000000
O O6 0.250000 0.500000 0.139502
O O7 0.750000 0.500000 0.153772
#
# Coordination Sequence:
#
# PCOD9424287 Si02
#       4
#     4   4   4   8
#     4  11  24  44  70 109 154 196 254 321 386 460
#     4  11  26  50  76 111 156 200 254 315 372 468
#     4  12  28  48  76 112 154 198 248 312 388 450
#     4  11  25  45  75 107 147 204 253 311 382 452
#
# _framework density 23.597619000000002
#
# number of rings (size 3 to 8) (size 9 to 14) (size 15 to 20)
#    0.000    0.800    2.000    3.600    2.800   11.200 
#    0.000    0.000    0.000    0.000    0.000    0.000 
#    0.000    0.000    0.000    0.000    0.000    0.000 
#
# Total GULP energy -111816.507748 kJ/mol
# GULP energy per Si atom -5590.825387 kJ/mol
# Density = 2.354391 g / cm^3
# Si number density = 23.597619 Si / 1000 Ang^3
#
#
#
# Elastic Constant Matrix: (Units=GPa)
#
#
# Indices 1 2 3 4 5 6 
#
# 1 253.4674 89.1263 99.7424 0.0000 0.0000 0.0000
# 2 89.1263 178.5164 91.0092 0.0000 0.0000 0.0000
# 3 99.7424 91.0092 180.4360 0.0000 0.0000 0.0000
# 4 0.0000 0.0000 0.0000 40.3763 0.0000 0.0000
# 5 0.0000 0.0000 0.0000 0.0000 -62.7014 0.0000
# 6 0.0000 0.0000 0.0000 0.0000 0.0000 53.8267
#
#
#
# Elastic Compliance Matrix: (Units=1/GPa)
#
#
# Indices 1 2 3 4 5 6 
#
# 1 0.005348 -0.001566 -0.002167 0.000000 0.000000 0.000000
# 2 -0.001566 0.007999 -0.003169 0.000000 0.000000 0.000000
# 3 -0.002167 -0.003169 0.008338 0.000000 0.000000 0.000000
# 4 0.000000 0.000000 0.000000 0.024767 0.000000 0.000000
# 5 0.000000 0.000000 0.000000 0.000000 -0.015949 0.000000
# 6 0.000000 0.000000 0.000000 0.000000 0.000000 0.018578
#
#
# Mechanical properties :
#
#
# Convention : Reuss Voigt Hill
#
# Bulk Modulus (GPa) = 126.86077 130.24172 128.55125
# Shear Modulus (GPa) = 76.32031 28.46977 52.39504
#
# Velocity S-wave (km/s) = 5.69321 3.47719 4.71717
# Velocity P-wave (km/s) = 9.85360 8.45185 9.17952
#
# Compressibility (1/GPa) = 0.00788266
#
# Stress axis : x y z
#
# Youngs Moduli (GPa) = 186.96868 125.01533 119.92648
#
# Poissons Ratio (x) = 0.19572 0.25987
# Poissons Ratio (y) = 0.29271 0.38007
# Poissons Ratio (z) = 0.40514 0.39619
#
# Static dielectric constant tensor:
#      x y z
#    x 1.886050 0.000000 0.000000 
#    y 0.000000 2.012950 0.000000 
#    z 0.000000 0.000000 1.954470 
# 
# From -- ./inp_files/26768.got.cif
#   From: 2010.05.17/outbox.cif.g08.bks.cpg/sg54_14_cif.got.tgz:26768.got - 2010.06.03 13:09:01.
