data_PCOD9424518
_publ_section_title
;
Structure prediction by ZEFSAII (Michael W. Deem and Ramdas Pophale) SiO2 
 PCOD9424518
Probable space group: P C C A
;
_chemical_formula_sum "Si O2"
_cell_formula_units_Z 48
_cell_length_a 14.223702
_cell_length_b 8.059350
_cell_length_c 18.626853
_cell_angle_alpha 90.000000
_cell_angle_beta 90.000000
_cell_angle_gamma 90.000000
_cell_volume 2135.266806
_symmetry_space_group_name_H-M "P C C A"
_symmetry_group_IT_number 54
_symmetry_cell_setting 'orthorhombic'
loop_
_space_group_symop_operation_xyz
x,y,z
1/2-x,-y,z
1/2+x,-y,1/2-z
-x,y,1/2-z
-x,-y,-z
1/2+x,y,-z
1/2-x,y,1/2+z
x,-y,1/2+z
loop_
_atom_site_type_symbol
_atom_site_label
_atom_site_fract_x
_atom_site_fract_y
_atom_site_fract_z
Si Si1 0.336604 0.719089 0.119905
Si Si2 0.750000 0.000000 0.286926
Si Si3 0.250000 0.500000 0.999449
Si Si4 0.605989 0.531725 0.248255
Si Si5 0.620072 0.826948 0.678046
Si Si6 0.312612 0.274625 0.884328
Si Si7 0.987125 0.953151 0.583051
O O1 0.268587 0.842903 0.162833
O O2 0.294239 0.643093 0.048065
O O3 0.356400 0.564497 0.172510
O O4 0.429536 0.828899 0.105270
O O5 0.661997 0.040299 0.234869
O O6 0.322215 0.413768 0.945275
O O7 0.500000 0.597088 0.250000
O O8 0.604905 0.344578 0.220139
O O9 0.664270 0.641147 0.191812
O O10 0.706332 0.791641 0.622743
O O11 0.527753 0.889785 0.636224
O O12 0.387849 0.137427 0.904373
O O13 0.000000 0.000000 0.500000
#
# Coordination Sequence:
#
# PCOD9424518 Si02
#       7
#     8   4   4   8   8   8   8
#     4  12  28  48  70 112 147 193 250 320 363 450
#     4  12  26  44  78 102 144 186 248 308 370 430
#     4  12  28  46  74 102 152 204 248 292 386 452
#     4  12  25  46  76 106 141 188 254 306 361 439
#     4  12  24  46  76 107 139 197 242 301 379 446
#     4  12  24  49  76 102 147 198 244 298 373 454
#     4  12  28  46  71 109 153 186 245 309 383 445
#
# _framework density 22.479627000000001
#
# number of rings (size 3 to 8) (size 9 to 14) (size 15 to 20)
#    0.000    0.000    6.667    2.000    4.667    2.000 
#    0.000    0.000    0.000    0.000    0.000    0.000 
#    0.000    0.000    0.000    0.000    0.000    0.000 
#
# Total GULP energy -268755.470871 kJ/mol
# GULP energy per Si atom -5599.072310 kJ/mol
# Density = 2.242846 g / cm^3
# Si number density = 22.479627 Si / 1000 Ang^3
#
#
#
# Elastic Constant Matrix: (Units=GPa)
#
#
# Indices 1 2 3 4 5 6 
#
# 1 79.9801 14.4157 29.9904 0.0000 0.0000 0.0000
# 2 14.4157 101.4756 41.6598 0.0000 0.0000 0.0000
# 3 29.9904 41.6598 130.0518 0.0000 0.0000 0.0000
# 4 0.0000 0.0000 0.0000 117.4340 0.0000 0.0000
# 5 0.0000 0.0000 0.0000 0.0000 23.0181 0.0000
# 6 0.0000 0.0000 0.0000 0.0000 0.0000 41.5096
#
#
#
# Elastic Compliance Matrix: (Units=1/GPa)
#
#
# Indices 1 2 3 4 5 6 
#
# 1 0.013736 -0.000749 -0.002927 0.000000 0.000000 0.000000
# 2 -0.000749 0.011388 -0.003475 0.000000 0.000000 0.000000
# 3 -0.002927 -0.003475 0.009477 0.000000 0.000000 0.000000
# 4 0.000000 0.000000 0.000000 0.008515 0.000000 0.000000
# 5 0.000000 0.000000 0.000000 0.000000 0.043444 0.000000
# 6 0.000000 0.000000 0.000000 0.000000 0.000000 0.024091
#
#
# Mechanical properties :
#
#
# Convention : Reuss Voigt Hill
#
# Bulk Modulus (GPa) = 49.26799 53.73772 51.50285
# Shear Modulus (GPa) = 37.95898 51.42178 44.69038
#
# Velocity S-wave (km/s) = 4.11371 4.78795 4.46358
# Velocity P-wave (km/s) = 6.67291 7.38397 7.03743
#
# Compressibility (1/GPa) = 0.02029715
#
# Stress axis : x y z
#
# Youngs Moduli (GPa) = 72.80184 87.81409 105.51315
#
# Poissons Ratio (x) = 0.06582 0.30889
# Poissons Ratio (y) = 0.05456 0.36666
# Poissons Ratio (z) = 0.21313 0.30516
#
# Static dielectric constant tensor:
#      x y z
#    x 1.844490 0.000000 0.000000 
#    y 0.000000 1.931410 0.000000 
#    z 0.000000 0.000000 1.794640 
# 
# From -- ./inp_files/18088.got.cif
#   From: 2010.05.17/outbox.cif.g08.bks.cpg/sg54_10_cif.got.tgz:18088.got - 2010.06.03 13:09:01.
