data_PCOD9424620
_publ_section_title
;
Structure prediction by ZEFSAII (Michael W. Deem and Ramdas Pophale) SiO2 
 PCOD9424620
Probable space group: P C C A
;
_chemical_formula_sum "Si O2"
_cell_formula_units_Z 48
_cell_length_a 9.000000
_cell_length_b 15.000000
_cell_length_c 18.000000
_cell_angle_alpha 90.000000
_cell_angle_beta 90.000000
_cell_angle_gamma 90.000000
_cell_volume 2430.000000
_symmetry_space_group_name_H-M "P C C A"
_symmetry_group_IT_number 54
_symmetry_cell_setting 'orthorhombic'
loop_
_space_group_symop_operation_xyz
x,y,z
1/2-x,-y,z
1/2+x,-y,1/2-z
-x,y,1/2-z
-x,-y,-z
1/2+x,y,-z
1/2-x,y,1/2+z
x,-y,1/2+z
loop_
_atom_site_type_symbol
_atom_site_label
_atom_site_fract_x
_atom_site_fract_y
_atom_site_fract_z
Si Si1 0.494301 0.295117 0.528901
Si Si2 0.153983 0.726816 0.294527
Si Si3 0.506621 0.151484 0.407945
Si Si4 0.327418 0.788483 0.156699
Si Si5 0.073880 0.019007 0.171062
Si Si6 0.785849 0.395982 0.577588
O O1 0.490538 0.198647 0.487647
O O2 0.400514 0.284829 0.604027
O O3 0.655117 0.331881 0.548153
O O4 0.425068 0.366255 0.472026
O O5 0.283780 0.755122 0.238540
O O6 0.186709 0.636654 0.338638
O O7 0.000000 0.717195 0.250000
O O8 0.117805 0.803686 0.355084
O O9 0.668862 0.183283 0.379034
O O10 0.507683 0.045527 0.392794
O O11 0.433005 0.875294 0.158395
O O12 0.000000 0.994898 0.250000
O O13 0.250000 0.000000 0.176884
O O14 0.750000 0.500000 0.571671
#
# Coordination Sequence:
#
# PCOD9424620 Si02
#       6
#     8   8   8   8   8   8
#     4  11  22  40  65  87 125 160 202 250 311 368
#     4   9  20  40  65  85 125 164 197 249 318 362
#     4   9  18  38  59  84 120 170 195 236 307 356
#     4  10  20  36  60  90 120 158 203 248 295 357
#     4  10  20  34  57  88 123 160 207 248 286 358
#     4  11  24  43  65  92 119 160 205 256 313 375
#
# _framework density 19.753086
#
# number of rings (size 3 to 8) (size 9 to 14) (size 15 to 20)
#    0.000    2.000    1.667    3.000    2.333    0.667 
#    3.000    0.000    0.000    0.000    0.000    0.000 
#    0.000    0.000    0.000    0.000    0.000    0.000 
#
# Total GULP energy -267893.358235 kJ/mol
# GULP energy per Si atom -5581.111630 kJ/mol
# Density = 1.970813 g / cm^3
# Si number density = 19.753086 Si / 1000 Ang^3
#
#
#
# Elastic Constant Matrix: (Units=GPa)
#
#
# Indices 1 2 3 4 5 6 
#
# 1 33.1025 8.4729 28.7724 0.0000 0.0000 0.0000
# 2 8.4729 88.9683 37.3629 0.0000 0.0000 0.0000
# 3 28.7724 37.3629 85.0672 0.0000 0.0000 0.0000
# 4 0.0000 0.0000 0.0000 20.9209 0.0000 0.0000
# 5 0.0000 0.0000 0.0000 0.0000 25.6169 0.0000
# 6 0.0000 0.0000 0.0000 0.0000 0.0000 19.2753
#
#
#
# Elastic Compliance Matrix: (Units=1/GPa)
#
#
# Indices 1 2 3 4 5 6 
#
# 1 0.043231 0.002481 -0.015712 0.000000 0.000000 0.000000
# 2 0.002481 0.013925 -0.006955 0.000000 0.000000 0.000000
# 3 -0.015712 -0.006955 0.020124 0.000000 0.000000 0.000000
# 4 0.000000 0.000000 0.000000 0.047799 0.000000 0.000000
# 5 0.000000 0.000000 0.000000 0.000000 0.039037 0.000000
# 6 0.000000 0.000000 0.000000 0.000000 0.000000 0.051880
#
#
# Mechanical properties :
#
#
# Convention : Reuss Voigt Hill
#
# Bulk Modulus (GPa) = 27.09418 39.59493 33.34455
# Shear Modulus (GPa) = 18.61023 21.99793 20.30408
#
# Velocity S-wave (km/s) = 3.07276 3.34075 3.20956
# Velocity P-wave (km/s) = 5.13180 5.91348 5.53646
#
# Compressibility (1/GPa) = 0.03690829
#
# Stress axis : x y z
#
# Youngs Moduli (GPa) = 23.13173 71.81580 49.69083
#
# Poissons Ratio (x) = -0.17819 0.78073
# Poissons Ratio (y) = -0.05740 0.34560
# Poissons Ratio (z) = 0.36344 0.49949
#
# Static dielectric constant tensor:
#      x y z
#    x 1.695760 0.000000 0.000000 
#    y 0.000000 1.683690 0.000000 
#    z 0.000000 0.000000 1.714580 
# 
# From -- ./inp_files/16634.got.cif
#   From: 2010.05.17/outbox.ucp.g08.bks.cvg/sg54_9_cif.got.tgz:16634.got - 2010.06.11 16:34:40.
