data_PCOD9424847
_publ_section_title
;
Structure prediction by ZEFSAII (Michael W. Deem and Ramdas Pophale) SiO2 
 PCOD9424847
Probable space group: P B A M
;
_chemical_formula_sum "Si O2"
_cell_formula_units_Z 52
_cell_length_a 9.027632
_cell_length_b 17.242577
_cell_length_c 17.451417
_cell_angle_alpha 90.000000
_cell_angle_beta 90.000000
_cell_angle_gamma 90.000000
_cell_volume 2716.481286
_symmetry_space_group_name_H-M "P B A M"
_symmetry_group_IT_number 55
_symmetry_cell_setting 'orthorhombic'
loop_
_space_group_symop_operation_xyz
x,y,z
-x,-y,z
1/2+x,1/2-y,-z
1/2-x,1/2+y,-z
-x,-y,-z
x,y,-z
1/2-x,1/2+y,z
1/2+x,1/2-y,z
loop_
_atom_site_type_symbol
_atom_site_label
_atom_site_fract_x
_atom_site_fract_y
_atom_site_fract_z
Si Si1 0.926548 0.848435 0.213528
Si Si2 0.200157 0.464832 0.367446
Si Si3 0.500000 0.500000 0.688201
Si Si4 0.889789 0.565921 0.192230
Si Si5 0.904155 0.079058 0.087704
Si Si6 0.937846 0.372462 0.584235
Si Si7 0.900480 0.299599 0.253495
O O1 0.761684 0.815410 0.219739
O O2 0.984541 0.860885 0.127673
O O3 0.041705 0.787425 0.248542
O O4 0.937564 0.930592 0.258354
O O5 0.374923 0.463228 0.365103
O O6 0.156510 0.463075 0.277228
O O7 0.145271 0.545222 0.403927
O O8 0.110636 0.395713 0.406565
O O9 0.743899 0.574550 0.140075
O O10 0.000000 0.500000 0.160009
O O11 0.982712 0.644171 0.209341
O O12 0.865990 0.096985 0.000000
O O13 0.000000 0.000000 0.088820
O O14 0.907271 0.341024 0.500000
O O15 0.895233 0.322281 0.657190
#
# Coordination Sequence:
#
# PCOD9424847 Si02
#       7
#     8   8   4   8   8   8   8
#     4  12  23  42  66  95 125 168 220 265 314 394
#     4  10  17  32  62  92 118 168 214 252 301 381
#     4  12  20  36  68  88 122 164 222 256 300 382
#     4  11  18  36  63  95 129 169 220 251 308 389
#     4  11  23  39  64  98 132 167 210 269 325 375
#     4  10  20  38  61  91 129 165 208 269 326 370
#     4  11  24  40  67  95 122 171 224 263 320 390
#
# _framework density 19.142409000000001
#
# number of rings (size 3 to 8) (size 9 to 14) (size 15 to 20)
#    0.000    1.077    6.923    2.769    2.154    0.308 
#    0.000    6.154    0.000    0.000    0.000    0.000 
#    0.000    0.000    0.000    0.000    0.000    0.000 
#
# Total GULP energy -290265.147152 kJ/mol
# GULP energy per Si atom -5582.022061 kJ/mol
# Density = 1.909884 g / cm^3
# Si number density = 19.142409 Si / 1000 Ang^3
#
#
#
# Elastic Constant Matrix: (Units=GPa)
#
#
# Indices 1 2 3 4 5 6 
#
# 1 122.8642 12.2467 43.5457 0.0000 0.0000 0.0000
# 2 12.2467 65.7425 20.6072 0.0000 0.0000 0.0000
# 3 43.5457 20.6072 131.6199 0.0000 0.0000 0.0000
# 4 0.0000 0.0000 0.0000 0.6725 0.0000 0.0000
# 5 0.0000 0.0000 0.0000 0.0000 14.1018 0.0000
# 6 0.0000 0.0000 0.0000 0.0000 0.0000 25.6747
#
#
#
# Elastic Compliance Matrix: (Units=1/GPa)
#
#
# Indices 1 2 3 4 5 6 
#
# 1 0.009260 -0.000804 -0.002938 0.000000 0.000000 0.000000
# 2 -0.000804 0.016066 -0.002249 0.000000 0.000000 0.000000
# 3 -0.002938 -0.002249 0.008922 0.000000 0.000000 0.000000
# 4 0.000000 0.000000 0.000000 1.487024 0.000000 0.000000
# 5 0.000000 0.000000 0.000000 0.000000 0.070913 0.000000
# 6 0.000000 0.000000 0.000000 0.000000 0.000000 0.038949
#
#
# Mechanical properties :
#
#
# Convention : Reuss Voigt Hill
#
# Bulk Modulus (GPa) = 44.91296 52.55841 48.73569
# Shear Modulus (GPa) = 3.02931 24.34491 13.68711
#
# Velocity S-wave (km/s) = 1.25935 3.57007 2.67688
# Velocity P-wave (km/s) = 5.06242 6.67158 5.92191
#
# Compressibility (1/GPa) = 0.02226529
#
# Stress axis : x y z
#
# Youngs Moduli (GPa) = 107.98586 62.24434 112.08534
#
# Poissons Ratio (x) = 0.05006 0.32929
# Poissons Ratio (y) = 0.08684 0.25211
# Poissons Ratio (z) = 0.31725 0.14000
#
# Static dielectric constant tensor:
#      x y z
#    x 1.707310 0.000000 0.000000 
#    y 0.000000 1.685500 0.000000 
#    z 0.000000 0.000000 1.663630 
# 
# From -- ./inp_files/20950.got.cif
#   From: 2010.05.17/outbox.cif.g08.bks.cpg/sg55_11_cif.got.tgz:20950.got - 2010.06.03 13:27:54.
