data_PCOD9424076
_publ_section_title
;
Structure prediction by ZEFSAII (Michael W. Deem and Ramdas Pophale) SiO2 
 PCOD9424076
Probable space group: P C C A
;
_chemical_formula_sum "Si O2"
_cell_formula_units_Z 32
_cell_length_a 12.411092
_cell_length_b 12.335421
_cell_length_c 8.030086
_cell_angle_alpha 90.000000
_cell_angle_beta 90.000000
_cell_angle_gamma 90.000000
_cell_volume 1229.374407
_symmetry_space_group_name_H-M "P C C A"
_symmetry_group_IT_number 54
_symmetry_cell_setting 'orthorhombic'
loop_
_space_group_symop_operation_xyz
x,y,z
1/2-x,-y,z
1/2+x,-y,1/2-z
-x,y,1/2-z
-x,-y,-z
1/2+x,y,-z
1/2-x,y,1/2+z
x,-y,1/2+z
loop_
_atom_site_type_symbol
_atom_site_label
_atom_site_fract_x
_atom_site_fract_y
_atom_site_fract_z
Si Si1 0.137267 0.361810 0.096638
Si Si2 0.157215 0.857796 0.713350
Si Si3 0.609715 0.916232 0.665191
Si Si4 0.343324 0.575735 0.749959
O O1 0.114456 0.264582 0.224406
O O2 0.095773 0.479798 0.153979
O O3 0.269066 0.361292 0.117802
O O4 0.108935 0.354483 0.900470
O O5 0.285336 0.872252 0.738399
O O6 0.126982 0.885783 0.524651
O O7 0.110363 0.952128 0.828219
O O8 0.500000 0.878602 0.750000
O O9 0.250000 0.500000 0.836248
#
# Coordination Sequence:
#
# PCOD9424076 Si02
#       4
#     8   8   8   8
#     4   9  15  27  49  80 111 145 194 235 291 360
#     4  11  22  38  61  87 119 165 200 240 309 359
#     4  11  24  41  60  90 126 157 206 257 292 355
#     4   8  13  25  44  79 113 134 187 249 282 344
#
# _framework density 26.029499999999999
#
# number of rings (size 3 to 8) (size 9 to 14) (size 15 to 20)
#    1.500    0.500    2.500    5.250    0.000    0.000 
#    0.000    0.000    0.000    0.000    0.000   45.500 
#    0.000    0.000    0.000    0.000    0.000    0.000 
#
# Total GULP energy -178318.016150 kJ/mol
# GULP energy per Si atom -5572.438005 kJ/mol
# Density = 2.597026 g / cm^3
# Si number density = 26.029500 Si / 1000 Ang^3
#
#
#
# Elastic Constant Matrix: (Units=GPa)
#
#
# Indices 1 2 3 4 5 6 
#
# 1 125.8894 -12.0813 6.7339 0.0000 0.0000 0.0000
# 2 -12.0813 96.3108 -19.7612 0.0000 0.0000 0.0000
# 3 6.7339 -19.7612 38.7977 0.0000 0.0000 0.0000
# 4 0.0000 0.0000 0.0000 50.5905 0.0000 0.0000
# 5 0.0000 0.0000 0.0000 0.0000 23.8850 0.0000
# 6 0.0000 0.0000 0.0000 0.0000 0.0000 -7.1953
#
#
#
# Elastic Compliance Matrix: (Units=1/GPa)
#
#
# Indices 1 2 3 4 5 6 
#
# 1 0.008074 0.000810 -0.000989 0.000000 0.000000 0.000000
# 2 0.000810 0.011676 0.005806 0.000000 0.000000 0.000000
# 3 -0.000989 0.005806 0.028904 0.000000 0.000000 0.000000
# 4 0.000000 0.000000 0.000000 0.019767 0.000000 0.000000
# 5 0.000000 0.000000 0.000000 0.000000 0.041867 0.000000
# 6 0.000000 0.000000 0.000000 0.000000 0.000000 -0.138980
#
#
# Mechanical properties :
#
#
# Convention : Reuss Voigt Hill
#
# Bulk Modulus (GPa) = 16.69197 23.42009 20.05603
# Shear Modulus (GPa) = -250.28248 32.52981 -108.87634
#
# Velocity S-wave (km/s) = -9.81642 3.53899 -6.47448
# Velocity P-wave (km/s) = 11.04791 5.07112 6.94046
#
# Compressibility (1/GPa) = 0.05990905
#
# Stress axis : x y z
#
# Youngs Moduli (GPa) = 123.85280 85.64557 34.59751
#
# Poissons Ratio (x) = -0.06937 0.03421
# Poissons Ratio (y) = -0.10031 -0.20089
# Poissons Ratio (z) = 0.12247 -0.49730
#
# Static dielectric constant tensor:
#      x y z
#    x 2.119130 0.000000 0.000000 
#    y 0.000000 2.183560 0.000000 
#    z 0.000000 0.000000 1.959610 
# 
# From -- ./inp_files/3256.got.cif
#   From: 2010.05.17/outbox.cif.g08.bks.cpg/sg54_2_cif.got.tgz:3256.got - 2010.06.03 13:09:01.
