data_PCOD9424933
_publ_section_title
;
Structure prediction by ZEFSAII (Michael W. Deem and Ramdas Pophale) SiO2 
 PCOD9424933
Probable space group: P B A M
;
_chemical_formula_sum "Si O2"
_cell_formula_units_Z 56
_cell_length_a 29.708429
_cell_length_b 13.880076
_cell_length_c 9.042768
_cell_angle_alpha 90.000000
_cell_angle_beta 90.000000
_cell_angle_gamma 90.000000
_cell_volume 3728.832881
_symmetry_space_group_name_H-M "P B A M"
_symmetry_group_IT_number 55
_symmetry_cell_setting 'orthorhombic'
loop_
_space_group_symop_operation_xyz
x,y,z
-x,-y,z
1/2+x,1/2-y,-z
1/2-x,1/2+y,-z
-x,-y,-z
x,y,-z
1/2-x,1/2+y,z
1/2+x,1/2-y,z
loop_
_atom_site_type_symbol
_atom_site_label
_atom_site_fract_x
_atom_site_fract_y
_atom_site_fract_z
Si Si1 0.180293 0.209794 0.323564
Si Si2 0.497872 0.616911 0.670138
Si Si3 0.681404 0.726772 0.176927
Si Si4 0.909612 0.117857 0.177098
Si Si5 0.405012 0.609863 0.176577
Si Si6 0.227460 0.388250 0.176491
Si Si7 0.727683 0.904652 0.675928
O O1 0.175938 0.220219 0.500000
O O2 0.135441 0.166113 0.253610
O O3 0.194109 0.310895 0.250022
O O4 0.222318 0.137880 0.294118
O O5 0.500000 0.500000 0.672576
O O6 0.494127 0.647610 0.500000
O O7 0.544632 0.649366 0.742839
O O8 0.453374 0.643148 0.761458
O O9 0.633909 0.679913 0.219279
O O10 0.722077 0.651896 0.206653
O O11 0.693654 0.824616 0.260831
O O12 0.681216 0.744197 0.000000
O O13 0.900953 0.004740 0.210126
O O14 0.915857 0.124661 0.000000
O O15 0.403094 0.621187 0.000000
O O16 0.222114 0.493402 0.245048
O O17 0.221233 0.390417 0.000000
O O18 0.722533 0.914475 0.500000
#
# Coordination Sequence:
#
# PCOD9424933 Si02
#       7
#     8   8   8   8   8   8   8
#     4  10  20  32  46  67  94 122 153 188 228 272
#     4   9  17  28  42  63  91 121 151 184 226 273
#     4   9  18  31  47  67  90 119 155 189 223 266
#     4   9  17  29  45  66  92 121 153 189 226 266
#     4  10  18  29  46  67  92 122 155 189 226 269
#     4  10  19  32  49  67  90 121 156 191 225 265
#     4  10  20  32  46  66  93 122 151 187 229 269
#
# _framework density 15.018103999999999
#
# number of rings (size 3 to 8) (size 9 to 14) (size 15 to 20)
#    0.000    2.429    0.000    3.000    0.000    6.286 
#    0.000    0.000    0.000    0.000    0.000    1.000 
#    0.000    8.000    0.000    0.000    0.000    0.000 
#
# Total GULP energy -312340.771410 kJ/mol
# GULP energy per Si atom -5577.513775 kJ/mol
# Density = 1.498392 g / cm^3
# Si number density = 15.018104 Si / 1000 Ang^3
#
#
#
# Elastic Constant Matrix: (Units=GPa)
#
#
# Indices 1 2 3 4 5 6 
#
# 1 140.3480 66.9113 70.6473 0.0000 0.0000 0.0000
# 2 66.9113 104.7732 62.6365 0.0000 0.0000 0.0000
# 3 70.6473 62.6365 74.5874 0.0000 0.0000 0.0000
# 4 0.0000 0.0000 0.0000 22.9060 0.0000 0.0000
# 5 0.0000 0.0000 0.0000 0.0000 28.1888 0.0000
# 6 0.0000 0.0000 0.0000 0.0000 0.0000 23.7612
#
#
#
# Elastic Compliance Matrix: (Units=1/GPa)
#
#
# Indices 1 2 3 4 5 6 
#
# 1 0.013825 -0.002010 -0.011408 0.000000 0.000000 0.000000
# 2 -0.002010 0.019459 -0.014438 0.000000 0.000000 0.000000
# 3 -0.011408 -0.014438 0.036337 0.000000 0.000000 0.000000
# 4 0.000000 0.000000 0.000000 0.043657 0.000000 0.000000
# 5 0.000000 0.000000 0.000000 0.000000 0.035475 0.000000
# 6 0.000000 0.000000 0.000000 0.000000 0.000000 0.042085
#
#
# Mechanical properties :
#
#
# Convention : Reuss Voigt Hill
#
# Bulk Modulus (GPa) = 71.88444 80.01099 75.94771
# Shear Modulus (GPa) = 19.90562 22.93877 21.42219
#
# Velocity S-wave (km/s) = 3.64461 3.91245 3.78090
# Velocity P-wave (km/s) = 8.10432 8.59079 8.35110
#
# Compressibility (1/GPa) = 0.01391122
#
# Stress axis : x y z
#
# Youngs Moduli (GPa) = 72.33039 51.38955 27.52050
#
# Poissons Ratio (x) = 0.10327 0.31394
# Poissons Ratio (y) = 0.14535 0.39734
# Poissons Ratio (z) = 0.82511 0.74196
#
# Static dielectric constant tensor:
#      x y z
#    x 1.484030 0.000000 0.000000 
#    y 0.000000 1.467030 0.000000 
#    z 0.000000 0.000000 1.498940 
# 
# From -- ./inp_files/10876.got.cif
#   From: 2010.05.17/outbox.cif.g08.bks.cpg/sg55_6_cif.got.tgz:10876.got - 2010.06.03 13:27:54.
