data_PCOD9424863
_publ_section_title
;
Structure prediction by ZEFSAII (Michael W. Deem and Ramdas Pophale) SiO2 
 PCOD9424863
Probable space group: P B A M
;
_chemical_formula_sum "Si O2"
_cell_formula_units_Z 56
_cell_length_a 6.998591
_cell_length_b 29.188253
_cell_length_c 13.372870
_cell_angle_alpha 90.000000
_cell_angle_beta 90.000000
_cell_angle_gamma 90.000000
_cell_volume 2731.765014
_symmetry_space_group_name_H-M "P B A M"
_symmetry_group_IT_number 55
_symmetry_cell_setting 'orthorhombic'
loop_
_space_group_symop_operation_xyz
x,y,z
-x,-y,z
1/2+x,1/2-y,-z
1/2-x,1/2+y,-z
-x,-y,-z
x,y,-z
1/2-x,1/2+y,z
1/2+x,1/2-y,z
loop_
_atom_site_type_symbol
_atom_site_label
_atom_site_fract_x
_atom_site_fract_y
_atom_site_fract_z
Si Si1 0.323597 0.936823 0.883731
Si Si2 0.483855 0.788722 0.612211
Si Si3 0.083961 0.342756 0.802773
Si Si4 0.418032 0.683835 0.000000
Si Si5 0.073790 0.183818 0.611741
Si Si6 0.975977 0.709710 0.000000
Si Si7 0.274659 0.536693 0.883861
Si Si8 0.129512 0.130517 0.803363
O O1 0.310276 0.891056 0.818781
O O2 0.548679 0.950535 0.882227
O O3 0.214341 0.983415 0.854323
O O4 0.279153 0.926266 0.000000
O O5 0.399992 0.791916 0.500000
O O6 0.378609 0.815877 0.700089
O O7 0.697024 0.808606 0.607551
O O8 0.500795 0.734851 0.635900
O O9 0.116885 0.310004 0.898739
O O10 0.855769 0.355042 0.802428
O O11 0.459228 0.656050 0.899314
O O12 0.188940 0.689888 0.000000
O O13 0.492593 0.735621 0.000000
O O14 0.012234 0.169991 0.500000
O O15 0.041595 0.148523 0.700634
O O16 0.374511 0.576248 0.820751
O O17 0.333816 0.540719 0.000000
#
# Coordination Sequence:
#
# PCOD9424863 Si02
#       8
#     8   8   8   4   8   4   8   8
#     4   8  12  19  33  53  76 100 126 155 187 226
#     4   9  17  28  41  56  76 104 134 160 187 223
#     4   9  15  24  37  54  77 102 126 156 193 227
#     4  10  18  26  37  55  79 103 124 152 191 228
#     4   9  17  28  41  56  76 104 134 160 187 223
#     4  10  18  26  37  55  79 103 124 152 191 228
#     4   8  12  19  33  53  76 100 126 155 187 226
#     4   9  15  24  37  54  77 102 126 156 193 227
#
# _framework density 20.499566000000002
#
# number of rings (size 3 to 8) (size 9 to 14) (size 15 to 20)
#    0.000    3.143    1.429    1.714    0.000    0.000 
#    0.000    0.000    0.000    0.857    0.000    6.000 
#    0.000    5.714    0.000    7.143    0.000    7.429 
#
# Total GULP energy -312883.338349 kJ/mol
# GULP energy per Si atom -5587.202471 kJ/mol
# Density = 2.045291 g / cm^3
# Si number density = 20.499566 Si / 1000 Ang^3
#
#
#
# Elastic Constant Matrix: (Units=GPa)
#
#
# Indices 1 2 3 4 5 6 
#
# 1 71.1495 24.3868 19.9360 0.0000 0.0000 0.0000
# 2 24.3868 166.4716 115.1040 0.0000 0.0000 0.0000
# 3 19.9360 115.1040 145.9027 0.0000 0.0000 0.0000
# 4 0.0000 0.0000 0.0000 512.3871 0.0000 0.0000
# 5 0.0000 0.0000 0.0000 0.0000 -0.8904 0.0000
# 6 0.0000 0.0000 0.0000 0.0000 0.0000 30.2132
#
#
#
# Elastic Compliance Matrix: (Units=1/GPa)
#
#
# Indices 1 2 3 4 5 6 
#
# 1 0.014829 -0.001697 -0.000687 0.000000 0.000000 0.000000
# 2 -0.001697 0.013410 -0.010348 0.000000 0.000000 0.000000
# 3 -0.000687 -0.010348 0.015111 0.000000 0.000000 0.000000
# 4 0.000000 0.000000 0.000000 0.001952 0.000000 0.000000
# 5 0.000000 0.000000 0.000000 0.000000 -1.123133 0.000000
# 6 0.000000 0.000000 0.000000 0.000000 0.000000 0.033098
#
#
# Mechanical properties :
#
#
# Convention : Reuss Voigt Hill
#
# Bulk Modulus (GPa) = 55.90823 78.04191 66.97507
# Shear Modulus (GPa) = -4.93434 123.28179 59.17372
#
# Velocity S-wave (km/s) = -1.55315 7.76333 5.37852
# Velocity P-wave (km/s) = 4.91078 10.88631 8.44475
#
# Compressibility (1/GPa) = 0.01788645
#
# Stress axis : x y z
#
# Youngs Moduli (GPa) = 67.43448 74.56915 66.17606
#
# Poissons Ratio (x) = 0.12655 0.04549
# Poissons Ratio (y) = 0.11444 0.68477
# Poissons Ratio (z) = 0.04636 0.77162
#
# Static dielectric constant tensor:
#      x y z
#    x 1.855300 0.000000 0.000000 
#    y 0.000000 1.713800 0.000000 
#    z 0.000000 0.000000 1.695510 
# 
# From -- ./inp_files/17912.got.cif
#   From: 2010.05.17/outbox.cif.g08.bks.cpg/sg55_9_cif.got.tgz:17912.got - 2010.06.03 13:27:54.
