data_PCOD9424686
_publ_section_title
;
Structure prediction by ZEFSAII (Michael W. Deem and Ramdas Pophale) SiO2 
 PCOD9424686
Probable space group: P C C A
;
_chemical_formula_sum "Si O2"
_cell_formula_units_Z 60
_cell_length_a 18.000000
_cell_length_b 9.000000
_cell_length_c 18.000000
_cell_angle_alpha 90.000000
_cell_angle_beta 90.000000
_cell_angle_gamma 90.000000
_cell_volume 2916.000000
_symmetry_space_group_name_H-M "P C C A"
_symmetry_group_IT_number 54
_symmetry_cell_setting 'orthorhombic'
loop_
_space_group_symop_operation_xyz
x,y,z
1/2-x,-y,z
1/2+x,-y,1/2-z
-x,y,1/2-z
-x,-y,-z
1/2+x,y,-z
1/2-x,y,1/2+z
x,-y,1/2+z
loop_
_atom_site_type_symbol
_atom_site_label
_atom_site_fract_x
_atom_site_fract_y
_atom_site_fract_z
Si Si1 0.000000 0.094754 0.250000
Si Si2 0.435289 0.864645 0.631993
Si Si3 0.087498 0.250639 0.381892
Si Si4 0.167819 0.939974 0.991491
Si Si5 0.165513 0.467726 0.832096
Si Si6 0.575677 0.552965 0.800728
Si Si7 0.042862 0.619792 0.549460
Si Si8 0.401286 0.777533 0.921588
O O1 0.940417 0.184119 0.197597
O O2 0.955265 0.993040 0.308992
O O3 0.379366 0.910288 0.566226
O O4 0.407272 0.720779 0.675708
O O5 0.513129 0.803277 0.598905
O O6 0.156079 0.192192 0.431768
O O7 0.108462 0.422071 0.372327
O O8 0.013291 0.245684 0.431772
O O9 0.250000 0.000000 0.008261
O O10 0.129989 0.065863 0.942158
O O11 0.250000 0.500000 0.849857
O O12 0.145549 0.498351 0.747100
O O13 0.140893 0.303949 0.855585
O O14 0.500000 0.549350 0.750000
O O15 0.565504 0.452777 0.873189
O O16 0.106542 0.680499 0.496361
O O17 0.000000 0.500000 0.500000
#
# Coordination Sequence:
#
# PCOD9424686 Si02
#       8
#     4   8   8   8   8   8   8   8
#     4  12  24  38  70 102 124 166 230 280 324 378
#     4  12  22  44  72  96 128 178 229 275 323 399
#     4  12  22  41  68  98 131 167 220 280 327 392
#     4  12  27  45  64  99 141 176 217 277 343 402
#     4  12  26  44  65  99 138 176 216 271 349 411
#     4  12  21  42  71  95 133 169 220 279 334 390
#     4  12  20  38  72 100 120 162 226 282 314 376
#     4  12  22  45  73  95 129 178 226 272 330 392
#
# _framework density 20.576132000000001
#
# number of rings (size 3 to 8) (size 9 to 14) (size 15 to 20)
#    0.000    0.000    8.667    2.800    0.000    0.000 
#    4.800    0.000    0.000    0.000    0.000    0.000 
#    0.000    0.000    0.000    0.000    0.000    0.000 
#
# Total GULP energy -334702.101330 kJ/mol
# GULP energy per Si atom -5578.368355 kJ/mol
# Density = 2.052930 g / cm^3
# Si number density = 20.576132 Si / 1000 Ang^3
#
#
#
# Elastic Constant Matrix: (Units=GPa)
#
#
# Indices 1 2 3 4 5 6 
#
# 1 61.6093 -8.6709 21.3521 0.0000 0.0000 0.0000
# 2 -8.6709 31.0722 6.7369 0.0000 0.0000 0.0000
# 3 21.3521 6.7369 109.9566 0.0000 0.0000 0.0000
# 4 0.0000 0.0000 0.0000 52.6976 0.0000 0.0000
# 5 0.0000 0.0000 0.0000 0.0000 52.1193 0.0000
# 6 0.0000 0.0000 0.0000 0.0000 0.0000 16.4070
#
#
#
# Elastic Compliance Matrix: (Units=1/GPa)
#
#
# Indices 1 2 3 4 5 6 
#
# 1 0.018445 0.006004 -0.003950 0.000000 0.000000 0.000000
# 2 0.006004 0.034570 -0.003284 0.000000 0.000000 0.000000
# 3 -0.003950 -0.003284 0.010063 0.000000 0.000000 0.000000
# 4 0.000000 0.000000 0.000000 0.018976 0.000000 0.000000
# 5 0.000000 0.000000 0.000000 0.000000 0.019187 0.000000
# 6 0.000000 0.000000 0.000000 0.000000 0.000000 0.060949
#
#
# Mechanical properties :
#
#
# Convention : Reuss Voigt Hill
#
# Bulk Modulus (GPa) = 16.49667 26.83046 21.66357
# Shear Modulus (GPa) = 27.04800 36.45947 31.75373
#
# Velocity S-wave (km/s) = 3.62958 4.21400 3.93266
# Velocity P-wave (km/s) = 5.05964 6.06176 5.58323
#
# Compressibility (1/GPa) = 0.06061829
#
# Stress axis : x y z
#
# Youngs Moduli (GPa) = 54.21495 28.92645 99.37736
#
# Poissons Ratio (x) = -0.17366 0.39250
# Poissons Ratio (y) = -0.32548 0.32634
# Poissons Ratio (z) = 0.21413 0.09499
#
# Static dielectric constant tensor:
#      x y z
#    x 1.730620 0.000000 0.000000 
#    y 0.000000 1.786960 0.000000 
#    z 0.000000 0.000000 1.406740 
# 
# From -- ./inp_files/18663.got.cif
#   From: 2010.05.17/outbox.ucp.g08.bks.cvg/sg54_10_cif.got.tgz:18663.got - 2010.06.11 16:34:40.
