data_PCOD9424978
_publ_section_title
;
Structure prediction by ZEFSAII (Michael W. Deem and Ramdas Pophale) SiO2 
 PCOD9424978
Probable space group: P B A M
;
_chemical_formula_sum "Si O2"
_cell_formula_units_Z 56
_cell_length_a 18.811148
_cell_length_b 21.252317
_cell_length_c 8.622901
_cell_angle_alpha 90.000000
_cell_angle_beta 90.000000
_cell_angle_gamma 90.000000
_cell_volume 3447.267504
_symmetry_space_group_name_H-M "P B A M"
_symmetry_group_IT_number 55
_symmetry_cell_setting 'orthorhombic'
loop_
_space_group_symop_operation_xyz
x,y,z
-x,-y,z
1/2+x,1/2-y,-z
1/2-x,1/2+y,-z
-x,-y,-z
x,y,-z
1/2-x,1/2+y,z
1/2+x,1/2-y,z
loop_
_atom_site_type_symbol
_atom_site_label
_atom_site_fract_x
_atom_site_fract_y
_atom_site_fract_z
Si Si1 0.343522 0.872205 0.184212
Si Si2 0.787381 0.187844 0.314565
Si Si3 0.789793 0.813309 0.814717
Si Si4 0.419942 0.251984 0.185407
Si Si5 0.578142 0.251811 0.685475
Si Si6 0.842285 0.372286 0.685696
Si Si7 0.583041 0.004559 0.313816
O O1 0.263908 0.867016 0.253670
O O2 0.389621 0.814820 0.255807
O O3 0.379954 0.937395 0.229430
O O4 0.340597 0.863551 0.000000
O O5 0.786809 0.189813 0.500000
O O6 0.749183 0.250174 0.246574
O O7 0.867095 0.194418 0.251523
O O8 0.868739 0.805937 0.747641
O O9 0.737719 0.867212 0.751460
O O10 0.791202 0.813552 0.000000
O O11 0.499219 0.259059 0.249035
O O12 0.388295 0.184928 0.243171
O O13 0.418768 0.253011 0.000000
O O14 0.578019 0.251589 0.500000
O O15 0.840605 0.363667 0.500000
O O16 0.878610 0.438673 0.721398
O O17 0.587381 0.014949 0.500000
O O18 0.500000 0.000000 0.272446
#
# Coordination Sequence:
#
# PCOD9424978 Si02
#       7
#     8   8   8   8   8   8   8
#     4  11  21  33  49  70  97 128 163 202 242 281
#     4  10  18  31  49  68  93 126 161 194 236 287
#     4  10  18  30  47  68  94 123 158 199 242 283
#     4  11  20  31  48  73 101 125 156 198 244 286
#     4  11  20  32  49  70  97 127 160 196 241 291
#     4  10  19  32  49  69  96 131 166 197 235 283
#     4  10  21  35  50  69  96 131 168 201 233 278
#
# _framework density 16.24475
#
# number of rings (size 3 to 8) (size 9 to 14) (size 15 to 20)
#    0.000    1.571    0.000   11.143    0.000    2.571 
#    0.000    0.000    0.000    0.000    0.000    1.000 
#    0.000    8.000    0.000    0.000    0.000    0.000 
#
# Total GULP energy -312560.974585 kJ/mol
# GULP energy per Si atom -5581.445975 kJ/mol
# Density = 1.620778 g / cm^3
# Si number density = 16.244750 Si / 1000 Ang^3
#
#
#
# Elastic Constant Matrix: (Units=GPa)
#
#
# Indices 1 2 3 4 5 6 
#
# 1 163.6473 58.0602 68.8507 0.0000 0.0000 0.0000
# 2 58.0602 59.9890 45.0963 0.0000 0.0000 0.0000
# 3 68.8507 45.0963 141.9188 0.0000 0.0000 0.0000
# 4 0.0000 0.0000 0.0000 33.1111 0.0000 0.0000
# 5 0.0000 0.0000 0.0000 0.0000 31.1104 0.0000
# 6 0.0000 0.0000 0.0000 0.0000 0.0000 27.4163
#
#
#
# Elastic Compliance Matrix: (Units=1/GPa)
#
#
# Indices 1 2 3 4 5 6 
#
# 1 0.009845 -0.007802 -0.002297 0.000000 0.000000 0.000000
# 2 -0.007802 0.028084 -0.005139 0.000000 0.000000 0.000000
# 3 -0.002297 -0.005139 0.009794 0.000000 0.000000 0.000000
# 4 0.000000 0.000000 0.000000 0.030201 0.000000 0.000000
# 5 0.000000 0.000000 0.000000 0.000000 0.032144 0.000000
# 6 0.000000 0.000000 0.000000 0.000000 0.000000 0.036475
#
#
# Mechanical properties :
#
#
# Convention : Reuss Voigt Hill
#
# Bulk Modulus (GPa) = 57.98168 78.84105 68.41137
# Shear Modulus (GPa) = 27.35724 31.23077 29.29400
#
# Velocity S-wave (km/s) = 4.10819 4.38941 4.25112
# Velocity P-wave (km/s) = 7.63368 8.62136 8.14251
#
# Compressibility (1/GPa) = 0.01724683
#
# Stress axis : x y z
#
# Youngs Moduli (GPa) = 101.57292 35.60775 102.10604
#
# Poissons Ratio (x) = 0.27780 0.23456
# Poissons Ratio (y) = 0.79244 0.52473
# Poissons Ratio (z) = 0.23333 0.18299
#
# Static dielectric constant tensor:
#      x y z
#    x 1.581470 0.000000 0.000000 
#    y 0.000000 1.546640 0.000000 
#    z 0.000000 0.000000 1.540710 
# 
# From -- ./inp_files/7872.got.cif
#   From: 2010.05.17/outbox.cif.g08.bks.cpg/sg55_4_cif.got.tgz:7872.got - 2010.06.03 13:27:54.
