data_PCOD9424668
_publ_section_title
;
Structure prediction by ZEFSAII (Michael W. Deem and Ramdas Pophale) SiO2 
 PCOD9424668
Probable space group: P C C A
;
_chemical_formula_sum "Si O2"
_cell_formula_units_Z 56
_cell_length_a 12.000000
_cell_length_b 15.000000
_cell_length_c 15.000000
_cell_angle_alpha 90.000000
_cell_angle_beta 90.000000
_cell_angle_gamma 90.000000
_cell_volume 2700.000000
_symmetry_space_group_name_H-M "P C C A"
_symmetry_group_IT_number 54
_symmetry_cell_setting 'orthorhombic'
loop_
_space_group_symop_operation_xyz
x,y,z
1/2-x,-y,z
1/2+x,-y,1/2-z
-x,y,1/2-z
-x,-y,-z
1/2+x,y,-z
1/2-x,y,1/2+z
x,-y,1/2+z
loop_
_atom_site_type_symbol
_atom_site_label
_atom_site_fract_x
_atom_site_fract_y
_atom_site_fract_z
Si Si1 0.505731 0.506645 0.846963
Si Si2 0.504738 0.202971 0.527795
Si Si3 0.350798 0.924016 0.606229
Si Si4 0.149166 0.641465 0.443345
Si Si5 0.000000 0.026182 0.250000
Si Si6 0.848156 0.170606 0.304417
Si Si7 0.250000 0.500000 0.072679
Si Si8 0.360962 0.323766 0.836864
O O1 0.500000 0.550647 0.750000
O O2 0.442282 0.567281 0.918287
O O3 0.635449 0.500751 0.871993
O O4 0.437096 0.413109 0.837478
O O5 0.577751 0.130282 0.470272
O O6 0.419505 0.270202 0.474170
O O7 0.425090 0.164417 0.606643
O O8 0.591719 0.263935 0.582194
O O9 0.276169 0.853858 0.663627
O O10 0.250000 0.000000 0.582863
O O11 0.446567 0.967583 0.669999
O O12 0.230276 0.590239 0.514195
O O13 0.232217 0.657585 0.360632
O O14 0.103637 0.095324 0.263631
O O15 0.864010 0.265149 0.254260
#
# Coordination Sequence:
#
# PCOD9424668 Si02
#       8
#     8   8   8   8   4   8   4   8
#     4  12  27  45  69 103 141 197 240 298 355 425
#     4  12  24  46  72 109 140 191 243 297 359 441
#     4  10  26  47  72 108 145 182 238 303 374 441
#     4  12  26  43  71 107 145 188 245 299 360 421
#     4  10  22  48  72 102 138 178 226 292 360 440
#     4  11  24  48  71 104 141 188 234 294 365 435
#     4  12  24  46  70  96 148 188 236 308 356 422
#     4  12  24  45  72 101 146 192 241 293 360 430
#
# _framework density 20.740741
#
# number of rings (size 3 to 8) (size 9 to 14) (size 15 to 20)
#    0.000    0.571    4.286    3.000    4.000    3.429 
#    2.571    0.000    0.000    0.000    0.000    0.000 
#    0.000    0.000    0.000    0.000    0.000    0.000 
#
# Total GULP energy -312544.358081 kJ/mol
# GULP energy per Si atom -5581.149251 kJ/mol
# Density = 2.069353 g / cm^3
# Si number density = 20.740741 Si / 1000 Ang^3
#
#
#
# Elastic Constant Matrix: (Units=GPa)
#
#
# Indices 1 2 3 4 5 6 
#
# 1 155.8893 54.1656 58.5102 0.0000 0.0000 0.0000
# 2 54.1656 106.2354 46.1071 0.0000 0.0000 0.0000
# 3 58.5102 46.1071 93.2136 0.0000 0.0000 0.0000
# 4 0.0000 0.0000 0.0000 38.1689 0.0000 0.0000
# 5 0.0000 0.0000 0.0000 0.0000 51.2138 0.0000
# 6 0.0000 0.0000 0.0000 0.0000 0.0000 46.9492
#
#
#
# Elastic Compliance Matrix: (Units=1/GPa)
#
#
# Indices 1 2 3 4 5 6 
#
# 1 0.008966 -0.002711 -0.004287 0.000000 0.000000 0.000000
# 2 -0.002711 0.012806 -0.004633 0.000000 0.000000 0.000000
# 3 -0.004287 -0.004633 0.015711 0.000000 0.000000 0.000000
# 4 0.000000 0.000000 0.000000 0.026199 0.000000 0.000000
# 5 0.000000 0.000000 0.000000 0.000000 0.019526 0.000000
# 6 0.000000 0.000000 0.000000 0.000000 0.000000 0.021300
#
#
# Mechanical properties :
#
#
# Convention : Reuss Voigt Hill
#
# Bulk Modulus (GPa) = 70.31752 74.76713 72.54233
# Shear Modulus (GPa) = 37.73352 40.37008 39.05180
#
# Velocity S-wave (km/s) = 4.26995 4.41660 4.34389
# Velocity P-wave (km/s) = 7.63457 7.88259 7.75957
#
# Compressibility (1/GPa) = 0.01422121
#
# Stress axis : x y z
#
# Youngs Moduli (GPa) = 111.53610 78.08963 63.65166
#
# Poissons Ratio (x) = 0.21168 0.27287
# Poissons Ratio (y) = 0.30234 0.29488
# Poissons Ratio (z) = 0.47815 0.36177
#
# Static dielectric constant tensor:
#      x y z
#    x 1.748900 0.000000 0.000000 
#    y 0.000000 1.794520 0.000000 
#    z 0.000000 0.000000 1.782930 
# 
# From -- ./inp_files/12758.got.cif
#   From: 2010.05.17/outbox.ucp.g08.bks.cvg/sg54_7_cif.got.tgz:12758.got - 2010.06.11 16:34:40.
