data_PCOD9424898
_publ_section_title
;
Structure prediction by ZEFSAII (Michael W. Deem and Ramdas Pophale) SiO2 
 PCOD9424898
Probable space group: P B A M
;
_chemical_formula_sum "Si O2"
_cell_formula_units_Z 58
_cell_length_a 13.810069
_cell_length_b 28.188217
_cell_length_c 7.437962
_cell_angle_alpha 90.000000
_cell_angle_beta 90.000000
_cell_angle_gamma 90.000000
_cell_volume 2895.458935
_symmetry_space_group_name_H-M "P B A M"
_symmetry_group_IT_number 55
_symmetry_cell_setting 'orthorhombic'
loop_
_space_group_symop_operation_xyz
x,y,z
-x,-y,z
1/2+x,1/2-y,-z
1/2-x,1/2+y,-z
-x,-y,-z
x,y,-z
1/2-x,1/2+y,z
1/2+x,1/2-y,z
loop_
_atom_site_type_symbol
_atom_site_label
_atom_site_fract_x
_atom_site_fract_y
_atom_site_fract_z
Si Si1 0.811654 0.651138 0.286892
Si Si2 0.500000 0.000000 0.000000
Si Si3 0.594356 0.759829 0.782690
Si Si4 0.121780 0.251848 0.707528
Si Si5 0.009263 0.414477 0.710180
Si Si6 0.107658 0.142867 0.795512
Si Si7 0.315879 0.144156 0.218862
Si Si8 0.101979 0.847661 0.215952
O O1 0.824401 0.657143 0.500000
O O2 0.816001 0.705090 0.211375
O O3 0.705427 0.629334 0.255962
O O4 0.900901 0.618854 0.227434
O O5 0.502667 0.041389 0.157621
O O6 0.486975 0.772589 0.718497
O O7 0.666885 0.801051 0.725954
O O8 0.610542 0.706536 0.716040
O O9 0.593986 0.758928 0.000000
O O10 0.146556 0.242800 0.500000
O O11 0.116354 0.200577 0.799668
O O12 0.026074 0.427030 0.500000
O O13 0.908275 0.385646 0.721215
O O14 0.210436 0.127017 0.715924
O O15 0.001327 0.132750 0.715462
O O16 0.105712 0.124934 0.000000
O O17 0.314180 0.143217 0.000000
O O18 0.092642 0.845974 0.000000
#
# Coordination Sequence:
#
# PCOD9424898 Si02
#       8
#     8   2   8   8   8   8   8   8
#     4  10  21  34  50  77 111 147 189 238 284 333
#     4  12  26  48  68  94 114 148 174 228 320 384
#     4   9  17  28  45  71 106 152 201 241 276 319
#     4  10  18  28  43  68 106 153 197 237 279 318
#     4  11  24  42  65  94 120 144 184 238 295 364
#     4   9  19  33  47  73 112 156 201 239 269 311
#     4  10  18  33  56  80 110 151 195 236 287 341
#     4   9  18  30  47  74 110 158 203 238 269 313
#
# _framework density 20.031366999999999
#
# number of rings (size 3 to 8) (size 9 to 14) (size 15 to 20)
#    0.000    2.207    2.069    2.276    0.966    4.966 
#    0.000    0.000    0.000    0.000    0.000    1.931 
#    0.000    3.310    0.000    0.000    0.000    0.000 
#
# Total GULP energy -322925.059432 kJ/mol
# GULP energy per Si atom -5567.673438 kJ/mol
# Density = 1.998577 g / cm^3
# Si number density = 20.031367 Si / 1000 Ang^3
#
#
#
# Elastic Constant Matrix: (Units=GPa)
#
#
# Indices 1 2 3 4 5 6 
#
# 1 180.2656 22.4335 0.6150 0.0000 0.0000 0.0000
# 2 22.4335 45.5381 13.5328 0.0000 0.0000 0.0000
# 3 0.6150 13.5328 90.4058 0.0000 0.0000 0.0000
# 4 0.0000 0.0000 0.0000 2.8334 0.0000 0.0000
# 5 0.0000 0.0000 0.0000 0.0000 20.9473 0.0000
# 6 0.0000 0.0000 0.0000 0.0000 0.0000 -1.4512
#
#
#
# Elastic Compliance Matrix: (Units=1/GPa)
#
#
# Indices 1 2 3 4 5 6 
#
# 1 0.005925 -0.003042 0.000415 0.000000 0.000000 0.000000
# 2 -0.003042 0.024544 -0.003653 0.000000 0.000000 0.000000
# 3 0.000415 -0.003653 0.011605 0.000000 0.000000 0.000000
# 4 0.000000 0.000000 0.000000 0.352938 0.000000 0.000000
# 5 0.000000 0.000000 0.000000 0.000000 0.047739 0.000000
# 6 0.000000 0.000000 0.000000 0.000000 0.000000 -0.689066
#
#
# Mechanical properties :
#
#
# Convention : Reuss Voigt Hill
#
# Bulk Modulus (GPa) = 33.88300 43.26355 38.57328
# Shear Modulus (GPa) = -22.32971 23.10776 0.38903
#
# Velocity S-wave (km/s) = -3.34239 3.40012 0.44117
# Velocity P-wave (km/s) = 1.43397 6.08763 4.42241
#
# Compressibility (1/GPa) = 0.02951332
#
# Stress axis : x y z
#
# Youngs Moduli (GPa) = 168.79018 40.74338 86.16771
#
# Poissons Ratio (x) = 0.12394 -0.03576
# Poissons Ratio (y) = 0.51345 0.31479
# Poissons Ratio (z) = -0.07006 0.14885
#
# Static dielectric constant tensor:
#      x y z
#    x 1.817310 0.000000 0.000000 
#    y 0.000000 1.653100 0.000000 
#    z 0.000000 0.000000 1.628630 
# 
# From -- ./inp_files/4465.got.cif
#   From: 2010.05.17/outbox.cif.g08.bks.cpg/sg55_3_cif.got.tgz:4465.got - 2010.06.03 13:27:54.
