data_PCOD9424822
_publ_section_title
;
Structure prediction by ZEFSAII (Michael W. Deem and Ramdas Pophale) SiO2 
 PCOD9424822
Probable space group: P B A M
;
_chemical_formula_sum "Si O2"
_cell_formula_units_Z 64
_cell_length_a 16.148471
_cell_length_b 11.635934
_cell_length_c 14.644277
_cell_angle_alpha 90.000000
_cell_angle_beta 90.000000
_cell_angle_gamma 90.000000
_cell_volume 2751.696885
_symmetry_space_group_name_H-M "P B A M"
_symmetry_group_IT_number 55
_symmetry_cell_setting 'orthorhombic'
loop_
_space_group_symop_operation_xyz
x,y,z
-x,-y,z
1/2+x,1/2-y,-z
1/2-x,1/2+y,-z
-x,-y,-z
x,y,-z
1/2-x,1/2+y,z
1/2+x,1/2-y,z
loop_
_atom_site_type_symbol
_atom_site_label
_atom_site_fract_x
_atom_site_fract_y
_atom_site_fract_z
Si Si1 0.587853 0.381127 0.285620
Si Si2 0.464421 0.811493 0.396821
Si Si3 0.657902 0.841311 0.166268
Si Si4 0.348960 0.699551 0.105690
Si Si5 0.124060 0.540733 0.357641
Si Si6 0.800221 0.556343 0.099409
Si Si7 0.837925 0.117429 0.750444
Si Si8 0.745815 0.282537 0.604277
O O1 0.520531 0.299443 0.333483
O O2 0.591269 0.358577 0.177715
O O3 0.603753 0.517453 0.289601
O O4 0.665193 0.321631 0.339452
O O5 0.448764 0.772690 0.500000
O O6 0.546277 0.889221 0.395825
O O7 0.394456 0.905852 0.367407
O O8 0.755561 0.816710 0.145129
O O9 0.645995 0.941104 0.094089
O O10 0.621982 0.715426 0.184020
O O11 0.757771 0.573641 0.000000
O O12 0.360106 0.835882 0.111599
O O13 0.353282 0.662998 0.000000
O O14 0.134973 0.583981 0.254834
O O15 0.203950 0.597139 0.402337
O O16 0.732569 0.560608 0.182218
O O17 0.794962 0.190755 0.668322
O O18 0.734733 0.241240 0.500000
#
# Coordination Sequence:
#
# PCOD9424822 Si02
#       8
#     8   8   8   8   8   8   8   8
#     4  12  22  36  54  86 122 150 198 248 296 350
#     4  11  24  39  60  88 117 159 209 253 302 362
#     4  10  18  33  54  81 112 149 197 237 290 359
#     4  10  19  32  55  85 117 152 190 243 305 354
#     4  10  20  41  62  82 118 158 205 252 304 360
#     4  10  17  30  53  84 118 147 187 244 293 348
#     4  10  20  34  48  79 116 150 190 232 299 354
#     4  11  22  36  57  80 115 157 198 249 298 350
#
# _framework density 23.258375999999998
#
# number of rings (size 3 to 8) (size 9 to 14) (size 15 to 20)
#    0.000    1.500    5.000    3.000    1.750    1.500 
#    0.000    2.500    0.000    5.250    0.000    6.125 
#    0.000   14.000    0.000    0.000    0.000    0.000 
#
# Total GULP energy -356404.568668 kJ/mol
# GULP energy per Si atom -5568.821385 kJ/mol
# Density = 2.320544 g / cm^3
# Si number density = 23.258376 Si / 1000 Ang^3
#
#
#
# Elastic Constant Matrix: (Units=GPa)
#
#
# Indices 1 2 3 4 5 6 
#
# 1 26.0382 14.4119 5.2050 0.0000 0.0000 0.0000
# 2 14.4119 186.5942 39.7112 0.0000 0.0000 0.0000
# 3 5.2050 39.7112 149.7747 0.0000 0.0000 0.0000
# 4 0.0000 0.0000 0.0000 45.1983 0.0000 0.0000
# 5 0.0000 0.0000 0.0000 0.0000 58.2048 0.0000
# 6 0.0000 0.0000 0.0000 0.0000 0.0000 30.9312
#
#
#
# Elastic Compliance Matrix: (Units=1/GPa)
#
#
# Indices 1 2 3 4 5 6 
#
# 1 0.040172 -0.002973 -0.000608 0.000000 0.000000 0.000000
# 2 -0.002973 0.005900 -0.001461 0.000000 0.000000 0.000000
# 3 -0.000608 -0.001461 0.007085 0.000000 0.000000 0.000000
# 4 0.000000 0.000000 0.000000 0.022125 0.000000 0.000000
# 5 0.000000 0.000000 0.000000 0.000000 0.017181 0.000000
# 6 0.000000 0.000000 0.000000 0.000000 0.000000 0.032330
#
#
# Mechanical properties :
#
#
# Convention : Reuss Voigt Hill
#
# Bulk Modulus (GPa) = 23.21628 53.45147 38.33388
# Shear Modulus (GPa) = 33.50430 47.07212 40.28821
#
# Velocity S-wave (km/s) = 3.79954 4.50363 4.16649
# Velocity P-wave (km/s) = 5.40854 7.07638 6.29791
#
# Compressibility (1/GPa) = 0.04307322
#
# Stress axis : x y z
#
# Youngs Moduli (GPa) = 24.89270 169.49714 141.13996
#
# Poissons Ratio (x) = 0.50399 0.08577
# Poissons Ratio (y) = 0.07402 0.20620
# Poissons Ratio (z) = 0.01513 0.24762
#
# Static dielectric constant tensor:
#      x y z
#    x 1.981610 0.000000 0.000000 
#    y 0.000000 1.978230 0.000000 
#    z 0.000000 0.000000 2.579800 
# 
# From -- ./inp_files/19528.got.cif
#   From: 2010.05.17/outbox.cif.g08.bks.cpg/sg55_10_cif.got.tgz:19528.got - 2010.06.03 13:27:54.
