data_PCOD9424833
_publ_section_title
;
Structure prediction by ZEFSAII (Michael W. Deem and Ramdas Pophale) SiO2 
 PCOD9424833
Probable space group: P B A M
;
_chemical_formula_sum "Si O2"
_cell_formula_units_Z 64
_cell_length_a 22.428372
_cell_length_b 8.304193
_cell_length_c 15.016847
_cell_angle_alpha 90.000000
_cell_angle_beta 90.000000
_cell_angle_gamma 90.000000
_cell_volume 2796.880692
_symmetry_space_group_name_H-M "P B A M"
_symmetry_group_IT_number 55
_symmetry_cell_setting 'orthorhombic'
loop_
_space_group_symop_operation_xyz
x,y,z
-x,-y,z
1/2+x,1/2-y,-z
1/2-x,1/2+y,-z
-x,-y,-z
x,y,-z
1/2-x,1/2+y,z
1/2+x,1/2-y,z
loop_
_atom_site_type_symbol
_atom_site_label
_atom_site_fract_x
_atom_site_fract_y
_atom_site_fract_z
Si Si1 0.158223 0.483567 0.246241
Si Si2 0.900292 0.677831 0.599499
Si Si3 0.139467 0.968108 0.102553
Si Si4 0.720346 0.673047 0.245234
Si Si5 0.856519 0.019246 0.600629
Si Si6 0.028304 0.824559 0.792261
Si Si7 0.917791 0.680486 0.102668
Si Si8 0.956897 0.283335 0.399683
O O1 0.121146 0.465757 0.338219
O O2 0.209265 0.346493 0.249842
O O3 0.194337 0.648165 0.239443
O O4 0.115292 0.449447 0.163527
O O5 0.876618 0.662029 0.500000
O O6 0.971308 0.699279 0.596052
O O7 0.874889 0.845027 0.636069
O O8 0.196832 0.926214 0.160415
O O9 0.085348 0.873052 0.149684
O O10 0.121803 0.155957 0.104594
O O11 0.145851 0.919916 0.000000
O O12 0.689940 0.599574 0.333469
O O13 0.832507 0.007854 0.500000
O O14 0.917757 0.120358 0.594091
O O15 0.979542 0.733253 0.851580
O O16 0.046381 0.711894 0.709633
O O17 0.000000 0.000000 0.763316
O O18 0.925682 0.632190 0.000000
O O19 0.940618 0.359248 0.500000
#
# Coordination Sequence:
#
# PCOD9424833 Si02
#       8
#     8   8   8   8   8   8   8   8
#     4  12  26  43  63  86 118 159 206 255 308 363
#     4  10  20  37  63  94 127 163 203 246 294 352
#     4  10  21  39  64  93 123 158 202 251 302 357
#     4  12  26  43  63  86 118 159 206 255 308 363
#     4  10  20  37  63  94 127 163 203 246 294 352
#     4  10  17  31  60  94 129 161 198 241 290 358
#     4  10  21  39  64  93 123 158 202 251 302 357
#     4  10  18  30  59  99 132 162 197 240 291 355
#
# _framework density 22.882635000000001
#
# number of rings (size 3 to 8) (size 9 to 14) (size 15 to 20)
#    0.000    1.500    2.500    3.750    0.000    6.250 
#    0.000    2.500    0.000    3.750    0.000    0.000 
#    0.000    0.000    0.000    0.000    0.000    0.000 
#
# Total GULP energy -357412.710846 kJ/mol
# GULP energy per Si atom -5584.573607 kJ/mol
# Density = 2.283055 g / cm^3
# Si number density = 22.882635 Si / 1000 Ang^3
#
#
#
# Elastic Constant Matrix: (Units=GPa)
#
#
# Indices 1 2 3 4 5 6 
#
# 1 46.0245 4.3635 17.6588 0.0000 0.0000 0.0000
# 2 4.3635 48.3179 15.8260 0.0000 0.0000 0.0000
# 3 17.6588 15.8260 142.6154 0.0000 0.0000 0.0000
# 4 0.0000 0.0000 0.0000 22.2472 0.0000 0.0000
# 5 0.0000 0.0000 0.0000 0.0000 12.8412 0.0000
# 6 0.0000 0.0000 0.0000 0.0000 0.0000 24.0034
#
#
#
# Elastic Compliance Matrix: (Units=1/GPa)
#
#
# Indices 1 2 3 4 5 6 
#
# 1 0.022876 -0.001181 -0.002701 0.000000 0.000000 0.000000
# 2 -0.001181 0.021538 -0.002244 0.000000 0.000000 0.000000
# 3 -0.002701 -0.002244 0.007595 0.000000 0.000000 0.000000
# 4 0.000000 0.000000 0.000000 0.044949 0.000000 0.000000
# 5 0.000000 0.000000 0.000000 0.000000 0.077875 0.000000
# 6 0.000000 0.000000 0.000000 0.000000 0.000000 0.041661
#
#
# Mechanical properties :
#
#
# Convention : Reuss Voigt Hill
#
# Bulk Modulus (GPa) = 25.15307 34.73938 29.94622
# Shear Modulus (GPa) = 20.66125 25.09231 22.87678
#
# Velocity S-wave (km/s) = 3.00813 3.31504 3.16530
# Velocity P-wave (km/s) = 4.80429 5.46508 5.14530
#
# Compressibility (1/GPa) = 0.03975658
#
# Stress axis : x y z
#
# Youngs Moduli (GPa) = 43.71383 46.42988 131.65926
#
# Poissons Ratio (x) = 0.05484 0.35567
# Poissons Ratio (y) = 0.05163 0.29542
# Poissons Ratio (z) = 0.11809 0.10418
#
# Static dielectric constant tensor:
#      x y z
#    x 1.814500 0.000000 0.000000 
#    y 0.000000 1.926830 0.000000 
#    z 0.000000 0.000000 1.864680 
# 
# From -- ./inp_files/19954.got.cif
#   From: 2010.05.17/outbox.cif.g08.bks.cpg/sg55_10_cif.got.tgz:19954.got - 2010.06.03 13:27:54.
