data_PCOD9424958
_publ_section_title
;
Structure prediction by ZEFSAII (Michael W. Deem and Ramdas Pophale) SiO2 
 PCOD9424958
Probable space group: P B A M
;
_chemical_formula_sum "Si O2"
_cell_formula_units_Z 56
_cell_length_a 15.752043
_cell_length_b 22.193741
_cell_length_c 8.997432
_cell_angle_alpha 90.000000
_cell_angle_beta 90.000000
_cell_angle_gamma 90.000000
_cell_volume 3145.473099
_symmetry_space_group_name_H-M "P B A M"
_symmetry_group_IT_number 55
_symmetry_cell_setting 'orthorhombic'
loop_
_space_group_symop_operation_xyz
x,y,z
-x,-y,z
1/2+x,1/2-y,-z
1/2-x,1/2+y,-z
-x,-y,-z
x,y,-z
1/2-x,1/2+y,z
1/2+x,1/2-y,z
loop_
_atom_site_type_symbol
_atom_site_label
_atom_site_fract_x
_atom_site_fract_y
_atom_site_fract_z
Si Si1 0.585335 0.781325 0.823301
Si Si2 0.040026 0.061725 0.828832
Si Si3 0.258616 0.560091 0.167449
Si Si4 0.864576 0.517687 0.327494
Si Si5 0.953613 0.811269 0.677919
Si Si6 0.014942 0.600154 0.673730
Si Si7 0.244174 0.186530 0.322803
O O1 0.519639 0.733653 0.754162
O O2 0.549254 0.846575 0.774122
O O3 0.680542 0.776795 0.756065
O O4 0.588457 0.775937 0.000000
O O5 0.140900 0.052353 0.833893
O O6 0.025407 0.121242 0.732743
O O7 0.010554 0.071343 0.000000
O O8 0.000000 0.000000 0.770957
O O9 0.213462 0.500200 0.225474
O O10 0.241592 0.617006 0.273860
O O11 0.229502 0.574935 0.000000
O O12 0.839653 0.524130 0.500000
O O13 0.921654 0.575076 0.286071
O O14 0.925063 0.458604 0.317901
O O15 0.959531 0.806991 0.500000
O O16 0.853959 0.798762 0.718544
O O17 0.014182 0.619446 0.500000
O O18 0.252577 0.191683 0.500000
#
# Coordination Sequence:
#
# PCOD9424958 Si02
#       7
#     8   8   8   8   8   8   8
#     4  12  23  35  56  84 113 147 183 227 281 333
#     4   9  19  37  58  80 109 142 175 220 277 327
#     4  10  18  29  51  81 108 137 179 224 268 322
#     4   9  17  30  49  74 105 142 178 216 260 307
#     4  10  22  39  60  84 110 144 187 232 273 325
#     4   9  18  32  50  73 106 145 181 214 256 315
#     4  10  20  36  57  79 106 143 187 230 272 325
#
# _framework density 17.803362
#
# number of rings (size 3 to 8) (size 9 to 14) (size 15 to 20)
#    0.000    2.143    1.429    3.429    0.000    3.143 
#    0.000    2.857    0.000    3.429    0.000    0.000 
#    0.000    0.000    0.000    0.000    0.000    0.000 
#
# Total GULP energy -312298.323306 kJ/mol
# GULP energy per Si atom -5576.755773 kJ/mol
# Density = 1.776284 g / cm^3
# Si number density = 17.803362 Si / 1000 Ang^3
#
#
#
# Elastic Constant Matrix: (Units=GPa)
#
#
# Indices 1 2 3 4 5 6 
#
# 1 89.1994 58.4652 51.5030 0.0000 0.0000 0.0000
# 2 58.4652 69.3982 45.4435 0.0000 0.0000 0.0000
# 3 51.5030 45.4435 85.3755 0.0000 0.0000 0.0000
# 4 0.0000 0.0000 0.0000 27.0674 0.0000 0.0000
# 5 0.0000 0.0000 0.0000 0.0000 25.1229 0.0000
# 6 0.0000 0.0000 0.0000 0.0000 0.0000 35.5407
#
#
#
# Elastic Compliance Matrix: (Units=1/GPa)
#
#
# Indices 1 2 3 4 5 6 
#
# 1 0.027172 -0.018662 -0.006458 0.000000 0.000000 0.000000
# 2 -0.018662 0.034937 -0.007338 0.000000 0.000000 0.000000
# 3 -0.006458 -0.007338 0.019515 0.000000 0.000000 0.000000
# 4 0.000000 0.000000 0.000000 0.036945 0.000000 0.000000
# 5 0.000000 0.000000 0.000000 0.000000 0.039804 0.000000
# 6 0.000000 0.000000 0.000000 0.000000 0.000000 0.028137
#
#
# Mechanical properties :
#
#
# Convention : Reuss Voigt Hill
#
# Bulk Modulus (GPa) = 59.85613 61.64406 60.75010
# Shear Modulus (GPa) = 19.45566 23.45026 21.45296
#
# Velocity S-wave (km/s) = 3.30935 3.63324 3.47507
# Velocity P-wave (km/s) = 6.94954 7.23192 7.09213
#
# Compressibility (1/GPa) = 0.01670673
#
# Stress axis : x y z
#
# Youngs Moduli (GPa) = 36.80310 28.62295 51.24370
#
# Poissons Ratio (x) = 0.53417 0.33092
# Poissons Ratio (y) = 0.68683 0.37603
# Poissons Ratio (z) = 0.23767 0.21004
#
# Static dielectric constant tensor:
#      x y z
#    x 1.645250 0.000000 0.000000 
#    y 0.000000 1.585910 0.000000 
#    z 0.000000 0.000000 1.608930 
# 
# From -- ./inp_files/6078.got.cif
#   From: 2010.05.17/outbox.cif.g08.bks.cpg/sg55_4_cif.got.tgz:6078.got - 2010.06.03 13:27:54.
