data_PCOD9424080
_publ_section_title
;
Structure prediction by ZEFSAII (Michael W. Deem and Ramdas Pophale) SiO2 
 PCOD9424080
Probable space group: P C C A
;
_chemical_formula_sum "Si O2"
_cell_formula_units_Z 56
_cell_length_a 7.946484
_cell_length_b 24.341175
_cell_length_c 13.527869
_cell_angle_alpha 90.000000
_cell_angle_beta 90.000000
_cell_angle_gamma 90.000000
_cell_volume 2616.651839
_symmetry_space_group_name_H-M "P C C A"
_symmetry_group_IT_number 54
_symmetry_cell_setting 'orthorhombic'
loop_
_space_group_symop_operation_xyz
x,y,z
1/2-x,-y,z
1/2+x,-y,1/2-z
-x,y,1/2-z
-x,-y,-z
1/2+x,y,-z
1/2-x,y,1/2+z
x,-y,1/2+z
loop_
_atom_site_type_symbol
_atom_site_label
_atom_site_fract_x
_atom_site_fract_y
_atom_site_fract_z
Si Si1 0.304419 0.646830 0.843139
Si Si2 0.056214 0.648525 0.547978
Si Si3 0.318550 0.735802 0.196054
Si Si4 0.180322 0.559932 0.694946
Si Si5 0.670733 0.940408 0.444547
Si Si6 0.802942 0.940934 0.650332
Si Si7 0.318100 0.143029 0.198674
O O1 0.294135 0.698629 0.769719
O O2 0.296755 0.594084 0.771609
O O3 0.130128 0.647546 0.905843
O O4 0.441376 0.647820 0.929591
O O5 0.146554 0.701928 0.595598
O O6 0.149644 0.596129 0.596920
O O7 0.500000 0.741116 0.250000
O O8 0.239537 0.795052 0.181127
O O9 0.250000 0.500000 0.673789
O O10 0.000000 0.555888 0.750000
O O11 0.670617 0.932558 0.562002
O O12 0.486311 0.942242 0.398072
O O13 0.786830 0.892923 0.398820
O O14 0.750000 0.000000 0.427801
O O15 0.795795 0.890585 0.723940
O O16 0.750000 0.000000 0.696274
O O17 0.500000 0.141983 0.250000
#
# Coordination Sequence:
#
# PCOD9424080 Si02
#       7
#     8   8   8   8   8   8   8
#     4   9  19  36  57  78 106 142 181 221 270 321
#     4   9  19  36  57  78 106 142 181 221 270 321
#     4   9  20  39  56  75 106 143 180 226 275 323
#     4   9  19  35  53  79 112 145 177 218 264 315
#     4  11  22  39  60  84 113 146 183 227 277 332
#     4  11  22  39  60  84 113 146 183 227 277 332
#     4  12  24  38  57  84 113 146 186 228 276 332
#
# _framework density 21.401395000000001
#
# number of rings (size 3 to 8) (size 9 to 14) (size 15 to 20)
#    0.000    2.000    0.000    6.857    0.000    4.000 
#    0.000    8.571    0.000    0.000    0.000    0.000 
#    0.000    0.000    0.000    0.000    0.000    0.000 
#
# Total GULP energy -313097.233937 kJ/mol
# GULP energy per Si atom -5591.022035 kJ/mol
# Density = 2.135268 g / cm^3
# Si number density = 21.401395 Si / 1000 Ang^3
#
#
#
# Elastic Constant Matrix: (Units=GPa)
#
#
# Indices 1 2 3 4 5 6 
#
# 1 70.2933 16.0114 -5.3951 0.0000 0.0000 0.0000
# 2 16.0114 150.2944 15.4660 0.0000 0.0000 0.0000
# 3 -5.3951 15.4660 51.4924 0.0000 0.0000 0.0000
# 4 0.0000 0.0000 0.0000 2.4186 0.0000 0.0000
# 5 0.0000 0.0000 0.0000 0.0000 35.2194 0.0000
# 6 0.0000 0.0000 0.0000 0.0000 0.0000 11.1182
#
#
#
# Elastic Compliance Matrix: (Units=1/GPa)
#
#
# Indices 1 2 3 4 5 6 
#
# 1 0.014794 -0.001791 0.002088 0.000000 0.000000 0.000000
# 2 -0.001791 0.007083 -0.002315 0.000000 0.000000 0.000000
# 3 0.002088 -0.002315 0.020334 0.000000 0.000000 0.000000
# 4 0.000000 0.000000 0.000000 0.413471 0.000000 0.000000
# 5 0.000000 0.000000 0.000000 0.000000 0.028393 0.000000
# 6 0.000000 0.000000 0.000000 0.000000 0.000000 0.089942
#
#
# Mechanical properties :
#
#
# Convention : Reuss Voigt Hill
#
# Bulk Modulus (GPa) = 26.19480 36.02720 31.11100
# Shear Modulus (GPa) = 8.46341 26.15109 17.30725
#
# Velocity S-wave (km/s) = 1.99078 3.49941 2.84685
# Velocity P-wave (km/s) = 4.18934 5.76181 5.03731
#
# Compressibility (1/GPa) = 0.03817552
#
# Stress axis : x y z
#
# Youngs Moduli (GPa) = 67.59355 141.19053 49.17769
#
# Poissons Ratio (x) = 0.25287 -0.10268
# Poissons Ratio (y) = 0.12106 0.11384
# Poissons Ratio (z) = -0.14113 0.32685
#
# Static dielectric constant tensor:
#      x y z
#    x 1.859150 0.000000 0.000000 
#    y 0.000000 1.719360 0.000000 
#    z 0.000000 0.000000 1.783900 
# 
# From -- ./inp_files/11877.got.cif
#   From: 2010.05.17/outbox.cif.g08.bks.cpg/sg54_6_cif.got.tgz:11877.got - 2010.06.03 13:09:01.
