data_PCOD9424092
_publ_section_title
;
Structure prediction by ZEFSAII (Michael W. Deem and Ramdas Pophale) SiO2 
 PCOD9424092
Probable space group: P C C A
;
_chemical_formula_sum "Si O2"
_cell_formula_units_Z 40
_cell_length_a 11.681725
_cell_length_b 9.117314
_cell_length_c 18.638513
_cell_angle_alpha 90.000000
_cell_angle_beta 90.000000
_cell_angle_gamma 90.000000
_cell_volume 1985.112625
_symmetry_space_group_name_H-M "P C C A"
_symmetry_group_IT_number 54
_symmetry_cell_setting 'orthorhombic'
loop_
_space_group_symop_operation_xyz
x,y,z
1/2-x,-y,z
1/2+x,-y,1/2-z
-x,y,1/2-z
-x,-y,-z
1/2+x,y,-z
1/2-x,y,1/2+z
x,-y,1/2+z
loop_
_atom_site_type_symbol
_atom_site_label
_atom_site_fract_x
_atom_site_fract_y
_atom_site_fract_z
Si Si1 0.342326 0.792963 0.697141
Si Si2 0.866344 0.589216 0.438527
Si Si3 0.556524 0.656028 0.087739
Si Si4 0.077335 0.122782 0.182157
Si Si5 0.626185 0.469882 0.219237
O O1 0.376241 0.689628 0.631115
O O2 0.205313 0.814979 0.691576
O O3 0.373312 0.707929 0.771358
O O4 0.403125 0.948193 0.683920
O O5 0.750000 0.500000 0.440244
O O6 0.961676 0.465339 0.429958
O O7 0.878753 0.678514 0.512732
O O8 0.491199 0.799401 0.117437
O O9 0.631638 0.570811 0.148005
O O10 0.000000 0.160008 0.250000
O O11 0.750000 0.500000 0.257023
O O12 0.500000 0.511059 0.250000
#
# Coordination Sequence:
#
# PCOD9424092 Si02
#       5
#     8   8   8   8   8
#     4  11  23  41  66  90 138 172 215 274 347 400
#     4  11  22  40  64  95 124 176 219 266 337 395
#     4  11  23  38  65  93 127 166 226 275 317 400
#     4  11  24  41  64  98 128 175 221 275 338 406
#     4  12  22  38  66  97 129 173 216 284 330 391
#
# _framework density 20.149991
#
# number of rings (size 3 to 8) (size 9 to 14) (size 15 to 20)
#    0.000    0.800    4.000    4.800    0.000    0.800 
#    0.000    0.000    0.000    0.000    0.000    0.000 
#    0.000    0.000    0.000    0.000    0.000    0.000 
#
# Total GULP energy -222892.873177 kJ/mol
# GULP energy per Si atom -5572.321829 kJ/mol
# Density = 2.010413 g / cm^3
# Si number density = 20.149991 Si / 1000 Ang^3
#
#
#
# Elastic Constant Matrix: (Units=GPa)
#
#
# Indices 1 2 3 4 5 6 
#
# 1 83.9865 27.9431 18.6390 0.0000 0.0000 0.0000
# 2 27.9431 118.9982 30.6263 0.0000 0.0000 0.0000
# 3 18.6390 30.6263 88.5500 0.0000 0.0000 0.0000
# 4 0.0000 0.0000 0.0000 29.3022 0.0000 0.0000
# 5 0.0000 0.0000 0.0000 0.0000 30.8069 0.0000
# 6 0.0000 0.0000 0.0000 0.0000 0.0000 14.5444
#
#
#
# Elastic Compliance Matrix: (Units=1/GPa)
#
#
# Indices 1 2 3 4 5 6 
#
# 1 0.013193 -0.002616 -0.001872 0.000000 0.000000 0.000000
# 2 -0.002616 0.009743 -0.002819 0.000000 0.000000 0.000000
# 3 -0.001872 -0.002819 0.012662 0.000000 0.000000 0.000000
# 4 0.000000 0.000000 0.000000 0.034127 0.000000 0.000000
# 5 0.000000 0.000000 0.000000 0.000000 0.032460 0.000000
# 6 0.000000 0.000000 0.000000 0.000000 0.000000 0.068755
#
#
# Mechanical properties :
#
#
# Convention : Reuss Voigt Hill
#
# Bulk Modulus (GPa) = 47.65692 49.55017 48.60355
# Shear Modulus (GPa) = 25.96729 29.21911 27.59320
#
# Velocity S-wave (km/s) = 3.59374 3.81212 3.70454
# Velocity P-wave (km/s) = 6.39706 6.63479 6.51701
#
# Compressibility (1/GPa) = 0.02098331
#
# Stress axis : x y z
#
# Youngs Moduli (GPa) = 75.80042 102.63390 78.97524
#
# Poissons Ratio (x) = 0.26850 0.14785
# Poissons Ratio (y) = 0.19830 0.22265
# Poissons Ratio (z) = 0.14191 0.28935
#
# Static dielectric constant tensor:
#      x y z
#    x 0.614540 0.000000 0.000000 
#    y 0.000000 1.746310 0.000000 
#    z 0.000000 0.000000 1.791390 
# 
# From -- ./inp_files/17066.got.cif
#   From: 2010.05.17/outbox.cif.g08.bks.cpg/sg54_9_cif.got.tgz:17066.got - 2010.06.03 13:09:01.
