data_PCOD9424923
_publ_section_title
;
Structure prediction by ZEFSAII (Michael W. Deem and Ramdas Pophale) SiO2 
 PCOD9424923
Probable space group: P B A M
;
_chemical_formula_sum "Si O2"
_cell_formula_units_Z 64
_cell_length_a 19.925029
_cell_length_b 23.866416
_cell_length_c 7.614694
_cell_angle_alpha 90.000000
_cell_angle_beta 90.000000
_cell_angle_gamma 90.000000
_cell_volume 3621.084206
_symmetry_space_group_name_H-M "P B A M"
_symmetry_group_IT_number 55
_symmetry_cell_setting 'orthorhombic'
loop_
_space_group_symop_operation_xyz
x,y,z
-x,-y,z
1/2+x,1/2-y,-z
1/2-x,1/2+y,-z
-x,-y,-z
x,y,-z
1/2-x,1/2+y,z
1/2+x,1/2-y,z
loop_
_atom_site_type_symbol
_atom_site_label
_atom_site_fract_x
_atom_site_fract_y
_atom_site_fract_z
Si Si1 0.663277 0.262055 0.787991
Si Si2 0.255721 0.846956 0.211156
Si Si3 0.374427 0.289995 0.796314
Si Si4 0.514637 0.251721 0.209404
Si Si5 0.628115 0.931328 0.714717
Si Si6 0.986844 0.620200 0.287790
Si Si7 0.295973 0.178419 0.292249
Si Si8 0.353573 0.942894 0.289719
O O1 0.694120 0.202486 0.725779
O O2 0.587680 0.269567 0.721708
O O3 0.717947 0.308559 0.739018
O O4 0.660673 0.259645 0.000000
O O5 0.181397 0.832138 0.279897
O O6 0.287789 0.906399 0.253157
O O7 0.253097 0.841830 0.000000
O O8 0.448254 0.281868 0.717048
O O9 0.338204 0.229212 0.791226
O O10 0.383551 0.305826 0.000000
O O11 0.508516 0.184911 0.234863
O O12 0.514846 0.261461 0.000000
O O13 0.628981 0.932145 0.500000
O O14 0.553061 0.913433 0.768444
O O15 0.678025 0.881664 0.770569
O O16 0.646525 0.993460 0.776150
O O17 0.985882 0.619138 0.500000
O O18 0.918618 0.591207 0.222566
O O19 0.309267 0.181909 0.500000
O O20 0.360952 0.945856 0.500000
#
# Coordination Sequence:
#
# PCOD9424923 Si02
#       8
#     8   8   8   8   8   8   8   8
#     4   9  18  31  46  64  91 119 146 184 228 271
#     4   9  17  30  44  63  90 115 143 186 227 261
#     4   9  18  31  47  65  89 119 148 182 228 272
#     4  10  18  30  48  67  90 122 151 180 224 273
#     4   9  18  31  44  63  91 122 154 188 223 257
#     4  10  18  29  44  64  91 122 155 188 215 253
#     4  10  18  29  46  66  89 117 150 188 224 261
#     4  10  19  30  46  64  87 123 159 184 217 265
#
# _framework density 17.674264999999998
#
# number of rings (size 3 to 8) (size 9 to 14) (size 15 to 20)
#    0.000    2.500    2.500    1.500    0.000    4.000 
#    0.000    1.875    0.000    1.500    0.000    0.875 
#    0.000    7.000    0.000    0.000    0.000    0.000 
#
# Total GULP energy -356905.483393 kJ/mol
# GULP energy per Si atom -5576.648178 kJ/mol
# Density = 1.763404 g / cm^3
# Si number density = 17.674265 Si / 1000 Ang^3
#
#
#
# Elastic Constant Matrix: (Units=GPa)
#
#
# Indices 1 2 3 4 5 6 
#
# 1 88.8274 27.0183 -0.8344 0.0000 0.0000 0.0000
# 2 27.0183 53.3486 -7.5456 0.0000 0.0000 0.0000
# 3 -0.8344 -7.5456 36.3393 0.0000 0.0000 0.0000
# 4 0.0000 0.0000 0.0000 19.6176 0.0000 0.0000
# 5 0.0000 0.0000 0.0000 0.0000 -13.5327 0.0000
# 6 0.0000 0.0000 0.0000 0.0000 0.0000 18.9256
#
#
#
# Elastic Compliance Matrix: (Units=1/GPa)
#
#
# Indices 1 2 3 4 5 6 
#
# 1 0.013353 -0.006922 -0.001131 0.000000 0.000000 0.000000
# 2 -0.006922 0.022901 0.004596 0.000000 0.000000 0.000000
# 3 -0.001131 0.004596 0.028447 0.000000 0.000000 0.000000
# 4 0.000000 0.000000 0.000000 0.050975 0.000000 0.000000
# 5 0.000000 0.000000 0.000000 0.000000 -0.073895 0.000000
# 6 0.000000 0.000000 0.000000 0.000000 0.000000 0.052838
#
#
# Mechanical properties :
#
#
# Convention : Reuss Voigt Hill
#
# Bulk Modulus (GPa) = 17.30520 23.97688 20.64104
# Shear Modulus (GPa) = 41.39268 15.66057 28.52662
#
# Velocity S-wave (km/s) = 4.84465 2.97992 4.02185
# Velocity P-wave (km/s) = 6.41144 5.04334 5.76810
#
# Compressibility (1/GPa) = 0.05778608
#
# Stress axis : x y z
#
# Youngs Moduli (GPa) = 74.89112 43.66711 35.15333
#
# Poissons Ratio (x) = 0.30228 0.03975
# Poissons Ratio (y) = 0.51843 -0.16157
# Poissons Ratio (z) = 0.08469 -0.20070
#
# Static dielectric constant tensor:
#      x y z
#    x 1.637300 0.000000 0.000000 
#    y 0.000000 1.574620 0.000000 
#    z 0.000000 0.000000 1.660330 
# 
# From -- ./inp_files/8144.got.cif
#   From: 2010.05.17/outbox.cif.g08.bks.cpg/sg55_5_cif.got.tgz:8144.got - 2010.06.03 13:27:54.
