data_PCOD9424415
_publ_section_title
;
Structure prediction by ZEFSAII (Michael W. Deem and Ramdas Pophale) SiO2 
 PCOD9424415
Probable space group: P C C A
;
_chemical_formula_sum "Si O2"
_cell_formula_units_Z 40
_cell_length_a 9.927843
_cell_length_b 19.503748
_cell_length_c 8.922109
_cell_angle_alpha 90.000000
_cell_angle_beta 90.000000
_cell_angle_gamma 90.000000
_cell_volume 1727.589287
_symmetry_space_group_name_H-M "P C C A"
_symmetry_group_IT_number 54
_symmetry_cell_setting 'orthorhombic'
loop_
_space_group_symop_operation_xyz
x,y,z
1/2-x,-y,z
1/2+x,-y,1/2-z
-x,y,1/2-z
-x,-y,-z
1/2+x,y,-z
1/2-x,y,1/2+z
x,-y,1/2+z
loop_
_atom_site_type_symbol
_atom_site_label
_atom_site_fract_x
_atom_site_fract_y
_atom_site_fract_z
Si Si1 0.521603 0.721606 0.917931
Si Si2 0.500000 0.921511 0.250000
Si Si3 0.766080 0.347883 0.564150
Si Si4 0.250000 0.000000 0.659818
Si Si5 0.347888 0.564371 0.187488
Si Si6 0.436410 0.878611 0.580910
O O1 0.500000 0.696668 0.750000
O O2 0.620430 0.671878 0.002472
O O3 0.585715 0.797007 0.916392
O O4 0.366900 0.715406 0.970544
O O5 0.368396 0.967841 0.256259
O O6 0.508317 0.886910 0.416249
O O7 0.839261 0.412207 0.484981
O O8 0.725785 0.372058 0.729447
O O9 0.317699 0.935040 0.576186
O O10 0.250000 0.500000 0.208383
O O11 0.500000 0.554793 0.250000
O O12 0.500000 0.890173 0.750000
#
# Coordination Sequence:
#
# PCOD9424415 Si02
#       6
#     8   4   8   4   8   8
#     4  11  26  47  74 106 147 189 245 308 368 444
#     4  12  28  46  74 102 150 190 250 312 384 452
#     4  12  25  47  73 103 144 192 241 299 366 437
#     4  12  26  50  74 110 150 198 252 320 384 462
#     4  12  28  45  73 108 145 191 245 297 365 434
#     4  11  28  47  75 111 147 199 255 314 386 456
#
# _framework density 23.153652000000001
#
# number of rings (size 3 to 8) (size 9 to 14) (size 15 to 20)
#    0.000    0.400    5.000    1.800    8.400    4.800 
#    0.000    0.000    0.000    0.000    0.000    0.000 
#    0.000    0.000    0.000    0.000    0.000    0.000 
#
# Total GULP energy -222671.510148 kJ/mol
# GULP energy per Si atom -5566.787754 kJ/mol
# Density = 2.310095 g / cm^3
# Si number density = 23.153652 Si / 1000 Ang^3
#
#
#
# Elastic Constant Matrix: (Units=GPa)
#
#
# Indices 1 2 3 4 5 6 
#
# 1 112.0725 11.0931 12.5682 0.0000 0.0000 0.0000
# 2 11.0931 51.1026 -3.7947 0.0000 0.0000 0.0000
# 3 12.5682 -3.7947 98.1067 0.0000 0.0000 0.0000
# 4 0.0000 0.0000 0.0000 38.8202 0.0000 0.0000
# 5 0.0000 0.0000 0.0000 0.0000 11.8871 0.0000
# 6 0.0000 0.0000 0.0000 0.0000 0.0000 32.0464
#
#
#
# Elastic Compliance Matrix: (Units=1/GPa)
#
#
# Indices 1 2 3 4 5 6 
#
# 1 0.009274 -0.002107 -0.001270 0.000000 0.000000 0.000000
# 2 -0.002107 0.020104 0.001048 0.000000 0.000000 0.000000
# 3 -0.001270 0.001048 0.010396 0.000000 0.000000 0.000000
# 4 0.000000 0.000000 0.000000 0.025760 0.000000 0.000000
# 5 0.000000 0.000000 0.000000 0.000000 0.084125 0.000000
# 6 0.000000 0.000000 0.000000 0.000000 0.000000 0.031205
#
#
# Mechanical properties :
#
#
# Convention : Reuss Voigt Hill
#
# Bulk Modulus (GPa) = 28.47794 33.44611 30.96203
# Shear Modulus (GPa) = 25.35154 32.64507 28.99831
#
# Velocity S-wave (km/s) = 3.31256 3.75898 3.54281
# Velocity P-wave (km/s) = 5.19201 5.77205 5.48970
#
# Compressibility (1/GPa) = 0.03511489
#
# Stress axis : x y z
#
# Youngs Moduli (GPa) = 107.83112 49.74208 96.18954
#
# Poissons Ratio (x) = 0.10482 0.12212
# Poissons Ratio (y) = 0.22724 -0.10076
# Poissons Ratio (z) = 0.13690 -0.05211
#
# Static dielectric constant tensor:
#      x y z
#    x 1.932510 0.000000 0.000000 
#    y 0.000000 1.861450 0.000000 
#    z 0.000000 0.000000 1.977070 
# 
# From -- ./inp_files/2544.got.cif
#   From: 2010.05.17/outbox.cif.g08.bks.cpg/sg54_2_cif.got.tgz:2544.got - 2010.06.03 13:09:01.
