data_PCOD9424217
_publ_section_title
;
Structure prediction by ZEFSAII (Michael W. Deem and Ramdas Pophale) SiO2 
 PCOD9424217
Probable space group: P C C A
;
_chemical_formula_sum "Si O2"
_cell_formula_units_Z 40
_cell_length_a 22.026008
_cell_length_b 5.861231
_cell_length_c 14.004282
_cell_angle_alpha 90.000000
_cell_angle_beta 90.000000
_cell_angle_gamma 90.000000
_cell_volume 1807.946097
_symmetry_space_group_name_H-M "P C C A"
_symmetry_group_IT_number 54
_symmetry_cell_setting 'orthorhombic'
loop_
_space_group_symop_operation_xyz
x,y,z
1/2-x,-y,z
1/2+x,-y,1/2-z
-x,y,1/2-z
-x,-y,-z
1/2+x,y,-z
1/2-x,y,1/2+z
x,-y,1/2+z
loop_
_atom_site_type_symbol
_atom_site_label
_atom_site_fract_x
_atom_site_fract_y
_atom_site_fract_z
Si Si1 0.126037 0.116347 0.987671
Si Si2 0.080592 0.185164 0.649999
Si Si3 0.383803 0.836167 0.313126
Si Si4 0.033109 0.540611 0.399680
Si Si5 0.681101 0.423860 0.853688
O O1 0.090379 0.304758 0.927098
O O2 0.147818 0.937521 0.907876
O O3 0.171145 0.244041 0.059912
O O4 0.080394 0.983751 0.059098
O O5 0.135521 0.363043 0.632752
O O6 0.019170 0.325967 0.655504
O O7 0.093027 0.036062 0.743440
O O8 0.440376 0.681826 0.348063
O O9 0.339700 0.690266 0.245734
O O10 0.000000 0.500000 0.500000
O O11 0.750000 0.500000 0.850260
#
# Coordination Sequence:
#
# PCOD9424217 Si02
#       5
#     8   8   8   8   8
#     4  11  23  45  71 104 142 190 234 287 367 423
#     4  11  25  45  70 105 145 187 235 295 358 427
#     4  11  26  43  71 109 143 190 238 294 362 429
#     4  12  23  45  72 105 152 183 231 295 365 438
#     4  11  26  50  71 100 145 189 246 302 347 420
#
# _framework density 22.124555000000001
#
# number of rings (size 3 to 8) (size 9 to 14) (size 15 to 20)
#    0.000    0.800    4.000    1.800    0.000    8.000 
#    0.000   15.000    0.000    0.000    0.000    0.000 
#    0.000    0.000    0.000    0.000    0.000    0.000 
#
# Total GULP energy -223881.173839 kJ/mol
# GULP energy per Si atom -5597.029346 kJ/mol
# Density = 2.207420 g / cm^3
# Si number density = 22.124555 Si / 1000 Ang^3
#
#
#
# Elastic Constant Matrix: (Units=GPa)
#
#
# Indices 1 2 3 4 5 6 
#
# 1 112.9664 42.9613 53.2066 0.0000 0.0000 0.0000
# 2 42.9613 104.6091 65.0953 0.0000 0.0000 0.0000
# 3 53.2066 65.0953 136.6064 0.0000 0.0000 0.0000
# 4 0.0000 0.0000 0.0000 37.8634 0.0000 0.0000
# 5 0.0000 0.0000 0.0000 0.0000 10.1543 0.0000
# 6 0.0000 0.0000 0.0000 0.0000 0.0000 15.2928
#
#
#
# Elastic Compliance Matrix: (Units=1/GPa)
#
#
# Indices 1 2 3 4 5 6 
#
# 1 0.011360 -0.002718 -0.003129 0.000000 0.000000 0.000000
# 2 -0.002718 0.014239 -0.005727 0.000000 0.000000 0.000000
# 3 -0.003129 -0.005727 0.011268 0.000000 0.000000 0.000000
# 4 0.000000 0.000000 0.000000 0.026411 0.000000 0.000000
# 5 0.000000 0.000000 0.000000 0.000000 0.098481 0.000000
# 6 0.000000 0.000000 0.000000 0.000000 0.000000 0.065390
#
#
# Mechanical properties :
#
#
# Convention : Reuss Voigt Hill
#
# Bulk Modulus (GPa) = 72.89126 75.18982 74.04054
# Shear Modulus (GPa) = 19.61792 25.52334 22.57063
#
# Velocity S-wave (km/s) = 2.98099 3.40018 3.19746
# Velocity P-wave (km/s) = 6.69819 7.03374 6.86802
#
# Compressibility (1/GPa) = 0.01371907
#
# Stress axis : x y z
#
# Youngs Moduli (GPa) = 88.03021 70.22915 88.74740
#
# Poissons Ratio (x) = 0.19088 0.27772
# Poissons Ratio (y) = 0.23926 0.50822
# Poissons Ratio (z) = 0.27547 0.40217
#
# Static dielectric constant tensor:
#      x y z
#    x 2.190190 0.000000 0.000000 
#    y 0.000000 1.856460 0.000000 
#    z 0.000000 0.000000 1.868890 
# 
# From -- ./inp_files/14849.got.cif
#   From: 2010.05.17/outbox.cif.g08.bks.cpg/sg54_8_cif.got.tgz:14849.got - 2010.06.03 13:09:01.
