data_PCOD9424278
_publ_section_title
;
Structure prediction by ZEFSAII (Michael W. Deem and Ramdas Pophale) SiO2 
 PCOD9424278
Probable space group: P C C A
;
_chemical_formula_sum "Si O2"
_cell_formula_units_Z 56
_cell_length_a 14.677002
_cell_length_b 5.194060
_cell_length_c 31.453441
_cell_angle_alpha 90.000000
_cell_angle_beta 90.000000
_cell_angle_gamma 90.000000
_cell_volume 2397.797371
_symmetry_space_group_name_H-M "P C C A"
_symmetry_group_IT_number 54
_symmetry_cell_setting 'orthorhombic'
loop_
_space_group_symop_operation_xyz
x,y,z
1/2-x,-y,z
1/2+x,-y,1/2-z
-x,y,1/2-z
-x,-y,-z
1/2+x,y,-z
1/2-x,y,1/2+z
x,-y,1/2+z
loop_
_atom_site_type_symbol
_atom_site_label
_atom_site_fract_x
_atom_site_fract_y
_atom_site_fract_z
Si Si1 0.584627 0.431922 0.913118
Si Si2 0.951102 0.911480 0.543319
Si Si3 0.250000 0.000000 0.485646
Si Si4 0.343593 0.657994 0.797545
Si Si5 0.348974 0.122128 0.660310
Si Si6 0.750000 0.500000 0.461405
Si Si7 0.520553 0.193266 0.133915
Si Si8 0.602287 0.164177 0.749221
O O1 0.648759 0.236769 0.887311
O O2 0.660772 0.600271 0.936254
O O3 0.524981 0.533865 0.874411
O O4 0.508192 0.344257 0.945954
O O5 0.968607 0.075055 0.586615
O O6 0.841987 0.904356 0.537958
O O7 0.000000 0.000000 0.500000
O O8 0.281369 0.251400 0.512039
O O9 0.250000 0.500000 0.803901
O O10 0.387181 0.773005 0.840485
O O11 0.342810 0.910112 0.767164
O O12 0.402507 0.419311 0.779929
O O13 0.250000 0.000000 0.663800
O O14 0.441023 0.952243 0.659069
O O15 0.360511 0.264916 0.705403
O O16 0.500000 0.062284 0.750000
#
# Coordination Sequence:
#
# PCOD9424278 Si02
#       8
#     8   8   4   8   8   4   8   8
#     4  11  25  43  73 102 149 189 242 310 374 439
#     4  11  25  48  72 105 147 190 247 303 369 444
#     4  12  28  46  76 108 138 196 250 294 376 448
#     4  12  27  48  73 107 151 198 251 307 372 441
#     4  11  24  43  70 107 142 190 249 303 375 445
#     4  12  26  46  74 106 146 184 238 314 374 438
#     4  11  26  45  70 107 145 197 244 311 371 441
#     4  12  25  49  75 106 150 196 248 311 371 444
#
# _framework density 23.354766000000001
#
# number of rings (size 3 to 8) (size 9 to 14) (size 15 to 20)
#    0.000    0.571    2.857    4.286    9.000    2.286 
#    1.286    0.000    0.000    0.000    0.000    0.000 
#    0.000    0.000    0.000    0.000    0.000    0.000 
#
# Total GULP energy -312104.492997 kJ/mol
# GULP energy per Si atom -5573.294518 kJ/mol
# Density = 2.330161 g / cm^3
# Si number density = 23.354766 Si / 1000 Ang^3
#
#
#
# Elastic Constant Matrix: (Units=GPa)
#
#
# Indices 1 2 3 4 5 6 
#
# 1 147.7155 1.3031 34.5724 0.0000 0.0000 0.0000
# 2 1.3031 55.1706 9.9061 0.0000 0.0000 0.0000
# 3 34.5724 9.9061 91.4863 0.0000 0.0000 0.0000
# 4 0.0000 0.0000 0.0000 7.7999 0.0000 0.0000
# 5 0.0000 0.0000 0.0000 0.0000 35.6925 0.0000
# 6 0.0000 0.0000 0.0000 0.0000 0.0000 32.9279
#
#
#
# Elastic Compliance Matrix: (Units=1/GPa)
#
#
# Indices 1 2 3 4 5 6 
#
# 1 0.007433 0.000335 -0.002845 0.000000 0.000000 0.000000
# 2 0.000335 0.018500 -0.002130 0.000000 0.000000 0.000000
# 3 -0.002845 -0.002130 0.012236 0.000000 0.000000 0.000000
# 4 0.000000 0.000000 0.000000 0.128206 0.000000 0.000000
# 5 0.000000 0.000000 0.000000 0.000000 0.028017 0.000000
# 6 0.000000 0.000000 0.000000 0.000000 0.000000 0.030369
#
#
# Mechanical properties :
#
#
# Convention : Reuss Voigt Hill
#
# Bulk Modulus (GPa) = 34.61431 42.88173 38.74802
# Shear Modulus (GPa) = 20.51945 31.85680 26.18812
#
# Velocity S-wave (km/s) = 2.96733 3.69730 3.35224
# Velocity P-wave (km/s) = 5.15687 6.05207 5.62232
#
# Compressibility (1/GPa) = 0.02888978
#
# Stress axis : x y z
#
# Youngs Moduli (GPa) = 134.54066 54.05376 81.72351
#
# Poissons Ratio (x) = -0.01812 0.23251
# Poissons Ratio (y) = -0.04511 0.17406
# Poissons Ratio (z) = 0.38278 0.11513
#
# Static dielectric constant tensor:
#      x y z
#    x 2.009210 0.000000 0.000000 
#    y 0.000000 2.006340 0.000000 
#    z 0.000000 0.000000 1.970350 
# 
# From -- ./inp_files/28262.got.cif
#   From: 2010.05.17/outbox.cif.g08.bks.cpg/sg54_15_cif.got.tgz:28262.got - 2010.06.03 13:09:01.
