data_PCOD9424543
_publ_section_title
;
Structure prediction by ZEFSAII (Michael W. Deem and Ramdas Pophale) SiO2 
 PCOD9424543
Probable space group: P C C A
;
_chemical_formula_sum "Si O2"
_cell_formula_units_Z 28
_cell_length_a 8.179779
_cell_length_b 8.743428
_cell_length_c 13.947485
_cell_angle_alpha 90.000000
_cell_angle_beta 90.000000
_cell_angle_gamma 90.000000
_cell_volume 997.514486
_symmetry_space_group_name_H-M "P C C A"
_symmetry_group_IT_number 54
_symmetry_cell_setting 'orthorhombic'
loop_
_space_group_symop_operation_xyz
x,y,z
1/2-x,-y,z
1/2+x,-y,1/2-z
-x,y,1/2-z
-x,-y,-z
1/2+x,y,-z
1/2-x,y,1/2+z
x,-y,1/2+z
loop_
_atom_site_type_symbol
_atom_site_label
_atom_site_fract_x
_atom_site_fract_y
_atom_site_fract_z
Si Si1 0.503011 0.817121 0.556537
Si Si2 0.250000 0.000000 0.188560
Si Si3 0.443603 0.476842 0.152444
Si Si4 0.133074 0.797018 0.860484
O O1 0.466740 0.635885 0.564077
O O2 0.480260 0.863249 0.445874
O O3 0.370836 0.895113 0.626194
O O4 0.688243 0.820332 0.592452
O O5 0.157873 0.117168 0.260033
O O6 0.250000 0.500000 0.159596
O O7 0.500000 0.391411 0.250000
O O8 0.560533 0.626304 0.151863
#
# Coordination Sequence:
#
# PCOD9424543 Si02
#       4
#     8   4   8   8
#     4  12  27  49  77 115 160 213 272 336 408 487
#     4  12  28  50  82 120 166 218 270 338 418 496
#     4  12  25  47  79 114 159 214 273 334 402 485
#     4  12  28  49  78 115 161 213 272 335 405 488
#
# _framework density 28.069768
#
# number of rings (size 3 to 8) (size 9 to 14) (size 15 to 20)
#    0.000    0.000    0.000   10.286    0.000   13.714 
#    0.000    0.000    0.000    0.000    0.000    0.000 
#    0.000    0.000    0.000    0.000    0.000    0.000 
#
# Total GULP energy -157172.297612 kJ/mol
# GULP energy per Si atom -5613.296343 kJ/mol
# Density = 2.800588 g / cm^3
# Si number density = 28.069768 Si / 1000 Ang^3
#
#
#
# Elastic Constant Matrix: (Units=GPa)
#
#
# Indices 1 2 3 4 5 6 
#
# 1 172.0772 89.8947 14.8937 0.0000 0.0000 0.0000
# 2 89.8947 182.1240 87.9803 0.0000 0.0000 0.0000
# 3 14.8937 87.9803 167.0925 0.0000 0.0000 0.0000
# 4 0.0000 0.0000 0.0000 68.9590 0.0000 0.0000
# 5 0.0000 0.0000 0.0000 0.0000 47.0903 0.0000
# 6 0.0000 0.0000 0.0000 0.0000 0.0000 42.6720
#
#
#
# Elastic Compliance Matrix: (Units=1/GPa)
#
#
# Indices 1 2 3 4 5 6 
#
# 1 0.008253 -0.004986 0.001890 0.000000 0.000000 0.000000
# 2 -0.004986 0.010377 -0.005019 0.000000 0.000000 0.000000
# 3 0.001890 -0.005019 0.008459 0.000000 0.000000 0.000000
# 4 0.000000 0.000000 0.000000 0.014501 0.000000 0.000000
# 5 0.000000 0.000000 0.000000 0.000000 0.021236 0.000000
# 6 0.000000 0.000000 0.000000 0.000000 0.000000 0.023435
#
#
# Mechanical properties :
#
#
# Convention : Reuss Voigt Hill
#
# Bulk Modulus (GPa) = 92.10652 100.75901 96.43276
# Shear Modulus (GPa) = 47.12052 53.64593 50.38323
#
# Velocity S-wave (km/s) = 4.10163 4.37643 4.24126
# Velocity P-wave (km/s) = 7.43746 7.84292 7.64288
#
# Compressibility (1/GPa) = 0.01085700
#
# Stress axis : x y z
#
# Youngs Moduli (GPa) = 121.17176 96.36931 118.21618
#
# Poissons Ratio (x) = 0.48054 -0.22342
# Poissons Ratio (y) = 0.60422 0.59336
# Poissons Ratio (z) = -0.22901 0.48370
#
# Static dielectric constant tensor:
#      x y z
#    x 2.216680 0.000000 0.000000 
#    y 0.000000 2.300880 0.000000 
#    z 0.000000 0.000000 2.151190 
# 
# From -- ./inp_files/12116.got.cif
#   From: 2010.05.17/outbox.cif.g08.bks.cpg/sg54_7_cif.got.tgz:12116.got - 2010.06.03 13:09:01.
