data_PCOD9424483
_publ_section_title
;
Structure prediction by ZEFSAII (Michael W. Deem and Ramdas Pophale) SiO2 
 PCOD9424483
Probable space group: P C C A
;
_chemical_formula_sum "Si O2"
_cell_formula_units_Z 40
_cell_length_a 19.387486
_cell_length_b 4.866203
_cell_length_c 18.692030
_cell_angle_alpha 90.000000
_cell_angle_beta 90.000000
_cell_angle_gamma 90.000000
_cell_volume 1763.470458
_symmetry_space_group_name_H-M "P C C A"
_symmetry_group_IT_number 54
_symmetry_cell_setting 'orthorhombic'
loop_
_space_group_symop_operation_xyz
x,y,z
1/2-x,-y,z
1/2+x,-y,1/2-z
-x,y,1/2-z
-x,-y,-z
1/2+x,y,-z
1/2-x,y,1/2+z
x,-y,1/2+z
loop_
_atom_site_type_symbol
_atom_site_label
_atom_site_fract_x
_atom_site_fract_y
_atom_site_fract_z
Si Si1 0.324985 0.877903 0.314510
Si Si2 0.119660 0.001969 0.659010
Si Si3 0.702616 0.242787 0.973118
Si Si4 0.026742 0.492798 0.169099
Si Si5 0.114930 0.634177 0.391111
O O1 0.340049 0.926972 0.231307
O O2 0.339624 0.570220 0.341042
O O3 0.250000 0.000000 0.329974
O O4 0.378466 0.064070 0.358107
O O5 0.164333 0.904566 0.592169
O O6 0.050908 0.818579 0.662307
O O7 0.093166 0.313897 0.656195
O O8 0.750000 0.500000 0.950693
O O9 0.750000 0.000000 0.006206
O O10 0.648398 0.355940 0.030916
O O11 0.000000 0.544065 0.250000
O O12 0.964258 0.549042 0.115391
#
# Coordination Sequence:
#
# PCOD9424483 Si02
#       5
#     8   8   8   8   8
#     4  12  23  40  66  99 128 176 230 272 330 402
#     4  12  25  43  71  98 136 180 221 283 342 394
#     4  12  27  48  66  98 141 178 223 283 338 404
#     4  12  23  44  70 104 137 172 228 287 331 402
#     4  12  25  42  70  96 137 178 221 279 337 395
#
# _framework density 22.682545999999999
#
# number of rings (size 3 to 8) (size 9 to 14) (size 15 to 20)
#    0.000    0.000    4.000    7.200    0.000    3.200 
#    0.000    0.000    0.000    0.000    0.000    0.000 
#    0.000    0.000    0.000    0.000    0.000    0.000 
#
# Total GULP energy -224139.486120 kJ/mol
# GULP energy per Si atom -5603.487153 kJ/mol
# Density = 2.263092 g / cm^3
# Si number density = 22.682546 Si / 1000 Ang^3
#
#
#
# Elastic Constant Matrix: (Units=GPa)
#
#
# Indices 1 2 3 4 5 6 
#
# 1 61.0817 1.0809 25.7190 0.0000 0.0000 0.0000
# 2 1.0809 66.0834 -21.5878 0.0000 0.0000 0.0000
# 3 25.7190 -21.5878 93.1684 0.0000 0.0000 0.0000
# 4 0.0000 0.0000 0.0000 -121.7820 0.0000 0.0000
# 5 0.0000 0.0000 0.0000 0.0000 16.0636 0.0000
# 6 0.0000 0.0000 0.0000 0.0000 0.0000 39.1721
#
#
#
# Elastic Compliance Matrix: (Units=1/GPa)
#
#
# Indices 1 2 3 4 5 6 
#
# 1 0.018807 -0.002168 -0.005694 0.000000 0.000000 0.000000
# 2 -0.002168 0.016621 0.004450 0.000000 0.000000 0.000000
# 3 -0.005694 0.004450 0.013336 0.000000 0.000000 0.000000
# 4 0.000000 0.000000 0.000000 -0.008211 0.000000 0.000000
# 5 0.000000 0.000000 0.000000 0.000000 0.062253 0.000000
# 6 0.000000 0.000000 0.000000 0.000000 0.000000 0.025528
#
#
# Mechanical properties :
#
#
# Convention : Reuss Voigt Hill
#
# Bulk Modulus (GPa) = 23.84309 25.63974 24.74141
# Shear Modulus (GPa) = 33.52577 1.03216 17.27896
#
# Velocity S-wave (km/s) = 3.84870 0.67530 2.76302
# Velocity P-wave (km/s) = 5.50313 3.45490 4.59461
#
# Compressibility (1/GPa) = 0.04194088
#
# Stress axis : x y z
#
# Youngs Moduli (GPa) = 53.17056 60.16323 74.98433
#
# Poissons Ratio (x) = 0.13042 0.42696
# Poissons Ratio (y) = 0.11526 -0.33366
# Poissons Ratio (z) = 0.30275 -0.26771
#
# Static dielectric constant tensor:
#      x y z
#    x 1.835960 0.000000 0.000000 
#    y 0.000000 1.793420 0.000000 
#    z 0.000000 0.000000 1.823460 
# 
# From -- ./inp_files/18342.got.cif
#   From: 2010.05.17/outbox.cif.g08.bks.cpg/sg54_10_cif.got.tgz:18342.got - 2010.06.03 13:09:01.
