data_PCOD9424553
_publ_section_title
;
Structure prediction by ZEFSAII (Michael W. Deem and Ramdas Pophale) SiO2 
 PCOD9424553
Probable space group: P C C A
;
_chemical_formula_sum "Si O2"
_cell_formula_units_Z 32
_cell_length_a 9.472144
_cell_length_b 16.124163
_cell_length_c 9.260876
_cell_angle_alpha 90.000000
_cell_angle_beta 90.000000
_cell_angle_gamma 90.000000
_cell_volume 1414.417239
_symmetry_space_group_name_H-M "P C C A"
_symmetry_group_IT_number 54
_symmetry_cell_setting 'orthorhombic'
loop_
_space_group_symop_operation_xyz
x,y,z
1/2-x,-y,z
1/2+x,-y,1/2-z
-x,y,1/2-z
-x,-y,-z
1/2+x,y,-z
1/2-x,y,1/2+z
x,-y,1/2+z
loop_
_atom_site_type_symbol
_atom_site_label
_atom_site_fract_x
_atom_site_fract_y
_atom_site_fract_z
Si Si1 0.741917 0.692158 0.986530
Si Si2 0.098706 0.950795 0.609337
Si Si3 0.159110 0.419312 0.269317
Si Si4 0.975981 0.199067 0.587569
O O1 0.804753 0.656748 0.838400
O O2 0.624421 0.763626 0.965575
O O3 0.675761 0.615102 0.069789
O O4 0.867754 0.724990 0.088075
O O5 0.100310 0.862906 0.525563
O O6 0.000000 0.941790 0.750000
O O7 0.250000 0.000000 0.629733
O O8 0.000000 0.000000 0.500000
O O9 0.250000 0.500000 0.241955
O O10 0.000000 0.444573 0.250000
O O11 0.000000 0.164046 0.750000
#
# Coordination Sequence:
#
# PCOD9424553 Si02
#       4
#     8   8   8   8
#     4  12  26  46  73 110 149 195 259 311 378 443
#     4  12  28  50  79 117 157 200 252 312 389 469
#     4  12  28  46  73 108 152 202 255 315 378 450
#     4  12  27  48  78 110 148 198 248 315 373 451
#
# _framework density 22.624158000000001
#
# number of rings (size 3 to 8) (size 9 to 14) (size 15 to 20)
#    0.000    0.000    5.000    3.750    7.000    6.000 
#    0.000    1.250    0.000    0.000    0.000    0.000 
#    0.000    0.000    0.000    0.000    0.000    0.000 
#
# Total GULP energy -178815.966523 kJ/mol
# GULP energy per Si atom -5587.998954 kJ/mol
# Density = 2.257266 g / cm^3
# Si number density = 22.624158 Si / 1000 Ang^3
#
#
#
# Elastic Constant Matrix: (Units=GPa)
#
#
# Indices 1 2 3 4 5 6 
#
# 1 192.4360 50.3512 42.1657 0.0000 0.0000 0.0000
# 2 50.3512 75.9761 17.8345 0.0000 0.0000 0.0000
# 3 42.1657 17.8345 125.3496 0.0000 0.0000 0.0000
# 4 0.0000 0.0000 0.0000 32.5679 0.0000 0.0000
# 5 0.0000 0.0000 0.0000 0.0000 39.6566 0.0000
# 6 0.0000 0.0000 0.0000 0.0000 0.0000 40.3896
#
#
#
# Elastic Compliance Matrix: (Units=1/GPa)
#
#
# Indices 1 2 3 4 5 6 
#
# 1 0.006602 -0.003987 -0.001654 0.000000 0.000000 0.000000
# 2 -0.003987 0.016025 -0.000939 0.000000 0.000000 0.000000
# 3 -0.001654 -0.000939 0.008667 0.000000 0.000000 0.000000
# 4 0.000000 0.000000 0.000000 0.030705 0.000000 0.000000
# 5 0.000000 0.000000 0.000000 0.000000 0.025216 0.000000
# 6 0.000000 0.000000 0.000000 0.000000 0.000000 0.024759
#
#
# Mechanical properties :
#
#
# Convention : Reuss Voigt Hill
#
# Bulk Modulus (GPa) = 55.14085 68.27382 61.70733
# Shear Modulus (GPa) = 38.11586 41.41685 39.76635
#
# Velocity S-wave (km/s) = 4.10901 4.28325 4.19703
# Velocity P-wave (km/s) = 6.85109 7.39625 7.12888
#
# Compressibility (1/GPa) = 0.01813538
#
# Stress axis : x y z
#
# Youngs Moduli (GPa) = 151.46655 62.40324 115.37382
#
# Poissons Ratio (x) = 0.24882 0.19078
# Poissons Ratio (y) = 0.60393 0.10831
# Poissons Ratio (z) = 0.25046 0.05858
#
# Static dielectric constant tensor:
#      x y z
#    x 1.398680 0.000000 0.000000 
#    y 0.000000 2.032080 0.000000 
#    z 0.000000 0.000000 1.974610 
# 
# From -- ./inp_files/2857.got.cif
#   From: 2010.05.17/outbox.cif.g08.bks.cpg/sg54_2_cif.got.tgz:2857.got - 2010.06.03 13:09:01.
