data_PCOD9424146
_publ_section_title
;
Structure prediction by ZEFSAII (Michael W. Deem and Ramdas Pophale) SiO2 
 PCOD9424146
Probable space group: P C C A
;
_chemical_formula_sum "Si O2"
_cell_formula_units_Z 44
_cell_length_a 22.092827
_cell_length_b 8.660746
_cell_length_c 10.776180
_cell_angle_alpha 90.000000
_cell_angle_beta 90.000000
_cell_angle_gamma 90.000000
_cell_volume 2061.918194
_symmetry_space_group_name_H-M "P C C A"
_symmetry_group_IT_number 54
_symmetry_cell_setting 'orthorhombic'
loop_
_space_group_symop_operation_xyz
x,y,z
1/2-x,-y,z
1/2+x,-y,1/2-z
-x,y,1/2-z
-x,-y,-z
1/2+x,y,-z
1/2-x,y,1/2+z
x,-y,1/2+z
loop_
_atom_site_type_symbol
_atom_site_label
_atom_site_fract_x
_atom_site_fract_y
_atom_site_fract_z
Si Si1 0.770350 0.321783 0.183232
Si Si2 0.212522 0.338622 0.581862
Si Si3 0.462396 0.037924 0.625974
Si Si4 0.500000 0.589180 0.750000
Si Si5 0.580588 0.254649 0.446991
Si Si6 0.911081 0.312423 0.229326
O O1 0.750000 0.500000 0.165826
O O2 0.728606 0.254489 0.290507
O O3 0.839097 0.320690 0.231081
O O4 0.768597 0.254155 0.045106
O O5 0.250000 0.500000 0.587081
O O6 0.140250 0.359253 0.571761
O O7 0.500000 0.997843 0.750000
O O8 0.408334 0.913967 0.611279
O O9 0.500000 0.000000 0.500000
O O10 0.563212 0.207586 0.841248
O O11 0.477283 0.681230 0.628625
O O12 0.443429 0.477267 0.775564
O O13 0.571907 0.241523 0.594659
#
# Coordination Sequence:
#
# PCOD9424146 Si02
#       6
#     8   8   8   4   8   8
#     4   9  18  36  59  86 122 160 200 259 317 376
#     4   9  18  36  57  85 120 156 202 258 317 377
#     4  12  23  45  64  88 133 176 215 265 320 388
#     4  12  20  34  60  98 126 164 212 262 338 400
#     4  11  23  38  63  93 128 170 215 268 332 391
#     4  11  23  40  63  94 132 170 215 272 327 387
#
# _framework density 21.339352999999999
#
# number of rings (size 3 to 8) (size 9 to 14) (size 15 to 20)
#    0.000    1.455    3.636    2.727    0.000    0.000 
#    3.273    0.909    0.000    4.364    0.000    0.000 
#    0.000    0.000    0.000    0.000    0.000    0.000 
#
# Total GULP energy -245046.067562 kJ/mol
# GULP energy per Si atom -5569.228808 kJ/mol
# Density = 2.129078 g / cm^3
# Si number density = 21.339353 Si / 1000 Ang^3
#
#
#
# Elastic Constant Matrix: (Units=GPa)
#
#
# Indices 1 2 3 4 5 6 
#
# 1 52.7828 23.5279 26.3154 0.0000 0.0000 0.0000
# 2 23.5279 49.3036 18.1341 0.0000 0.0000 0.0000
# 3 26.3154 18.1341 160.1775 0.0000 0.0000 0.0000
# 4 0.0000 0.0000 0.0000 19.7455 0.0000 0.0000
# 5 0.0000 0.0000 0.0000 0.0000 39.1664 0.0000
# 6 0.0000 0.0000 0.0000 0.0000 0.0000 19.8364
#
#
#
# Elastic Compliance Matrix: (Units=1/GPa)
#
#
# Indices 1 2 3 4 5 6 
#
# 1 0.025302 -0.011003 -0.002911 0.000000 0.000000 0.000000
# 2 -0.011003 0.025949 -0.001130 0.000000 0.000000 0.000000
# 3 -0.002911 -0.001130 0.006849 0.000000 0.000000 0.000000
# 4 0.000000 0.000000 0.000000 0.050644 0.000000 0.000000
# 5 0.000000 0.000000 0.000000 0.000000 0.025532 0.000000
# 6 0.000000 0.000000 0.000000 0.000000 0.000000 0.050412
#
#
# Mechanical properties :
#
#
# Convention : Reuss Voigt Hill
#
# Bulk Modulus (GPa) = 35.70025 44.24652 39.97339
# Shear Modulus (GPa) = 22.31000 28.70209 25.50605
#
# Velocity S-wave (km/s) = 3.23691 3.67144 3.46100
# Velocity P-wave (km/s) = 5.54402 6.22514 5.89443
#
# Compressibility (1/GPa) = 0.02801101
#
# Stress axis : x y z
#
# Youngs Moduli (GPa) = 39.52315 38.53714 146.00120
#
# Poissons Ratio (x) = 0.42404 0.42502
# Poissons Ratio (y) = 0.43489 0.16498
# Poissons Ratio (z) = 0.11505 0.04355
#
# Static dielectric constant tensor:
#      x y z
#    x 1.811940 0.000000 0.000000 
#    y 0.000000 1.858350 0.000000 
#    z 0.000000 0.000000 1.841960 
# 
# From -- ./inp_files/9827.got.cif
#   From: 2010.05.17/outbox.cif.g08.bks.cpg/sg54_5_cif.got.tgz:9827.got - 2010.06.03 13:09:01.
