data_PCOD9424988
_publ_section_title
;
Structure prediction by ZEFSAII (Michael W. Deem and Ramdas Pophale) SiO2 
 PCOD9424988
Probable space group: P B A M
;
_chemical_formula_sum "Si O2"
_cell_formula_units_Z 56
_cell_length_a 19.553867
_cell_length_b 18.267399
_cell_length_c 9.000630
_cell_angle_alpha 90.000000
_cell_angle_beta 90.000000
_cell_angle_gamma 90.000000
_cell_volume 3215.009649
_symmetry_space_group_name_H-M "P B A M"
_symmetry_group_IT_number 55
_symmetry_cell_setting 'orthorhombic'
loop_
_space_group_symop_operation_xyz
x,y,z
-x,-y,z
1/2+x,1/2-y,-z
1/2-x,1/2+y,-z
-x,-y,-z
x,y,-z
1/2-x,1/2+y,z
1/2+x,1/2-y,z
loop_
_atom_site_type_symbol
_atom_site_label
_atom_site_fract_x
_atom_site_fract_y
_atom_site_fract_z
Si Si1 0.724654 0.576338 0.671011
Si Si2 0.577879 0.019748 0.679531
Si Si3 0.655217 0.151320 0.825211
Si Si4 0.930547 0.074635 0.674584
Si Si5 0.808126 0.813893 0.177502
Si Si6 0.707643 0.922225 0.673682
Si Si7 0.562064 0.415758 0.823778
O O1 0.745728 0.594266 0.500000
O O2 0.772872 0.612490 0.791420
O O3 0.646968 0.600688 0.691522
O O4 0.737803 0.489259 0.684974
O O5 0.581508 0.023292 0.500000
O O6 0.601077 0.098238 0.744312
O O7 0.500000 0.000000 0.721513
O O8 0.635576 0.959041 0.725679
O O9 0.668321 0.233726 0.769004
O O10 0.639448 0.153717 0.000000
O O11 0.946665 0.073443 0.500000
O O12 0.990326 0.115559 0.762856
O O13 0.929154 0.992472 0.739641
O O14 0.741176 0.852650 0.245910
O O15 0.873145 0.865632 0.206237
O O16 0.797806 0.809038 0.000000
O O17 0.699365 0.904437 0.500000
O O18 0.557294 0.428287 0.000000
#
# Coordination Sequence:
#
# PCOD9424988 Si02
#       7
#     8   8   8   8   8   8   8
#     4   9  18  33  51  74 101 130 168 214 257 303
#     4   9  19  38  60  82 107 136 176 226 273 320
#     4  10  21  35  53  77 105 137 175 216 262 314
#     4  10  18  30  48  72 100 127 166 212 249 293
#     4  10  21  35  49  73 108 141 172 212 260 314
#     4   9  17  31  54  79 100 131 172 213 260 311
#     4  10  19  30  46  70 102 137 169 201 247 300
#
# _framework density 17.418299999999999
#
# number of rings (size 3 to 8) (size 9 to 14) (size 15 to 20)
#    0.000    2.429    1.429    3.000    0.000    5.429 
#    0.000    1.429    0.000    6.857    0.000    0.000 
#    0.000    0.000    0.000    0.000    0.000    0.000 
#
# Total GULP energy -311773.889051 kJ/mol
# GULP energy per Si atom -5567.390876 kJ/mol
# Density = 1.737865 g / cm^3
# Si number density = 17.418300 Si / 1000 Ang^3
#
#
#
# Elastic Constant Matrix: (Units=GPa)
#
#
# Indices 1 2 3 4 5 6 
#
# 1 112.6889 39.3011 26.9442 0.0000 0.0000 0.0000
# 2 39.3011 87.7349 30.0970 0.0000 0.0000 0.0000
# 3 26.9442 30.0970 28.2433 0.0000 0.0000 0.0000
# 4 0.0000 0.0000 0.0000 24.0013 0.0000 0.0000
# 5 0.0000 0.0000 0.0000 0.0000 20.0546 0.0000
# 6 0.0000 0.0000 0.0000 0.0000 0.0000 12.4834
#
#
#
# Elastic Compliance Matrix: (Units=1/GPa)
#
#
# Indices 1 2 3 4 5 6 
#
# 1 0.011769 -0.002239 -0.008842 0.000000 0.000000 0.000000
# 2 -0.002239 0.018391 -0.017463 0.000000 0.000000 0.000000
# 3 -0.008842 -0.017463 0.062450 0.000000 0.000000 0.000000
# 4 0.000000 0.000000 0.000000 0.041664 0.000000 0.000000
# 5 0.000000 0.000000 0.000000 0.000000 0.049864 0.000000
# 6 0.000000 0.000000 0.000000 0.000000 0.000000 0.080106
#
#
# Mechanical properties :
#
#
# Convention : Reuss Voigt Hill
#
# Bulk Modulus (GPa) = 28.14981 46.81686 37.48334
# Shear Modulus (GPa) = 15.00722 20.12950 17.56836
#
# Velocity S-wave (km/s) = 2.93845 3.40318 3.17932
# Velocity P-wave (km/s) = 5.26391 6.50988 5.91977
#
# Compressibility (1/GPa) = 0.03552421
#
# Stress axis : x y z
#
# Youngs Moduli (GPa) = 84.96984 54.37362 16.01270
#
# Poissons Ratio (x) = 0.12173 0.14158
# Poissons Ratio (y) = 0.19023 0.27962
# Poissons Ratio (z) = 0.75129 0.94950
#
# Static dielectric constant tensor:
#      x y z
#    x 1.630780 0.000000 0.000000 
#    y 0.000000 1.597550 0.000000 
#    z 0.000000 0.000000 1.591530 
# 
# From -- ./inp_files/7836.got.cif
#   From: 2010.05.17/outbox.cif.g08.bks.cpg/sg55_4_cif.got.tgz:7836.got - 2010.06.03 13:27:54.
