data_PCOD9424573
_publ_section_title
;
Structure prediction by ZEFSAII (Michael W. Deem and Ramdas Pophale) SiO2 
 PCOD9424573
Probable space group: P C C A
;
_chemical_formula_sum "Si O2"
_cell_formula_units_Z 24
_cell_length_a 7.556817
_cell_length_b 5.433783
_cell_length_c 24.277509
_cell_angle_alpha 90.000000
_cell_angle_beta 90.000000
_cell_angle_gamma 90.000000
_cell_volume 996.885593
_symmetry_space_group_name_H-M "P C C A"
_symmetry_group_IT_number 54
_symmetry_cell_setting 'orthorhombic'
loop_
_space_group_symop_operation_xyz
x,y,z
1/2-x,-y,z
1/2+x,-y,1/2-z
-x,y,1/2-z
-x,-y,-z
1/2+x,y,-z
1/2-x,y,1/2+z
x,-y,1/2+z
loop_
_atom_site_type_symbol
_atom_site_label
_atom_site_fract_x
_atom_site_fract_y
_atom_site_fract_z
Si Si1 0.993242 0.250868 0.964703
Si Si2 0.567387 0.154326 0.688617
Si Si3 0.750000 0.000000 0.887286
Si Si4 0.250000 0.500000 0.887850
O O1 0.164166 0.288477 0.925456
O O2 0.816408 0.216975 0.927954
O O3 0.000000 0.500000 0.000000
O O4 0.000000 0.000000 0.000000
O O5 0.500000 0.202360 0.750000
O O6 0.415512 0.029147 0.652861
O O7 0.603591 0.396902 0.653100
O O8 0.750000 0.000000 0.691062
#
# Coordination Sequence:
#
# PCOD9424573 Si02
#       4
#     8   8   4   4
#     4  12  27  49  80 124 165 221 277 337 413 498
#     4  12  27  52  81 120 160 212 278 349 419 499
#     4  12  26  50  86 112 168 218 268 342 422 486
#     4  12  28  48  78 120 170 204 286 342 408 506
#
# _framework density 24.074978000000002
#
# number of rings (size 3 to 8) (size 9 to 14) (size 15 to 20)
#    0.000    0.000    5.000    4.000    0.000    8.000 
#    0.000    0.000    0.000    0.000    0.000    0.000 
#    0.000    0.000    0.000    0.000    0.000    0.000 
#
# Total GULP energy -134371.409093 kJ/mol
# GULP energy per Si atom -5598.808712 kJ/mol
# Density = 2.402018 g / cm^3
# Si number density = 24.074978 Si / 1000 Ang^3
#
#
#
# Elastic Constant Matrix: (Units=GPa)
#
#
# Indices 1 2 3 4 5 6 
#
# 1 147.8687 54.7058 80.8123 0.0000 0.0000 0.0000
# 2 54.7058 150.6668 106.3118 0.0000 0.0000 0.0000
# 3 80.8123 106.3118 203.5654 0.0000 0.0000 0.0000
# 4 0.0000 0.0000 0.0000 43.4090 0.0000 0.0000
# 5 0.0000 0.0000 0.0000 0.0000 82.5537 0.0000
# 6 0.0000 0.0000 0.0000 0.0000 0.0000 43.0010
#
#
#
# Elastic Compliance Matrix: (Units=1/GPa)
#
#
# Indices 1 2 3 4 5 6 
#
# 1 0.008761 -0.001151 -0.002877 0.000000 0.000000 0.000000
# 2 -0.001151 0.010661 -0.005111 0.000000 0.000000 0.000000
# 3 -0.002877 -0.005111 0.008724 0.000000 0.000000 0.000000
# 4 0.000000 0.000000 0.000000 0.023037 0.000000 0.000000
# 5 0.000000 0.000000 0.000000 0.000000 0.012113 0.000000
# 6 0.000000 0.000000 0.000000 0.000000 0.000000 0.023255
#
#
# Mechanical properties :
#
#
# Convention : Reuss Voigt Hill
#
# Bulk Modulus (GPa) = 101.33484 109.52897 105.43190
# Shear Modulus (GPa) = 46.24565 51.14412 48.69489
#
# Velocity S-wave (km/s) = 4.38756 4.61409 4.50225
# Velocity P-wave (km/s) = 8.23713 8.60117 8.42112
#
# Compressibility (1/GPa) = 0.00986827
#
# Stress axis : x y z
#
# Youngs Moduli (GPa) = 114.14477 93.79567 114.63106
#
# Poissons Ratio (x) = 0.10797 0.32976
# Poissons Ratio (y) = 0.13140 0.58588
# Poissons Ratio (z) = 0.32836 0.47939
#
# Static dielectric constant tensor:
#      x y z
#    x 1.927860 0.000000 0.000000 
#    y 0.000000 1.906620 0.000000 
#    z 0.000000 0.000000 1.918670 
# 
# From -- ./inp_files/23097.got.cif
#   From: 2010.05.17/outbox.cif.g08.bks.cpg/sg54_12_cif.got.tgz:23097.got - 2010.06.03 13:09:01.
