data_PCOD9424159
_publ_section_title
;
Structure prediction by ZEFSAII (Michael W. Deem and Ramdas Pophale) SiO2 
 PCOD9424159
Probable space group: P C C A
;
_chemical_formula_sum "Si O2"
_cell_formula_units_Z 24
_cell_length_a 16.670193
_cell_length_b 4.983018
_cell_length_c 13.568152
_cell_angle_alpha 90.000000
_cell_angle_beta 90.000000
_cell_angle_gamma 90.000000
_cell_volume 1127.077511
_symmetry_space_group_name_H-M "P C C A"
_symmetry_group_IT_number 54
_symmetry_cell_setting 'orthorhombic'
loop_
_space_group_symop_operation_xyz
x,y,z
1/2-x,-y,z
1/2+x,-y,1/2-z
-x,y,1/2-z
-x,-y,-z
1/2+x,y,-z
1/2-x,y,1/2+z
x,-y,1/2+z
loop_
_atom_site_type_symbol
_atom_site_label
_atom_site_fract_x
_atom_site_fract_y
_atom_site_fract_z
Si Si1 0.694005 0.251000 0.093461
Si Si2 0.592480 0.549778 0.779075
Si Si3 0.345904 0.039734 0.609562
O O1 0.750000 0.500000 0.060282
O O2 0.642800 0.349742 0.185242
O O3 0.750000 0.000000 0.122413
O O4 0.642173 0.147784 0.001176
O O5 0.500000 0.538393 0.750000
O O6 0.623925 0.263071 0.814705
O O7 0.610120 0.763610 0.865455
O O8 0.250000 0.000000 0.619092
#
# Coordination Sequence:
#
# PCOD9424159 Si02
#       3
#     8   8   8
#     4  11  23  40  65  91 118 163 215 255 298 361
#     4  12  25  40  63  95 130 162 197 255 318 367
#     4  11  23  42  65  89 121 164 212 254 298 363
#
# _framework density 21.294011000000001
#
# number of rings (size 3 to 8) (size 9 to 14) (size 15 to 20)
#    0.000    0.667    0.000   11.000    0.000    2.667 
#    0.000    0.000    0.000    0.000    0.000    0.000 
#    0.000    0.000    0.000    0.000    0.000    0.000 
#
# Total GULP energy -134467.474879 kJ/mol
# GULP energy per Si atom -5602.811453 kJ/mol
# Density = 2.124555 g / cm^3
# Si number density = 21.294011 Si / 1000 Ang^3
#
#
#
# Elastic Constant Matrix: (Units=GPa)
#
#
# Indices 1 2 3 4 5 6 
#
# 1 39.5671 5.4407 -0.7904 0.0000 0.0000 0.0000
# 2 5.4407 89.5622 -30.8543 0.0000 0.0000 0.0000
# 3 -0.7904 -30.8543 48.2756 0.0000 0.0000 0.0000
# 4 0.0000 0.0000 0.0000 4.2418 0.0000 0.0000
# 5 0.0000 0.0000 0.0000 0.0000 -9.4890 0.0000
# 6 0.0000 0.0000 0.0000 0.0000 0.0000 12.0262
#
#
#
# Elastic Compliance Matrix: (Units=1/GPa)
#
#
# Indices 1 2 3 4 5 6 
#
# 1 0.025507 -0.001802 -0.000734 0.000000 0.000000 0.000000
# 2 -0.001802 0.014445 0.009203 0.000000 0.000000 0.000000
# 3 -0.000734 0.009203 0.026584 0.000000 0.000000 0.000000
# 4 0.000000 0.000000 0.000000 0.235746 0.000000 0.000000
# 5 0.000000 0.000000 0.000000 0.000000 -0.105385 0.000000
# 6 0.000000 0.000000 0.000000 0.000000 0.000000 0.083151
#
#
# Mechanical properties :
#
#
# Convention : Reuss Voigt Hill
#
# Bulk Modulus (GPa) = 12.52062 13.88856 13.20459
# Shear Modulus (GPa) = 17.04509 14.92975 15.98742
#
# Velocity S-wave (km/s) = 2.83232 2.65075 2.74304
# Velocity P-wave (km/s) = 4.07292 3.98811 4.03074
#
# Compressibility (1/GPa) = 0.07986822
#
# Stress axis : x y z
#
# Youngs Moduli (GPa) = 39.20533 69.22655 37.61635
#
# Poissons Ratio (x) = 0.12478 0.02763
# Poissons Ratio (y) = 0.07067 -0.34618
# Poissons Ratio (z) = 0.02879 -0.63708
#
# Static dielectric constant tensor:
#      x y z
#    x 1.721550 0.000000 0.000000 
#    y 0.000000 1.763660 0.000000 
#    z 0.000000 0.000000 1.793950 
# 
# From -- ./inp_files/16901.got.cif
#   From: 2010.05.17/outbox.cif.g08.bks.cpg/sg54_9_cif.got.tgz:16901.got - 2010.06.03 13:09:01.
