data_PCOD9424138
_publ_section_title
;
Structure prediction by ZEFSAII (Michael W. Deem and Ramdas Pophale) SiO2 
 PCOD9424138
Probable space group: P C C A
;
_chemical_formula_sum "Si O2"
_cell_formula_units_Z 60
_cell_length_a 17.186323
_cell_length_b 9.572323
_cell_length_c 17.109866
_cell_angle_alpha 90.000000
_cell_angle_beta 90.000000
_cell_angle_gamma 90.000000
_cell_volume 2814.795983
_symmetry_space_group_name_H-M "P C C A"
_symmetry_group_IT_number 54
_symmetry_cell_setting 'orthorhombic'
loop_
_space_group_symop_operation_xyz
x,y,z
1/2-x,-y,z
1/2+x,-y,1/2-z
-x,y,1/2-z
-x,-y,-z
1/2+x,y,-z
1/2-x,y,1/2+z
x,-y,1/2+z
loop_
_atom_site_type_symbol
_atom_site_label
_atom_site_fract_x
_atom_site_fract_y
_atom_site_fract_z
Si Si1 0.852671 0.567110 0.800318
Si Si2 0.996869 0.783899 0.421507
Si Si3 0.295486 0.866832 0.185490
Si Si4 0.987242 0.326188 0.409672
Si Si5 0.525578 0.945603 0.335129
Si Si6 0.318091 0.688054 0.591106
Si Si7 0.400871 0.443690 0.361522
Si Si8 0.250000 0.500000 0.954929
O O1 0.812052 0.714487 0.774477
O O2 0.910219 0.613610 0.869993
O O3 0.815227 0.429149 0.840203
O O4 0.894972 0.509079 0.723985
O O5 0.906991 0.736685 0.415619
O O6 0.027002 0.742827 0.506976
O O7 0.050911 0.698374 0.361960
O O8 0.999366 0.944897 0.400028
O O9 0.381425 0.921161 0.163214
O O10 0.239243 0.814222 0.115298
O O11 0.250000 0.000000 0.223087
O O12 0.014453 0.202693 0.352340
O O13 0.049068 0.449178 0.414066
O O14 0.500000 0.996028 0.250000
O O15 0.287875 0.614591 0.512516
O O16 0.316391 0.434072 0.400260
#
# Coordination Sequence:
#
# PCOD9424138 Si02
#       8
#     8   8   8   8   8   8   8   4
#     4  11  24  42  71 101 137 185 237 294 356 429
#     4  12  25  43  72 103 134 185 240 296 354 431
#     4  11  23  42  71  97 136 185 235 277 361 434
#     4  11  22  44  69  99 139 183 230 288 357 434
#     4  11  26  45  68 103 141 183 239 295 352 432
#     4  12  23  43  70 101 136 184 237 288 355 433
#     4  12  26  42  69 105 139 179 237 301 358 417
#     4  12  26  44  66 104 146 174 238 302 360 420
#
# _framework density 21.315932
#
# number of rings (size 3 to 8) (size 9 to 14) (size 15 to 20)
#    0.000    0.533    5.333    3.600    5.600    0.000 
#    0.000    0.000    0.000    0.000    0.000    0.000 
#    0.000    0.000    0.000    0.000    0.000    0.000 
#
# Total GULP energy -335020.044468 kJ/mol
# GULP energy per Si atom -5583.667408 kJ/mol
# Density = 2.126742 g / cm^3
# Si number density = 21.315932 Si / 1000 Ang^3
#
#
#
# Elastic Constant Matrix: (Units=GPa)
#
#
# Indices 1 2 3 4 5 6 
#
# 1 100.3739 35.0064 8.8002 0.0000 0.0000 0.0000
# 2 35.0064 96.7830 19.1474 0.0000 0.0000 0.0000
# 3 8.8002 19.1474 68.9019 0.0000 0.0000 0.0000
# 4 0.0000 0.0000 0.0000 6.4173 0.0000 0.0000
# 5 0.0000 0.0000 0.0000 0.0000 75.2386 0.0000
# 6 0.0000 0.0000 0.0000 0.0000 0.0000 27.8669
#
#
#
# Elastic Compliance Matrix: (Units=1/GPa)
#
#
# Indices 1 2 3 4 5 6 
#
# 1 0.011408 -0.004061 -0.000328 0.000000 0.000000 0.000000
# 2 -0.004061 0.012379 -0.002921 0.000000 0.000000 0.000000
# 3 -0.000328 -0.002921 0.015367 0.000000 0.000000 0.000000
# 4 0.000000 0.000000 0.000000 0.155828 0.000000 0.000000
# 5 0.000000 0.000000 0.000000 0.000000 0.013291 0.000000
# 6 0.000000 0.000000 0.000000 0.000000 0.000000 0.035885
#
#
# Mechanical properties :
#
#
# Convention : Reuss Voigt Hill
#
# Bulk Modulus (GPa) = 40.76278 43.55189 42.15734
# Shear Modulus (GPa) = 18.72956 35.44489 27.08722
#
# Velocity S-wave (km/s) = 2.96744 4.08221 3.56863
# Velocity P-wave (km/s) = 5.55928 6.53416 6.06634
#
# Compressibility (1/GPa) = 0.02453218
#
# Stress axis : x y z
#
# Youngs Moduli (GPa) = 87.65813 80.77985 65.07377
#
# Poissons Ratio (x) = 0.32807 0.02137
# Poissons Ratio (y) = 0.35600 0.19011
# Poissons Ratio (z) = 0.02879 0.23599
#
# Static dielectric constant tensor:
#      x y z
#    x 1.838760 0.000000 0.000000 
#    y 0.000000 1.783520 0.000000 
#    z 0.000000 0.000000 1.753100 
# 
# From -- ./inp_files/18671.got.cif
#   From: 2010.05.17/outbox.cif.g08.bks.cpg/sg54_10_cif.got.tgz:18671.got - 2010.06.03 13:09:01.
