data_PCOD9424190
_publ_section_title
;
Structure prediction by ZEFSAII (Michael W. Deem and Ramdas Pophale) SiO2 
 PCOD9424190
Probable space group: P C C A
;
_chemical_formula_sum "Si O2"
_cell_formula_units_Z 36
_cell_length_a 22.628289
_cell_length_b 6.333480
_cell_length_c 10.627527
_cell_angle_alpha 90.000000
_cell_angle_beta 90.000000
_cell_angle_gamma 90.000000
_cell_volume 1523.092702
_symmetry_space_group_name_H-M "P C C A"
_symmetry_group_IT_number 54
_symmetry_cell_setting 'orthorhombic'
loop_
_space_group_symop_operation_xyz
x,y,z
1/2-x,-y,z
1/2+x,-y,1/2-z
-x,y,1/2-z
-x,-y,-z
1/2+x,y,-z
1/2-x,y,1/2+z
x,-y,1/2+z
loop_
_atom_site_type_symbol
_atom_site_label
_atom_site_fract_x
_atom_site_fract_y
_atom_site_fract_z
Si Si1 0.053778 0.420287 0.163668
Si Si2 0.672267 0.156853 0.820294
Si Si3 0.342199 0.178635 0.954095
Si Si4 0.750000 0.500000 0.445789
Si Si5 0.974086 0.770131 0.479077
O O1 0.115457 0.312352 0.184514
O O2 0.000000 0.341635 0.250000
O O3 0.032937 0.354516 0.023930
O O4 0.048317 0.674108 0.154313
O O5 0.677407 0.074171 0.677809
O O6 0.724764 0.310519 0.861586
O O7 0.664860 0.980166 0.927744
O O8 0.411610 0.235793 0.947757
O O9 0.302510 0.388237 0.975396
O O10 0.000000 0.000000 0.500000
#
# Coordination Sequence:
#
# PCOD9424190 Si02
#       5
#     8   8   8   4   8
#     4  11  23  42  73 108 149 193 241 302 381 456
#     4  12  27  49  76 112 150 197 254 312 382 450
#     4  12  27  48  79 110 150 199 254 315 379 455
#     4  12  28  52  72 104 150 208 260 312 366 452
#     4  11  23  43  70 111 146 191 239 305 377 446
#
# _framework density 23.636118
#
# number of rings (size 3 to 8) (size 9 to 14) (size 15 to 20)
#    0.000    0.444    6.667    1.333    0.000    8.000 
#    0.000    0.000    0.000    0.000    0.000    0.000 
#    0.000    0.000    0.000    0.000    0.000    0.000 
#
# Total GULP energy -200651.552330 kJ/mol
# GULP energy per Si atom -5573.654231 kJ/mol
# Density = 2.358232 g / cm^3
# Si number density = 23.636118 Si / 1000 Ang^3
#
#
#
# Elastic Constant Matrix: (Units=GPa)
#
#
# Indices 1 2 3 4 5 6 
#
# 1 150.1043 32.8798 23.4011 0.0000 0.0000 0.0000
# 2 32.8798 72.1163 29.9350 0.0000 0.0000 0.0000
# 3 23.4011 29.9350 122.8226 0.0000 0.0000 0.0000
# 4 0.0000 0.0000 0.0000 29.8056 0.0000 0.0000
# 5 0.0000 0.0000 0.0000 0.0000 24.2535 0.0000
# 6 0.0000 0.0000 0.0000 0.0000 0.0000 53.5956
#
#
#
# Elastic Compliance Matrix: (Units=1/GPa)
#
#
# Indices 1 2 3 4 5 6 
#
# 1 0.007449 -0.003123 -0.000658 0.000000 0.000000 0.000000
# 2 -0.003123 0.016737 -0.003484 0.000000 0.000000 0.000000
# 3 -0.000658 -0.003484 0.009116 0.000000 0.000000 0.000000
# 4 0.000000 0.000000 0.000000 0.033551 0.000000 0.000000
# 5 0.000000 0.000000 0.000000 0.000000 0.041231 0.000000
# 6 0.000000 0.000000 0.000000 0.000000 0.000000 0.018658
#
#
# Mechanical properties :
#
#
# Convention : Reuss Voigt Hill
#
# Bulk Modulus (GPa) = 53.27241 57.49722 55.38481
# Shear Modulus (GPa) = 33.89160 38.78608 36.33884
#
# Velocity S-wave (km/s) = 3.79078 4.05528 3.92526
# Velocity P-wave (km/s) = 6.46123 6.80484 6.63526
#
# Compressibility (1/GPa) = 0.01877144
#
# Stress axis : x y z
#
# Youngs Moduli (GPa) = 134.25185 59.74944 109.69273
#
# Poissons Ratio (x) = 0.18659 0.07218
# Poissons Ratio (y) = 0.41926 0.38218
# Poissons Ratio (z) = 0.08834 0.20817
#
# Static dielectric constant tensor:
#      x y z
#    x 1.878520 0.000000 0.000000 
#    y 0.000000 2.741390 0.000000 
#    z 0.000000 0.000000 2.059010 
# 
# From -- ./inp_files/9739.got.cif
#   From: 2010.05.17/outbox.cif.g08.bks.cpg/sg54_5_cif.got.tgz:9739.got - 2010.06.03 13:09:01.
