data_PCOD9424892
_publ_section_title
;
Structure prediction by ZEFSAII (Michael W. Deem and Ramdas Pophale) SiO2 
 PCOD9424892
Probable space group: P B A M
;
_chemical_formula_sum "Si O2"
_cell_formula_units_Z 56
_cell_length_a 13.973147
_cell_length_b 29.555725
_cell_length_c 9.236929
_cell_angle_alpha 90.000000
_cell_angle_beta 90.000000
_cell_angle_gamma 90.000000
_cell_volume 3814.726887
_symmetry_space_group_name_H-M "P B A M"
_symmetry_group_IT_number 55
_symmetry_cell_setting 'orthorhombic'
loop_
_space_group_symop_operation_xyz
x,y,z
-x,-y,z
1/2+x,1/2-y,-z
1/2-x,1/2+y,-z
-x,-y,-z
x,y,-z
1/2-x,1/2+y,z
1/2+x,1/2-y,z
loop_
_atom_site_type_symbol
_atom_site_label
_atom_site_fract_x
_atom_site_fract_y
_atom_site_fract_z
Si Si1 0.287588 0.315145 0.826532
Si Si2 0.112342 0.092728 0.827723
Si Si3 0.390115 0.232490 0.326841
Si Si4 0.614422 0.590207 0.172389
Si Si5 0.390521 0.774410 0.672311
Si Si6 0.883721 0.999038 0.666546
Si Si7 0.203379 0.177497 0.328809
O O1 0.356641 0.277158 0.757462
O O2 0.326816 0.364871 0.790143
O O3 0.183307 0.304978 0.760737
O O4 0.286606 0.310478 0.000000
O O5 0.167898 0.135256 0.762454
O O6 0.998460 0.098311 0.797258
O O7 0.144321 0.045889 0.753543
O O8 0.124016 0.090073 0.000000
O O9 0.385489 0.241790 0.500000
O O10 0.498424 0.219260 0.291224
O O11 0.311486 0.193850 0.296883
O O12 0.646724 0.545586 0.257516
O O13 0.622629 0.582070 0.000000
O O14 0.376944 0.782110 0.500000
O O15 0.361043 0.722103 0.699510
O O16 0.852822 0.996782 0.500000
O O17 0.000000 0.000000 0.668733
O O18 0.196077 0.167156 0.500000
#
# Coordination Sequence:
#
# PCOD9424892 Si02
#       7
#     8   8   8   8   8   8   8
#     4  10  19  29  44  67  92 117 147 182 219 261
#     4  10  18  28  43  62  88 119 145 173 213 260
#     4   9  18  32  47  63  87 119 152 186 220 255
#     4   9  18  30  42  61  90 119 144 173 213 259
#     4   9  18  32  47  63  87 119 152 185 220 257
#     4   9  17  28  43  63  85 111 144 179 213 252
#     4   9  17  28  43  64  87 112 146 183 215 252
#
# _framework density 14.67995
#
# number of rings (size 3 to 8) (size 9 to 14) (size 15 to 20)
#    0.000    2.714    0.000    3.000    0.000    6.286 
#    0.000    0.000    0.000    0.000    0.000    1.000 
#    0.000    8.000    0.000    0.000    0.000    0.000 
#
# Total GULP energy -312133.283489 kJ/mol
# GULP energy per Si atom -5573.808634 kJ/mol
# Density = 1.464654 g / cm^3
# Si number density = 14.679950 Si / 1000 Ang^3
#
#
#
# Elastic Constant Matrix: (Units=GPa)
#
#
# Indices 1 2 3 4 5 6 
#
# 1 88.4523 61.6043 48.5494 0.0000 0.0000 0.0000
# 2 61.6043 136.4428 78.0913 0.0000 0.0000 0.0000
# 3 48.5494 78.0913 67.0696 0.0000 0.0000 0.0000
# 4 0.0000 0.0000 0.0000 30.8430 0.0000 0.0000
# 5 0.0000 0.0000 0.0000 0.0000 19.5118 0.0000
# 6 0.0000 0.0000 0.0000 0.0000 0.0000 21.4305
#
#
#
# Elastic Compliance Matrix: (Units=1/GPa)
#
#
# Indices 1 2 3 4 5 6 
#
# 1 0.018960 -0.002115 -0.011262 0.000000 0.000000 0.000000
# 2 -0.002115 0.022205 -0.024323 0.000000 0.000000 0.000000
# 3 -0.011262 -0.024323 0.051383 0.000000 0.000000 0.000000
# 4 0.000000 0.000000 0.000000 0.032422 0.000000 0.000000
# 5 0.000000 0.000000 0.000000 0.000000 0.051251 0.000000
# 6 0.000000 0.000000 0.000000 0.000000 0.000000 0.046662
#
#
# Mechanical properties :
#
#
# Convention : Reuss Voigt Hill
#
# Bulk Modulus (GPa) = 58.31879 74.27274 66.29577
# Shear Modulus (GPa) = 16.44740 21.27171 18.85955
#
# Velocity S-wave (km/s) = 3.35087 3.81074 3.58818
# Velocity P-wave (km/s) = 7.40163 8.37060 7.90098
#
# Compressibility (1/GPa) = 0.01714713
#
# Stress axis : x y z
#
# Youngs Moduli (GPa) = 52.74280 45.03506 19.46178
#
# Poissons Ratio (x) = 0.09523 0.21919
# Poissons Ratio (y) = 0.11153 0.47337
# Poissons Ratio (z) = 0.59401 1.09540
#
# Static dielectric constant tensor:
#      x y z
#    x 1.475320 0.000000 0.000000 
#    y 0.000000 1.461930 0.000000 
#    z 0.000000 0.000000 1.490450 
# 
# From -- ./inp_files/6856.got.cif
#   From: 2010.05.17/outbox.cif.g08.bks.cpg/sg55_4_cif.got.tgz:6856.got - 2010.06.03 13:27:54.
