data_PCOD9424722
_publ_section_title
;
Structure prediction by ZEFSAII (Michael W. Deem and Ramdas Pophale) SiO2 
 PCOD9424722
Probable space group: P B A M
;
_chemical_formula_sum "Si O2"
_cell_formula_units_Z 40
_cell_length_a 13.297472
_cell_length_b 14.617548
_cell_length_c 7.350641
_cell_angle_alpha 90.000000
_cell_angle_beta 90.000000
_cell_angle_gamma 90.000000
_cell_volume 1428.791394
_symmetry_space_group_name_H-M "P B A M"
_symmetry_group_IT_number 55
_symmetry_cell_setting 'orthorhombic'
loop_
_space_group_symop_operation_xyz
x,y,z
-x,-y,z
1/2+x,1/2-y,-z
1/2-x,1/2+y,-z
-x,-y,-z
x,y,-z
1/2-x,1/2+y,z
1/2+x,1/2-y,z
loop_
_atom_site_type_symbol
_atom_site_label
_atom_site_fract_x
_atom_site_fract_y
_atom_site_fract_z
Si Si1 0.529755 0.223174 0.216895
Si Si2 0.108546 0.466378 0.710247
Si Si3 0.812595 0.930702 0.210077
Si Si4 0.424397 0.399060 0.222629
Si Si5 0.306881 0.232592 0.219430
O O1 0.603792 0.144716 0.281689
O O2 0.514565 0.329566 0.276035
O O3 0.416113 0.188021 0.258310
O O4 0.542371 0.226096 0.000000
O O5 0.111912 0.493488 0.500000
O O6 0.207850 0.511070 0.794883
O O7 0.000000 0.500000 0.787034
O O8 0.896264 0.999977 0.286456
O O9 0.778782 0.833305 0.290805
O O10 0.841064 0.914435 0.000000
O O11 0.328653 0.335740 0.277357
O O12 0.426839 0.403403 0.000000
O O13 0.295948 0.235250 0.000000
#
# Coordination Sequence:
#
# PCOD9424722 Si02
#       5
#     8   8   8   8   8
#     4   8  14  27  41  54  78 105 131 159 190 234
#     4  11  20  26  35  58  88 110 130 160 196 236
#     4  10  16  25  44  62  79 108 134 157 197 240
#     4   7  13  24  39  60  79  98 133 167 189 228
#     4   7  12  22  38  59  80  98 125 161 191 226
#
# _framework density 27.995691000000001
#
# number of rings (size 3 to 8) (size 9 to 14) (size 15 to 20)
#    1.200    2.200    2.000    0.600    0.000    0.800 
#    0.000    1.000    0.000    0.000    0.000    1.400 
#    0.000   11.200    0.000    0.000    0.000    0.000 
#
# Total GULP energy -223196.829278 kJ/mol
# GULP energy per Si atom -5579.920732 kJ/mol
# Density = 2.793197 g / cm^3
# Si number density = 27.995691 Si / 1000 Ang^3
#
#
#
# Elastic Constant Matrix: (Units=GPa)
#
#
# Indices 1 2 3 4 5 6 
#
# 1 166.5604 33.5523 0.1263 0.0000 0.0000 0.0000
# 2 33.5523 202.4152 -1.8168 0.0000 0.0000 0.0000
# 3 0.1263 -1.8168 110.8217 0.0000 0.0000 0.0000
# 4 0.0000 0.0000 0.0000 -455.1048 0.0000 0.0000
# 5 0.0000 0.0000 0.0000 0.0000 -14.8685 0.0000
# 6 0.0000 0.0000 0.0000 0.0000 0.0000 53.0606
#
#
#
# Elastic Compliance Matrix: (Units=1/GPa)
#
#
# Indices 1 2 3 4 5 6 
#
# 1 0.006211 -0.001030 -0.000024 0.000000 0.000000 0.000000
# 2 -0.001030 0.005112 0.000085 0.000000 0.000000 0.000000
# 3 -0.000024 0.000085 0.009025 0.000000 0.000000 0.000000
# 4 0.000000 0.000000 0.000000 -0.002197 0.000000 0.000000
# 5 0.000000 0.000000 0.000000 0.000000 -0.067256 0.000000
# 6 0.000000 0.000000 0.000000 0.000000 0.000000 0.018846
#
#
# Mechanical properties :
#
#
# Convention : Reuss Voigt Hill
#
# Bulk Modulus (GPa) = 54.31698 60.39121 57.35410
# Shear Modulus (GPa) = -225.38022 -53.52019 -139.45020
#
# Velocity S-wave (km/s) = -8.98221 -4.37708 -7.06537
# Velocity P-wave (km/s) = 9.38773 1.98157 6.78440
#
# Compressibility (1/GPa) = 0.01841045
#
# Stress axis : x y z
#
# Youngs Moduli (GPa) = 160.99711 195.62570 110.80426
#
# Poissons Ratio (x) = 0.20145 0.00266
# Poissons Ratio (y) = 0.16579 -0.00942
# Poissons Ratio (z) = 0.00386 -0.01662
#
# Static dielectric constant tensor:
#      x y z
#    x 2.302530 0.000000 0.000000 
#    y 0.000000 2.210210 0.000000 
#    z 0.000000 0.000000 2.080380 
# 
# From -- ./inp_files/7494.got.cif
#   From: 2010.05.17/outbox.cif.g08.bks.cpg/sg55_4_cif.got.tgz:7494.got - 2010.06.03 13:27:54.
