data_PCOD9424465
_publ_section_title
;
Structure prediction by ZEFSAII (Michael W. Deem and Ramdas Pophale) SiO2 
 PCOD9424465
Probable space group: P C C A
;
_chemical_formula_sum "Si O2"
_cell_formula_units_Z 40
_cell_length_a 23.111465
_cell_length_b 7.652785
_cell_length_c 9.964376
_cell_angle_alpha 90.000000
_cell_angle_beta 90.000000
_cell_angle_gamma 90.000000
_cell_volume 1762.370014
_symmetry_space_group_name_H-M "P C C A"
_symmetry_group_IT_number 54
_symmetry_cell_setting 'orthorhombic'
loop_
_space_group_symop_operation_xyz
x,y,z
1/2-x,-y,z
1/2+x,-y,1/2-z
-x,y,1/2-z
-x,-y,-z
1/2+x,y,-z
1/2-x,y,1/2+z
x,-y,1/2+z
loop_
_atom_site_type_symbol
_atom_site_label
_atom_site_fract_x
_atom_site_fract_y
_atom_site_fract_z
Si Si1 0.562079 0.931524 0.049546
Si Si2 0.857879 0.686546 0.870447
Si Si3 0.687875 0.592390 0.666391
Si Si4 0.010999 0.377658 0.120162
Si Si5 0.638778 0.069123 0.287293
O O1 0.540620 0.760936 0.128010
O O2 0.596280 0.046126 0.158605
O O3 0.602365 0.886785 0.922086
O O4 0.500000 0.000000 0.000000
O O5 0.850276 0.542116 0.754576
O O6 0.926296 0.705843 0.896658
O O7 0.835811 0.876121 0.820000
O O8 0.830355 0.624245 0.011470
O O9 0.750000 0.500000 0.667635
O O10 0.682515 0.777796 0.744418
O O11 0.000000 0.493982 0.250000
O O12 0.000000 0.500000 0.000000
#
# Coordination Sequence:
#
# PCOD9424465 Si02
#       5
#     8   8   8   8   8
#     4  12  22  43  70 112 162 205 246 298 388 487
#     4  12  26  48  77 111 158 202 263 323 392 475
#     4  12  29  52  77 109 146 205 274 339 392 453
#     4  12  23  39  67 112 159 204 247 303 383 480
#     4  12  25  47  76 113 155 206 257 322 390 472
#
# _framework density 22.696711000000001
#
# number of rings (size 3 to 8) (size 9 to 14) (size 15 to 20)
#    0.000    0.000    6.000    3.600    2.800    2.400 
#    0.000    2.000    0.000    0.000    0.000    0.000 
#    0.000    0.000    0.000    0.000    0.000    0.000 
#
# Total GULP energy -223566.659482 kJ/mol
# GULP energy per Si atom -5589.166487 kJ/mol
# Density = 2.264505 g / cm^3
# Si number density = 22.696711 Si / 1000 Ang^3
#
#
#
# Elastic Constant Matrix: (Units=GPa)
#
#
# Indices 1 2 3 4 5 6 
#
# 1 87.7120 57.5581 61.0130 0.0000 0.0000 0.0000
# 2 57.5581 140.0671 44.8163 0.0000 0.0000 0.0000
# 3 61.0130 44.8163 166.4172 0.0000 0.0000 0.0000
# 4 0.0000 0.0000 0.0000 47.1958 0.0000 0.0000
# 5 0.0000 0.0000 0.0000 0.0000 26.1323 0.0000
# 6 0.0000 0.0000 0.0000 0.0000 0.0000 44.6081
#
#
#
# Elastic Compliance Matrix: (Units=1/GPa)
#
#
# Indices 1 2 3 4 5 6 
#
# 1 0.019183 -0.006164 -0.005373 0.000000 0.000000 0.000000
# 2 -0.006164 0.009793 -0.000377 0.000000 0.000000 0.000000
# 3 -0.005373 -0.000377 0.008081 0.000000 0.000000 0.000000
# 4 0.000000 0.000000 0.000000 0.021188 0.000000 0.000000
# 5 0.000000 0.000000 0.000000 0.000000 0.038267 0.000000
# 6 0.000000 0.000000 0.000000 0.000000 0.000000 0.022417
#
#
# Mechanical properties :
#
#
# Convention : Reuss Voigt Hill
#
# Bulk Modulus (GPa) = 75.59675 80.10790 77.85233
# Shear Modulus (GPa) = 33.97474 38.97451 36.47463
#
# Velocity S-wave (km/s) = 3.87318 4.14839 4.01315
# Velocity P-wave (km/s) = 7.30628 7.63656 7.47325
#
# Compressibility (1/GPa) = 0.01322808
#
# Stress axis : x y z
#
# Youngs Moduli (GPa) = 52.12839 102.11233 123.75304
#
# Poissons Ratio (x) = 0.62941 0.66495
# Poissons Ratio (y) = 0.32131 0.04671
# Poissons Ratio (z) = 0.28010 0.03854
#
# Static dielectric constant tensor:
#      x y z
#    x 1.905250 0.000000 0.000000 
#    y 0.000000 1.892100 0.000000 
#    z 0.000000 0.000000 2.030570 
# 
# From -- ./inp_files/5009.got.cif
#   From: 2010.05.17/outbox.cif.g08.bks.cpg/sg54_3_cif.got.tgz:5009.got - 2010.06.03 13:09:01.
