data_PCOD9424363
_publ_section_title
;
Structure prediction by ZEFSAII (Michael W. Deem and Ramdas Pophale) SiO2 
 PCOD9424363
Probable space group: P C C A
;
_chemical_formula_sum "Si O2"
_cell_formula_units_Z 40
_cell_length_a 13.912857
_cell_length_b 11.822078
_cell_length_c 11.156919
_cell_angle_alpha 90.000000
_cell_angle_beta 90.000000
_cell_angle_gamma 90.000000
_cell_volume 1835.077549
_symmetry_space_group_name_H-M "P C C A"
_symmetry_group_IT_number 54
_symmetry_cell_setting 'orthorhombic'
loop_
_space_group_symop_operation_xyz
x,y,z
1/2-x,-y,z
1/2+x,-y,1/2-z
-x,y,1/2-z
-x,-y,-z
1/2+x,y,-z
1/2-x,y,1/2+z
x,-y,1/2+z
loop_
_atom_site_type_symbol
_atom_site_label
_atom_site_fract_x
_atom_site_fract_y
_atom_site_fract_z
Si Si1 0.870110 0.215415 0.476621
Si Si2 0.991475 0.416707 0.113073
Si Si3 0.164387 0.243473 0.433700
Si Si4 0.459567 0.153288 0.136930
Si Si5 0.347212 0.058791 0.742240
O O1 0.779493 0.247994 0.559519
O O2 0.828911 0.138938 0.370737
O O3 0.928825 0.319133 0.416816
O O4 0.948715 0.142873 0.550120
O O5 0.887464 0.356496 0.108489
O O6 0.000000 0.460409 0.250000
O O7 0.000000 0.500000 0.000000
O O8 0.122290 0.217054 0.564633
O O9 0.124071 0.141782 0.349810
O O10 0.500000 0.222180 0.250000
O O11 0.415883 0.038787 0.191618
O O12 0.250000 0.000000 0.784222
#
# Coordination Sequence:
#
# PCOD9424363 Si02
#       5
#     8   8   8   8   8
#     4  11  25  46  69 105 143 190 242 301 370 450
#     4  11  26  52  79 104 141 193 256 327 386 438
#     4  11  26  47  68 106 148 189 248 301 363 456
#     4  11  26  37  65 102 144 196 236 286 354 444
#     4  12  24  40  67 103 154 194 232 284 360 444
#
# _framework density 21.797445
#
# number of rings (size 3 to 8) (size 9 to 14) (size 15 to 20)
#    0.000    0.800    4.000    1.800   11.200    4.000 
#    0.000    2.000    0.000    0.000    0.000    0.000 
#    0.000    0.000    0.000    0.000    0.000    0.000 
#
# Total GULP energy -223437.793214 kJ/mol
# GULP energy per Si atom -5585.944830 kJ/mol
# Density = 2.174783 g / cm^3
# Si number density = 21.797445 Si / 1000 Ang^3
#
#
#
# Elastic Constant Matrix: (Units=GPa)
#
#
# Indices 1 2 3 4 5 6 
#
# 1 118.6231 18.9795 19.6107 0.0000 0.0000 0.0000
# 2 18.9795 65.9595 35.2584 0.0000 0.0000 0.0000
# 3 19.6107 35.2584 127.9737 0.0000 0.0000 0.0000
# 4 0.0000 0.0000 0.0000 -6.4521 0.0000 0.0000
# 5 0.0000 0.0000 0.0000 0.0000 31.8589 0.0000
# 6 0.0000 0.0000 0.0000 0.0000 0.0000 -13.7133
#
#
#
# Elastic Compliance Matrix: (Units=1/GPa)
#
#
# Indices 1 2 3 4 5 6 
#
# 1 0.008901 -0.002149 -0.000772 0.000000 0.000000 0.000000
# 2 -0.002149 0.018298 -0.004712 0.000000 0.000000 0.000000
# 3 -0.000772 -0.004712 0.009231 0.000000 0.000000 0.000000
# 4 0.000000 0.000000 0.000000 -0.154989 0.000000 0.000000
# 5 0.000000 0.000000 0.000000 0.000000 0.031388 0.000000
# 6 0.000000 0.000000 0.000000 0.000000 0.000000 -0.072922
#
#
# Mechanical properties :
#
#
# Convention : Reuss Voigt Hill
#
# Bulk Modulus (GPa) = 47.24900 51.13928 49.19414
# Shear Modulus (GPa) = -36.29169 18.25257 -9.01956
#
# Velocity S-wave (km/s) = -4.08481 2.89688 -2.03639
# Velocity P-wave (km/s) = 0.72394 5.89078 4.13383
#
# Compressibility (1/GPa) = 0.02116447
#
# Stress axis : x y z
#
# Youngs Moduli (GPa) = 112.34082 54.65120 108.33482
#
# Poissons Ratio (x) = 0.11743 0.08364
# Poissons Ratio (y) = 0.24138 0.51048
# Poissons Ratio (z) = 0.08674 0.25752
#
# Static dielectric constant tensor:
#      x y z
#    x 1.824860 0.000000 0.000000 
#    y 0.000000 1.787950 0.000000 
#    z 0.000000 0.000000 1.841510 
# 
# From -- ./inp_files/8213.got.cif
#   From: 2010.05.17/outbox.cif.g08.bks.cpg/sg54_5_cif.got.tgz:8213.got - 2010.06.03 13:09:01.
