data_PCOD9424496
_publ_section_title
;
Structure prediction by ZEFSAII (Michael W. Deem and Ramdas Pophale) SiO2 
 PCOD9424496
Probable space group: P C C A
;
_chemical_formula_sum "Si O2"
_cell_formula_units_Z 48
_cell_length_a 16.742088
_cell_length_b 7.494707
_cell_length_c 18.430758
_cell_angle_alpha 90.000000
_cell_angle_beta 90.000000
_cell_angle_gamma 90.000000
_cell_volume 2312.637035
_symmetry_space_group_name_H-M "P C C A"
_symmetry_group_IT_number 54
_symmetry_cell_setting 'orthorhombic'
loop_
_space_group_symop_operation_xyz
x,y,z
1/2-x,-y,z
1/2+x,-y,1/2-z
-x,y,1/2-z
-x,-y,-z
1/2+x,y,-z
1/2-x,y,1/2+z
x,-y,1/2+z
loop_
_atom_site_type_symbol
_atom_site_label
_atom_site_fract_x
_atom_site_fract_y
_atom_site_fract_z
Si Si1 0.615810 0.170053 0.398307
Si Si2 0.754790 0.798379 0.986088
Si Si3 0.491964 0.533125 0.913897
Si Si4 0.313916 0.359830 0.381737
Si Si5 0.618753 0.250940 0.873315
Si Si6 0.241501 0.208507 0.731146
O O1 0.662271 0.242897 0.470744
O O2 0.535808 0.282359 0.393975
O O3 0.676652 0.220277 0.333368
O O4 0.599416 0.957678 0.390544
O O5 0.794731 0.804353 0.064651
O O6 0.750000 0.000000 0.954837
O O7 0.818378 0.693532 0.936755
O O8 0.400966 0.558665 0.890018
O O9 0.541470 0.374013 0.875852
O O10 0.500000 0.500000 0.000000
O O11 0.250000 0.500000 0.412523
O O12 0.289649 0.312439 0.300535
O O13 0.672534 0.266177 0.800968
O O14 0.250000 0.000000 0.749687
#
# Coordination Sequence:
#
# PCOD9424496 Si02
#       6
#     8   8   8   8   8   8
#     4   9  21  41  70  91 122 170 218 261 319 387
#     4   9  18  38  64  91 125 166 211 261 315 379
#     4  12  24  40  65  99 133 165 212 271 323 385
#     4  12  25  39  58  96 133 166 213 265 324 382
#     4   9  20  42  68  95 121 169 218 258 323 388
#     4   9  21  44  68  90 123 174 219 263 322 390
#
# _framework density 20.755528999999999
#
# number of rings (size 3 to 8) (size 9 to 14) (size 15 to 20)
#    0.000    2.000    1.667    3.500    2.333    2.667 
#    6.000    0.000    0.000    0.000    0.000    0.000 
#    0.000    0.000    0.000    0.000    0.000    0.000 
#
# Total GULP energy -267633.227391 kJ/mol
# GULP energy per Si atom -5575.692237 kJ/mol
# Density = 2.070829 g / cm^3
# Si number density = 20.755529 Si / 1000 Ang^3
#
#
#
# Elastic Constant Matrix: (Units=GPa)
#
#
# Indices 1 2 3 4 5 6 
#
# 1 181.7527 75.3206 44.5515 0.0000 0.0000 0.0000
# 2 75.3206 62.2443 33.1097 0.0000 0.0000 0.0000
# 3 44.5515 33.1097 99.6439 0.0000 0.0000 0.0000
# 4 0.0000 0.0000 0.0000 20.4351 0.0000 0.0000
# 5 0.0000 0.0000 0.0000 0.0000 22.4265 0.0000
# 6 0.0000 0.0000 0.0000 0.0000 0.0000 25.4931
#
#
#
# Elastic Compliance Matrix: (Units=1/GPa)
#
#
# Indices 1 2 3 4 5 6 
#
# 1 0.011066 -0.013069 -0.000605 0.000000 0.000000 0.000000
# 2 -0.013069 0.034950 -0.005770 0.000000 0.000000 0.000000
# 3 -0.000605 -0.005770 0.012223 0.000000 0.000000 0.000000
# 4 0.000000 0.000000 0.000000 0.048935 0.000000 0.000000
# 5 0.000000 0.000000 0.000000 0.000000 0.044590 0.000000
# 6 0.000000 0.000000 0.000000 0.000000 0.000000 0.039226
#
#
# Mechanical properties :
#
#
# Convention : Reuss Voigt Hill
#
# Bulk Modulus (GPa) = 51.67647 72.17829 61.92738
# Shear Modulus (GPa) = 21.15683 26.38156 23.76920
#
# Velocity S-wave (km/s) = 3.19617 3.56906 3.38775
# Velocity P-wave (km/s) = 6.21067 7.19967 6.72338
#
# Compressibility (1/GPa) = 0.01935117
#
# Stress axis : x y z
#
# Youngs Moduli (GPa) = 90.36342 28.61249 81.80971
#
# Poissons Ratio (x) = 0.37395 0.04951
# Poissons Ratio (y) = 1.18099 0.47202
# Poissons Ratio (z) = 0.05469 0.16509
#
# Static dielectric constant tensor:
#      x y z
#    x 1.774960 0.000000 0.000000 
#    y 0.000000 1.834260 0.000000 
#    z 0.000000 0.000000 1.768880 
# 
# From -- ./inp_files/17993.got.cif
#   From: 2010.05.17/outbox.cif.g08.bks.cpg/sg54_9_cif.got.tgz:17993.got - 2010.06.03 13:09:01.
