data_PCOD9424966
_publ_section_title
;
Structure prediction by ZEFSAII (Michael W. Deem and Ramdas Pophale) SiO2 
 PCOD9424966
Probable space group: P B A M
;
_chemical_formula_sum "Si O2"
_cell_formula_units_Z 48
_cell_length_a 18.472542
_cell_length_b 12.588029
_cell_length_c 8.899034
_cell_angle_alpha 90.000000
_cell_angle_beta 90.000000
_cell_angle_gamma 90.000000
_cell_volume 2069.318133
_symmetry_space_group_name_H-M "P B A M"
_symmetry_group_IT_number 55
_symmetry_cell_setting 'orthorhombic'
loop_
_space_group_symop_operation_xyz
x,y,z
-x,-y,z
1/2+x,1/2-y,-z
1/2-x,1/2+y,-z
-x,-y,-z
x,y,-z
1/2-x,1/2+y,z
1/2+x,1/2-y,z
loop_
_atom_site_type_symbol
_atom_site_label
_atom_site_fract_x
_atom_site_fract_y
_atom_site_fract_z
Si Si1 0.807111 0.289951 0.671659
Si Si2 0.068523 0.094479 0.675839
Si Si3 0.648348 0.022681 0.670373
Si Si4 0.713009 0.456219 0.177619
Si Si5 0.928932 0.171721 0.172432
Si Si6 0.561814 0.192453 0.829388
O O1 0.786079 0.264604 0.500000
O O2 0.858445 0.395316 0.663495
O O3 0.742376 0.339663 0.769652
O O4 0.853822 0.199955 0.750714
O O5 0.073016 0.072536 0.500000
O O6 0.131132 0.032850 0.765754
O O7 0.985037 0.099611 0.733003
O O8 0.089065 0.217729 0.714041
O O9 0.646304 0.062788 0.500000
O O10 0.728739 0.033650 0.742208
O O11 0.589427 0.080597 0.771288
O O12 0.717708 0.466400 0.000000
O O13 0.976443 0.281638 0.165936
O O14 0.922319 0.135390 0.000000
O O15 0.588187 0.213161 0.000000
#
# Coordination Sequence:
#
# PCOD9424966 Si02
#       6
#     8   8   8   8   8   8
#     4   9  18  29  42  61  85 113 146 176 211 251
#     4  10  18  30  45  60  83 112 144 179 214 252
#     4   9  18  29  42  61  85 113 146 176 211 251
#     4  10  18  30  45  60  83 112 144 179 214 252
#     4   9  18  29  42  61  85 113 146 176 211 251
#     4   9  18  29  42  61  85 113 146 176 211 251
#
# _framework density 23.196048999999999
#
# number of rings (size 3 to 8) (size 9 to 14) (size 15 to 20)
#    2.000    0.667    0.000    4.000    0.000    0.667 
#    0.000    3.333    0.000    0.000    0.000    0.000 
#    0.000    1.333    0.000   13.333    0.000    8.000 
#
# Total GULP energy -267492.895395 kJ/mol
# GULP energy per Si atom -5572.768654 kJ/mol
# Density = 2.314325 g / cm^3
# Si number density = 23.196049 Si / 1000 Ang^3
#
#
#
# Elastic Constant Matrix: (Units=GPa)
#
#
# Indices 1 2 3 4 5 6 
#
# 1 82.1729 23.9301 52.1247 0.0000 0.0000 0.0000
# 2 23.9301 45.3201 9.0321 0.0000 0.0000 0.0000
# 3 52.1247 9.0321 159.2564 0.0000 0.0000 0.0000
# 4 0.0000 0.0000 0.0000 25.1327 0.0000 0.0000
# 5 0.0000 0.0000 0.0000 0.0000 28.7613 0.0000
# 6 0.0000 0.0000 0.0000 0.0000 0.0000 41.0926
#
#
#
# Elastic Compliance Matrix: (Units=1/GPa)
#
#
# Indices 1 2 3 4 5 6 
#
# 1 0.018085 -0.008465 -0.005439 0.000000 0.000000 0.000000
# 2 -0.008465 0.026280 0.001280 0.000000 0.000000 0.000000
# 3 -0.005439 0.001280 0.007987 0.000000 0.000000 0.000000
# 4 0.000000 0.000000 0.000000 0.039789 0.000000 0.000000
# 5 0.000000 0.000000 0.000000 0.000000 0.034769 0.000000
# 6 0.000000 0.000000 0.000000 0.000000 0.000000 0.024335
#
#
# Mechanical properties :
#
#
# Convention : Reuss Voigt Hill
#
# Bulk Modulus (GPa) = 36.89570 50.76925 43.83247
# Shear Modulus (GPa) = 26.95020 32.44148 29.69584
#
# Velocity S-wave (km/s) = 3.41228 3.74381 3.58189
# Velocity P-wave (km/s) = 5.60941 6.37360 6.00367
#
# Compressibility (1/GPa) = 0.02710343
#
# Stress axis : x y z
#
# Youngs Moduli (GPa) = 55.29487 38.05177 125.20671
#
# Poissons Ratio (x) = 0.32212 0.68101
# Poissons Ratio (y) = 0.46809 -0.16029
# Poissons Ratio (z) = 0.30075 -0.04872
#
# Static dielectric constant tensor:
#      x y z
#    x 1.871660 0.000000 0.000000 
#    y 0.000000 1.992850 0.000000 
#    z 0.000000 0.000000 1.786930 
# 
# From -- ./inp_files/9500.got.cif
#   From: 2010.05.17/outbox.cif.g08.bks.cpg/sg55_5_cif.got.tgz:9500.got - 2010.06.03 13:27:54.
