data_PCOD9424178
_publ_section_title
;
Structure prediction by ZEFSAII (Michael W. Deem and Ramdas Pophale) SiO2 
 PCOD9424178
Probable space group: P C C A
;
_chemical_formula_sum "Si O2"
_cell_formula_units_Z 40
_cell_length_a 9.181224
_cell_length_b 9.136296
_cell_length_c 22.331185
_cell_angle_alpha 90.000000
_cell_angle_beta 90.000000
_cell_angle_gamma 90.000000
_cell_volume 1873.192948
_symmetry_space_group_name_H-M "P C C A"
_symmetry_group_IT_number 54
_symmetry_cell_setting 'orthorhombic'
loop_
_space_group_symop_operation_xyz
x,y,z
1/2-x,-y,z
1/2+x,-y,1/2-z
-x,y,1/2-z
-x,-y,-z
1/2+x,y,-z
1/2-x,y,1/2+z
x,-y,1/2+z
loop_
_atom_site_type_symbol
_atom_site_label
_atom_site_fract_x
_atom_site_fract_y
_atom_site_fract_z
Si Si1 0.000000 0.173170 0.750000
Si Si2 0.750000 0.000000 0.320523
Si Si3 0.579368 0.544360 0.438436
Si Si4 0.357536 0.886528 0.936356
Si Si5 0.378598 0.382728 0.352358
Si Si6 0.896085 0.873457 0.929608
O O1 0.080674 0.280529 0.796595
O O2 0.879971 0.070273 0.782193
O O3 0.807555 0.119371 0.368257
O O4 0.750000 0.500000 0.444006
O O5 0.500000 0.500000 0.500000
O O6 0.517898 0.464561 0.379746
O O7 0.533825 0.714114 0.429811
O O8 0.344300 0.732861 0.904907
O O9 0.250000 0.000000 0.905399
O O10 0.508655 0.977155 0.932194
O O11 0.316765 0.867308 0.006017
O O12 0.250000 0.500000 0.342044
#
# Coordination Sequence:
#
# PCOD9424178 Si02
#       6
#     4   4   8   8   8   8
#     4  12  30  50  78 106 158 208 272 310 378 470
#     4  12  26  52  74 112 146 214 264 330 368 464
#     4  12  26  42  71 112 156 198 246 319 401 471
#     4  11  23  41  74 113 146 190 244 314 388 462
#     4  12  27  50  75 111 154 201 257 320 387 468
#     4  11  24  41  75 104 150 190 247 317 393 451
#
# _framework density 21.353914
#
# number of rings (size 3 to 8) (size 9 to 14) (size 15 to 20)
#    0.000    0.400    5.000    3.000    4.200    4.000 
#    0.000    0.000    0.000    0.000    0.000    0.000 
#    0.000    0.000    0.000    0.000    0.000    0.000 
#
# Total GULP energy -223188.809891 kJ/mol
# GULP energy per Si atom -5579.720247 kJ/mol
# Density = 2.130531 g / cm^3
# Si number density = 21.353914 Si / 1000 Ang^3
#
#
#
# Elastic Constant Matrix: (Units=GPa)
#
#
# Indices 1 2 3 4 5 6 
#
# 1 120.2948 39.6096 64.0527 0.0000 0.0000 0.0000
# 2 39.6096 134.9029 55.7499 0.0000 0.0000 0.0000
# 3 64.0527 55.7499 144.4755 0.0000 0.0000 0.0000
# 4 0.0000 0.0000 0.0000 22.2574 0.0000 0.0000
# 5 0.0000 0.0000 0.0000 0.0000 23.5960 0.0000
# 6 0.0000 0.0000 0.0000 0.0000 0.0000 41.5256
#
#
#
# Elastic Compliance Matrix: (Units=1/GPa)
#
#
# Indices 1 2 3 4 5 6 
#
# 1 0.011118 -0.001460 -0.004366 0.000000 0.000000 0.000000
# 2 -0.001460 0.009011 -0.002830 0.000000 0.000000 0.000000
# 3 -0.004366 -0.002830 0.009949 0.000000 0.000000 0.000000
# 4 0.000000 0.000000 0.000000 0.044929 0.000000 0.000000
# 5 0.000000 0.000000 0.000000 0.000000 0.042380 0.000000
# 6 0.000000 0.000000 0.000000 0.000000 0.000000 0.024082
#
#
# Mechanical properties :
#
#
# Convention : Reuss Voigt Hill
#
# Bulk Modulus (GPa) = 78.32843 79.83307 79.08075
# Shear Modulus (GPa) = 30.66810 33.49322 32.08066
#
# Velocity S-wave (km/s) = 3.79381 3.96470 3.88020
# Velocity P-wave (km/s) = 7.48006 7.64365 7.56230
#
# Compressibility (1/GPa) = 0.01276676
#
# Stress axis : x y z
#
# Youngs Moduli (GPa) = 89.94119 110.97658 100.51203
#
# Poissons Ratio (x) = 0.16206 0.43881
# Poissons Ratio (y) = 0.13134 0.28442
# Poissons Ratio (z) = 0.39266 0.31403
#
# Static dielectric constant tensor:
#      x y z
#    x 1.913360 0.000000 0.000000 
#    y 0.000000 1.967570 0.000000 
#    z 0.000000 0.000000 1.757750 
# 
# From -- ./inp_files/23334.got.cif
#   From: 2010.05.17/outbox.cif.g08.bks.cpg/sg54_12_cif.got.tgz:23334.got - 2010.06.03 13:09:01.
