data_PCOD9424058
_publ_section_title
;
Structure prediction by ZEFSAII (Michael W. Deem and Ramdas Pophale) SiO2 
 PCOD9424058
Probable space group: P C C A
;
_chemical_formula_sum "Si O2"
_cell_formula_units_Z 64
_cell_length_a 17.881651
_cell_length_b 15.146802
_cell_length_c 11.570126
_cell_angle_alpha 90.000000
_cell_angle_beta 90.000000
_cell_angle_gamma 90.000000
_cell_volume 3133.766627
_symmetry_space_group_name_H-M "P C C A"
_symmetry_group_IT_number 54
_symmetry_cell_setting 'orthorhombic'
loop_
_space_group_symop_operation_xyz
x,y,z
1/2-x,-y,z
1/2+x,-y,1/2-z
-x,y,1/2-z
-x,-y,-z
1/2+x,y,-z
1/2-x,y,1/2+z
x,-y,1/2+z
loop_
_atom_site_type_symbol
_atom_site_label
_atom_site_fract_x
_atom_site_fract_y
_atom_site_fract_z
Si Si1 0.087025 0.315460 0.959777
Si Si2 0.914102 0.618482 0.792880
Si Si3 0.686956 0.845614 0.557937
Si Si4 0.679105 0.946633 0.327676
Si Si5 0.090865 0.419351 0.736530
Si Si6 0.915808 0.732394 0.427793
Si Si7 0.339958 0.781734 0.331324
Si Si8 0.588038 0.896979 0.768828
O O1 0.139229 0.234811 0.992066
O O2 0.117515 0.365332 0.847713
O O3 0.005417 0.276264 0.932086
O O4 0.081047 0.378661 0.068865
O O5 0.886433 0.520975 0.759999
O O6 0.860696 0.695384 0.743969
O O7 0.000000 0.632793 0.750000
O O8 0.706925 0.905838 0.448646
O O9 0.756199 0.801675 0.624548
O O10 0.633245 0.895228 0.648695
O O11 0.646669 0.869405 0.245915
O O12 0.750000 0.000000 0.275544
O O13 0.616007 0.020365 0.343014
O O14 0.110328 0.362835 0.621975
O O15 0.000000 0.420588 0.750000
O O16 0.886632 0.764307 0.551377
O O17 0.894076 0.806026 0.334387
O O18 0.500000 0.901306 0.750000
#
# Coordination Sequence:
#
# PCOD9424058 Si02
#       8
#     8   8   8   8   8   8   8   8
#     4  11  21  43  71  95 138 181 227 280 334 398
#     4  11  23  41  69 106 139 176 229 283 334 398
#     4  12  26  46  68  93 137 179 223 281 344 402
#     4  12  28  46  67  98 134 181 227 275 346 420
#     4   9  21  38  69 103 137 180 226 274 334 407
#     4  11  22  41  70 102 134 178 229 276 338 401
#     4  12  27  43  69  98 135 180 224 281 342 410
#     4  12  25  43  71 101 132 176 229 282 339 403
#
# _framework density 20.422708
#
# number of rings (size 3 to 8) (size 9 to 14) (size 15 to 20)
#    0.000    0.750    6.250    1.125    5.250    3.500 
#    0.000    0.625    0.000    0.000    0.000    0.000 
#    0.000    0.000    0.000    0.000    0.000    0.000 
#
# Total GULP energy -357331.485330 kJ/mol
# GULP energy per Si atom -5583.304458 kJ/mol
# Density = 2.037623 g / cm^3
# Si number density = 20.422708 Si / 1000 Ang^3
#
#
#
# Elastic Constant Matrix: (Units=GPa)
#
#
# Indices 1 2 3 4 5 6 
#
# 1 47.9231 42.3930 10.3782 0.0000 0.0000 0.0000
# 2 42.3930 146.4083 43.2213 0.0000 0.0000 0.0000
# 3 10.3782 43.2213 78.8125 0.0000 0.0000 0.0000
# 4 0.0000 0.0000 0.0000 12.6795 0.0000 0.0000
# 5 0.0000 0.0000 0.0000 0.0000 25.7318 0.0000
# 6 0.0000 0.0000 0.0000 0.0000 0.0000 14.4059
#
#
#
# Elastic Compliance Matrix: (Units=1/GPa)
#
#
# Indices 1 2 3 4 5 6 
#
# 1 0.028106 -0.008407 0.000909 0.000000 0.000000 0.000000
# 2 -0.008407 0.010664 -0.004741 0.000000 0.000000 0.000000
# 3 0.000909 -0.004741 0.015169 0.000000 0.000000 0.000000
# 4 0.000000 0.000000 0.000000 0.078868 0.000000 0.000000
# 5 0.000000 0.000000 0.000000 0.000000 0.038862 0.000000
# 6 0.000000 0.000000 0.000000 0.000000 0.000000 0.069416
#
#
# Mechanical properties :
#
#
# Convention : Reuss Voigt Hill
#
# Bulk Modulus (GPa) = 33.94235 51.68099 42.81167
# Shear Modulus (GPa) = 18.15652 22.37355 20.26503
#
# Velocity S-wave (km/s) = 2.98491 3.31346 3.15346
# Velocity P-wave (km/s) = 5.34187 6.32450 5.85384
#
# Compressibility (1/GPa) = 0.02946172
#
# Stress axis : x y z
#
# Youngs Moduli (GPa) = 35.57902 93.77292 65.92511
#
# Poissons Ratio (x) = 0.78832 -0.05994
# Poissons Ratio (y) = 0.29910 0.31257
# Poissons Ratio (z) = -0.03235 0.44460
#
# Static dielectric constant tensor:
#      x y z
#    x 1.740550 0.000000 0.000000 
#    y 0.000000 1.730910 0.000000 
#    z 0.000000 0.000000 1.740520 
# 
# From -- ./inp_files/9071.got.cif
#   From: 2010.05.17/outbox.cif.g08.bks.cpg/sg54_5_cif.got.tgz:9071.got - 2010.06.03 13:09:01.
