data_PCOD9424943
_publ_section_title
;
Structure prediction by ZEFSAII (Michael W. Deem and Ramdas Pophale) SiO2 
 PCOD9424943
Probable space group: P B A M
;
_chemical_formula_sum "Si O2"
_cell_formula_units_Z 52
_cell_length_a 8.702666
_cell_length_b 23.076111
_cell_length_c 12.698727
_cell_angle_alpha 90.000000
_cell_angle_beta 90.000000
_cell_angle_gamma 90.000000
_cell_volume 2550.205171
_symmetry_space_group_name_H-M "P B A M"
_symmetry_group_IT_number 55
_symmetry_cell_setting 'orthorhombic'
loop_
_space_group_symop_operation_xyz
x,y,z
-x,-y,z
1/2+x,1/2-y,-z
1/2-x,1/2+y,-z
-x,-y,-z
x,y,-z
1/2-x,1/2+y,z
1/2+x,1/2-y,z
loop_
_atom_site_type_symbol
_atom_site_label
_atom_site_fract_x
_atom_site_fract_y
_atom_site_fract_z
Si Si1 0.736495 0.467927 0.618647
Si Si2 0.518077 0.416062 0.782091
Si Si3 0.390439 0.722616 0.000000
Si Si4 0.258240 0.399807 0.381434
Si Si5 0.931356 0.349931 0.618275
Si Si6 0.298379 0.169018 0.827356
Si Si7 0.970242 0.644989 0.000000
Si Si8 0.113443 0.892056 0.000000
O O1 0.668325 0.462926 0.500000
O O2 0.614160 0.461526 0.711936
O O3 0.799205 0.533148 0.626064
O O4 0.854363 0.414336 0.626919
O O5 0.387527 0.391349 0.705196
O O6 0.652259 0.370739 0.805380
O O7 0.438502 0.426455 0.894878
O O8 0.277077 0.717498 0.900097
O O9 0.458655 0.785652 0.000000
O O10 0.515866 0.669597 0.000000
O O11 0.320370 0.392538 0.500000
O O12 0.112400 0.358888 0.369289
O O13 0.897240 0.328641 0.500000
O O14 0.867926 0.313395 0.715629
O O15 0.425331 0.133704 0.896245
O O16 0.797737 0.619488 0.000000
#
# Coordination Sequence:
#
# PCOD9424943 Si02
#       8
#     8   8   4   8   8   8   4   4
#     4   9  17  30  48  70  99 136 178 219 248 272
#     4  10  19  31  45  68 102 134 164 206 257 297
#     4   9  19  35  57  81  96 115 153 200 245 295
#     4  10  18  29  48  74 100 133 181 220 239 269
#     4   9  17  30  50  76 107 140 168 200 246 293
#     4   9  19  33  51  77 105 128 155 197 250 303
#     4  11  19  35  59  77  93 120 159 207 254 296
#     4  10  20  32  49  72  96 121 156 199 249 311
#
# _framework density 20.390514
#
# number of rings (size 3 to 8) (size 9 to 14) (size 15 to 20)
#    0.000    2.462    0.000    3.692    0.000    3.692 
#    0.000    1.538    0.000    0.923    0.000   26.923 
#    0.000    0.000    0.000    0.000    0.000    0.000 
#
# Total GULP energy -289671.547343 kJ/mol
# GULP energy per Si atom -5570.606680 kJ/mol
# Density = 2.034410 g / cm^3
# Si number density = 20.390514 Si / 1000 Ang^3
#
#
#
# Elastic Constant Matrix: (Units=GPa)
#
#
# Indices 1 2 3 4 5 6 
#
# 1 84.2508 -5.8289 47.0568 0.0000 0.0000 0.0000
# 2 -5.8289 15.8410 3.4661 0.0000 0.0000 0.0000
# 3 47.0568 3.4661 150.4133 0.0000 0.0000 0.0000
# 4 0.0000 0.0000 0.0000 2.0721 0.0000 0.0000
# 5 0.0000 0.0000 0.0000 0.0000 42.2902 0.0000
# 6 0.0000 0.0000 0.0000 0.0000 0.0000 23.6394
#
#
#
# Elastic Compliance Matrix: (Units=1/GPa)
#
#
# Indices 1 2 3 4 5 6 
#
# 1 0.015038 0.006596 -0.004857 0.000000 0.000000 0.000000
# 2 0.006596 0.066341 -0.003592 0.000000 0.000000 0.000000
# 3 -0.004857 -0.003592 0.008251 0.000000 0.000000 0.000000
# 4 0.000000 0.000000 0.000000 0.482596 0.000000 0.000000
# 5 0.000000 0.000000 0.000000 0.000000 0.023646 0.000000
# 6 0.000000 0.000000 0.000000 0.000000 0.000000 0.042302
#
#
# Mechanical properties :
#
#
# Convention : Reuss Voigt Hill
#
# Bulk Modulus (GPa) = 11.63820 37.76590 24.70205
# Shear Modulus (GPa) = 7.45689 27.32108 17.38898
#
# Velocity S-wave (km/s) = 1.91441 3.66442 2.92344
# Velocity P-wave (km/s) = 3.25679 6.03867 4.85140
#
# Compressibility (1/GPa) = 0.08592394
#
# Stress axis : x y z
#
# Youngs Moduli (GPa) = 66.49667 15.07369 121.20377
#
# Poissons Ratio (x) = -0.09943 0.58866
# Poissons Ratio (y) = -0.43863 0.43541
# Poissons Ratio (z) = 0.32296 0.05415
#
# Static dielectric constant tensor:
#      x y z
#    x 1.732500 0.000000 0.000000 
#    y 0.000000 1.716970 0.000000 
#    z 0.000000 0.000000 1.776460 
# 
# From -- ./inp_files/12445.got.cif
#   From: 2010.05.17/outbox.cif.g08.bks.cpg/sg55_7_cif.got.tgz:12445.got - 2010.06.03 13:27:54.
