data_PCOD9424347
_publ_section_title
;
Structure prediction by ZEFSAII (Michael W. Deem and Ramdas Pophale) SiO2 
 PCOD9424347
Probable space group: P C C A
;
_chemical_formula_sum "Si O2"
_cell_formula_units_Z 40
_cell_length_a 9.668573
_cell_length_b 12.928359
_cell_length_c 13.139672
_cell_angle_alpha 90.000000
_cell_angle_beta 90.000000
_cell_angle_gamma 90.000000
_cell_volume 1642.443006
_symmetry_space_group_name_H-M "P C C A"
_symmetry_group_IT_number 54
_symmetry_cell_setting 'orthorhombic'
loop_
_space_group_symop_operation_xyz
x,y,z
1/2-x,-y,z
1/2+x,-y,1/2-z
-x,y,1/2-z
-x,-y,-z
1/2+x,y,-z
1/2-x,y,1/2+z
x,-y,1/2+z
loop_
_atom_site_type_symbol
_atom_site_label
_atom_site_fract_x
_atom_site_fract_y
_atom_site_fract_z
Si Si1 0.455467 0.215310 0.103716
Si Si2 0.873714 0.427137 0.972657
Si Si3 0.236652 0.178482 0.779400
Si Si4 0.382618 0.933941 0.443185
Si Si5 0.652506 0.401209 0.706036
O O1 0.422377 0.337148 0.102895
O O2 0.613374 0.194857 0.136766
O O3 0.353982 0.152909 0.179822
O O4 0.414474 0.176191 0.993148
O O5 0.750000 0.500000 0.936166
O O6 0.835268 0.384882 0.084159
O O7 0.000000 0.500000 0.000000
O O8 0.346888 0.097403 0.825686
O O9 0.304660 0.288610 0.752755
O O10 0.250000 0.000000 0.473790
O O11 0.500000 0.000000 0.500000
O O12 0.750000 0.500000 0.724844
O O13 0.500000 0.424257 0.750000
#
# Coordination Sequence:
#
# PCOD9424347 Si02
#       5
#     8   8   8   8   8
#     4  11  25  47  75 108 157 196 248 323 381 477
#     4  11  25  42  69 105 148 199 245 298 377 453
#     4  11  26  47  73 112 147 196 254 312 397 457
#     4  12  26  50  81 106 148 193 254 328 399 474
#     4  11  26  43  69 107 152 198 257 308 373 462
#
# _framework density 24.353964999999999
#
# number of rings (size 3 to 8) (size 9 to 14) (size 15 to 20)
#    0.000    0.800    4.000    2.400    8.400    2.400 
#    0.000    0.000    0.000    0.000    0.000    0.000 
#    0.000    0.000    0.000    0.000    0.000    0.000 
#
# Total GULP energy -223253.764605 kJ/mol
# GULP energy per Si atom -5581.344115 kJ/mol
# Density = 2.429853 g / cm^3
# Si number density = 24.353965 Si / 1000 Ang^3
#
#
#
# Elastic Constant Matrix: (Units=GPa)
#
#
# Indices 1 2 3 4 5 6 
#
# 1 129.9573 46.5080 8.3948 0.0000 0.0000 0.0000
# 2 46.5080 106.7255 1.3187 0.0000 0.0000 0.0000
# 3 8.3948 1.3187 63.1886 0.0000 0.0000 0.0000
# 4 0.0000 0.0000 0.0000 21.1166 0.0000 0.0000
# 5 0.0000 0.0000 0.0000 0.0000 32.8311 0.0000
# 6 0.0000 0.0000 0.0000 0.0000 0.0000 46.1987
#
#
#
# Elastic Compliance Matrix: (Units=1/GPa)
#
#
# Indices 1 2 3 4 5 6 
#
# 1 0.009198 -0.003994 -0.001139 0.000000 0.000000 0.000000
# 2 -0.003994 0.011107 0.000299 0.000000 0.000000 0.000000
# 3 -0.001139 0.000299 0.015971 0.000000 0.000000 0.000000
# 4 0.000000 0.000000 0.000000 0.047356 0.000000 0.000000
# 5 0.000000 0.000000 0.000000 0.000000 0.030459 0.000000
# 6 0.000000 0.000000 0.000000 0.000000 0.000000 0.021646
#
#
# Mechanical properties :
#
#
# Convention : Reuss Voigt Hill
#
# Bulk Modulus (GPa) = 37.58349 45.81271 41.69810
# Shear Modulus (GPa) = 32.41019 36.27261 34.34140
#
# Velocity S-wave (km/s) = 3.65197 3.86345 3.75920
# Velocity P-wave (km/s) = 5.76612 6.22525 6.00008
#
# Compressibility (1/GPa) = 0.02660743
#
# Stress axis : x y z
#
# Youngs Moduli (GPa) = 108.72235 90.03632 62.61475
#
# Poissons Ratio (x) = 0.35961 0.07129
# Poissons Ratio (y) = 0.43424 -0.01871
# Poissons Ratio (z) = 0.12379 -0.02691
#
# Static dielectric constant tensor:
#      x y z
#    x 1.929870 0.000000 0.000000 
#    y 0.000000 1.945630 0.000000 
#    z 0.000000 0.000000 2.249320 
# 
# From -- ./inp_files/11490.got.cif
#   From: 2010.05.17/outbox.cif.g08.bks.cpg/sg54_6_cif.got.tgz:11490.got - 2010.06.03 13:09:01.
