data_PCOD9424559
_publ_section_title
;
Structure prediction by ZEFSAII (Michael W. Deem and Ramdas Pophale) SiO2 
 PCOD9424559
Probable space group: P C C A
;
_chemical_formula_sum "Si O2"
_cell_formula_units_Z 32
_cell_length_a 9.106440
_cell_length_b 10.198621
_cell_length_c 13.472640
_cell_angle_alpha 90.000000
_cell_angle_beta 90.000000
_cell_angle_gamma 90.000000
_cell_volume 1251.246249
_symmetry_space_group_name_H-M "P C C A"
_symmetry_group_IT_number 54
_symmetry_cell_setting 'orthorhombic'
loop_
_space_group_symop_operation_xyz
x,y,z
1/2-x,-y,z
1/2+x,-y,1/2-z
-x,y,1/2-z
-x,-y,-z
1/2+x,y,-z
1/2-x,y,1/2+z
x,-y,1/2+z
loop_
_atom_site_type_symbol
_atom_site_label
_atom_site_fract_x
_atom_site_fract_y
_atom_site_fract_z
Si Si1 0.148143 0.090449 0.993476
Si Si2 0.350440 0.368973 0.188072
Si Si3 0.524904 0.347978 0.519793
Si Si4 0.354282 0.802775 0.312335
O O1 0.259863 0.120326 0.898031
O O2 0.250000 0.000000 0.062560
O O3 0.098094 0.235773 0.021139
O O4 0.000000 0.000000 0.000000
O O5 0.250000 0.500000 0.182651
O O6 0.500000 0.393939 0.250000
O O7 0.264097 0.250632 0.237521
O O8 0.387612 0.317136 0.079303
O O9 0.500000 0.500000 0.500000
O O10 0.596466 0.326268 0.625958
O O11 0.500000 0.853096 0.250000
#
# Coordination Sequence:
#
# PCOD9424559 Si02
#       4
#     8   8   8   8
#     4  12  28  55  85 124 177 235 299 375 460 562
#     4  12  26  46  79 127 179 230 304 383 464 560
#     4  12  28  52  87 123 174 233 300 380 465 544
#     4  12  29  52  82 127 173 240 307 374 460 564
#
# _framework density 25.574503
#
# number of rings (size 3 to 8) (size 9 to 14) (size 15 to 20)
#    0.000    0.000    5.000    3.750    7.000    0.000 
#    4.500    1.250    0.000    0.000    0.000    0.000 
#    0.000    0.000    0.000    0.000    0.000    0.000 
#
# Total GULP energy -178294.914178 kJ/mol
# GULP energy per Si atom -5571.716068 kJ/mol
# Density = 2.551629 g / cm^3
# Si number density = 25.574503 Si / 1000 Ang^3
#
#
#
# Elastic Constant Matrix: (Units=GPa)
#
#
# Indices 1 2 3 4 5 6 
#
# 1 159.0114 45.0200 49.7533 0.0000 0.0000 0.0000
# 2 45.0200 168.1726 19.7072 0.0000 0.0000 0.0000
# 3 49.7533 19.7072 133.9973 0.0000 0.0000 0.0000
# 4 0.0000 0.0000 0.0000 19.7109 0.0000 0.0000
# 5 0.0000 0.0000 0.0000 0.0000 72.9277 0.0000
# 6 0.0000 0.0000 0.0000 0.0000 0.0000 40.4839
#
#
#
# Elastic Compliance Matrix: (Units=1/GPa)
#
#
# Indices 1 2 3 4 5 6 
#
# 1 0.007579 -0.001729 -0.002560 0.000000 0.000000 0.000000
# 2 -0.001729 0.006445 -0.000306 0.000000 0.000000 0.000000
# 3 -0.002560 -0.000306 0.008458 0.000000 0.000000 0.000000
# 4 0.000000 0.000000 0.000000 0.050733 0.000000 0.000000
# 5 0.000000 0.000000 0.000000 0.000000 0.013712 0.000000
# 6 0.000000 0.000000 0.000000 0.000000 0.000000 0.024701
#
#
# Mechanical properties :
#
#
# Convention : Reuss Voigt Hill
#
# Bulk Modulus (GPa) = 75.22761 76.68247 75.95504
# Shear Modulus (GPa) = 39.92018 49.73790 44.82904
#
# Velocity S-wave (km/s) = 3.95516 4.41480 4.19128
# Velocity P-wave (km/s) = 7.09483 7.48574 7.29291
#
# Compressibility (1/GPa) = 0.01329299
#
# Stress axis : x y z
#
# Youngs Moduli (GPa) = 131.93709 155.15959 118.22666
#
# Poissons Ratio (x) = 0.26827 0.30265
# Poissons Ratio (y) = 0.22812 0.03616
# Poissons Ratio (z) = 0.33775 0.04746
#
# Static dielectric constant tensor:
#      x y z
#    x 2.177940 0.000000 0.000000 
#    y 0.000000 2.028320 0.000000 
#    z 0.000000 0.000000 2.171510 
# 
# From -- ./inp_files/11203.got.cif
#   From: 2010.05.17/outbox.cif.g08.bks.cpg/sg54_6_cif.got.tgz:11203.got - 2010.06.03 13:09:01.
