data_PCOD9424315
_publ_section_title
;
Structure prediction by ZEFSAII (Michael W. Deem and Ramdas Pophale) SiO2 
 PCOD9424315
Probable space group: P C C A
;
_chemical_formula_sum "Si O2"
_cell_formula_units_Z 48
_cell_length_a 17.355890
_cell_length_b 8.977057
_cell_length_c 13.879204
_cell_angle_alpha 90.000000
_cell_angle_beta 90.000000
_cell_angle_gamma 90.000000
_cell_volume 2162.446795
_symmetry_space_group_name_H-M "P C C A"
_symmetry_group_IT_number 54
_symmetry_cell_setting 'orthorhombic'
loop_
_space_group_symop_operation_xyz
x,y,z
1/2-x,-y,z
1/2+x,-y,1/2-z
-x,y,1/2-z
-x,-y,-z
1/2+x,y,-z
1/2-x,y,1/2+z
x,-y,1/2+z
loop_
_atom_site_type_symbol
_atom_site_label
_atom_site_fract_x
_atom_site_fract_y
_atom_site_fract_z
Si Si1 0.250000 0.500000 0.982471
Si Si2 0.577468 0.024794 0.134412
Si Si3 0.879784 0.784961 0.798515
Si Si4 0.595282 0.959405 0.920642
Si Si5 0.290923 0.716356 0.654289
Si Si6 0.374130 0.357727 0.339899
Si Si7 0.000000 0.467284 0.250000
O O1 0.221914 0.628229 0.055415
O O2 0.180856 0.439764 0.915629
O O3 0.622636 0.180175 0.142263
O O4 0.596505 0.908597 0.218886
O O5 0.487731 0.072289 0.126614
O O6 0.593566 0.939392 0.034571
O O7 0.891664 0.866390 0.900356
O O8 0.790274 0.747348 0.794441
O O9 0.934930 0.644769 0.789265
O O10 0.662180 0.864826 0.871873
O O11 0.339843 0.626112 0.732295
O O12 0.458663 0.431139 0.330653
#
# Coordination Sequence:
#
# PCOD9424315 Si02
#       7
#     4   8   8   8   8   8   4
#     4  12  28  50  72 114 162 194 258 310 390 474
#     4  11  25  45  76 109 147 196 256 320 376 451
#     4  12  24  48  73 108 147 196 254 316 377 455
#     4  11  24  45  74 111 144 190 260 317 374 450
#     4  12  27  47  74 112 154 199 253 316 388 455
#     4  12  27  48  75 108 154 199 250 313 387 459
#     4  12  26  44  80 100 148 208 244 306 396 450
#
# _framework density 22.197078999999999
#
# number of rings (size 3 to 8) (size 9 to 14) (size 15 to 20)
#    0.000    0.333    3.333    5.000    4.667    0.000 
#    0.000    5.000    0.000    0.000    0.000    0.000 
#    0.000    0.000    0.000    0.000    0.000    0.000 
#
# Total GULP energy -268624.545713 kJ/mol
# GULP energy per Si atom -5596.344702 kJ/mol
# Density = 2.214656 g / cm^3
# Si number density = 22.197079 Si / 1000 Ang^3
#
#
#
# Elastic Constant Matrix: (Units=GPa)
#
#
# Indices 1 2 3 4 5 6 
#
# 1 137.5402 58.5295 43.8134 0.0000 0.0000 0.0000
# 2 58.5295 97.4646 45.9931 0.0000 0.0000 0.0000
# 3 43.8134 45.9931 110.6816 0.0000 0.0000 0.0000
# 4 0.0000 0.0000 0.0000 27.6127 0.0000 0.0000
# 5 0.0000 0.0000 0.0000 0.0000 29.8492 0.0000
# 6 0.0000 0.0000 0.0000 0.0000 0.0000 47.9743
#
#
#
# Elastic Compliance Matrix: (Units=1/GPa)
#
#
# Indices 1 2 3 4 5 6 
#
# 1 0.010056 -0.005175 -0.001830 0.000000 0.000000 0.000000
# 2 -0.005175 0.015426 -0.004362 0.000000 0.000000 0.000000
# 3 -0.001830 -0.004362 0.011572 0.000000 0.000000 0.000000
# 4 0.000000 0.000000 0.000000 0.036215 0.000000 0.000000
# 5 0.000000 0.000000 0.000000 0.000000 0.033502 0.000000
# 6 0.000000 0.000000 0.000000 0.000000 0.000000 0.020844
#
#
# Mechanical properties :
#
#
# Convention : Reuss Voigt Hill
#
# Bulk Modulus (GPa) = 69.83232 71.37315 70.60273
# Shear Modulus (GPa) = 32.23260 34.24393 33.23827
#
# Velocity S-wave (km/s) = 3.81479 3.93201 3.87384
# Velocity P-wave (km/s) = 7.13666 7.26900 7.20314
#
# Compressibility (1/GPa) = 0.01432002
#
# Stress axis : x y z
#
# Youngs Moduli (GPa) = 99.44479 64.82494 86.41658
#
# Poissons Ratio (x) = 0.33548 0.15815
# Poissons Ratio (y) = 0.51464 0.37692
# Poissons Ratio (z) = 0.18200 0.28275
#
# Static dielectric constant tensor:
#      x y z
#    x 1.849570 0.000000 0.000000 
#    y 0.000000 1.831080 0.000000 
#    z 0.000000 0.000000 1.796240 
# 
# From -- ./inp_files/14175.got.cif
#   From: 2010.05.17/outbox.cif.g08.bks.cpg/sg54_8_cif.got.tgz:14175.got - 2010.06.03 13:09:01.
