data_PCOD9424970
_publ_section_title
;
Structure prediction by ZEFSAII (Michael W. Deem and Ramdas Pophale) SiO2 
 PCOD9424970
Probable space group: P B A M
;
_chemical_formula_sum "Si O2"
_cell_formula_units_Z 64
_cell_length_a 19.210813
_cell_length_b 22.297652
_cell_length_c 9.018340
_cell_angle_alpha 90.000000
_cell_angle_beta 90.000000
_cell_angle_gamma 90.000000
_cell_volume 3863.060256
_symmetry_space_group_name_H-M "P B A M"
_symmetry_group_IT_number 55
_symmetry_cell_setting 'orthorhombic'
loop_
_space_group_symop_operation_xyz
x,y,z
-x,-y,z
1/2+x,1/2-y,-z
1/2-x,1/2+y,-z
-x,-y,-z
x,y,-z
1/2-x,1/2+y,z
1/2+x,1/2-y,z
loop_
_atom_site_type_symbol
_atom_site_label
_atom_site_fract_x
_atom_site_fract_y
_atom_site_fract_z
Si Si1 0.575853 0.853225 0.322457
Si Si2 0.967321 0.810076 0.171077
Si Si3 0.525026 0.565567 0.818862
Si Si4 0.917996 0.488220 0.323057
Si Si5 0.420888 0.806785 0.677426
Si Si6 0.829213 0.592886 0.822143
Si Si7 0.873661 0.239630 0.170105
Si Si8 0.674362 0.614493 0.819379
O O1 0.578366 0.852229 0.500000
O O2 0.495689 0.837319 0.282179
O O3 0.624044 0.801009 0.258890
O O4 0.595347 0.919973 0.273456
O O5 0.924942 0.761641 0.265513
O O6 0.975422 0.878622 0.225710
O O7 0.047180 0.786044 0.170046
O O8 0.943044 0.809841 0.000000
O O9 0.500000 0.500000 0.770980
O O10 0.604220 0.580448 0.771023
O O11 0.524708 0.566483 0.000000
O O12 0.904908 0.493389 0.500000
O O13 0.873139 0.537214 0.238684
O O14 0.000000 0.500000 0.301332
O O15 0.414176 0.808749 0.500000
O O16 0.362152 0.846743 0.754078
O O17 0.748224 0.587104 0.778093
O O18 0.833506 0.595752 0.000000
O O19 0.829469 0.183934 0.230494
O O20 0.853991 0.251493 0.000000
O O21 0.671051 0.616413 0.000000
#
# Coordination Sequence:
#
# PCOD9424970 Si02
#       8
#     8   8   8   8   8   8   8   8
#     4   9  17  29  47  68  91 119 156 200 236 276
#     4   8  14  25  44  73  97 114 148 196 237 277
#     4   8  13  25  50  78 100 126 159 197 244 296
#     4  10  19  34  49  66  97 134 168 201 243 289
#     4  10  18  30  46  66  93 127 160 194 244 289
#     4  11  21  31  47  70  97 129 166 206 245 288
#     4   8  14  27  47  67  90 117 146 189 239 280
#     4   8  16  30  46  69 100 126 154 199 249 290
#
# _framework density 16.567176
#
# number of rings (size 3 to 8) (size 9 to 14) (size 15 to 20)
#    0.000    3.000    1.250    2.250    0.000    1.250 
#    0.000    1.250    2.750    1.875    0.000    0.000 
#    0.000    0.000    0.000    0.000    0.000    0.000 
#
# Total GULP energy -356329.425076 kJ/mol
# GULP energy per Si atom -5567.647267 kJ/mol
# Density = 1.652947 g / cm^3
# Si number density = 16.567176 Si / 1000 Ang^3
#
#
#
# Elastic Constant Matrix: (Units=GPa)
#
#
# Indices 1 2 3 4 5 6 
#
# 1 66.4606 52.1985 22.7955 0.0000 0.0000 0.0000
# 2 52.1985 153.3717 33.0915 0.0000 0.0000 0.0000
# 3 22.7955 33.0915 22.3164 0.0000 0.0000 0.0000
# 4 0.0000 0.0000 0.0000 1.6296 0.0000 0.0000
# 5 0.0000 0.0000 0.0000 0.0000 8.0432 0.0000
# 6 0.0000 0.0000 0.0000 0.0000 0.0000 19.2324
#
#
#
# Elastic Compliance Matrix: (Units=1/GPa)
#
#
# Indices 1 2 3 4 5 6 
#
# 1 0.025043 -0.004417 -0.019031 0.000000 0.000000 0.000000
# 2 -0.004417 0.010367 -0.010860 0.000000 0.000000 0.000000
# 3 -0.019031 -0.010860 0.080353 0.000000 0.000000 0.000000
# 4 0.000000 0.000000 0.000000 0.613632 0.000000 0.000000
# 5 0.000000 0.000000 0.000000 0.000000 0.124328 0.000000
# 6 0.000000 0.000000 0.000000 0.000000 0.000000 0.051996
#
#
# Mechanical properties :
#
#
# Convention : Reuss Voigt Hill
#
# Bulk Modulus (GPa) = 21.21039 50.92443 36.06741
# Shear Modulus (GPa) = 5.05025 14.71859 9.88442
#
# Velocity S-wave (km/s) = 1.74785 2.98387 2.44524
# Velocity P-wave (km/s) = 4.11142 6.53270 5.45802
#
# Compressibility (1/GPa) = 0.04714670
#
# Stress axis : x y z
#
# Youngs Moduli (GPa) = 39.93097 96.46402 12.44506
#
# Poissons Ratio (x) = 0.42609 0.23684
# Poissons Ratio (y) = 0.17638 0.13515
# Poissons Ratio (z) = 0.75993 1.04760
#
# Static dielectric constant tensor:
#      x y z
#    x 1.550980 0.000000 0.000000 
#    y 0.000000 1.577420 0.000000 
#    z 0.000000 0.000000 1.554130 
# 
# From -- ./inp_files/9171.got.cif
#   From: 2010.05.17/outbox.cif.g08.bks.cpg/sg55_5_cif.got.tgz:9171.got - 2010.06.03 13:27:54.
