data_PCOD9424223
_publ_section_title
;
Structure prediction by ZEFSAII (Michael W. Deem and Ramdas Pophale) SiO2 
 PCOD9424223
Probable space group: P C C A
;
_chemical_formula_sum "Si O2"
_cell_formula_units_Z 60
_cell_length_a 15.628994
_cell_length_b 18.072898
_cell_length_c 9.341686
_cell_angle_alpha 90.000000
_cell_angle_beta 90.000000
_cell_angle_gamma 90.000000
_cell_volume 2638.663972
_symmetry_space_group_name_H-M "P C C A"
_symmetry_group_IT_number 54
_symmetry_cell_setting 'orthorhombic'
loop_
_space_group_symop_operation_xyz
x,y,z
1/2-x,-y,z
1/2+x,-y,1/2-z
-x,y,1/2-z
-x,-y,-z
1/2+x,y,-z
1/2-x,y,1/2+z
x,-y,1/2+z
loop_
_atom_site_type_symbol
_atom_site_label
_atom_site_fract_x
_atom_site_fract_y
_atom_site_fract_z
Si Si1 0.149173 0.937146 0.282082
Si Si2 0.566127 0.544853 0.645358
Si Si3 0.323233 0.755121 0.127847
Si Si4 0.170995 0.551843 0.081079
Si Si5 0.489993 0.697076 0.992305
Si Si6 0.831518 0.078735 0.375006
Si Si7 0.185329 0.297260 0.428528
Si Si8 0.500000 0.179902 0.250000
O O1 0.236335 0.922029 0.194094
O O2 0.165198 0.938877 0.454250
O O3 0.081864 0.873339 0.246929
O O4 0.119737 0.016200 0.216999
O O5 0.500000 0.501549 0.750000
O O6 0.607069 0.494261 0.523292
O O7 0.634490 0.572072 0.762894
O O8 0.518755 0.616762 0.581607
O O9 0.360634 0.837240 0.148258
O O10 0.286584 0.717954 0.268969
O O11 0.402611 0.705478 0.078955
O O12 0.243357 0.758832 0.019873
O O13 0.250000 0.500000 0.110626
O O14 0.202772 0.622783 0.994325
O O15 0.489671 0.764506 0.881347
O O16 0.581979 0.706518 0.067012
#
# Coordination Sequence:
#
# PCOD9424223 Si02
#       8
#     8   8   8   8   8   8   8   4
#     4  11  24  43  74 103 149 190 246 304 381 449
#     4  12  26  47  73 103 146 200 242 306 375 443
#     4  12  28  48  78 110 147 197 260 309 380 452
#     4  12  28  46  73 107 149 192 252 307 373 445
#     4  12  26  50  75 105 158 195 257 309 382 444
#     4  11  23  46  69 108 143 196 242 312 372 454
#     4  12  29  48  76 111 146 203 251 316 372 455
#     4  12  24  46  74 110 144 200 246 314 374 446
#
# _framework density 22.738779999999998
#
# number of rings (size 3 to 8) (size 9 to 14) (size 15 to 20)
#    0.000    0.267    3.333    5.200    9.333    1.600 
#    2.400    0.000    0.000    0.000    0.000    0.000 
#    0.000    0.000    0.000    0.000    0.000    0.000 
#
# Total GULP energy -335545.550962 kJ/mol
# GULP energy per Si atom -5592.425849 kJ/mol
# Density = 2.268703 g / cm^3
# Si number density = 22.738780 Si / 1000 Ang^3
#
#
#
# Elastic Constant Matrix: (Units=GPa)
#
#
# Indices 1 2 3 4 5 6 
#
# 1 58.1227 -11.2208 4.6803 0.0000 0.0000 0.0000
# 2 -11.2208 -6.7380 -87.1541 0.0000 0.0000 0.0000
# 3 4.6803 -87.1541 24.8603 0.0000 0.0000 0.0000
# 4 0.0000 0.0000 0.0000 29.6936 0.0000 0.0000
# 5 0.0000 0.0000 0.0000 0.0000 32.7205 0.0000
# 6 0.0000 0.0000 0.0000 0.0000 0.0000 36.6024
#
#
#
# Elastic Compliance Matrix: (Units=1/GPa)
#
#
# Indices 1 2 3 4 5 6 
#
# 1 0.017444 0.000290 -0.002268 0.000000 0.000000 0.000000
# 2 0.000290 -0.003197 -0.011264 0.000000 0.000000 0.000000
# 3 -0.002268 -0.011264 0.001163 0.000000 0.000000 0.000000
# 4 0.000000 0.000000 0.000000 0.033677 0.000000 0.000000
# 5 0.000000 0.000000 0.000000 0.000000 0.030562 0.000000
# 6 0.000000 0.000000 0.000000 0.000000 0.000000 0.027321
#
#
# Mechanical properties :
#
#
# Convention : Reuss Voigt Hill
#
# Bulk Modulus (GPa) = -90.28516 -12.34937 -51.31726
# Shear Modulus (GPa) = 38.53218 31.13262 34.83240
#
# Velocity S-wave (km/s) = 4.12097 3.70421 3.91813
# Velocity P-wave (km/s) = 4.14106 3.58498 1.46566
#
# Compressibility (1/GPa) = -0.01107602
#
# Stress axis : x y z
#
# Youngs Moduli (GPa) = 57.32774 -312.74888 859.94328
#
# Poissons Ratio (x) = 0.09062 1.95053
# Poissons Ratio (y) = -0.01661 9.68643
# Poissons Ratio (z) = 0.13003 -3.52281
#
# Static dielectric constant tensor:
#      x y z
#    x 1.849130 0.000000 0.000000 
#    y 0.000000 1.855770 0.000000 
#    z 0.000000 0.000000 1.830800 
# 
# From -- ./inp_files/4348.got.cif
#   From: 2010.05.17/outbox.cif.g08.bks.cpg/sg54_3_cif.got.tgz:4348.got - 2010.06.03 13:09:01.
