data_PCOD9424765
_publ_section_title
;
Structure prediction by ZEFSAII (Michael W. Deem and Ramdas Pophale) SiO2 
 PCOD9424765
Probable space group: P B A M
;
_chemical_formula_sum "Si O2"
_cell_formula_units_Z 64
_cell_length_a 18.869154
_cell_length_b 27.526354
_cell_length_c 8.734708
_cell_angle_alpha 90.000000
_cell_angle_beta 90.000000
_cell_angle_gamma 90.000000
_cell_volume 4536.798711
_symmetry_space_group_name_H-M "P B A M"
_symmetry_group_IT_number 55
_symmetry_cell_setting 'orthorhombic'
loop_
_space_group_symop_operation_xyz
x,y,z
-x,-y,z
1/2+x,1/2-y,-z
1/2-x,1/2+y,-z
-x,-y,-z
x,y,-z
1/2-x,1/2+y,z
1/2+x,1/2-y,z
loop_
_atom_site_type_symbol
_atom_site_label
_atom_site_fract_x
_atom_site_fract_y
_atom_site_fract_z
Si Si1 0.831702 0.853132 0.816219
Si Si2 0.916713 0.946169 0.186780
Si Si3 0.791156 0.702023 0.322921
Si Si4 0.797149 0.303295 0.323683
Si Si5 0.660660 0.651649 0.184242
Si Si6 0.419717 0.444374 0.813790
Si Si7 0.574418 0.742764 0.684639
Si Si8 0.918093 0.756426 0.816566
O O1 0.864776 0.903663 0.759681
O O2 0.752270 0.841197 0.763293
O O3 0.882239 0.807988 0.769359
O O4 0.832357 0.853784 0.000000
O O5 0.998307 0.935810 0.231372
O O6 0.899104 0.001166 0.235784
O O7 0.915447 0.945857 0.000000
O O8 0.804263 0.690086 0.500000
O O9 0.746146 0.752348 0.318839
O O10 0.739161 0.663256 0.245324
O O11 0.863680 0.714732 0.236966
O O12 0.802860 0.318494 0.500000
O O13 0.874590 0.287546 0.265715
O O14 0.630349 0.599547 0.235232
O O15 0.608639 0.693690 0.247114
O O16 0.660441 0.653956 0.000000
O O17 0.419085 0.444495 0.000000
O O18 0.577955 0.740142 0.500000
O O19 0.494640 0.748363 0.741067
O O20 0.924458 0.756342 0.000000
#
# Coordination Sequence:
#
# PCOD9424765 Si02
#       8
#     8   8   8   8   8   8   8   8
#     4   9  16  25  40  59  78 101 132 165 198 232
#     4   8  13  23  37  56  80 105 132 164 201 238
#     4   9  17  29  41  55  78 108 134 160 198 243
#     4   8  16  28  39  52  74 103 133 159 190 232
#     4  10  17  26  41  60  79 104 139 174 200 227
#     4   8  14  23  37  56  80 106 133 167 203 232
#     4  10  19  29  40  56  79 109 137 163 199 244
#     4  10  18  27  41  62  82 102 132 170 201 232
#
# _framework density 14.106863000000001
#
# number of rings (size 3 to 8) (size 9 to 14) (size 15 to 20)
#    0.000    3.000    0.000    3.750    0.000    6.000 
#    0.000    0.000    0.000    1.500    0.000    5.250 
#    0.000    1.000    0.000   11.500    0.000    2.875 
#
# Total GULP energy -356277.530440 kJ/mol
# GULP energy per Si atom -5566.836413 kJ/mol
# Density = 1.407476 g / cm^3
# Si number density = 14.106863 Si / 1000 Ang^3
#
#
#
# Elastic Constant Matrix: (Units=GPa)
#
#
# Indices 1 2 3 4 5 6 
#
# 1 105.7041 62.1786 25.4882 0.0000 0.0000 0.0000
# 2 62.1786 97.9880 21.8448 0.0000 0.0000 0.0000
# 3 25.4882 21.8448 28.3453 0.0000 0.0000 0.0000
# 4 0.0000 0.0000 0.0000 5.0559 0.0000 0.0000
# 5 0.0000 0.0000 0.0000 0.0000 22.9197 0.0000
# 6 0.0000 0.0000 0.0000 0.0000 0.0000 26.8323
#
#
#
# Elastic Compliance Matrix: (Units=1/GPa)
#
#
# Indices 1 2 3 4 5 6 
#
# 1 0.016532 -0.008665 -0.008188 0.000000 0.000000 0.000000
# 2 -0.008665 0.016864 -0.005205 0.000000 0.000000 0.000000
# 3 -0.008188 -0.005205 0.046653 0.000000 0.000000 0.000000
# 4 0.000000 0.000000 0.000000 0.197789 0.000000 0.000000
# 5 0.000000 0.000000 0.000000 0.000000 0.043631 0.000000
# 6 0.000000 0.000000 0.000000 0.000000 0.000000 0.037269
#
#
# Mechanical properties :
#
#
# Convention : Reuss Voigt Hill
#
# Bulk Modulus (GPa) = 27.82914 50.11784 38.97349
# Shear Modulus (GPa) = 12.05316 19.12996 15.59156
#
# Velocity S-wave (km/s) = 2.92621 3.68649 3.32813
# Velocity P-wave (km/s) = 5.58455 7.32971 6.51582
#
# Compressibility (1/GPa) = 0.03593355
#
# Stress axis : x y z
#
# Youngs Moduli (GPa) = 60.49029 59.29771 21.43488
#
# Poissons Ratio (x) = 0.51381 0.17550
# Poissons Ratio (y) = 0.52414 0.11157
# Poissons Ratio (z) = 0.49526 0.30865
#
# Static dielectric constant tensor:
#      x y z
#    x 1.461410 0.000000 0.000000 
#    y 0.000000 1.461090 0.000000 
#    z 0.000000 0.000000 1.478590 
# 
# From -- ./inp_files/8181.got.cif
#   From: 2010.05.17/outbox.cif.g08.bks.cpg/sg55_5_cif.got.tgz:8181.got - 2010.06.03 13:27:54.
