data_PCOD9424862
_publ_section_title
;
Structure prediction by ZEFSAII (Michael W. Deem and Ramdas Pophale) SiO2 
 PCOD9424862
Probable space group: P B A M
;
_chemical_formula_sum "Si O2"
_cell_formula_units_Z 48
_cell_length_a 18.401273
_cell_length_b 5.599308
_cell_length_c 21.912467
_cell_angle_alpha 90.000000
_cell_angle_beta 90.000000
_cell_angle_gamma 90.000000
_cell_volume 2257.737783
_symmetry_space_group_name_H-M "P B A M"
_symmetry_group_IT_number 55
_symmetry_cell_setting 'orthorhombic'
loop_
_space_group_symop_operation_xyz
x,y,z
-x,-y,z
1/2+x,1/2-y,-z
1/2-x,1/2+y,-z
-x,-y,-z
x,y,-z
1/2-x,1/2+y,z
1/2+x,1/2-y,z
loop_
_atom_site_type_symbol
_atom_site_label
_atom_site_fract_x
_atom_site_fract_y
_atom_site_fract_z
Si Si1 0.293987 0.310391 0.500000
Si Si2 0.334909 0.767550 0.685180
Si Si3 0.833929 0.232309 0.362548
Si Si4 0.253188 0.856428 0.905973
Si Si5 0.597899 0.668553 0.137267
Si Si6 0.890383 0.662770 0.179457
Si Si7 0.544123 0.747303 0.000000
O O1 0.256220 0.571621 0.500000
O O2 0.333955 0.293511 0.564617
O O3 0.366276 0.511077 0.664940
O O4 0.249848 0.759932 0.663747
O O5 0.350537 0.796187 0.756491
O O6 0.365698 0.010274 0.655203
O O7 0.252683 0.605938 0.939131
O O8 0.186129 0.853655 0.858094
O O9 0.328965 0.862626 0.871807
O O10 0.570335 0.407415 0.158587
O O11 0.573669 0.899352 0.176068
O O12 0.584585 0.726349 0.065422
O O13 0.500000 0.500000 0.000000
O O14 0.500000 0.000000 0.000000
#
# Coordination Sequence:
#
# PCOD9424862 Si02
#       7
#     4   8   8   8   8   8   4
#     4  12  16  30  32  50  86 128 188 260 238 244
#     4  10  18  25  39  64  88 125 167 200 252 290
#     4  10  19  24  38  57  85 131 186 219 249 255
#     4   8  16  27  44  71  98 128 138 170 232 287
#     4  10  21  36  54  78  95 127 154 194 256 296
#     4  10  19  31  51  76 111 126 151 195 255 307
#     4  12  26  46  66  76  94 120 168 216 238 298
#
# _framework density 21.26022
#
# number of rings (size 3 to 8) (size 9 to 14) (size 15 to 20)
#    0.000    2.000    3.333    2.000   14.000    0.000 
#    0.000    7.500    0.000    0.000    0.000    0.000 
#    0.000    0.000    0.000    0.000    0.000    0.000 
#
# Total GULP energy -267202.500625 kJ/mol
# GULP energy per Si atom -5566.718763 kJ/mol
# Density = 2.121183 g / cm^3
# Si number density = 21.260220 Si / 1000 Ang^3
#
#
#
# Elastic Constant Matrix: (Units=GPa)
#
#
# Indices 1 2 3 4 5 6 
#
# 1 24.9198 11.3351 -2.2903 0.0000 0.0000 0.0000
# 2 11.3351 224.1082 15.3582 0.0000 0.0000 0.0000
# 3 -2.2903 15.3582 111.4574 0.0000 0.0000 0.0000
# 4 0.0000 0.0000 0.0000 34.0289 0.0000 0.0000
# 5 0.0000 0.0000 0.0000 0.0000 -6.8772 0.0000
# 6 0.0000 0.0000 0.0000 0.0000 0.0000 18.6589
#
#
#
# Elastic Compliance Matrix: (Units=1/GPa)
#
#
# Indices 1 2 3 4 5 6 
#
# 1 0.041218 -0.002163 0.001145 0.000000 0.000000 0.000000
# 2 -0.002163 0.004618 -0.000681 0.000000 0.000000 0.000000
# 3 0.001145 -0.000681 0.009089 0.000000 0.000000 0.000000
# 4 0.000000 0.000000 0.000000 0.029387 0.000000 0.000000
# 5 0.000000 0.000000 0.000000 0.000000 -0.145408 0.000000
# 6 0.000000 0.000000 0.000000 0.000000 0.000000 0.053594
#
#
# Mechanical properties :
#
#
# Convention : Reuss Voigt Hill
#
# Bulk Modulus (GPa) = 19.40707 45.47682 32.44194
# Shear Modulus (GPa) = 382.49015 31.56761 207.02888
#
# Velocity S-wave (km/s) = 13.42756 3.85752 9.87876
# Velocity P-wave (km/s) = 15.79707 6.42476 12.05871
#
# Compressibility (1/GPa) = 0.05152762
#
# Stress axis : x y z
#
# Youngs Moduli (GPa) = 24.26124 216.53464 110.01848
#
# Poissons Ratio (x) = 0.46841 -0.12598
# Poissons Ratio (y) = 0.05248 0.07490
# Poissons Ratio (z) = -0.02778 0.14742
#
# Static dielectric constant tensor:
#      x y z
#    x 1.769440 0.000000 0.000000 
#    y 0.000000 1.862860 0.000000 
#    z 0.000000 0.000000 1.774760 
# 
# From -- ./inp_files/23119.got.cif
#   From: 2010.05.17/outbox.cif.g08.bks.cpg/sg55_12_cif.got.tgz:23119.got - 2010.06.03 13:27:54.
