data_PCOD9424418
_publ_section_title
;
Structure prediction by ZEFSAII (Michael W. Deem and Ramdas Pophale) SiO2 
 PCOD9424418
Probable space group: P C C A
;
_chemical_formula_sum "Si O2"
_cell_formula_units_Z 40
_cell_length_a 16.037037
_cell_length_b 5.461108
_cell_length_c 18.093298
_cell_angle_alpha 90.000000
_cell_angle_beta 90.000000
_cell_angle_gamma 90.000000
_cell_volume 1584.610877
_symmetry_space_group_name_H-M "P C C A"
_symmetry_group_IT_number 54
_symmetry_cell_setting 'orthorhombic'
loop_
_space_group_symop_operation_xyz
x,y,z
1/2-x,-y,z
1/2+x,-y,1/2-z
-x,y,1/2-z
-x,-y,-z
1/2+x,y,-z
1/2-x,y,1/2+z
x,-y,1/2+z
loop_
_atom_site_type_symbol
_atom_site_label
_atom_site_fract_x
_atom_site_fract_y
_atom_site_fract_z
Si Si1 0.250000 0.500000 0.585395
Si Si2 0.128829 0.117114 0.151873
Si Si3 0.413802 0.227642 0.026418
Si Si4 0.750000 0.000000 0.735829
Si Si5 0.250000 0.500000 0.854325
Si Si6 0.500000 0.597297 0.250000
Si Si7 0.926852 0.479329 0.604323
O O1 0.298064 0.305319 0.634774
O O2 0.172457 0.372205 0.543743
O O3 0.054429 0.243700 0.194371
O O4 0.101855 0.017295 0.072203
O O5 0.170372 0.938184 0.211885
O O6 0.497505 0.338729 0.064145
O O7 0.426257 0.257202 0.938708
O O8 0.727738 0.249954 0.691056
O O9 0.329995 0.592448 0.900725
O O10 0.444384 0.455093 0.308691
#
# Coordination Sequence:
#
# PCOD9424418 Si02
#       7
#     4   8   8   4   4   4   8
#     4  12  22  50  72 112 156 206 266 320 404 484
#     4  12  26  44  78 112 156 211 261 332 409 486
#     4  11  26  48  74 110 149 210 262 328 399 487
#     4  12  26  46  76 116 154 202 264 328 404 476
#     4  12  28  52  76 116 160 204 268 336 398 480
#     4  12  26  46  72 112 152 202 258 334 398 482
#     4  11  27  49  76 110 157 202 268 328 399 480
#
# _framework density 25.242791
#
# number of rings (size 3 to 8) (size 9 to 14) (size 15 to 20)
#    0.000    0.400    6.000    1.200    5.600    0.800 
#    7.200    0.000    0.000    0.000    0.000    0.000 
#    0.000    0.000    0.000    0.000    0.000    0.000 
#
# Total GULP energy -223219.414069 kJ/mol
# GULP energy per Si atom -5580.485352 kJ/mol
# Density = 2.518534 g / cm^3
# Si number density = 25.242791 Si / 1000 Ang^3
#
#
#
# Elastic Constant Matrix: (Units=GPa)
#
#
# Indices 1 2 3 4 5 6 
#
# 1 175.2162 23.0969 25.5444 0.0000 0.0000 0.0000
# 2 23.0969 66.9135 24.5067 0.0000 0.0000 0.0000
# 3 25.5444 24.5067 128.4673 0.0000 0.0000 0.0000
# 4 0.0000 0.0000 0.0000 184.1000 0.0000 0.0000
# 5 0.0000 0.0000 0.0000 0.0000 46.0631 0.0000
# 6 0.0000 0.0000 0.0000 0.0000 0.0000 52.5087
#
#
#
# Elastic Compliance Matrix: (Units=1/GPa)
#
#
# Indices 1 2 3 4 5 6 
#
# 1 0.006068 -0.001777 -0.000868 0.000000 0.000000 0.000000
# 2 -0.001777 0.016587 -0.002811 0.000000 0.000000 0.000000
# 3 -0.000868 -0.002811 0.008493 0.000000 0.000000 0.000000
# 4 0.000000 0.000000 0.000000 0.005432 0.000000 0.000000
# 5 0.000000 0.000000 0.000000 0.000000 0.021709 0.000000
# 6 0.000000 0.000000 0.000000 0.000000 0.000000 0.019044
#
#
# Mechanical properties :
#
#
# Convention : Reuss Voigt Hill
#
# Bulk Modulus (GPa) = 49.41308 57.43257 53.42282
# Shear Modulus (GPa) = 52.63692 76.36430 64.50061
#
# Velocity S-wave (km/s) = 4.57138 5.50614 5.06039
# Velocity P-wave (km/s) = 6.89065 7.95141 7.43996
#
# Compressibility (1/GPa) = 0.02023756
#
# Stress axis : x y z
#
# Youngs Moduli (GPa) = 164.80085 60.28651 117.74649
#
# Poissons Ratio (x) = 0.10711 0.10216
# Poissons Ratio (y) = 0.29281 0.33098
# Poissons Ratio (z) = 0.14298 0.16946
#
# Static dielectric constant tensor:
#      x y z
#    x 2.041430 0.000000 0.000000 
#    y 0.000000 2.105470 0.000000 
#    z 0.000000 0.000000 2.014810 
# 
# From -- ./inp_files/18442.got.cif
#   From: 2010.05.17/outbox.cif.g08.bks.cpg/sg54_10_cif.got.tgz:18442.got - 2010.06.03 13:09:01.
