data_PCOD9424416
_publ_section_title
;
Structure prediction by ZEFSAII (Michael W. Deem and Ramdas Pophale) SiO2 
 PCOD9424416
Probable space group: P C C A
;
_chemical_formula_sum "Si O2"
_cell_formula_units_Z 40
_cell_length_a 9.834877
_cell_length_b 16.846837
_cell_length_c 9.618903
_cell_angle_alpha 90.000000
_cell_angle_beta 90.000000
_cell_angle_gamma 90.000000
_cell_volume 1593.723043
_symmetry_space_group_name_H-M "P C C A"
_symmetry_group_IT_number 54
_symmetry_cell_setting 'orthorhombic'
loop_
_space_group_symop_operation_xyz
x,y,z
1/2-x,-y,z
1/2+x,-y,1/2-z
-x,y,1/2-z
-x,-y,-z
1/2+x,y,-z
1/2-x,y,1/2+z
x,-y,1/2+z
loop_
_atom_site_type_symbol
_atom_site_label
_atom_site_fract_x
_atom_site_fract_y
_atom_site_fract_z
Si Si1 0.250000 0.500000 0.851773
Si Si2 0.707132 0.248542 0.285090
Si Si3 0.841911 0.656229 0.998115
Si Si4 0.500000 0.598200 0.250000
Si Si5 0.000000 0.882671 0.250000
Si Si6 0.500000 0.831324 0.250000
Si Si7 0.381464 0.021392 0.902916
O O1 0.367708 0.455816 0.767394
O O2 0.180723 0.430677 0.940420
O O3 0.716909 0.318264 0.397514
O O4 0.599296 0.180518 0.326952
O O5 0.863649 0.215955 0.294415
O O6 0.665869 0.283318 0.132071
O O7 0.971385 0.647542 0.892422
O O8 0.114297 0.947226 0.296309
O O9 0.577808 0.892810 0.148121
O O10 0.250000 0.000000 0.988707
O O11 0.500000 0.000000 0.000000
#
# Coordination Sequence:
#
# PCOD9424416 Si02
#       7
#     4   8   8   4   4   4   8
#     4  12  28  56  86 120 164 220 282 332 418 506
#     4  12  29  47  83 119 165 211 272 345 418 484
#     4  12  29  51  83 119 162 214 271 337 416 488
#     4  12  27  57  85 119 162 218 276 344 399 509
#     4  11  28  45  71 117 156 208 274 337 408 487
#     4  11  27  50  74 112 166 212 272 335 409 496
#     4  11  26  47  75 108 156 222 276 337 404 497
#
# _framework density 25.098462999999999
#
# number of rings (size 3 to 8) (size 9 to 14) (size 15 to 20)
#    0.000    0.400    4.000    1.800   11.200    0.800 
#    0.000    0.000    0.000    0.000    0.000    0.000 
#    0.000    0.000    0.000    0.000    0.000    0.000 
#
# Total GULP energy -222737.134600 kJ/mol
# GULP energy per Si atom -5568.428365 kJ/mol
# Density = 2.504134 g / cm^3
# Si number density = 25.098463 Si / 1000 Ang^3
#
#
#
# Elastic Constant Matrix: (Units=GPa)
#
#
# Indices 1 2 3 4 5 6 
#
# 1 140.7031 31.6950 22.5637 0.0000 0.0000 0.0000
# 2 31.6950 126.5069 32.4753 0.0000 0.0000 0.0000
# 3 22.5637 32.4753 109.0555 0.0000 0.0000 0.0000
# 4 0.0000 0.0000 0.0000 45.6111 0.0000 0.0000
# 5 0.0000 0.0000 0.0000 0.0000 41.5901 0.0000
# 6 0.0000 0.0000 0.0000 0.0000 0.0000 101.5459
#
#
#
# Elastic Compliance Matrix: (Units=1/GPa)
#
#
# Indices 1 2 3 4 5 6 
#
# 1 0.007651 -0.001636 -0.001096 0.000000 0.000000 0.000000
# 2 -0.001636 0.008909 -0.002314 0.000000 0.000000 0.000000
# 3 -0.001096 -0.002314 0.010086 0.000000 0.000000 0.000000
# 4 0.000000 0.000000 0.000000 0.021924 0.000000 0.000000
# 5 0.000000 0.000000 0.000000 0.000000 0.024044 0.000000
# 6 0.000000 0.000000 0.000000 0.000000 0.000000 0.009848
#
#
# Mechanical properties :
#
#
# Convention : Reuss Voigt Hill
#
# Bulk Modulus (GPa) = 60.41039 61.08150 60.74595
# Shear Modulus (GPa) = 50.98293 57.05154 54.01723
#
# Velocity S-wave (km/s) = 4.51190 4.77289 4.64423
# Velocity P-wave (km/s) = 7.15993 7.40024 7.28108
#
# Compressibility (1/GPa) = 0.01655344
#
# Stress axis : x y z
#
# Youngs Moduli (GPa) = 130.69568 112.25064 99.15105
#
# Poissons Ratio (x) = 0.18360 0.10867
# Poissons Ratio (y) = 0.21377 0.22948
# Poissons Ratio (z) = 0.14324 0.25980
#
# Static dielectric constant tensor:
#      x y z
#    x 2.205510 0.000000 0.000000 
#    y 0.000000 1.617970 0.000000 
#    z 0.000000 0.000000 1.974550 
# 
# From -- ./inp_files/6945.got.cif
#   From: 2010.05.17/outbox.cif.g08.bks.cpg/sg54_4_cif.got.tgz:6945.got - 2010.06.03 13:09:01.
