data_PCOD9424975
_publ_section_title
;
Structure prediction by ZEFSAII (Michael W. Deem and Ramdas Pophale) SiO2 
 PCOD9424975
Probable space group: P B A M
;
_chemical_formula_sum "Si O2"
_cell_formula_units_Z 64
_cell_length_a 22.563967
_cell_length_b 19.399358
_cell_length_c 7.531472
_cell_angle_alpha 90.000000
_cell_angle_beta 90.000000
_cell_angle_gamma 90.000000
_cell_volume 3296.724681
_symmetry_space_group_name_H-M "P B A M"
_symmetry_group_IT_number 55
_symmetry_cell_setting 'orthorhombic'
loop_
_space_group_symop_operation_xyz
x,y,z
-x,-y,z
1/2+x,1/2-y,-z
1/2-x,1/2+y,-z
-x,-y,-z
x,y,-z
1/2-x,1/2+y,z
1/2+x,1/2-y,z
loop_
_atom_site_type_symbol
_atom_site_label
_atom_site_fract_x
_atom_site_fract_y
_atom_site_fract_z
Si Si1 0.414277 0.678626 0.280967
Si Si2 0.693230 0.413578 0.707602
Si Si3 0.228955 0.378841 0.789216
Si Si4 0.185959 0.534692 0.287812
Si Si5 0.065852 0.479449 0.717924
Si Si6 0.983606 0.076047 0.712359
Si Si7 0.348458 0.432679 0.211278
Si Si8 0.393928 0.829410 0.705042
O O1 0.413368 0.679015 0.500000
O O2 0.354385 0.640108 0.219745
O O3 0.470432 0.633343 0.223431
O O4 0.415854 0.757357 0.218658
O O5 0.699877 0.396944 0.500000
O O6 0.759981 0.418924 0.784146
O O7 0.664469 0.490288 0.717469
O O8 0.207931 0.456648 0.746242
O O9 0.296959 0.380356 0.725634
O O10 0.177794 0.331213 0.710710
O O11 0.227692 0.367773 0.000000
O O12 0.184028 0.545616 0.500000
O O13 0.118085 0.531999 0.223705
O O14 0.067580 0.479136 0.500000
O O15 0.082769 0.402097 0.780152
O O16 0.000000 0.500000 0.772058
O O17 0.991036 0.073385 0.500000
O O18 0.914858 0.089719 0.748328
O O19 0.000000 0.000000 0.782619
O O20 0.341552 0.438453 0.000000
O O21 0.412637 0.830272 0.500000
#
# Coordination Sequence:
#
# PCOD9424975 Si02
#       8
#     8   8   8   8   8   8   8   8
#     4   9  17  29  46  66  91 121 152 191 233 274
#     4   9  15  27  45  64  88 117 149 186 229 272
#     4   9  17  29  45  65  89 114 145 188 230 267
#     4   8  14  24  43  67  85 108 142 179 223 271
#     4   8  13  23  42  67  89 110 140 182 228 270
#     4  10  18  30  47  67  93 127 159 187 229 278
#     4  10  19  29  44  68  94 118 152 196 230 261
#     4   9  17  30  48  67  89 118 154 192 232 279
#
# _framework density 19.413208999999998
#
# number of rings (size 3 to 8) (size 9 to 14) (size 15 to 20)
#    0.000    3.000    1.250    1.500    0.000    1.750 
#    0.000    1.250    2.750    6.000    0.000    0.000 
#    0.000    0.000    0.000    0.000    0.000    0.000 
#
# Total GULP energy -356370.873717 kJ/mol
# GULP energy per Si atom -5568.294902 kJ/mol
# Density = 1.936902 g / cm^3
# Si number density = 19.413209 Si / 1000 Ang^3
#
#
#
# Elastic Constant Matrix: (Units=GPa)
#
#
# Indices 1 2 3 4 5 6 
#
# 1 187.0769 59.7074 -3.6489 0.0000 0.0000 0.0000
# 2 59.7074 72.3969 2.3524 0.0000 0.0000 0.0000
# 3 -3.6489 2.3524 48.7223 0.0000 0.0000 0.0000
# 4 0.0000 0.0000 0.0000 35.1094 0.0000 0.0000
# 5 0.0000 0.0000 0.0000 0.0000 -22.4112 0.0000
# 6 0.0000 0.0000 0.0000 0.0000 0.0000 22.8500
#
#
#
# Elastic Compliance Matrix: (Units=1/GPa)
#
#
# Indices 1 2 3 4 5 6 
#
# 1 0.007289 -0.006039 0.000837 0.000000 0.000000 0.000000
# 2 -0.006039 0.018837 -0.001362 0.000000 0.000000 0.000000
# 3 0.000837 -0.001362 0.020653 0.000000 0.000000 0.000000
# 4 0.000000 0.000000 0.000000 0.028482 0.000000 0.000000
# 5 0.000000 0.000000 0.000000 0.000000 -0.044621 0.000000
# 6 0.000000 0.000000 0.000000 0.000000 0.000000 0.043764
#
#
# Mechanical properties :
#
#
# Convention : Reuss Voigt Hill
#
# Bulk Modulus (GPa) = 29.71476 47.22422 38.46949
# Shear Modulus (GPa) = 50.63377 23.76199 37.19788
#
# Velocity S-wave (km/s) = 5.11261 3.50238 4.38209
# Velocity P-wave (km/s) = 7.08459 6.38234 6.74261
#
# Compressibility (1/GPa) = 0.03365330
#
# Stress axis : x y z
#
# Youngs Moduli (GPa) = 137.19268 53.08648 48.41921
#
# Poissons Ratio (x) = 0.32057 -0.04055
# Poissons Ratio (y) = 0.82846 0.06593
# Poissons Ratio (z) = -0.11489 0.07229
#
# Static dielectric constant tensor:
#      x y z
#    x 1.724990 0.000000 0.000000 
#    y 0.000000 1.654010 0.000000 
#    z 0.000000 0.000000 1.721070 
# 
# From -- ./inp_files/9156.got.cif
#   From: 2010.05.17/outbox.cif.g08.bks.cpg/sg55_5_cif.got.tgz:9156.got - 2010.06.03 13:27:54.
