data_PCOD9424376
_publ_section_title
;
Structure prediction by ZEFSAII (Michael W. Deem and Ramdas Pophale) SiO2 
 PCOD9424376
Probable space group: P C C A
;
_chemical_formula_sum "Si O2"
_cell_formula_units_Z 48
_cell_length_a 30.025470
_cell_length_b 5.413177
_cell_length_c 10.515094
_cell_angle_alpha 90.000000
_cell_angle_beta 90.000000
_cell_angle_gamma 90.000000
_cell_volume 1709.051704
_symmetry_space_group_name_H-M "P C C A"
_symmetry_group_IT_number 54
_symmetry_cell_setting 'orthorhombic'
loop_
_space_group_symop_operation_xyz
x,y,z
1/2-x,-y,z
1/2+x,-y,1/2-z
-x,y,1/2-z
-x,-y,-z
1/2+x,y,-z
1/2-x,y,1/2+z
x,-y,1/2+z
loop_
_atom_site_type_symbol
_atom_site_label
_atom_site_fract_x
_atom_site_fract_y
_atom_site_fract_z
Si Si1 0.638919 0.761679 0.673169
Si Si2 0.899250 0.136410 0.341423
Si Si3 0.049030 0.882371 0.928670
Si Si4 0.797122 0.971104 0.481768
Si Si5 0.820339 0.455017 0.355346
Si Si6 0.533776 0.381959 0.139353
O O1 0.516492 0.893944 0.608129
O O2 0.672353 0.540764 0.709417
O O3 0.587172 0.676428 0.660963
O O4 0.636525 0.935650 0.796590
O O5 0.925126 0.007789 0.455021
O O6 0.872378 0.378832 0.385771
O O7 0.926567 0.170840 0.209810
O O8 0.161870 0.064329 0.930882
O O9 0.036053 0.604600 0.960386
O O10 0.793416 0.204525 0.381435
O O11 0.750000 0.000000 0.554025
O O12 0.803222 0.689221 0.434688
O O13 0.500000 0.468242 0.250000
#
# Coordination Sequence:
#
# PCOD9424376 Si02
#       6
#     8   8   8   8   8   8
#     4  11  27  47  84 108 160 215 269 331 419 490
#     4  11  25  46  81 117 154 215 277 323 419 481
#     4  11  26  45  75 112 163 212 271 341 402 488
#     4  12  30  52  76 117 161 208 276 344 420 494
#     4  12  25  48  82 110 154 209 269 332 409 496
#     4  11  25  48  76 117 160 213 277 343 411 497
#
# _framework density 28.085747999999999
#
# number of rings (size 3 to 8) (size 9 to 14) (size 15 to 20)
#    0.000    0.667    3.333    3.000    7.000    0.667 
#    3.000   11.667    0.000    0.000    0.000    0.000 
#    0.000    0.000    0.000    0.000    0.000    0.000 
#
# Total GULP energy -267840.645526 kJ/mol
# GULP energy per Si atom -5580.013448 kJ/mol
# Density = 2.802182 g / cm^3
# Si number density = 28.085748 Si / 1000 Ang^3
#
#
#
# Elastic Constant Matrix: (Units=GPa)
#
#
# Indices 1 2 3 4 5 6 
#
# 1 141.5868 59.3364 44.8964 0.0000 0.0000 0.0000
# 2 59.3364 216.9086 44.7735 0.0000 0.0000 0.0000
# 3 44.8964 44.7735 89.8200 0.0000 0.0000 0.0000
# 4 0.0000 0.0000 0.0000 61.6197 0.0000 0.0000
# 5 0.0000 0.0000 0.0000 0.0000 32.8896 0.0000
# 6 0.0000 0.0000 0.0000 0.0000 0.0000 41.2275
#
#
#
# Elastic Compliance Matrix: (Units=1/GPa)
#
#
# Indices 1 2 3 4 5 6 
#
# 1 0.008918 -0.001694 -0.003614 0.000000 0.000000 0.000000
# 2 -0.001694 0.005461 -0.001875 0.000000 0.000000 0.000000
# 3 -0.003614 -0.001875 0.013874 0.000000 0.000000 0.000000
# 4 0.000000 0.000000 0.000000 0.016229 0.000000 0.000000
# 5 0.000000 0.000000 0.000000 0.000000 0.030405 0.000000
# 6 0.000000 0.000000 0.000000 0.000000 0.000000 0.024256
#
#
# Mechanical properties :
#
#
# Convention : Reuss Voigt Hill
#
# Bulk Modulus (GPa) = 72.00405 82.92534 77.46469
# Shear Modulus (GPa) = 42.32355 47.10130 44.71243
#
# Velocity S-wave (km/s) = 3.88614 4.09963 3.99431
# Velocity P-wave (km/s) = 6.76971 7.21104 6.99386
#
# Compressibility (1/GPa) = 0.01388811
#
# Stress axis : x y z
#
# Youngs Moduli (GPa) = 112.12656 183.12677 72.07478
#
# Poissons Ratio (x) = 0.31018 0.26045
# Poissons Ratio (y) = 0.18992 0.13517
# Poissons Ratio (z) = 0.40518 0.34344
#
# Static dielectric constant tensor:
#      x y z
#    x 2.418810 0.000000 0.000000 
#    y 0.000000 2.295760 0.000000 
#    z 0.000000 0.000000 2.449240 
# 
# From -- ./inp_files/15308.got.cif
#   From: 2010.05.17/outbox.cif.g08.bks.cpg/sg54_8_cif.got.tgz:15308.got - 2010.06.03 13:09:01.
