data_PCOD9424028
_publ_section_title
;
Structure prediction by ZEFSAII (Michael W. Deem and Ramdas Pophale) SiO2 
 PCOD9424028
Probable space group: P C C A
;
_chemical_formula_sum "Si O2"
_cell_formula_units_Z 40
_cell_length_a 14.151572
_cell_length_b 8.330457
_cell_length_c 16.305321
_cell_angle_alpha 90.000000
_cell_angle_beta 90.000000
_cell_angle_gamma 90.000000
_cell_volume 1922.218999
_symmetry_space_group_name_H-M "P C C A"
_symmetry_group_IT_number 54
_symmetry_cell_setting 'orthorhombic'
loop_
_space_group_symop_operation_xyz
x,y,z
1/2-x,-y,z
1/2+x,-y,1/2-z
-x,y,1/2-z
-x,-y,-z
1/2+x,y,-z
1/2-x,y,1/2+z
x,-y,1/2+z
loop_
_atom_site_type_symbol
_atom_site_label
_atom_site_fract_x
_atom_site_fract_y
_atom_site_fract_z
Si Si1 0.110724 0.002043 0.762421
Si Si2 0.501634 0.247379 0.992624
Si Si3 0.356052 0.998479 0.075058
Si Si4 0.637819 0.329454 0.135153
Si Si5 0.850146 0.675110 0.641109
O O1 0.150866 0.026168 0.671880
O O2 0.145427 0.837811 0.805348
O O3 0.000000 0.979416 0.750000
O O4 0.124895 0.163988 0.815005
O O5 0.556919 0.333779 0.066134
O O6 0.427990 0.125903 0.036017
O O7 0.587725 0.164258 0.943703
O O8 0.433316 0.322713 0.925250
O O9 0.250000 0.000000 0.039732
O O10 0.637089 0.499868 0.183867
O O11 0.745374 0.322636 0.101635
#
# Coordination Sequence:
#
# PCOD9424028 Si02
#       5
#     8   8   8   8   8
#     4  12  22  44  65  90 126 167 210 261 313 369
#     4  11  21  40  62  91 131 164 205 261 314 369
#     4  11  22  37  64  93 121 165 213 257 313 374
#     4  11  24  42  66  95 127 167 211 257 314 374
#     4  11  24  42  66  95 127 167 211 257 314 374
#
# _framework density 20.809283000000001
#
# number of rings (size 3 to 8) (size 9 to 14) (size 15 to 20)
#    0.000    0.800    4.000    4.800    0.000    0.800 
#    0.000    0.000    0.000    7.200    0.000    0.000 
#    0.000    0.000    0.000    0.000    0.000    0.000 
#
# Total GULP energy -222912.773968 kJ/mol
# GULP energy per Si atom -5572.819349 kJ/mol
# Density = 2.076192 g / cm^3
# Si number density = 20.809283 Si / 1000 Ang^3
#
#
#
# Elastic Constant Matrix: (Units=GPa)
#
#
# Indices 1 2 3 4 5 6 
#
# 1 150.3826 -2.6869 -1.7666 0.0000 0.0000 0.0000
# 2 -2.6869 128.7859 39.8873 0.0000 0.0000 0.0000
# 3 -1.7666 39.8873 75.4383 0.0000 0.0000 0.0000
# 4 0.0000 0.0000 0.0000 3.4907 0.0000 0.0000
# 5 0.0000 0.0000 0.0000 0.0000 4.7559 0.0000
# 6 0.0000 0.0000 0.0000 0.0000 0.0000 24.6236
#
#
#
# Elastic Compliance Matrix: (Units=1/GPa)
#
#
# Indices 1 2 3 4 5 6 
#
# 1 0.006653 0.000108 0.000099 0.000000 0.000000 0.000000
# 2 0.000108 0.009287 -0.004908 0.000000 0.000000 0.000000
# 3 0.000099 -0.004908 0.015853 0.000000 0.000000 0.000000
# 4 0.000000 0.000000 0.000000 0.286476 0.000000 0.000000
# 5 0.000000 0.000000 0.000000 0.000000 0.210267 0.000000
# 6 0.000000 0.000000 0.000000 0.000000 0.000000 0.040611
#
#
# Mechanical properties :
#
#
# Convention : Reuss Voigt Hill
#
# Bulk Modulus (GPa) = 44.66101 47.27493 45.96797
# Shear Modulus (GPa) = 8.53223 27.85223 18.19223
#
# Velocity S-wave (km/s) = 2.02709 3.66246 2.95996
# Velocity P-wave (km/s) = 5.19495 6.37591 5.81549
#
# Compressibility (1/GPa) = 0.02239089
#
# Stress axis : x y z
#
# Youngs Moduli (GPa) = 150.31266 107.67545 63.07867
#
# Poissons Ratio (x) = -0.01166 -0.00622
# Poissons Ratio (y) = -0.01628 0.30959
# Poissons Ratio (z) = -0.01481 0.52847
#
# Static dielectric constant tensor:
#      x y z
#    x 1.730480 0.000000 0.000000 
#    y 0.000000 1.826750 0.000000 
#    z 0.000000 0.000000 1.756480 
# 
# From -- ./inp_files/13212.got.cif
#   From: 2010.05.17/outbox.cif.g08.bks.cpg/sg54_7_cif.got.tgz:13212.got - 2010.06.03 13:09:01.
