data_PCOD9424134
_publ_section_title
;
Structure prediction by ZEFSAII (Michael W. Deem and Ramdas Pophale) SiO2 
 PCOD9424134
Probable space group: P C C A
;
_chemical_formula_sum "Si O2"
_cell_formula_units_Z 40
_cell_length_a 15.897054
_cell_length_b 7.955703
_cell_length_c 13.963081
_cell_angle_alpha 90.000000
_cell_angle_beta 90.000000
_cell_angle_gamma 90.000000
_cell_volume 1765.942134
_symmetry_space_group_name_H-M "P C C A"
_symmetry_group_IT_number 54
_symmetry_cell_setting 'orthorhombic'
loop_
_space_group_symop_operation_xyz
x,y,z
1/2-x,-y,z
1/2+x,-y,1/2-z
-x,y,1/2-z
-x,-y,-z
1/2+x,y,-z
1/2-x,y,1/2+z
x,-y,1/2+z
loop_
_atom_site_type_symbol
_atom_site_label
_atom_site_fract_x
_atom_site_fract_y
_atom_site_fract_z
Si Si1 0.685746 0.134768 0.205619
Si Si2 0.523952 0.953616 0.137771
Si Si3 0.905435 0.252966 0.894443
Si Si4 0.517956 0.426007 0.637182
Si Si5 0.197728 0.649005 0.934509
O O1 0.636054 0.234437 0.288839
O O2 0.743130 0.252880 0.139360
O O3 0.750000 0.000000 0.251661
O O4 0.618813 0.026643 0.142629
O O5 0.500000 0.947131 0.250000
O O6 0.503072 0.765900 0.102831
O O7 0.465836 0.094505 0.093258
O O8 0.959908 0.425030 0.903820
O O9 0.837130 0.244645 0.977577
O O10 0.500000 0.432297 0.750000
O O11 0.617689 0.436854 0.618173
O O12 0.250000 0.500000 0.980762
#
# Coordination Sequence:
#
# PCOD9424134 Si02
#       5
#     8   8   8   8   8
#     4  11  23  48  71 102 143 186 235 300 363 416
#     4   9  20  43  72  99 131 183 236 277 347 422
#     4  11  25  45  70 102 141 185 236 289 352 431
#     4  11  22  43  72  99 137 190 233 284 348 426
#     4  12  26  44  68 107 145 183 238 296 356 421
#
# _framework density 22.650801000000001
#
# number of rings (size 3 to 8) (size 9 to 14) (size 15 to 20)
#    0.000    1.200    2.000    4.800    0.000    4.000 
#    3.600    0.000    0.000    0.000    0.000    0.000 
#    0.000    0.000    0.000    0.000    0.000    0.000 
#
# Total GULP energy -223555.234966 kJ/mol
# GULP energy per Si atom -5588.880874 kJ/mol
# Density = 2.259925 g / cm^3
# Si number density = 22.650801 Si / 1000 Ang^3
#
#
#
# Elastic Constant Matrix: (Units=GPa)
#
#
# Indices 1 2 3 4 5 6 
#
# 1 132.7854 95.6904 31.0230 0.0000 0.0000 0.0000
# 2 95.6904 147.6049 72.9006 0.0000 0.0000 0.0000
# 3 31.0230 72.9006 78.4210 0.0000 0.0000 0.0000
# 4 0.0000 0.0000 0.0000 30.9909 0.0000 0.0000
# 5 0.0000 0.0000 0.0000 0.0000 39.8680 0.0000
# 6 0.0000 0.0000 0.0000 0.0000 0.0000 46.4869
#
#
#
# Elastic Compliance Matrix: (Units=1/GPa)
#
#
# Indices 1 2 3 4 5 6 
#
# 1 0.015496 -0.012975 0.005932 0.000000 0.000000 0.000000
# 2 -0.012975 0.023391 -0.016611 0.000000 0.000000 0.000000
# 3 0.005932 -0.016611 0.025847 0.000000 0.000000 0.000000
# 4 0.000000 0.000000 0.000000 0.032267 0.000000 0.000000
# 5 0.000000 0.000000 0.000000 0.000000 0.025083 0.000000
# 6 0.000000 0.000000 0.000000 0.000000 0.000000 0.021511
#
#
# Mechanical properties :
#
#
# Convention : Reuss Voigt Hill
#
# Bulk Modulus (GPa) = 57.39186 84.22658 70.80922
# Shear Modulus (GPa) = 25.41795 34.08233 29.75014
#
# Velocity S-wave (km/s) = 3.35351 3.88324 3.62805
# Velocity P-wave (km/s) = 6.35511 7.57440 6.99139
#
# Compressibility (1/GPa) = 0.01742407
#
# Stress axis : x y z
#
# Youngs Moduli (GPa) = 64.53464 42.75229 38.68962
#
# Poissons Ratio (x) = 0.55472 -0.22950
# Poissons Ratio (y) = 0.83736 0.64267
# Poissons Ratio (z) = -0.38281 0.71016
#
# Static dielectric constant tensor:
#      x y z
#    x 1.855970 0.000000 0.000000 
#    y 0.000000 1.856660 0.000000 
#    z 0.000000 0.000000 1.889030 
# 
# From -- ./inp_files/13230.got.cif
#   From: 2010.05.17/outbox.cif.g08.bks.cpg/sg54_7_cif.got.tgz:13230.got - 2010.06.03 13:09:01.
