data_PCOD9424811
_publ_section_title
;
Structure prediction by ZEFSAII (Michael W. Deem and Ramdas Pophale) SiO2 
 PCOD9424811
Probable space group: P B A M
;
_chemical_formula_sum "Si O2"
_cell_formula_units_Z 56
_cell_length_a 19.843093
_cell_length_b 20.105350
_cell_length_c 7.754479
_cell_angle_alpha 90.000000
_cell_angle_beta 90.000000
_cell_angle_gamma 90.000000
_cell_volume 3093.667464
_symmetry_space_group_name_H-M "P B A M"
_symmetry_group_IT_number 55
_symmetry_cell_setting 'orthorhombic'
loop_
_space_group_symop_operation_xyz
x,y,z
-x,-y,z
1/2+x,1/2-y,-z
1/2-x,1/2+y,-z
-x,-y,-z
x,y,-z
1/2-x,1/2+y,z
1/2+x,1/2-y,z
loop_
_atom_site_type_symbol
_atom_site_label
_atom_site_fract_x
_atom_site_fract_y
_atom_site_fract_z
Si Si1 0.130273 0.760977 0.705110
Si Si2 0.842518 0.736058 0.707286
Si Si3 0.791483 0.981996 0.293453
Si Si4 0.519363 0.298170 0.797100
Si Si5 0.054909 0.054263 0.791244
Si Si6 0.236577 0.870294 0.288579
Si Si7 0.233326 0.654327 0.289108
O O1 0.140257 0.760450 0.500000
O O2 0.173764 0.824214 0.768648
O O3 0.166392 0.693507 0.768833
O O4 0.051862 0.770181 0.736380
O O5 0.841567 0.735752 0.500000
O O6 0.918305 0.749428 0.762653
O O7 0.803993 0.669310 0.764369
O O8 0.795840 0.798300 0.762573
O O9 0.782613 0.984017 0.500000
O O10 0.869871 0.966418 0.260222
O O11 0.747514 0.919980 0.226807
O O12 0.771294 0.054578 0.226187
O O13 0.536721 0.371752 0.724968
O O14 0.512993 0.306843 0.000000
O O15 0.053210 0.055296 0.000000
O O16 0.000000 0.000000 0.732517
O O17 0.235873 0.871675 0.500000
O O18 0.233126 0.652099 0.500000
#
# Coordination Sequence:
#
# PCOD9424811 Si02
#       7
#     8   8   8   8   8   8   8
#     4   9  17  31  48  67  93 125 155 189 236 283
#     4   9  16  31  50  68  92 124 155 190 239 282
#     4  10  17  29  50  74  94 118 155 196 232 277
#     4  11  21  31  45  69  96 124 161 198 228 272
#     4  10  21  33  43  63 101 136 155 182 231 284
#     4   8  16  29  49  74  96 117 153 198 234 277
#     4   8  15  28  48  70  91 117 155 195 232 276
#
# _framework density 18.101493000000001
#
# number of rings (size 3 to 8) (size 9 to 14) (size 15 to 20)
#    0.000    2.714    1.429    3.000    0.000    0.857 
#    0.000    4.286    0.000    0.857    0.000    6.000 
#    0.000    0.000    0.000    0.000    0.000    0.000 
#
# Total GULP energy -312245.718368 kJ/mol
# GULP energy per Si atom -5575.816399 kJ/mol
# Density = 1.806029 g / cm^3
# Si number density = 18.101493 Si / 1000 Ang^3
#
#
#
# Elastic Constant Matrix: (Units=GPa)
#
#
# Indices 1 2 3 4 5 6 
#
# 1 120.2407 95.1580 -7.7233 0.0000 0.0000 0.0000
# 2 95.1580 141.4380 -1.3558 0.0000 0.0000 0.0000
# 3 -7.7233 -1.3558 18.4839 0.0000 0.0000 0.0000
# 4 0.0000 0.0000 0.0000 7.3157 0.0000 0.0000
# 5 0.0000 0.0000 0.0000 0.0000 235.5510 0.0000
# 6 0.0000 0.0000 0.0000 0.0000 0.0000 22.6273
#
#
#
# Elastic Compliance Matrix: (Units=1/GPa)
#
#
# Indices 1 2 3 4 5 6 
#
# 1 0.018619 -0.012461 0.006866 0.000000 0.000000 0.000000
# 2 -0.012461 0.015415 -0.004076 0.000000 0.000000 0.000000
# 3 0.006866 -0.004076 0.056671 0.000000 0.000000 0.000000
# 4 0.000000 0.000000 0.000000 0.136693 0.000000 0.000000
# 5 0.000000 0.000000 0.000000 0.000000 0.004245 0.000000
# 6 0.000000 0.000000 0.000000 0.000000 0.000000 0.044194
#
#
# Mechanical properties :
#
#
# Convention : Reuss Voigt Hill
#
# Bulk Modulus (GPa) = 14.01294 50.25782 32.13538
# Shear Modulus (GPa) = 15.67559 66.03771 40.85665
#
# Velocity S-wave (km/s) = 2.94595 6.04658 4.75604
# Velocity P-wave (km/s) = 4.39655 8.75059 6.92468
#
# Compressibility (1/GPa) = 0.07136261
#
# Stress axis : x y z
#
# Youngs Moduli (GPa) = 53.70781 64.87268 17.64572
#
# Poissons Ratio (x) = 0.80838 -0.12115
# Poissons Ratio (y) = 0.66925 0.07192
# Poissons Ratio (z) = -0.36875 0.26442
#
# Static dielectric constant tensor:
#      x y z
#    x 1.612820 0.000000 0.000000 
#    y 0.000000 1.643760 0.000000 
#    z 0.000000 0.000000 1.657160 
# 
# From -- ./inp_files/7803.got.cif
#   From: 2010.05.17/outbox.cif.g08.bks.cpg/sg55_4_cif.got.tgz:7803.got - 2010.06.03 13:27:54.
