data_PCOD9424077
_publ_section_title
;
Structure prediction by ZEFSAII (Michael W. Deem and Ramdas Pophale) SiO2 
 PCOD9424077
Probable space group: P C C A
;
_chemical_formula_sum "Si O2"
_cell_formula_units_Z 40
_cell_length_a 15.364735
_cell_length_b 14.104974
_cell_length_c 8.400809
_cell_angle_alpha 90.000000
_cell_angle_beta 90.000000
_cell_angle_gamma 90.000000
_cell_volume 1820.616502
_symmetry_space_group_name_H-M "P C C A"
_symmetry_group_IT_number 54
_symmetry_cell_setting 'orthorhombic'
loop_
_space_group_symop_operation_xyz
x,y,z
1/2-x,-y,z
1/2+x,-y,1/2-z
-x,y,1/2-z
-x,-y,-z
1/2+x,y,-z
1/2-x,y,1/2+z
x,-y,1/2+z
loop_
_atom_site_type_symbol
_atom_site_label
_atom_site_fract_x
_atom_site_fract_y
_atom_site_fract_z
Si Si1 0.867478 0.226009 0.425428
Si Si2 0.979076 0.104616 0.936765
Si Si3 0.186371 0.209884 0.445861
Si Si4 0.172641 0.573878 0.989007
Si Si5 0.411119 0.575524 0.159653
O O1 0.841023 0.215449 0.239590
O O2 0.787731 0.186291 0.529734
O O3 0.884659 0.337878 0.453870
O O4 0.956106 0.173442 0.467138
O O5 0.000000 0.110616 0.750000
O O6 0.880822 0.138660 0.971306
O O7 0.000000 0.000000 0.000000
O O8 0.180219 0.315184 0.525670
O O9 0.250000 0.500000 0.024567
O O10 0.158398 0.570402 0.801202
O O11 0.090363 0.525345 0.074101
O O12 0.500000 0.599204 0.250000
#
# Coordination Sequence:
#
# PCOD9424077 Si02
#       5
#     8   8   8   8   8
#     4  11  23  44  68 102 141 182 239 285 358 415
#     4  12  27  49  75 104 137 177 233 299 364 429
#     4  11  24  42  70 101 142 191 231 298 349 426
#     4  11  22  38  61  93 137 184 235 281 343 408
#     4  11  23  38  61  94 138 187 236 293 341 412
#
# _framework density 21.970579000000001
#
# number of rings (size 3 to 8) (size 9 to 14) (size 15 to 20)
#    0.000    0.800    2.000    6.600    2.800    3.200 
#    0.000    4.000    0.000    0.000    0.000    0.000 
#    0.000    0.000    0.000    0.000    0.000    0.000 
#
# Total GULP energy -223634.210939 kJ/mol
# GULP energy per Si atom -5590.855273 kJ/mol
# Density = 2.192057 g / cm^3
# Si number density = 21.970579 Si / 1000 Ang^3
#
#
#
# Elastic Constant Matrix: (Units=GPa)
#
#
# Indices 1 2 3 4 5 6 
#
# 1 94.8746 9.4170 -4.3679 0.0000 0.0000 0.0000
# 2 9.4170 82.6745 1.7797 0.0000 0.0000 0.0000
# 3 -4.3679 1.7797 57.1506 0.0000 0.0000 0.0000
# 4 0.0000 0.0000 0.0000 28.1083 0.0000 0.0000
# 5 0.0000 0.0000 0.0000 0.0000 40.6343 0.0000
# 6 0.0000 0.0000 0.0000 0.0000 0.0000 33.6274
#
#
#
# Elastic Compliance Matrix: (Units=1/GPa)
#
#
# Indices 1 2 3 4 5 6 
#
# 1 0.010702 -0.001237 0.000857 0.000000 0.000000 0.000000
# 2 -0.001237 0.012247 -0.000476 0.000000 0.000000 0.000000
# 3 0.000857 -0.000476 0.017578 0.000000 0.000000 0.000000
# 4 0.000000 0.000000 0.000000 0.035577 0.000000 0.000000
# 5 0.000000 0.000000 0.000000 0.000000 0.024610 0.000000
# 6 0.000000 0.000000 0.000000 0.000000 0.000000 0.029738
#
#
# Mechanical properties :
#
#
# Convention : Reuss Voigt Hill
#
# Bulk Modulus (GPa) = 25.76434 27.59525 26.67979
# Shear Modulus (GPa) = 34.45827 35.66539 35.06183
#
# Velocity S-wave (km/s) = 3.96458 4.03342 3.99915
# Velocity P-wave (km/s) = 5.71921 5.85480 5.78740
#
# Compressibility (1/GPa) = 0.03881334
#
# Stress axis : x y z
#
# Youngs Moduli (GPa) = 93.43615 81.65378 56.88962
#
# Poissons Ratio (x) = 0.10105 -0.04873
# Poissons Ratio (y) = 0.11563 0.02708
# Poissons Ratio (z) = -0.08003 0.03886
#
# Static dielectric constant tensor:
#      x y z
#    x 1.894470 0.000000 0.000000 
#    y 0.000000 1.811360 0.000000 
#    z 0.000000 0.000000 1.785350 
# 
# From -- ./inp_files/3432.got.cif
#   From: 2010.05.17/outbox.cif.g08.bks.cpg/sg54_2_cif.got.tgz:3432.got - 2010.06.03 13:09:01.
