data_PCOD9424318
_publ_section_title
;
Structure prediction by ZEFSAII (Michael W. Deem and Ramdas Pophale) SiO2 
 PCOD9424318
Probable space group: P C C A
;
_chemical_formula_sum "Si O2"
_cell_formula_units_Z 36
_cell_length_a 8.696490
_cell_length_b 12.848810
_cell_length_c 12.882931
_cell_angle_alpha 90.000000
_cell_angle_beta 90.000000
_cell_angle_gamma 90.000000
_cell_volume 1439.532883
_symmetry_space_group_name_H-M "P C C A"
_symmetry_group_IT_number 54
_symmetry_cell_setting 'orthorhombic'
loop_
_space_group_symop_operation_xyz
x,y,z
1/2-x,-y,z
1/2+x,-y,1/2-z
-x,y,1/2-z
-x,-y,-z
1/2+x,y,-z
1/2-x,y,1/2+z
x,-y,1/2+z
loop_
_atom_site_type_symbol
_atom_site_label
_atom_site_fract_x
_atom_site_fract_y
_atom_site_fract_z
Si Si1 0.453459 0.684330 0.397350
Si Si2 0.214097 0.885158 0.931520
Si Si3 0.500000 0.481364 0.750000
Si Si4 0.539889 0.139588 0.358556
Si Si5 0.816237 0.652101 0.375965
O O1 0.401899 0.803619 0.377345
O O2 0.393932 0.597562 0.317133
O O3 0.634728 0.663826 0.391167
O O4 0.387110 0.658229 0.509084
O O5 0.147355 0.903449 0.048175
O O6 0.250000 0.000000 0.888466
O O7 0.381949 0.833916 0.919567
O O8 0.396787 0.555435 0.678874
O O9 0.500000 0.081881 0.250000
O O10 0.628073 0.242306 0.321164
#
# Coordination Sequence:
#
# PCOD9424318 Si02
#       5
#     8   8   4   8   8
#     4  11  26  44  74 108 150 208 263 323 398 483
#     4  11  25  49  72 109 156 199 264 344 399 474
#     4  12  26  42  72 108 156 206 262 320 400 476
#     4  11  24  45  76 106 150 204 264 329 411 487
#     4  11  24  46  70 109 155 199 260 331 398 475
#
# _framework density 25.008111
#
# number of rings (size 3 to 8) (size 9 to 14) (size 15 to 20)
#    0.000    0.889    1.111    7.333    3.111    6.222 
#    2.000    0.000    0.000    0.000    0.000    0.000 
#    0.000    0.000    0.000    0.000    0.000    0.000 
#
# Total GULP energy -201112.985871 kJ/mol
# GULP energy per Si atom -5586.471830 kJ/mol
# Density = 2.495119 g / cm^3
# Si number density = 25.008111 Si / 1000 Ang^3
#
#
#
# Elastic Constant Matrix: (Units=GPa)
#
#
# Indices 1 2 3 4 5 6 
#
# 1 161.1235 52.6703 61.9834 0.0000 0.0000 0.0000
# 2 52.6703 187.9685 29.9220 0.0000 0.0000 0.0000
# 3 61.9834 29.9220 117.8886 0.0000 0.0000 0.0000
# 4 0.0000 0.0000 0.0000 -39.7546 0.0000 0.0000
# 5 0.0000 0.0000 0.0000 0.0000 36.2214 0.0000
# 6 0.0000 0.0000 0.0000 0.0000 0.0000 36.9734
#
#
#
# Elastic Compliance Matrix: (Units=1/GPa)
#
#
# Indices 1 2 3 4 5 6 
#
# 1 0.008267 -0.001693 -0.003917 0.000000 0.000000 0.000000
# 2 -0.001693 0.005891 -0.000605 0.000000 0.000000 0.000000
# 3 -0.003917 -0.000605 0.010695 0.000000 0.000000 0.000000
# 4 0.000000 0.000000 0.000000 -0.025154 0.000000 0.000000
# 5 0.000000 0.000000 0.000000 0.000000 0.027608 0.000000
# 6 0.000000 0.000000 0.000000 0.000000 0.000000 0.027046
#
#
# Mechanical properties :
#
#
# Convention : Reuss Voigt Hill
#
# Bulk Modulus (GPa) = 80.49299 84.01466 82.25383
# Shear Modulus (GPa) = 70.49866 28.18170 49.34018
#
# Velocity S-wave (km/s) = 5.31522 3.36058 4.44663
# Velocity P-wave (km/s) = 8.36214 6.98039 7.70231
#
# Compressibility (1/GPa) = 0.01242344
#
# Stress axis : x y z
#
# Youngs Moduli (GPa) = 120.96954 169.75860 93.49737
#
# Poissons Ratio (x) = 0.28738 0.36620
# Poissons Ratio (y) = 0.20479 0.05657
# Poissons Ratio (z) = 0.47380 0.10272
#
# Static dielectric constant tensor:
#      x y z
#    x 2.046260 0.000000 0.000000 
#    y 0.000000 2.056840 0.000000 
#    z 0.000000 0.000000 2.059560 
# 
# From -- ./inp_files/11403.got.cif
#   From: 2010.05.17/outbox.cif.g08.bks.cpg/sg54_6_cif.got.tgz:11403.got - 2010.06.03 13:09:01.
