data_PCOD9424927
_publ_section_title
;
Structure prediction by ZEFSAII (Michael W. Deem and Ramdas Pophale) SiO2 
 PCOD9424927
Probable space group: P B A M
;
_chemical_formula_sum "Si O2"
_cell_formula_units_Z 40
_cell_length_a 7.027890
_cell_length_b 23.119993
_cell_length_c 10.632192
_cell_angle_alpha 90.000000
_cell_angle_beta 90.000000
_cell_angle_gamma 90.000000
_cell_volume 1727.569246
_symmetry_space_group_name_H-M "P B A M"
_symmetry_group_IT_number 55
_symmetry_cell_setting 'orthorhombic'
loop_
_space_group_symop_operation_xyz
x,y,z
-x,-y,z
1/2+x,1/2-y,-z
1/2-x,1/2+y,-z
-x,-y,-z
x,y,-z
1/2-x,1/2+y,z
1/2+x,1/2-y,z
loop_
_atom_site_type_symbol
_atom_site_label
_atom_site_fract_x
_atom_site_fract_y
_atom_site_fract_z
Si Si1 0.776556 0.018075 0.146761
Si Si2 0.826891 0.396977 0.753040
Si Si3 0.117936 0.667173 0.000000
Si Si4 0.556830 0.700690 0.000000
Si Si5 0.067648 0.799535 0.500000
Si Si6 0.123589 0.861725 0.751386
Si Si7 0.627123 0.835733 0.500000
O O1 0.772400 0.077441 0.224652
O O2 0.675417 0.964865 0.216282
O O3 0.716720 0.025076 0.000000
O O4 0.000000 0.000000 0.140402
O O5 0.921853 0.366362 0.872571
O O6 0.602746 0.378012 0.748966
O O7 0.913787 0.373021 0.624299
O O8 0.346736 0.674209 0.000000
O O9 0.037035 0.731050 0.000000
O O10 0.653968 0.678073 0.873557
O O11 0.163350 0.825475 0.625528
O O12 0.050974 0.730055 0.500000
O O13 0.854100 0.823991 0.500000
#
# Coordination Sequence:
#
# PCOD9424927 Si02
#       7
#     8   8   4   4   4   8   4
#     4   9  14  25  45  69  96 121 147 191 244 279
#     4   9  17  28  45  68  94 122 153 190 233 278
#     4  10  18  29  45  67  91 120 157 190 224 272
#     4  10  18  29  45  67  91 120 157 190 224 272
#     4  10  20  33  47  69  99 126 155 192 230 274
#     4   9  17  28  45  68  94 122 153 190 233 278
#     4  10  20  33  47  69  99 126 155 192 230 274
#
# _framework density 23.153919999999999
#
# number of rings (size 3 to 8) (size 9 to 14) (size 15 to 20)
#    0.000    2.600    2.000    1.200    0.000    0.800 
#    0.000    4.000    0.000    0.000    0.000    8.400 
#    0.000    0.000    0.000    0.000    0.000    0.000 
#
# Total GULP energy -223805.430508 kJ/mol
# GULP energy per Si atom -5595.135763 kJ/mol
# Density = 2.310122 g / cm^3
# Si number density = 23.153920 Si / 1000 Ang^3
#
#
#
# Elastic Constant Matrix: (Units=GPa)
#
#
# Indices 1 2 3 4 5 6 
#
# 1 73.9212 28.7048 25.9143 0.0000 0.0000 0.0000
# 2 28.7048 184.2318 126.8202 0.0000 0.0000 0.0000
# 3 25.9143 126.8202 246.1767 0.0000 0.0000 0.0000
# 4 0.0000 0.0000 0.0000 35.3898 0.0000 0.0000
# 5 0.0000 0.0000 0.0000 0.0000 -5.5074 0.0000
# 6 0.0000 0.0000 0.0000 0.0000 0.0000 146.7994
#
#
#
# Elastic Compliance Matrix: (Units=1/GPa)
#
#
# Indices 1 2 3 4 5 6 
#
# 1 0.014449 -0.001866 -0.000560 0.000000 0.000000 0.000000
# 2 -0.001866 0.008651 -0.004260 0.000000 0.000000 0.000000
# 3 -0.000560 -0.004260 0.006316 0.000000 0.000000 0.000000
# 4 0.000000 0.000000 0.000000 0.028257 0.000000 0.000000
# 5 0.000000 0.000000 0.000000 0.000000 -0.181574 0.000000
# 6 0.000000 0.000000 0.000000 0.000000 0.000000 0.006812
#
#
# Mechanical properties :
#
#
# Convention : Reuss Voigt Hill
#
# Bulk Modulus (GPa) = 62.32931 96.35648 79.34290
# Shear Modulus (GPa) = -50.82878 56.86241 3.01681
#
# Velocity S-wave (km/s) = -4.69044 4.96102 1.14270
# Velocity P-wave (km/s) = 1.53481 8.63259 6.00691
#
# Compressibility (1/GPa) = 0.01604382
#
# Stress axis : x y z
#
# Youngs Moduli (GPa) = 69.21030 115.58753 158.33165
#
# Poissons Ratio (x) = 0.21568 0.08862
# Poissons Ratio (y) = 0.12914 0.67457
# Poissons Ratio (z) = 0.03874 0.49246
#
# Static dielectric constant tensor:
#      x y z
#    x 1.973760 0.000000 0.000000 
#    y 0.000000 1.739090 0.000000 
#    z 0.000000 0.000000 1.812430 
# 
# From -- ./inp_files/3884.got.cif
#   From: 2010.05.17/outbox.cif.g08.bks.cpg/sg55_2_cif.got.tgz:3884.got - 2010.06.03 13:27:54.
