data_PCOD9424444
_publ_section_title
;
Structure prediction by ZEFSAII (Michael W. Deem and Ramdas Pophale) SiO2 
 PCOD9424444
Probable space group: P C C A
;
_chemical_formula_sum "Si O2"
_cell_formula_units_Z 40
_cell_length_a 9.125694
_cell_length_b 12.055840
_cell_length_c 18.164208
_cell_angle_alpha 90.000000
_cell_angle_beta 90.000000
_cell_angle_gamma 90.000000
_cell_volume 1998.388142
_symmetry_space_group_name_H-M "P C C A"
_symmetry_group_IT_number 54
_symmetry_cell_setting 'orthorhombic'
loop_
_space_group_symop_operation_xyz
x,y,z
1/2-x,-y,z
1/2+x,-y,1/2-z
-x,y,1/2-z
-x,-y,-z
1/2+x,y,-z
1/2-x,y,1/2+z
x,-y,1/2+z
loop_
_atom_site_type_symbol
_atom_site_label
_atom_site_fract_x
_atom_site_fract_y
_atom_site_fract_z
Si Si1 0.962633 0.788478 0.829041
Si Si2 0.726362 0.267307 0.431677
Si Si3 0.618545 0.076276 0.541106
Si Si4 0.582421 0.381240 0.049905
Si Si5 0.340280 0.409035 0.862057
O O1 0.037217 0.857765 0.894433
O O2 0.039891 0.667776 0.828353
O O3 0.000000 0.839286 0.750000
O O4 0.794984 0.770364 0.854113
O O5 0.687282 0.161609 0.481968
O O6 0.576723 0.337146 0.430382
O O7 0.853534 0.339146 0.472512
O O8 0.750000 0.000000 0.569859
O O9 0.500000 0.000000 0.500000
O O10 0.709942 0.334600 0.104435
O O11 0.403142 0.487860 0.928664
O O12 0.250000 0.500000 0.814298
#
# Coordination Sequence:
#
# PCOD9424444 Si02
#       5
#     8   8   8   8   8
#     4  12  26  45  63  99 141 165 209 283 339 386
#     4  12  20  40  69  98 127 171 223 272 320 377
#     4  12  23  44  73  92 121 165 227 275 322 398
#     4   9  19  35  65  96 127 173 226 256 300 382
#     4   8  20  40  61  93 139 174 218 257 315 380
#
# _framework density 20.016131999999999
#
# number of rings (size 3 to 8) (size 9 to 14) (size 15 to 20)
#    1.200    0.000    6.000    0.000    0.000    8.000 
#    7.200    1.000    0.000    0.000    0.000    0.000 
#    0.000    0.000    0.000    0.000    0.000    0.000 
#
# Total GULP energy -222768.465222 kJ/mol
# GULP energy per Si atom -5569.211631 kJ/mol
# Density = 1.997057 g / cm^3
# Si number density = 20.016132 Si / 1000 Ang^3
#
#
#
# Elastic Constant Matrix: (Units=GPa)
#
#
# Indices 1 2 3 4 5 6 
#
# 1 144.0922 44.7043 45.9902 0.0000 0.0000 0.0000
# 2 44.7043 83.0776 25.5112 0.0000 0.0000 0.0000
# 3 45.9902 25.5112 92.0659 0.0000 0.0000 0.0000
# 4 0.0000 0.0000 0.0000 12.4381 0.0000 0.0000
# 5 0.0000 0.0000 0.0000 0.0000 8.2030 0.0000
# 6 0.0000 0.0000 0.0000 0.0000 0.0000 40.9861
#
#
#
# Elastic Compliance Matrix: (Units=1/GPa)
#
#
# Indices 1 2 3 4 5 6 
#
# 1 0.009287 -0.003905 -0.003557 0.000000 0.000000 0.000000
# 2 -0.003905 0.014798 -0.002150 0.000000 0.000000 0.000000
# 3 -0.003557 -0.002150 0.013234 0.000000 0.000000 0.000000
# 4 0.000000 0.000000 0.000000 0.080398 0.000000 0.000000
# 5 0.000000 0.000000 0.000000 0.000000 0.121906 0.000000
# 6 0.000000 0.000000 0.000000 0.000000 0.000000 0.024399
#
#
# Mechanical properties :
#
#
# Convention : Reuss Voigt Hill
#
# Bulk Modulus (GPa) = 55.26161 61.29412 58.27787
# Shear Modulus (GPa) = 17.28441 25.86079 21.57260
#
# Velocity S-wave (km/s) = 2.94177 3.59834 3.28649
# Velocity P-wave (km/s) = 6.26156 6.92480 6.60151
#
# Compressibility (1/GPa) = 0.01809574
#
# Stress axis : x y z
#
# Youngs Moduli (GPa) = 107.67953 67.57477 75.56076
#
# Poissons Ratio (x) = 0.26388 0.26877
# Poissons Ratio (y) = 0.42049 0.16245
# Poissons Ratio (z) = 0.38302 0.14528
#
# Static dielectric constant tensor:
#      x y z
#    x 1.756900 0.000000 0.000000 
#    y 0.000000 1.760210 0.000000 
#    z 0.000000 0.000000 1.758400 
# 
# From -- ./inp_files/16478.got.cif
#   From: 2010.05.17/outbox.cif.g08.bks.cpg/sg54_9_cif.got.tgz:16478.got - 2010.06.03 13:09:01.
