data_PCOD9424613
_publ_section_title
;
Structure prediction by ZEFSAII (Michael W. Deem and Ramdas Pophale) SiO2 
 PCOD9424613
Probable space group: P C C A
;
_chemical_formula_sum "Si O2"
_cell_formula_units_Z 64
_cell_length_a 15.000000
_cell_length_b 9.000000
_cell_length_c 24.000000
_cell_angle_alpha 90.000000
_cell_angle_beta 90.000000
_cell_angle_gamma 90.000000
_cell_volume 3240.000000
_symmetry_space_group_name_H-M "P C C A"
_symmetry_group_IT_number 54
_symmetry_cell_setting 'orthorhombic'
loop_
_space_group_symop_operation_xyz
x,y,z
1/2-x,-y,z
1/2+x,-y,1/2-z
-x,y,1/2-z
-x,-y,-z
1/2+x,y,-z
1/2-x,y,1/2+z
x,-y,1/2+z
loop_
_atom_site_type_symbol
_atom_site_label
_atom_site_fract_x
_atom_site_fract_y
_atom_site_fract_z
Si Si1 0.775034 0.826894 0.541025
Si Si2 0.927537 0.677462 0.888582
Si Si3 0.951000 0.668412 0.403576
Si Si4 0.554886 0.166639 0.693653
Si Si5 0.751327 0.179670 0.666753
Si Si6 0.517972 0.169001 0.513661
Si Si7 0.252679 0.322885 0.074806
Si Si8 0.054590 0.174429 0.807047
O O1 0.745800 0.769805 0.601987
O O2 0.881861 0.811339 0.536647
O O3 0.737498 0.747803 0.486031
O O4 0.750000 0.000000 0.537879
O O5 0.943900 0.507786 0.904187
O O6 0.823276 0.706599 0.879538
O O7 0.996248 0.723566 0.842298
O O8 0.950613 0.779313 0.940307
O O9 0.993862 0.731428 0.459331
O O10 0.849216 0.726829 0.404096
O O11 0.005257 0.724833 0.351431
O O12 0.500000 0.156230 0.750000
O O13 0.657146 0.220260 0.694720
O O14 0.554805 0.996729 0.671023
O O15 0.842168 0.222123 0.697738
O O16 0.750000 0.000000 0.665322
O O17 0.500000 0.000000 0.500000
O O18 0.250000 0.500000 0.066205
O O19 0.000000 0.180170 0.750000
#
# Coordination Sequence:
#
# PCOD9424613 Si02
#       8
#     8   8   8   8   8   8   8   8
#     4  10  19  33  54  84 116 153 192 233 286 346
#     4  11  21  38  58  84 119 152 193 237 290 347
#     4  10  23  38  57  84 116 157 191 237 292 348
#     4  10  21  39  62  88 114 153 198 242 290 341
#     4   9  19  36  57  84 117 149 190 241 292 342
#     4  11  21  34  58  87 119 151 194 237 289 347
#     4   9  21  38  54  80 120 157 189 232 288 347
#     4  10  22  40  62  85 116 154 198 246 292 344
#
# _framework density 19.753086
#
# number of rings (size 3 to 8) (size 9 to 14) (size 15 to 20)
#    0.000    2.000    1.250    1.875    5.250    2.500 
#    0.000    1.875    0.000    0.000    0.000    0.000 
#    0.000    0.000    0.000    0.000    0.000    0.000 
#
# Total GULP energy -356754.401312 kJ/mol
# GULP energy per Si atom -5574.287521 kJ/mol
# Density = 1.970813 g / cm^3
# Si number density = 19.753086 Si / 1000 Ang^3
#
#
#
# Elastic Constant Matrix: (Units=GPa)
#
#
# Indices 1 2 3 4 5 6 
#
# 1 65.9876 8.2237 29.7760 0.0000 0.0000 0.0000
# 2 8.2237 31.5558 10.7428 0.0000 0.0000 0.0000
# 3 29.7760 10.7428 29.4782 0.0000 0.0000 0.0000
# 4 0.0000 0.0000 0.0000 48.7664 0.0000 0.0000
# 5 0.0000 0.0000 0.0000 0.0000 20.1658 0.0000
# 6 0.0000 0.0000 0.0000 0.0000 0.0000 23.1231
#
#
#
# Elastic Compliance Matrix: (Units=1/GPa)
#
#
# Indices 1 2 3 4 5 6 
#
# 1 0.028042 0.002666 -0.029297 0.000000 0.000000 0.000000
# 2 0.002666 0.036432 -0.015970 0.000000 0.000000 0.000000
# 3 -0.029297 -0.015970 0.069336 0.000000 0.000000 0.000000
# 4 0.000000 0.000000 0.000000 0.020506 0.000000 0.000000
# 5 0.000000 0.000000 0.000000 0.000000 0.049589 0.000000
# 6 0.000000 0.000000 0.000000 0.000000 0.000000 0.043247
#
#
# Mechanical properties :
#
#
# Convention : Reuss Voigt Hill
#
# Bulk Modulus (GPa) = 20.57254 24.94519 22.75887
# Shear Modulus (GPa) = 14.34496 23.62966 18.98731
#
# Velocity S-wave (km/s) = 2.69776 3.46244 3.10374
# Velocity P-wave (km/s) = 4.48791 5.35169 4.93872
#
# Compressibility (1/GPa) = 0.04860848
#
# Stress axis : x y z
#
# Youngs Moduli (GPa) = 35.66108 27.44847 14.42261
#
# Poissons Ratio (x) = -0.07317 0.42253
# Poissons Ratio (y) = -0.09506 0.23032
# Poissons Ratio (z) = 1.04475 0.43834
#
# Static dielectric constant tensor:
#      x y z
#    x 1.640540 0.000000 0.000000 
#    y 0.000000 1.666500 0.000000 
#    z 0.000000 0.000000 -1.638810 
# 
# From -- ./inp_files/24484.got.cif
#   From: 2010.05.17/outbox.ucp.g08.bks.cvg/sg54_13_cif.got.tgz:24484.got - 2010.06.11 16:34:40.
