data_PCOD9424255
_publ_section_title
;
Structure prediction by ZEFSAII (Michael W. Deem and Ramdas Pophale) SiO2 
 PCOD9424255
Probable space group: P C C A
;
_chemical_formula_sum "Si O2"
_cell_formula_units_Z 36
_cell_length_a 24.225275
_cell_length_b 5.335517
_cell_length_c 12.404890
_cell_angle_alpha 90.000000
_cell_angle_beta 90.000000
_cell_angle_gamma 90.000000
_cell_volume 1603.386200
_symmetry_space_group_name_H-M "P C C A"
_symmetry_group_IT_number 54
_symmetry_cell_setting 'orthorhombic'
loop_
_space_group_symop_operation_xyz
x,y,z
1/2-x,-y,z
1/2+x,-y,1/2-z
-x,y,1/2-z
-x,-y,-z
1/2+x,y,-z
1/2-x,y,1/2+z
x,-y,1/2+z
loop_
_atom_site_type_symbol
_atom_site_label
_atom_site_fract_x
_atom_site_fract_y
_atom_site_fract_z
Si Si1 0.659016 0.886175 0.056206
Si Si2 0.500000 0.519919 0.750000
Si Si3 0.806365 0.597638 0.941910
Si Si4 0.546426 0.122976 0.427223
Si Si5 0.392804 0.755461 0.232641
O O1 0.646179 0.900250 0.182945
O O2 0.688024 0.622977 0.030136
O O3 0.599852 0.843726 0.000272
O O4 0.687776 0.130167 0.001422
O O5 0.479802 0.654335 0.640803
O O6 0.558480 0.401349 0.711735
O O7 0.750000 0.500000 0.886237
O O8 0.854304 0.605047 0.851294
O O9 0.500000 0.000000 0.500000
O O10 0.569403 0.941765 0.335121
#
# Coordination Sequence:
#
# PCOD9424255 Si02
#       5
#     8   4   8   8   8
#     4  11  25  45  73 105 143 187 240 300 367 435
#     4  12  22  40  70 102 150 196 248 292 374 448
#     4  11  26  50  74 103 142 190 247 310 366 432
#     4  11  24  41  65 105 149 193 235 297 360 441
#     4  11  26  42  70 109 146 191 247 301 368 443
#
# _framework density 22.452482
#
# number of rings (size 3 to 8) (size 9 to 14) (size 15 to 20)
#    0.000    0.889    2.222    4.000    9.333    2.667 
#    0.000    4.444    0.000    0.000    0.000    0.000 
#    0.000    0.000    0.000    0.000    0.000    0.000 
#
# Total GULP energy -200750.933446 kJ/mol
# GULP energy per Si atom -5576.414818 kJ/mol
# Density = 2.240138 g / cm^3
# Si number density = 22.452482 Si / 1000 Ang^3
#
#
#
# Elastic Constant Matrix: (Units=GPa)
#
#
# Indices 1 2 3 4 5 6 
#
# 1 111.9277 48.1371 26.0851 0.0000 0.0000 0.0000
# 2 48.1371 103.1203 39.8373 0.0000 0.0000 0.0000
# 3 26.0851 39.8373 62.1901 0.0000 0.0000 0.0000
# 4 0.0000 0.0000 0.0000 32.1806 0.0000 0.0000
# 5 0.0000 0.0000 0.0000 0.0000 27.7650 0.0000
# 6 0.0000 0.0000 0.0000 0.0000 0.0000 81.0166
#
#
#
# Elastic Compliance Matrix: (Units=1/GPa)
#
#
# Indices 1 2 3 4 5 6 
#
# 1 0.011330 -0.004589 -0.001813 0.000000 0.000000 0.000000
# 2 -0.004589 0.014745 -0.007520 0.000000 0.000000 0.000000
# 3 -0.001813 -0.007520 0.021658 0.000000 0.000000 0.000000
# 4 0.000000 0.000000 0.000000 0.031075 0.000000 0.000000
# 5 0.000000 0.000000 0.000000 0.000000 0.036017 0.000000
# 6 0.000000 0.000000 0.000000 0.000000 0.000000 0.012343
#
#
# Mechanical properties :
#
#
# Convention : Reuss Voigt Hill
#
# Bulk Modulus (GPa) = 50.28050 56.15077 53.21563
# Shear Modulus (GPa) = 30.93286 39.07101 35.00194
#
# Velocity S-wave (km/s) = 3.71577 4.17605 3.95262
# Velocity P-wave (km/s) = 6.39156 6.95094 6.67711
#
# Compressibility (1/GPa) = 0.01988842
#
# Stress axis : x y z
#
# Youngs Moduli (GPa) = 88.25873 67.82119 46.17333
#
# Poissons Ratio (x) = 0.31121 0.08371
# Poissons Ratio (y) = 0.40499 0.34724
# Poissons Ratio (z) = 0.16002 0.51004
#
# Static dielectric constant tensor:
#      x y z
#    x 2.663100 0.000000 0.000000 
#    y 0.000000 1.901740 0.000000 
#    z 0.000000 0.000000 1.939380 
# 
# From -- ./inp_files/9711.got.cif
#   From: 2010.05.17/outbox.cif.g08.bks.cpg/sg54_5_cif.got.tgz:9711.got - 2010.06.03 13:09:01.
