data_PCOD9424695
_publ_section_title
;
Structure prediction by ZEFSAII (Michael W. Deem and Ramdas Pophale) SiO2 
 PCOD9424695
Probable space group: P B A M
;
_chemical_formula_sum "Si O2"
_cell_formula_units_Z 44
_cell_length_a 12.544635
_cell_length_b 5.391835
_cell_length_c 27.805642
_cell_angle_alpha 90.000000
_cell_angle_beta 90.000000
_cell_angle_gamma 90.000000
_cell_volume 1880.734754
_symmetry_space_group_name_H-M "P B A M"
_symmetry_group_IT_number 55
_symmetry_cell_setting 'orthorhombic'
loop_
_space_group_symop_operation_xyz
x,y,z
-x,-y,z
1/2+x,1/2-y,-z
1/2-x,1/2+y,-z
-x,-y,-z
x,y,-z
1/2-x,1/2+y,z
1/2+x,1/2-y,z
loop_
_atom_site_type_symbol
_atom_site_label
_atom_site_fract_x
_atom_site_fract_y
_atom_site_fract_z
Si Si1 0.874917 0.642048 0.307123
Si Si2 0.070297 0.249880 0.103708
Si Si3 0.572595 0.250059 0.000000
Si Si4 0.679741 0.781884 0.447946
Si Si5 0.626515 0.642516 0.655558
Si Si6 0.313195 0.792646 0.204457
O O1 0.914727 0.360908 0.310232
O O2 0.750304 0.611737 0.325424
O O3 0.881319 0.741058 0.252759
O O4 0.913297 0.861643 0.341701
O O5 0.136126 0.254396 0.152447
O O6 0.000000 0.500000 0.104230
O O7 0.130409 0.249260 0.051822
O O8 0.000000 0.000000 0.104732
O O9 0.500000 0.500000 0.000000
O O10 0.500000 0.000000 0.000000
O O11 0.622944 0.765854 0.500000
O O12 0.761293 0.547654 0.446745
O O13 0.618669 0.747641 0.398289
O O14 0.225868 0.575811 0.207792
#
# Coordination Sequence:
#
# PCOD9424695 Si02
#       6
#     8   8   4   8   8   8
#     4  10  16  25  39  57  83 116 151 190 223 283
#     4  10  21  38  57  78 103 136 171 207 251 301
#     4   8  16  34  58  74  94 134 176 198 234 310
#     4  10  16  20  29  45  67 102 149 192 221 266
#     4  10  14  25  36  51  80 114 157 184 229 286
#     4  12  21  33  51  79 105 131 168 215 249 291
#
# _framework density 23.395112999999998
#
# number of rings (size 3 to 8) (size 9 to 14) (size 15 to 20)
#    0.000    1.818    7.273    1.091    0.000    0.000 
#    0.000    0.909    0.000    0.000    0.000    0.000 
#    0.000    0.000    0.000    0.000    0.000   30.909 
#
# Total GULP energy -245409.271708 kJ/mol
# GULP energy per Si atom -5577.483448 kJ/mol
# Density = 2.334186 g / cm^3
# Si number density = 23.395113 Si / 1000 Ang^3
#
#
#
# Elastic Constant Matrix: (Units=GPa)
#
#
# Indices 1 2 3 4 5 6 
#
# 1 13.0518 13.0022 2.4691 0.0000 0.0000 0.0000
# 2 13.0022 129.2415 -7.9946 0.0000 0.0000 0.0000
# 3 2.4691 -7.9946 208.2922 0.0000 0.0000 0.0000
# 4 0.0000 0.0000 0.0000 35.1661 0.0000 0.0000
# 5 0.0000 0.0000 0.0000 0.0000 22.9849 0.0000
# 6 0.0000 0.0000 0.0000 0.0000 0.0000 31.3596
#
#
#
# Elastic Compliance Matrix: (Units=1/GPa)
#
#
# Indices 1 2 3 4 5 6 
#
# 1 0.085528 -0.008688 -0.001347 0.000000 0.000000 0.000000
# 2 -0.008688 0.008638 0.000435 0.000000 0.000000 0.000000
# 3 -0.001347 0.000435 0.004834 0.000000 0.000000 0.000000
# 4 0.000000 0.000000 0.000000 0.028436 0.000000 0.000000
# 5 0.000000 0.000000 0.000000 0.000000 0.043507 0.000000
# 6 0.000000 0.000000 0.000000 0.000000 0.000000 0.031888
#
#
# Mechanical properties :
#
#
# Convention : Reuss Voigt Hill
#
# Bulk Modulus (GPa) = 12.53154 40.61541 26.57347
# Shear Modulus (GPa) = 20.11006 40.77604 30.44305
#
# Velocity S-wave (km/s) = 2.93505 4.17937 3.61121
# Velocity P-wave (km/s) = 4.10538 6.37870 5.36386
#
# Compressibility (1/GPa) = 0.07979866
#
# Stress axis : x y z
#
# Youngs Moduli (GPa) = 11.69211 115.76272 206.88526
#
# Poissons Ratio (x) = 1.00572 0.27873
# Poissons Ratio (y) = 0.10158 -0.08990
# Poissons Ratio (z) = 0.01575 -0.05030
#
# Static dielectric constant tensor:
#      x y z
#    x 2.812950 0.000000 0.000000 
#    y 0.000000 1.764770 0.000000 
#    z 0.000000 0.000000 1.901970 
# 
# From -- ./inp_files/23958.got.cif
#   From: 2010.05.17/outbox.cif.g08.bks.cpg/sg55_12_cif.got.tgz:23958.got - 2010.06.03 13:27:54.
