data_PCOD9424427
_publ_section_title
;
Structure prediction by ZEFSAII (Michael W. Deem and Ramdas Pophale) SiO2 
 PCOD9424427
Probable space group: P C C A
;
_chemical_formula_sum "Si O2"
_cell_formula_units_Z 36
_cell_length_a 9.138211
_cell_length_b 8.962346
_cell_length_c 20.334002
_cell_angle_alpha 90.000000
_cell_angle_beta 90.000000
_cell_angle_gamma 90.000000
_cell_volume 1665.350876
_symmetry_space_group_name_H-M "P C C A"
_symmetry_group_IT_number 54
_symmetry_cell_setting 'orthorhombic'
loop_
_space_group_symop_operation_xyz
x,y,z
1/2-x,-y,z
1/2+x,-y,1/2-z
-x,y,1/2-z
-x,-y,-z
1/2+x,y,-z
1/2-x,y,1/2+z
x,-y,1/2+z
loop_
_atom_site_type_symbol
_atom_site_label
_atom_site_fract_x
_atom_site_fract_y
_atom_site_fract_z
Si Si1 0.586204 0.958464 0.312028
Si Si2 0.287617 0.330245 0.439897
Si Si3 0.009546 0.296298 0.674671
Si Si4 0.045398 0.251939 0.064246
Si Si5 0.250000 0.500000 0.616007
O O1 0.500000 0.887171 0.250000
O O2 0.590113 0.862544 0.378535
O O3 0.750000 0.000000 0.290501
O O4 0.511979 0.117190 0.327182
O O5 0.250000 0.500000 0.461615
O O6 0.375821 0.343121 0.371889
O O7 0.387307 0.236701 0.491228
O O8 0.129293 0.255011 0.436012
O O9 0.161736 0.367593 0.651157
O O10 0.000000 0.344545 0.750000
O O11 0.115842 0.411946 0.082561
#
# Coordination Sequence:
#
# PCOD9424427 Si02
#       5
#     8   8   8   8   4
#     4  11  27  49  72 102 148 190 238 299 363 432
#     4  12  25  46  72 109 147 190 238 306 359 423
#     4  11  27  45  71 105 148 185 243 298 359 432
#     4  12  26  44  76 100 147 191 242 293 368 419
#     4  12  22  44  70 106 136 190 236 304 352 428
#
# _framework density 21.617066000000001
#
# number of rings (size 3 to 8) (size 9 to 14) (size 15 to 20)
#    0.000    0.444    5.556    2.000    7.778    1.778 
#    0.000    0.000    0.000    0.000    0.000    0.000 
#    0.000    0.000    0.000    0.000    0.000    0.000 
#
# Total GULP energy -200951.162606 kJ/mol
# GULP energy per Si atom -5581.976739 kJ/mol
# Density = 2.156786 g / cm^3
# Si number density = 21.617066 Si / 1000 Ang^3
#
#
#
# Elastic Constant Matrix: (Units=GPa)
#
#
# Indices 1 2 3 4 5 6 
#
# 1 172.8406 4.8385 80.6982 0.0000 0.0000 0.0000
# 2 4.8385 37.2085 23.6674 0.0000 0.0000 0.0000
# 3 80.6982 23.6674 149.0574 0.0000 0.0000 0.0000
# 4 0.0000 0.0000 0.0000 14.7836 0.0000 0.0000
# 5 0.0000 0.0000 0.0000 0.0000 -5.7645 0.0000
# 6 0.0000 0.0000 0.0000 0.0000 0.0000 21.8703
#
#
#
# Elastic Compliance Matrix: (Units=1/GPa)
#
#
# Indices 1 2 3 4 5 6 
#
# 1 0.007859 0.001874 -0.004552 0.000000 0.000000 0.000000
# 2 0.001874 0.030341 -0.005832 0.000000 0.000000 0.000000
# 3 -0.004552 -0.005832 0.010099 0.000000 0.000000 0.000000
# 4 0.000000 0.000000 0.000000 0.067643 0.000000 0.000000
# 5 0.000000 0.000000 0.000000 0.000000 -0.173475 0.000000
# 6 0.000000 0.000000 0.000000 0.000000 0.000000 0.045724
#
#
# Mechanical properties :
#
#
# Convention : Reuss Voigt Hill
#
# Bulk Modulus (GPa) = 31.97097 64.16832 48.06965
# Shear Modulus (GPa) = 319.72877 22.83801 171.28339
#
# Velocity S-wave (km/s) = 12.17484 3.25388 8.91108
# Velocity P-wave (km/s) = 14.57592 6.62311 11.32085
#
# Compressibility (1/GPa) = 0.03127837
#
# Stress axis : x y z
#
# Youngs Moduli (GPa) = 127.25012 32.95819 99.01737
#
# Poissons Ratio (x) = -0.06175 0.45073
# Poissons Ratio (y) = -0.23840 0.57746
# Poissons Ratio (z) = 0.57924 0.19221
#
# Static dielectric constant tensor:
#      x y z
#    x 1.783600 0.000000 0.000000 
#    y 0.000000 1.787150 0.000000 
#    z 0.000000 0.000000 1.847510 
# 
# From -- ./inp_files/20098.got.cif
#   From: 2010.05.17/outbox.cif.g08.bks.cpg/sg54_11_cif.got.tgz:20098.got - 2010.06.03 13:09:01.
