data_PCOD9424704
_publ_section_title
;
Structure prediction by ZEFSAII (Michael W. Deem and Ramdas Pophale) SiO2 
 PCOD9424704
Probable space group: P B A M
;
_chemical_formula_sum "Si O2"
_cell_formula_units_Z 48
_cell_length_a 13.586710
_cell_length_b 5.571521
_cell_length_c 24.780636
_cell_angle_alpha 90.000000
_cell_angle_beta 90.000000
_cell_angle_gamma 90.000000
_cell_volume 1875.860446
_symmetry_space_group_name_H-M "P B A M"
_symmetry_group_IT_number 55
_symmetry_cell_setting 'orthorhombic'
loop_
_space_group_symop_operation_xyz
x,y,z
-x,-y,z
1/2+x,1/2-y,-z
1/2-x,1/2+y,-z
-x,-y,-z
x,y,-z
1/2-x,1/2+y,z
1/2+x,1/2-y,z
loop_
_atom_site_type_symbol
_atom_site_label
_atom_site_fract_x
_atom_site_fract_y
_atom_site_fract_z
Si Si1 0.369142 0.860592 0.605066
Si Si2 0.621241 0.738200 0.103848
Si Si3 0.596613 0.239529 0.937263
Si Si4 0.143812 0.861156 0.436415
Si Si5 0.630409 0.137024 0.268552
Si Si6 0.144445 0.862471 0.227614
O O1 0.402423 0.622452 0.573596
O O2 0.251855 0.877245 0.591207
O O3 0.383207 0.819669 0.668300
O O4 0.406056 0.124695 0.588432
O O5 0.502360 0.749856 0.098393
O O6 0.645605 0.498016 0.070659
O O7 0.654559 0.697803 0.164717
O O8 0.650850 0.998847 0.081549
O O9 0.569867 0.215424 0.000000
O O10 0.156653 0.821091 0.500000
O O11 0.747675 0.117671 0.254878
O O12 0.598386 0.374305 0.235966
O O13 0.593153 0.870701 0.253666
#
# Coordination Sequence:
#
# PCOD9424704 Si02
#       6
#     8   8   8   8   8   8
#     4  10  16  25  36  48  72 105 136 182 212 230
#     4  10  18  29  48  70  90 109 132 170 212 248
#     4  10  19  33  50  73  91 106 131 165 207 266
#     4  10  16  22  33  51  70  95 136 185 219 246
#     4  10  19  30  42  59  83 115 155 185 199 234
#     4  10  18  29  43  63  84 110 144 181 209 232
#
# _framework density 25.588259000000001
#
# number of rings (size 3 to 8) (size 9 to 14) (size 15 to 20)
#    0.000    2.000    0.000   11.000    0.000    0.000 
#    0.000    0.000    0.000    0.000    0.000   79.333 
#    0.000    0.000    0.000    0.000    0.000    0.000 
#
# Total GULP energy -268565.449718 kJ/mol
# GULP energy per Si atom -5595.113536 kJ/mol
# Density = 2.553002 g / cm^3
# Si number density = 25.588259 Si / 1000 Ang^3
#
#
#
# Elastic Constant Matrix: (Units=GPa)
#
#
# Indices 1 2 3 4 5 6 
#
# 1 83.2147 17.1113 -38.5843 0.0000 0.0000 0.0000
# 2 17.1113 272.5195 13.9409 0.0000 0.0000 0.0000
# 3 -38.5843 13.9409 90.5313 0.0000 0.0000 0.0000
# 4 0.0000 0.0000 0.0000 78.6708 0.0000 0.0000
# 5 0.0000 0.0000 0.0000 0.0000 -22.4166 0.0000
# 6 0.0000 0.0000 0.0000 0.0000 0.0000 15.0789
#
#
#
# Elastic Compliance Matrix: (Units=1/GPa)
#
#
# Indices 1 2 3 4 5 6 
#
# 1 0.015431 -0.001316 0.006779 0.000000 0.000000 0.000000
# 2 -0.001316 0.003811 -0.001148 0.000000 0.000000 0.000000
# 3 0.006779 -0.001148 0.014112 0.000000 0.000000 0.000000
# 4 0.000000 0.000000 0.000000 0.012711 0.000000 0.000000
# 5 0.000000 0.000000 0.000000 0.000000 -0.044610 0.000000
# 6 0.000000 0.000000 0.000000 0.000000 0.000000 0.066318
#
#
# Mechanical properties :
#
#
# Convention : Reuss Voigt Hill
#
# Bulk Modulus (GPa) = 23.81761 47.91125 35.86443
# Shear Modulus (GPa) = 68.36546 44.51979 56.44263
#
# Velocity S-wave (km/s) = 5.17451 4.17568 4.70169
# Velocity P-wave (km/s) = 6.71036 6.48174 6.59704
#
# Compressibility (1/GPa) = 0.04198573
#
# Stress axis : x y z
#
# Youngs Moduli (GPa) = 64.80459 262.41358 70.86202
#
# Poissons Ratio (x) = 0.34526 -0.48039
# Poissons Ratio (y) = 0.08526 0.08132
# Poissons Ratio (z) = -0.43933 0.30114
#
# Static dielectric constant tensor:
#      x y z
#    x 2.006340 0.000000 0.000000 
#    y 0.000000 2.047770 0.000000 
#    z 0.000000 0.000000 1.849040 
# 
# From -- ./inp_files/22064.got.cif
#   From: 2010.05.17/outbox.cif.g08.bks.cpg/sg55_12_cif.got.tgz:22064.got - 2010.06.03 13:27:54.
