data_PCOD9424514
_publ_section_title
;
Structure prediction by ZEFSAII (Michael W. Deem and Ramdas Pophale) SiO2 
 PCOD9424514
Probable space group: P C C A
;
_chemical_formula_sum "Si O2"
_cell_formula_units_Z 32
_cell_length_a 9.726843
_cell_length_b 7.109616
_cell_length_c 21.756478
_cell_angle_alpha 90.000000
_cell_angle_beta 90.000000
_cell_angle_gamma 90.000000
_cell_volume 1504.550060
_symmetry_space_group_name_H-M "P C C A"
_symmetry_group_IT_number 54
_symmetry_cell_setting 'orthorhombic'
loop_
_space_group_symop_operation_xyz
x,y,z
1/2-x,-y,z
1/2+x,-y,1/2-z
-x,y,1/2-z
-x,-y,-z
1/2+x,y,-z
1/2-x,y,1/2+z
x,-y,1/2+z
loop_
_atom_site_type_symbol
_atom_site_label
_atom_site_fract_x
_atom_site_fract_y
_atom_site_fract_z
Si Si1 0.655408 0.819043 0.398587
Si Si2 0.375179 0.626808 0.974693
Si Si3 0.592924 0.935970 0.627664
Si Si4 0.500000 0.726730 0.750000
Si Si5 0.250000 0.500000 0.194850
O O1 0.681370 0.741146 0.466616
O O2 0.686646 0.659007 0.349332
O O3 0.750000 0.000000 0.386711
O O4 0.499586 0.889336 0.393346
O O5 0.250000 0.500000 0.950632
O O6 0.422510 0.771271 0.922694
O O7 0.500000 0.500000 0.000000
O O8 0.537191 0.855892 0.691859
O O9 0.750000 0.000000 0.632340
O O10 0.630583 0.596895 0.765745
#
# Coordination Sequence:
#
# PCOD9424514 Si02
#       5
#     8   8   8   4   4
#     4  12  24  50  76 108 145 191 244 302 376 438
#     4  12  24  45  76 111 147 188 242 305 374 435
#     4  12  28  46  73 111 150 193 247 304 365 438
#     4  12  30  48  74 106 146 202 244 300 360 442
#     4  12  28  50  76 108 144 198 250 304 370 438
#
# _framework density 21.268816999999999
#
# number of rings (size 3 to 8) (size 9 to 14) (size 15 to 20)
#    0.000    0.000    3.750    6.000    8.750    0.000 
#    0.000    0.000    0.000    0.000    0.000    0.000 
#    0.000    0.000    0.000    0.000    0.000    0.000 
#
# Total GULP energy -179408.769440 kJ/mol
# GULP energy per Si atom -5606.524045 kJ/mol
# Density = 2.122041 g / cm^3
# Si number density = 21.268817 Si / 1000 Ang^3
#
#
#
# Elastic Constant Matrix: (Units=GPa)
#
#
# Indices 1 2 3 4 5 6 
#
# 1 105.1600 22.7842 -8.0514 0.0000 0.0000 0.0000
# 2 22.7842 93.9083 17.6037 0.0000 0.0000 0.0000
# 3 -8.0514 17.6037 89.2062 0.0000 0.0000 0.0000
# 4 0.0000 0.0000 0.0000 -8.7279 0.0000 0.0000
# 5 0.0000 0.0000 0.0000 0.0000 27.3456 0.0000
# 6 0.0000 0.0000 0.0000 0.0000 0.0000 2.0772
#
#
#
# Elastic Compliance Matrix: (Units=1/GPa)
#
#
# Indices 1 2 3 4 5 6 
#
# 1 0.010218 -0.002754 0.001466 0.000000 0.000000 0.000000
# 2 -0.002754 0.011800 -0.002577 0.000000 0.000000 0.000000
# 3 0.001466 -0.002577 0.011851 0.000000 0.000000 0.000000
# 4 0.000000 0.000000 0.000000 -0.114575 0.000000 0.000000
# 5 0.000000 0.000000 0.000000 0.000000 0.036569 0.000000
# 6 0.000000 0.000000 0.000000 0.000000 0.000000 0.481426
#
#
# Mechanical properties :
#
#
# Convention : Reuss Voigt Hill
#
# Bulk Modulus (GPa) = 38.25801 39.21639 38.73720
# Shear Modulus (GPa) = 11.01972 21.20151 16.11062
#
# Velocity S-wave (km/s) = 2.27869 3.16070 2.75521
# Velocity P-wave (km/s) = 4.99501 5.63901 5.32675
#
# Compressibility (1/GPa) = 0.02613832
#
# Stress axis : x y z
#
# Youngs Moduli (GPa) = 97.86444 84.74616 84.38219
#
# Poissons Ratio (x) = 0.23338 -0.12368
# Poissons Ratio (y) = 0.26951 0.21746
# Poissons Ratio (z) = -0.14344 0.21840
#
# Static dielectric constant tensor:
#      x y z
#    x 1.783130 0.000000 0.000000 
#    y 0.000000 1.757030 0.000000 
#    z 0.000000 0.000000 1.716420 
# 
# From -- ./inp_files/20843.got.cif
#   From: 2010.05.17/outbox.cif.g08.bks.cpg/sg54_11_cif.got.tgz:20843.got - 2010.06.03 13:09:01.
