data_PCOD9424843
_publ_section_title
;
Structure prediction by ZEFSAII (Michael W. Deem and Ramdas Pophale) SiO2 
 PCOD9424843
Probable space group: P B A M
;
_chemical_formula_sum "Si O2"
_cell_formula_units_Z 64
_cell_length_a 16.785340
_cell_length_b 19.899760
_cell_length_c 7.386783
_cell_angle_alpha 90.000000
_cell_angle_beta 90.000000
_cell_angle_gamma 90.000000
_cell_volume 2467.364559
_symmetry_space_group_name_H-M "P B A M"
_symmetry_group_IT_number 55
_symmetry_cell_setting 'orthorhombic'
loop_
_space_group_symop_operation_xyz
x,y,z
-x,-y,z
1/2+x,1/2-y,-z
1/2-x,1/2+y,-z
-x,-y,-z
x,y,-z
1/2-x,1/2+y,z
1/2+x,1/2-y,z
loop_
_atom_site_type_symbol
_atom_site_label
_atom_site_fract_x
_atom_site_fract_y
_atom_site_fract_z
Si Si1 0.178480 0.294062 0.782443
Si Si2 0.834231 0.551333 0.779250
Si Si3 0.586925 0.410048 0.212076
Si Si4 0.569725 0.667194 0.221089
Si Si5 0.243733 0.657762 0.290892
Si Si6 0.498415 0.797833 0.220952
Si Si7 0.584874 0.922553 0.792242
Si Si8 0.659464 0.541681 0.779628
O O1 0.174254 0.371534 0.719796
O O2 0.242986 0.238457 0.727221
O O3 0.088977 0.271145 0.731883
O O4 0.185468 0.296633 0.000000
O O5 0.897301 0.496111 0.714406
O O6 0.748204 0.521009 0.731812
O O7 0.841579 0.553790 0.000000
O O8 0.512136 0.368731 0.281688
O O9 0.671993 0.372887 0.224426
O O10 0.599477 0.484841 0.286105
O O11 0.568597 0.417906 0.000000
O O12 0.563498 0.743722 0.281300
O O13 0.638668 0.616866 0.279151
O O14 0.572402 0.669895 0.000000
O O15 0.236154 0.641687 0.500000
O O16 0.166762 0.622094 0.203891
O O17 0.519606 0.871983 0.287602
O O18 0.499230 0.800786 0.000000
O O19 0.560794 0.934042 0.000000
O O20 0.656291 0.542200 0.000000
#
# Coordination Sequence:
#
# PCOD9424843 Si02
#       8
#     8   8   8   8   8   8   8   8
#     4  10  20  37  59  84 111 143 183 230 282 336
#     4   9  18  31  54  85 112 139 177 229 283 332
#     4  10  17  32  56  78 108 144 179 227 277 330
#     4   9  16  26  46  82 114 138 174 222 275 330
#     4  12  24  37  55  81 112 151 189 228 273 328
#     4   9  18  31  54  85 112 139 177 229 283 332
#     4  10  20  37  59  84 111 143 183 230 282 336
#     4   9  16  26  46  82 114 138 174 222 275 330
#
# _framework density 25.938607999999999
#
# number of rings (size 3 to 8) (size 9 to 14) (size 15 to 20)
#    0.000    2.250    2.500    1.500    1.750    2.000 
#    0.000    3.750    0.000    1.500    0.000    1.750 
#    0.000    0.000    0.000    0.000    0.000    0.000 
#
# Total GULP energy -357622.422335 kJ/mol
# GULP energy per Si atom -5587.850349 kJ/mol
# Density = 2.587957 g / cm^3
# Si number density = 25.938608 Si / 1000 Ang^3
#
#
#
# Elastic Constant Matrix: (Units=GPa)
#
#
# Indices 1 2 3 4 5 6 
#
# 1 63.8170 12.9227 -7.1153 0.0000 0.0000 0.0000
# 2 12.9227 165.1449 -3.2918 0.0000 0.0000 0.0000
# 3 -7.1153 -3.2918 88.6342 0.0000 0.0000 0.0000
# 4 0.0000 0.0000 0.0000 -62.4727 0.0000 0.0000
# 5 0.0000 0.0000 0.0000 0.0000 141.0858 0.0000
# 6 0.0000 0.0000 0.0000 0.0000 0.0000 46.8100
#
#
#
# Elastic Compliance Matrix: (Units=1/GPa)
#
#
# Indices 1 2 3 4 5 6 
#
# 1 0.016058 -0.001232 0.001243 0.000000 0.000000 0.000000
# 2 -0.001232 0.006154 0.000130 0.000000 0.000000 0.000000
# 3 0.001243 0.000130 0.011387 0.000000 0.000000 0.000000
# 4 0.000000 0.000000 0.000000 -0.016007 0.000000 0.000000
# 5 0.000000 0.000000 0.000000 0.000000 0.007088 0.000000
# 6 0.000000 0.000000 0.000000 0.000000 0.000000 0.021363
#
#
# Mechanical properties :
#
#
# Convention : Reuss Voigt Hill
#
# Bulk Modulus (GPa) = 29.51455 35.84747 32.68101
# Shear Modulus (GPa) = 87.63585 46.08998 66.86292
#
# Velocity S-wave (km/s) = 5.81887 4.21989 5.08265
# Velocity P-wave (km/s) = 7.51990 6.13134 6.86084
#
# Compressibility (1/GPa) = 0.03388159
#
# Stress axis : x y z
#
# Youngs Moduli (GPa) = 62.27482 162.48910 87.81981
#
# Poissons Ratio (x) = 0.20015 -0.10919
# Poissons Ratio (y) = 0.07671 -0.01139
# Poissons Ratio (z) = -0.07743 -0.02107
#
# Static dielectric constant tensor:
#      x y z
#    x 2.029850 0.000000 0.000000 
#    y 0.000000 2.062240 0.000000 
#    z 0.000000 0.000000 2.052200 
# 
# From -- ./inp_files/8072.got.cif
#   From: 2010.05.17/outbox.cif.g08.bks.cpg/sg55_5_cif.got.tgz:8072.got - 2010.06.03 13:27:54.
