data_PCOD9424310
_publ_section_title
;
Structure prediction by ZEFSAII (Michael W. Deem and Ramdas Pophale) SiO2 
 PCOD9424310
Probable space group: P C C A
;
_chemical_formula_sum "Si O2"
_cell_formula_units_Z 36
_cell_length_a 11.803404
_cell_length_b 6.994706
_cell_length_c 19.588154
_cell_angle_alpha 90.000000
_cell_angle_beta 90.000000
_cell_angle_gamma 90.000000
_cell_volume 1617.224258
_symmetry_space_group_name_H-M "P C C A"
_symmetry_group_IT_number 54
_symmetry_cell_setting 'orthorhombic'
loop_
_space_group_symop_operation_xyz
x,y,z
1/2-x,-y,z
1/2+x,-y,1/2-z
-x,y,1/2-z
-x,-y,-z
1/2+x,y,-z
1/2-x,y,1/2+z
x,-y,1/2+z
loop_
_atom_site_type_symbol
_atom_site_label
_atom_site_fract_x
_atom_site_fract_y
_atom_site_fract_z
Si Si1 0.250000 0.500000 0.198117
Si Si2 0.654223 0.117983 0.282428
Si Si3 0.357366 0.637398 0.942440
Si Si4 0.059696 0.645761 0.593396
Si Si5 0.435353 0.975832 0.855994
O O1 0.196277 0.674070 0.239535
O O2 0.349845 0.588476 0.151279
O O3 0.625536 0.990917 0.216405
O O4 0.546529 0.139187 0.330390
O O5 0.750000 0.000000 0.321722
O O6 0.250000 0.500000 0.929967
O O7 0.468958 0.521619 0.919191
O O8 0.360305 0.839936 0.903468
O O9 0.371808 0.674770 0.023122
O O10 0.985397 0.832647 0.611531
#
# Coordination Sequence:
#
# PCOD9424310 Si02
#       5
#     4   8   8   8   8
#     4  12  22  46  70  96 138 188 230 296 352 428
#     4  11  25  43  68  96 135 184 234 285 359 423
#     4  11  25  43  68 105 138 181 235 285 354 422
#     4  11  24  45  71  98 139 183 232 289 353 417
#     4  11  25  44  65 103 136 179 235 291 348 420
#
# _framework density 22.260362000000001
#
# number of rings (size 3 to 8) (size 9 to 14) (size 15 to 20)
#    0.000    0.889    5.556    0.667    4.667    0.000 
#    0.000    0.000    0.000    0.000    0.000    0.000 
#    0.000    0.000    0.000    0.000    0.000    0.000 
#
# Total GULP energy -201207.146514 kJ/mol
# GULP energy per Si atom -5589.087403 kJ/mol
# Density = 2.220970 g / cm^3
# Si number density = 22.260362 Si / 1000 Ang^3
#
#
#
# Elastic Constant Matrix: (Units=GPa)
#
#
# Indices 1 2 3 4 5 6 
#
# 1 81.5788 11.7769 16.3424 0.0000 0.0000 0.0000
# 2 11.7769 107.7832 26.1019 0.0000 0.0000 0.0000
# 3 16.3424 26.1019 58.4812 0.0000 0.0000 0.0000
# 4 0.0000 0.0000 0.0000 28.1064 0.0000 0.0000
# 5 0.0000 0.0000 0.0000 0.0000 6.8163 0.0000
# 6 0.0000 0.0000 0.0000 0.0000 0.0000 51.7502
#
#
#
# Elastic Compliance Matrix: (Units=1/GPa)
#
#
# Indices 1 2 3 4 5 6 
#
# 1 0.013020 -0.000607 -0.003368 0.000000 0.000000 0.000000
# 2 -0.000607 0.010431 -0.004486 0.000000 0.000000 0.000000
# 3 -0.003368 -0.004486 0.020043 0.000000 0.000000 0.000000
# 4 0.000000 0.000000 0.000000 0.035579 0.000000 0.000000
# 5 0.000000 0.000000 0.000000 0.000000 0.146706 0.000000
# 6 0.000000 0.000000 0.000000 0.000000 0.000000 0.019324
#
#
# Mechanical properties :
#
#
# Convention : Reuss Voigt Hill
#
# Bulk Modulus (GPa) = 37.63264 39.58729 38.60996
# Shear Modulus (GPa) = 18.45827 30.24269 24.35048
#
# Velocity S-wave (km/s) = 2.88271 3.68990 3.31100
# Velocity P-wave (km/s) = 5.29362 5.99802 5.65679
#
# Compressibility (1/GPa) = 0.02657268
#
# Stress axis : x y z
#
# Youngs Moduli (GPa) = 76.80289 95.87215 49.89345
#
# Poissons Ratio (x) = 0.05821 0.16802
# Poissons Ratio (y) = 0.04663 0.22381
# Poissons Ratio (z) = 0.25863 0.43006
#
# Static dielectric constant tensor:
#      x y z
#    x 1.875340 0.000000 0.000000 
#    y 0.000000 1.847280 0.000000 
#    z 0.000000 0.000000 1.786740 
# 
# From -- ./inp_files/23842.got.cif
#   From: 2010.05.17/outbox.cif.g08.bks.cpg/sg54_12_cif.got.tgz:23842.got - 2010.06.03 13:09:01.
