data_PCOD9424570
_publ_section_title
;
Structure prediction by ZEFSAII (Michael W. Deem and Ramdas Pophale) SiO2 
 PCOD9424570
Probable space group: P C C A
;
_chemical_formula_sum "Si O2"
_cell_formula_units_Z 32
_cell_length_a 12.515838
_cell_length_b 9.642982
_cell_length_c 11.666257
_cell_angle_alpha 90.000000
_cell_angle_beta 90.000000
_cell_angle_gamma 90.000000
_cell_volume 1408.000564
_symmetry_space_group_name_H-M "P C C A"
_symmetry_group_IT_number 54
_symmetry_cell_setting 'orthorhombic'
loop_
_space_group_symop_operation_xyz
x,y,z
1/2-x,-y,z
1/2+x,-y,1/2-z
-x,y,1/2-z
-x,-y,-z
1/2+x,y,-z
1/2-x,y,1/2+z
x,-y,1/2+z
loop_
_atom_site_type_symbol
_atom_site_label
_atom_site_fract_x
_atom_site_fract_y
_atom_site_fract_z
Si Si1 0.250000 0.500000 0.799950
Si Si2 0.120317 0.246452 0.698101
Si Si3 0.031456 0.414481 0.382952
Si Si4 0.563380 0.864681 0.042154
Si Si5 0.750000 0.000000 0.187566
O O1 0.190879 0.380502 0.727730
O O2 0.340790 0.428448 0.875950
O O3 0.105090 0.221455 0.565305
O O4 0.182812 0.112287 0.742926
O O5 0.000000 0.250202 0.750000
O O6 0.994832 0.253993 0.394042
O O7 0.000000 0.455075 0.250000
O O8 0.000000 0.500000 0.500000
O O9 0.662931 0.917924 0.113943
O O10 0.500000 0.000000 0.000000
#
# Coordination Sequence:
#
# PCOD9424570 Si02
#       5
#     4   8   8   8   4
#     4  12  26  52  78 116 164 220 268 344 426 492
#     4  12  26  51  78 117 168 212 281 346 416 513
#     4  12  29  51  80 119 162 220 281 345 416 507
#     4  12  27  47  80 115 158 212 275 343 421 503
#     4  12  26  50  76 114 156 216 266 348 422 498
#
# _framework density 22.727264000000002
#
# number of rings (size 3 to 8) (size 9 to 14) (size 15 to 20)
#    0.000    0.000    5.000    4.500    3.500    6.000 
#    0.000    0.000    0.000    0.000    0.000    0.000 
#    0.000    0.000    0.000    0.000    0.000    0.000 
#
# Total GULP energy -178789.307850 kJ/mol
# GULP energy per Si atom -5587.165870 kJ/mol
# Density = 2.267554 g / cm^3
# Si number density = 22.727264 Si / 1000 Ang^3
#
#
#
# Elastic Constant Matrix: (Units=GPa)
#
#
# Indices 1 2 3 4 5 6 
#
# 1 112.4148 55.8529 37.1889 0.0000 0.0000 0.0000
# 2 55.8529 191.0911 55.2717 0.0000 0.0000 0.0000
# 3 37.1889 55.2717 134.0905 0.0000 0.0000 0.0000
# 4 0.0000 0.0000 0.0000 45.9076 0.0000 0.0000
# 5 0.0000 0.0000 0.0000 0.0000 36.1285 0.0000
# 6 0.0000 0.0000 0.0000 0.0000 0.0000 51.7508
#
#
#
# Elastic Compliance Matrix: (Units=1/GPa)
#
#
# Indices 1 2 3 4 5 6 
#
# 1 0.010829 -0.002607 -0.001929 0.000000 0.000000 0.000000
# 2 -0.002607 0.006569 -0.001985 0.000000 0.000000 0.000000
# 3 -0.001929 -0.001985 0.008811 0.000000 0.000000 0.000000
# 4 0.000000 0.000000 0.000000 0.021783 0.000000 0.000000
# 5 0.000000 0.000000 0.000000 0.000000 0.027679 0.000000
# 6 0.000000 0.000000 0.000000 0.000000 0.000000 0.019323
#
#
# Mechanical properties :
#
#
# Convention : Reuss Voigt Hill
#
# Bulk Modulus (GPa) = 75.94369 81.58037 78.76203
# Shear Modulus (GPa) = 44.47421 46.04292 45.25857
#
# Velocity S-wave (km/s) = 4.42845 4.50587 4.46733
# Velocity P-wave (km/s) = 7.72243 7.94001 7.83198
#
# Compressibility (1/GPa) = 0.01316765
#
# Stress axis : x y z
#
# Youngs Moduli (GPa) = 92.34382 152.22447 113.49927
#
# Poissons Ratio (x) = 0.39690 0.21890
# Poissons Ratio (y) = 0.24077 0.22526
# Poissons Ratio (z) = 0.17810 0.30212
#
# Static dielectric constant tensor:
#      x y z
#    x 1.819020 0.000000 0.000000 
#    y 0.000000 5.758740 0.000000 
#    z 0.000000 0.000000 2.334910 
# 
# From -- ./inp_files/8018.got.cif
#   From: 2010.05.17/outbox.cif.g08.bks.cpg/sg54_5_cif.got.tgz:8018.got - 2010.06.03 13:09:01.
