data_PCOD9424079
_publ_section_title
;
Structure prediction by ZEFSAII (Michael W. Deem and Ramdas Pophale) SiO2 
 PCOD9424079
Probable space group: P C C A
;
_chemical_formula_sum "Si O2"
_cell_formula_units_Z 32
_cell_length_a 7.687041
_cell_length_b 9.315240
_cell_length_c 19.099144
_cell_angle_alpha 90.000000
_cell_angle_beta 90.000000
_cell_angle_gamma 90.000000
_cell_volume 1367.625372
_symmetry_space_group_name_H-M "P C C A"
_symmetry_group_IT_number 54
_symmetry_cell_setting 'orthorhombic'
loop_
_space_group_symop_operation_xyz
x,y,z
1/2-x,-y,z
1/2+x,-y,1/2-z
-x,y,1/2-z
-x,-y,-z
1/2+x,y,-z
1/2-x,y,1/2+z
x,-y,1/2+z
loop_
_atom_site_type_symbol
_atom_site_label
_atom_site_fract_x
_atom_site_fract_y
_atom_site_fract_z
Si Si1 0.220037 0.328858 0.940301
Si Si2 0.862931 0.887410 0.303349
Si Si3 0.687911 0.662145 0.904560
Si Si4 0.939779 0.935872 0.576241
O O1 0.250000 0.500000 0.935720
O O2 0.381946 0.232487 0.913015
O O3 0.022144 0.314086 0.912527
O O4 0.226830 0.287749 0.022657
O O5 0.761546 0.759631 0.339891
O O6 0.000000 0.823745 0.250000
O O7 0.750000 0.000000 0.259811
O O8 0.941865 0.987873 0.365138
O O9 0.750000 0.500000 0.895199
O O10 0.750000 0.000000 0.584624
O O11 0.000000 0.000000 0.500000
#
# Coordination Sequence:
#
# PCOD9424079 Si02
#       4
#     8   8   8   8
#     4  11  22  38  69 104 145 172 227 286 365 420
#     4  12  28  46  69  95 139 185 246 292 359 433
#     4  11  24  42  68 104 141 178 226 292 363 430
#     4  12  22  40  69 107 138 182 231 296 357 428
#
# _framework density 23.398222000000001
#
# number of rings (size 3 to 8) (size 9 to 14) (size 15 to 20)
#    0.000    0.500    5.000    4.500    7.000    0.000 
#    0.000    2.500    0.000    0.000    0.000    0.000 
#    0.000    0.000    0.000    0.000    0.000    0.000 
#
# Total GULP energy -178555.065611 kJ/mol
# GULP energy per Si atom -5579.845800 kJ/mol
# Density = 2.334497 g / cm^3
# Si number density = 23.398222 Si / 1000 Ang^3
#
#
#
# Elastic Constant Matrix: (Units=GPa)
#
#
# Indices 1 2 3 4 5 6 
#
# 1 100.1104 29.6326 2.1576 0.0000 0.0000 0.0000
# 2 29.6326 133.5010 33.8252 0.0000 0.0000 0.0000
# 3 2.1576 33.8252 66.0920 0.0000 0.0000 0.0000
# 4 0.0000 0.0000 0.0000 12.0635 0.0000 0.0000
# 5 0.0000 0.0000 0.0000 0.0000 25.4396 0.0000
# 6 0.0000 0.0000 0.0000 0.0000 0.0000 49.5831
#
#
#
# Elastic Compliance Matrix: (Units=1/GPa)
#
#
# Indices 1 2 3 4 5 6 
#
# 1 0.010749 -0.002639 0.001000 0.000000 0.000000 0.000000
# 2 -0.002639 0.009255 -0.004650 0.000000 0.000000 0.000000
# 3 0.001000 -0.004650 0.017478 0.000000 0.000000 0.000000
# 4 0.000000 0.000000 0.000000 0.082895 0.000000 0.000000
# 5 0.000000 0.000000 0.000000 0.000000 0.039309 0.000000
# 6 0.000000 0.000000 0.000000 0.000000 0.000000 0.020168
#
#
# Mechanical properties :
#
#
# Convention : Reuss Voigt Hill
#
# Bulk Modulus (GPa) = 40.15780 47.88157 44.01968
# Shear Modulus (GPa) = 24.90875 33.02311 28.96593
#
# Velocity S-wave (km/s) = 3.26630 3.76087 3.52227
# Velocity P-wave (km/s) = 5.60579 6.27432 5.94945
#
# Compressibility (1/GPa) = 0.02490176
#
# Stress axis : x y z
#
# Youngs Moduli (GPa) = 93.03531 108.05421 57.21562
#
# Poissons Ratio (x) = 0.28517 -0.05720
# Poissons Ratio (y) = 0.24553 0.26607
# Poissons Ratio (z) = -0.09302 0.50248
#
# Static dielectric constant tensor:
#      x y z
#    x 2.031990 0.000000 0.000000 
#    y 0.000000 2.246460 0.000000 
#    z 0.000000 0.000000 1.866750 
# 
# From -- ./inp_files/20000.got.cif
#   From: 2010.05.17/outbox.cif.g08.bks.cpg/sg54_10_cif.got.tgz:20000.got - 2010.06.03 13:09:01.
