data_PCOD9424124
_publ_section_title
;
Structure prediction by ZEFSAII (Michael W. Deem and Ramdas Pophale) SiO2 
 PCOD9424124
Probable space group: P C C A
;
_chemical_formula_sum "Si O2"
_cell_formula_units_Z 56
_cell_length_a 14.566096
_cell_length_b 11.447225
_cell_length_c 15.326382
_cell_angle_alpha 90.000000
_cell_angle_beta 90.000000
_cell_angle_gamma 90.000000
_cell_volume 2555.542059
_symmetry_space_group_name_H-M "P C C A"
_symmetry_group_IT_number 54
_symmetry_cell_setting 'orthorhombic'
loop_
_space_group_symop_operation_xyz
x,y,z
1/2-x,-y,z
1/2+x,-y,1/2-z
-x,y,1/2-z
-x,-y,-z
1/2+x,y,-z
1/2-x,y,1/2+z
x,-y,1/2+z
loop_
_atom_site_type_symbol
_atom_site_label
_atom_site_fract_x
_atom_site_fract_y
_atom_site_fract_z
Si Si1 0.500000 0.272615 0.409119
Si Si2 0.190116 0.895038 0.850269
Si Si3 1.000000 0.991276 0.106177
Si Si4 0.809884 0.895038 0.850269
Si Si5 0.842573 0.665041 0.543461
Si Si6 0.342573 0.665041 0.043461
Si Si7 1.000000 0.531482 0.850207
O O1 0.500000 0.144887 0.367572
O O2 0.589533 0.282587 0.470386
O O3 0.410466 0.282588 0.470385
O O4 0.500000 0.390996 0.353243
O O5 0.218881 0.879096 0.750000
O O6 0.192234 0.772055 0.897710
O O7 0.250000 0.000000 0.889964
O O8 0.087539 0.942576 0.857270
O O9 0.087539 0.057424 0.142730
O O10 0.000000 0.000000 0.000000
O O11 0.807766 0.772055 0.897710
O O12 0.750000 0.000000 0.889965
O O13 0.750000 0.617665 0.500000
O O14 0.909489 0.579222 0.598837
O O15 0.409488 0.579222 0.098837
O O16 0.000000 0.572831 0.750000
#
# Coordination Sequence:
#
# PCOD9424124 Si02
#       7
#     8   8   8   8   8   8   8
#     4  11  24  40  65  98 131 176 228 279 323 400
#     4  11  24  39  63  99 137 171 216 278 342 400
#     4  12  21  39  66  96 132 174 220 268 331 399
#     4  11  24  39  63  99 137 171 216 278 342 400
#     4  11  22  42  71  96 129 176 233 280 331 408
#     4  11  22  42  71  96 129 176 233 280 331 408
#     4  11  26  47  68  96 139 180 224 281 342 396
#
# _framework density 21.913160000000001
#
# number of rings (size 3 to 8) (size 9 to 14) (size 15 to 20)
#    0.000    0.857    2.857    5.571    0.000    3.429 
#    0.000    4.286    0.000    0.000    0.000    0.000 
#    0.000    0.000    0.000    0.000    0.000    0.000 
#
# Total GULP energy -313289.651475 kJ/mol
# GULP energy per Si atom -5594.458062 kJ/mol
# Density = 2.186328 g / cm^3
# Si number density = 21.913160 Si / 1000 Ang^3
#
#
#
# Elastic Constant Matrix: (Units=GPa)
#
#
# Indices 1 2 3 4 5 6 
#
# 1 138.0638 36.1298 29.7765 0.0000 0.0000 0.0000
# 2 36.1298 174.5805 41.1132 0.0000 0.0000 0.0000
# 3 29.7765 41.1132 87.1269 0.0000 0.0000 0.0000
# 4 0.0000 0.0000 0.0000 58.5547 0.0000 0.0000
# 5 0.0000 0.0000 0.0000 0.0000 21.6996 0.0000
# 6 0.0000 0.0000 0.0000 0.0000 0.0000 -112.6471
#
#
#
# Elastic Compliance Matrix: (Units=1/GPa)
#
#
# Indices 1 2 3 4 5 6 
#
# 1 0.008016 -0.001141 -0.002201 0.000000 0.000000 0.000000
# 2 -0.001141 0.006606 -0.002728 0.000000 0.000000 0.000000
# 3 -0.002201 -0.002728 0.013517 0.000000 0.000000 0.000000
# 4 0.000000 0.000000 0.000000 0.017078 0.000000 0.000000
# 5 0.000000 0.000000 0.000000 0.000000 0.046084 0.000000
# 6 0.000000 0.000000 0.000000 0.000000 0.000000 -0.008877
#
#
# Mechanical properties :
#
#
# Convention : Reuss Voigt Hill
#
# Bulk Modulus (GPa) = 62.49829 68.20114 65.34972
# Shear Modulus (GPa) = 50.05158 13.03820 31.54489
#
# Velocity S-wave (km/s) = 4.78440 2.44190 3.79824
# Velocity P-wave (km/s) = 7.68788 6.25631 7.00874
#
# Compressibility (1/GPa) = 0.01600044
#
# Stress axis : x y z
#
# Youngs Moduli (GPa) = 124.74596 151.36830 73.98104
#
# Poissons Ratio (x) = 0.17264 0.16287
# Poissons Ratio (y) = 0.14228 0.20179
# Poissons Ratio (z) = 0.27462 0.41287
#
# Static dielectric constant tensor:
#      x y z
#    x 1.773060 0.000000 0.000000 
#    y 0.000000 1.798130 0.000000 
#    z 0.000000 0.000000 1.822490 
# 
# From -- ./inp_files/13482.got.cif
#   From: 2010.05.17/outbox.cif.g08.bks.cpg/sg54_7_cif.got.tgz:13482.got - 2010.06.03 13:09:01.
