data_PCOD9424088
_publ_section_title
;
Structure prediction by ZEFSAII (Michael W. Deem and Ramdas Pophale) SiO2 
 PCOD9424088
Probable space group: P C C A
;
_chemical_formula_sum "Si O2"
_cell_formula_units_Z 24
_cell_length_a 11.175778
_cell_length_b 4.990412
_cell_length_c 17.010890
_cell_angle_alpha 90.000000
_cell_angle_beta 90.000000
_cell_angle_gamma 90.000000
_cell_volume 948.726877
_symmetry_space_group_name_H-M "P C C A"
_symmetry_group_IT_number 54
_symmetry_cell_setting 'orthorhombic'
loop_
_space_group_symop_operation_xyz
x,y,z
1/2-x,-y,z
1/2+x,-y,1/2-z
-x,y,1/2-z
-x,-y,-z
1/2+x,y,-z
1/2-x,y,1/2+z
x,-y,1/2+z
loop_
_atom_site_type_symbol
_atom_site_label
_atom_site_fract_x
_atom_site_fract_y
_atom_site_fract_z
Si Si1 0.085067 0.890305 0.637753
Si Si2 0.130488 0.576400 0.035193
Si Si3 0.326026 0.773510 0.309568
O O1 0.155318 0.651578 0.599170
O O2 0.133430 0.909926 0.726370
O O3 0.950955 0.771794 0.644947
O O4 0.104353 0.144034 0.580926
O O5 0.250000 0.500000 0.981959
O O6 0.000000 0.500000 0.000000
O O7 0.250000 0.500000 0.298830
O O8 0.250000 0.000000 0.352416
#
# Coordination Sequence:
#
# PCOD9424088 Si02
#       3
#     8   8   8
#     4  11  24  42  66  98 135 178 228 288 361 431
#     4  12  26  45  68  95 134 186 239 294 350 416
#     4  11  22  39  67 101 137 175 221 288 362 439
#
# _framework density 25.297059000000001
#
# number of rings (size 3 to 8) (size 9 to 14) (size 15 to 20)
#    0.000    0.667    0.000    9.000    0.000    9.333 
#    0.000    0.000    0.000    0.000    0.000    0.000 
#    0.000    0.000    0.000    0.000    0.000    0.000 
#
# Total GULP energy -133742.976421 kJ/mol
# GULP energy per Si atom -5572.624018 kJ/mol
# Density = 2.523948 g / cm^3
# Si number density = 25.297059 Si / 1000 Ang^3
#
#
#
# Elastic Constant Matrix: (Units=GPa)
#
#
# Indices 1 2 3 4 5 6 
#
# 1 220.4095 82.1236 36.1077 0.0000 0.0000 0.0000
# 2 82.1236 213.1166 43.9091 0.0000 0.0000 0.0000
# 3 36.1077 43.9091 74.0038 0.0000 0.0000 0.0000
# 4 0.0000 0.0000 0.0000 38.2967 0.0000 0.0000
# 5 0.0000 0.0000 0.0000 0.0000 -32.7863 0.0000
# 6 0.0000 0.0000 0.0000 0.0000 0.0000 53.2644
#
#
#
# Elastic Compliance Matrix: (Units=1/GPa)
#
#
# Indices 1 2 3 4 5 6 
#
# 1 0.005462 -0.001772 -0.001613 0.000000 0.000000 0.000000
# 2 -0.001772 0.005921 -0.002648 0.000000 0.000000 0.000000
# 3 -0.001613 -0.002648 0.015871 0.000000 0.000000 0.000000
# 4 0.000000 0.000000 0.000000 0.026112 0.000000 0.000000
# 5 0.000000 0.000000 0.000000 0.000000 -0.030501 0.000000
# 6 0.000000 0.000000 0.000000 0.000000 0.000000 0.018774
#
#
# Mechanical properties :
#
#
# Convention : Reuss Voigt Hill
#
# Bulk Modulus (GPa) = 65.84984 92.42341 79.13662
# Shear Modulus (GPa) = 85.07858 34.78092 59.92975
#
# Velocity S-wave (km/s) = 5.80559 3.71199 4.87256
# Velocity P-wave (km/s) = 8.42775 7.41528 7.93767
#
# Compressibility (1/GPa) = 0.01518606
#
# Stress axis : x y z
#
# Youngs Moduli (GPa) = 183.09576 168.89518 63.00670
#
# Poissons Ratio (x) = 0.29932 0.10165
# Poissons Ratio (y) = 0.32449 0.16686
# Poissons Ratio (z) = 0.29539 0.44729
#
# Static dielectric constant tensor:
#      x y z
#    x 2.516420 0.000000 0.000000 
#    y 0.000000 2.090590 0.000000 
#    z 0.000000 0.000000 2.086680 
# 
# From -- ./inp_files/16897.got.cif
#   From: 2010.05.17/outbox.cif.g08.bks.cpg/sg54_9_cif.got.tgz:16897.got - 2010.06.03 13:09:01.
