data_PCOD9424839
_publ_section_title
;
Structure prediction by ZEFSAII (Michael W. Deem and Ramdas Pophale) SiO2 
 PCOD9424839
Probable space group: P B A M
;
_chemical_formula_sum "Si O2"
_cell_formula_units_Z 58
_cell_length_a 26.203532
_cell_length_b 14.977701
_cell_length_c 7.506778
_cell_angle_alpha 90.000000
_cell_angle_beta 90.000000
_cell_angle_gamma 90.000000
_cell_volume 2946.175158
_symmetry_space_group_name_H-M "P B A M"
_symmetry_group_IT_number 55
_symmetry_cell_setting 'orthorhombic'
loop_
_space_group_symop_operation_xyz
x,y,z
-x,-y,z
1/2+x,1/2-y,-z
1/2-x,1/2+y,-z
-x,-y,-z
x,y,-z
1/2-x,1/2+y,z
1/2+x,1/2-y,z
loop_
_atom_site_type_symbol
_atom_site_label
_atom_site_fract_x
_atom_site_fract_y
_atom_site_fract_z
Si Si1 0.888303 0.154855 0.284025
Si Si2 0.194063 0.360020 0.715152
Si Si3 0.107979 0.229855 0.715480
Si Si4 0.142243 0.036869 0.298030
Si Si5 0.710412 0.760473 0.285280
Si Si6 0.003175 0.157342 0.286061
Si Si7 0.000000 0.000000 0.000000
Si Si8 0.255783 0.041117 0.201539
O O1 0.883543 0.150568 0.500000
O O2 0.842486 0.217592 0.220824
O O3 0.945285 0.186613 0.244701
O O4 0.880729 0.053238 0.214976
O O5 0.194209 0.359286 0.500000
O O6 0.142802 0.311219 0.779484
O O7 0.242125 0.300021 0.775756
O O8 0.204770 0.461201 0.768964
O O9 0.114184 0.229750 0.500000
O O10 0.129661 0.133867 0.780188
O O11 0.047827 0.228514 0.750544
O O12 0.121560 0.039709 0.500000
O O13 0.203356 0.026706 0.307735
O O14 0.710362 0.756609 0.500000
O O15 0.719936 0.862787 0.236888
O O16 0.005188 0.135792 0.500000
O O17 0.013042 0.073911 0.158151
O O18 0.237716 0.038129 0.000000
#
# Coordination Sequence:
#
# PCOD9424839 Si02
#       8
#     8   8   8   8   8   8   2   8
#     4   9  18  34  59  80 105 147 184 231 280 317
#     4  10  19  36  59  79 102 143 193 229 271 334
#     4   9  18  34  59  80 105 147 184 231 280 317
#     4  10  17  32  54  78 107 147 188 216 264 332
#     4  10  19  36  59  79 102 143 193 229 271 334
#     4  10  21  39  55  81 120 148 193 239 272 341
#     4  12  22  36  56  90 112 166 194 212 300 328
#     4  12  24  35  48  81 118 148 176 227 292 328
#
# _framework density 19.686541999999999
#
# number of rings (size 3 to 8) (size 9 to 14) (size 15 to 20)
#    0.000    1.931    2.759    2.276    0.000    2.759 
#    7.448    0.000    0.000    0.828    0.000    5.793 
#    0.000    0.000    0.000    0.000    0.000    0.000 
#
# Total GULP energy -323228.563812 kJ/mol
# GULP energy per Si atom -5572.906273 kJ/mol
# Density = 1.964173 g / cm^3
# Si number density = 19.686542 Si / 1000 Ang^3
#
#
#
# Elastic Constant Matrix: (Units=GPa)
#
#
# Indices 1 2 3 4 5 6 
#
# 1 86.0389 27.5653 4.7107 0.0000 0.0000 0.0000
# 2 27.5653 89.9417 -3.2214 0.0000 0.0000 0.0000
# 3 4.7107 -3.2214 68.7786 0.0000 0.0000 0.0000
# 4 0.0000 0.0000 0.0000 259.2458 0.0000 0.0000
# 5 0.0000 0.0000 0.0000 0.0000 -39.8123 0.0000
# 6 0.0000 0.0000 0.0000 0.0000 0.0000 22.1408
#
#
#
# Elastic Compliance Matrix: (Units=1/GPa)
#
#
# Indices 1 2 3 4 5 6 
#
# 1 0.012967 -0.004013 -0.001076 0.000000 0.000000 0.000000
# 2 -0.004013 0.012379 0.000855 0.000000 0.000000 0.000000
# 3 -0.001076 0.000855 0.014653 0.000000 0.000000 0.000000
# 4 0.000000 0.000000 0.000000 0.003857 0.000000 0.000000
# 5 0.000000 0.000000 0.000000 0.000000 -0.025118 0.000000
# 6 0.000000 0.000000 0.000000 0.000000 0.000000 0.045165
#
#
# Mechanical properties :
#
#
# Convention : Reuss Voigt Hill
#
# Bulk Modulus (GPa) = 31.71513 33.65205 32.68359
# Shear Modulus (GPa) = 60.32632 62.69516 61.51074
#
# Velocity S-wave (km/s) = 5.54166 5.64941 5.59579
# Velocity P-wave (km/s) = 7.55590 7.72564 7.64124
#
# Compressibility (1/GPa) = 0.03153070
#
# Stress axis : x y z
#
# Youngs Moduli (GPa) = 77.11781 80.78366 68.24478
#
# Poissons Ratio (x) = 0.32416 0.07344
# Poissons Ratio (y) = 0.30945 -0.05832
# Poissons Ratio (z) = 0.08298 -0.06904
#
# Static dielectric constant tensor:
#      x y z
#    x 1.721750 0.000000 0.000000 
#    y 0.000000 1.658330 0.000000 
#    z 0.000000 0.000000 1.750900 
# 
# From -- ./inp_files/10266.got.cif
#   From: 2010.05.17/outbox.cif.g08.bks.cpg/sg55_6_cif.got.tgz:10266.got - 2010.06.03 13:27:54.
