data_PCOD9424793
_publ_section_title
;
Structure prediction by ZEFSAII (Michael W. Deem and Ramdas Pophale) SiO2 
 PCOD9424793
Probable space group: P B A M
;
_chemical_formula_sum "Si O2"
_cell_formula_units_Z 64
_cell_length_a 20.814860
_cell_length_b 20.694338
_cell_length_c 7.380755
_cell_angle_alpha 90.000000
_cell_angle_beta 90.000000
_cell_angle_gamma 90.000000
_cell_volume 3179.258358
_symmetry_space_group_name_H-M "P B A M"
_symmetry_group_IT_number 55
_symmetry_cell_setting 'orthorhombic'
loop_
_space_group_symop_operation_xyz
x,y,z
-x,-y,z
1/2+x,1/2-y,-z
1/2-x,1/2+y,-z
-x,-y,-z
x,y,-z
1/2-x,1/2+y,z
1/2+x,1/2-y,z
loop_
_atom_site_type_symbol
_atom_site_label
_atom_site_fract_x
_atom_site_fract_y
_atom_site_fract_z
Si Si1 0.823558 0.170214 0.288706
Si Si2 0.088532 0.946763 0.218479
Si Si3 0.409677 0.949357 0.720249
Si Si4 0.931977 0.267660 0.277922
Si Si5 0.445950 0.088270 0.720086
Si Si6 0.074289 0.231899 0.711481
Si Si7 0.678984 0.166055 0.722331
Si Si8 0.445220 0.587825 0.781895
O O1 0.817687 0.187177 0.500000
O O2 0.853868 0.098838 0.277146
O O3 0.876884 0.219230 0.212691
O O4 0.751866 0.173247 0.213213
O O5 0.019803 0.917077 0.278925
O O6 0.088851 0.021513 0.277866
O O7 0.087836 0.946654 0.000000
O O8 0.409248 0.949688 0.500000
O O9 0.479372 0.920854 0.773168
O O10 0.353734 0.901419 0.778544
O O11 0.408533 0.023961 0.779568
O O12 0.932562 0.264827 0.500000
O O13 0.921127 0.341884 0.223559
O O14 0.003121 0.246812 0.214590
O O15 0.445432 0.088010 0.500000
O O16 0.070244 0.249133 0.500000
O O17 0.085122 0.155419 0.726035
O O18 0.131491 0.276477 0.782967
O O19 0.680489 0.165952 0.500000
O O20 0.446175 0.586937 0.000000
#
# Coordination Sequence:
#
# PCOD9424793 Si02
#       8
#     8   8   8   8   8   8   8   8
#     4  10  19  30  45  68  97 126 156 191 233 285
#     4   9  18  33  50  68  92 122 155 197 243 281
#     4   8  12  20  35  56  82 114 147 181 222 268
#     4   9  15  24  39  62  89 118 152 189 226 270
#     4   8  12  19  35  57  81 111 150 185 216 263
#     4  10  17  28  47  70  96 125 154 190 237 283
#     4   9  17  28  41  63  98 129 151 188 241 282
#     4   9  18  32  50  71  93 117 155 204 242 275
#
# _framework density 20.130482000000001
#
# number of rings (size 3 to 8) (size 9 to 14) (size 15 to 20)
#    0.000    3.000    2.500    1.500    0.000    0.500 
#    0.000    3.125    0.000    4.500    0.000    0.000 
#    0.000    3.000    0.000    0.000    0.000    0.000 
#
# Total GULP energy -356989.213514 kJ/mol
# GULP energy per Si atom -5577.956461 kJ/mol
# Density = 2.008466 g / cm^3
# Si number density = 20.130482 Si / 1000 Ang^3
#
#
#
# Elastic Constant Matrix: (Units=GPa)
#
#
# Indices 1 2 3 4 5 6 
#
# 1 163.1345 108.1744 8.1059 0.0000 0.0000 0.0000
# 2 108.1744 169.8822 -6.1832 0.0000 0.0000 0.0000
# 3 8.1059 -6.1832 67.6283 0.0000 0.0000 0.0000
# 4 0.0000 0.0000 0.0000 46.3952 0.0000 0.0000
# 5 0.0000 0.0000 0.0000 0.0000 -5.5494 0.0000
# 6 0.0000 0.0000 0.0000 0.0000 0.0000 25.9085
#
#
#
# Elastic Compliance Matrix: (Units=1/GPa)
#
#
# Indices 1 2 3 4 5 6 
#
# 1 0.010858 -0.006984 -0.001940 0.000000 0.000000 0.000000
# 2 -0.006984 0.010399 0.001788 0.000000 0.000000 0.000000
# 3 -0.001940 0.001788 0.015183 0.000000 0.000000 0.000000
# 4 0.000000 0.000000 0.000000 0.021554 0.000000 0.000000
# 5 0.000000 0.000000 0.000000 0.000000 -0.180200 0.000000
# 6 0.000000 0.000000 0.000000 0.000000 0.000000 0.038597
#
#
# Mechanical properties :
#
#
# Convention : Reuss Voigt Hill
#
# Bulk Modulus (GPa) = 45.11335 68.98215 57.04775
# Shear Modulus (GPa) = -80.71325 32.72072 -23.99627
#
# Velocity S-wave (km/s) = -6.33893 4.03604 -3.45633
# Velocity P-wave (km/s) = 5.57826 7.48741 3.53160
#
# Compressibility (1/GPa) = 0.02216639
#
# Stress axis : x y z
#
# Youngs Moduli (GPa) = 92.10151 96.16460 65.86447
#
# Poissons Ratio (x) = 0.67164 0.12777
# Poissons Ratio (y) = 0.64326 -0.11776
# Poissons Ratio (z) = 0.17867 -0.17193
#
# Static dielectric constant tensor:
#      x y z
#    x 1.677350 0.000000 0.000000 
#    y 0.000000 1.713170 0.000000 
#    z 0.000000 0.000000 1.782220 
# 
# From -- ./inp_files/15475.got.cif
#   From: 2010.05.17/outbox.cif.g08.bks.cpg/sg55_8_cif.got.tgz:15475.got - 2010.06.03 13:27:54.
