data_PCOD9424299
_publ_section_title
;
Structure prediction by ZEFSAII (Michael W. Deem and Ramdas Pophale) SiO2 
 PCOD9424299
Probable space group: P C C A
;
_chemical_formula_sum "Si O2"
_cell_formula_units_Z 44
_cell_length_a 16.479866
_cell_length_b 8.353788
_cell_length_c 15.000321
_cell_angle_alpha 90.000000
_cell_angle_beta 90.000000
_cell_angle_gamma 90.000000
_cell_volume 2065.083794
_symmetry_space_group_name_H-M "P C C A"
_symmetry_group_IT_number 54
_symmetry_cell_setting 'orthorhombic'
loop_
_space_group_symop_operation_xyz
x,y,z
1/2-x,-y,z
1/2+x,-y,1/2-z
-x,y,1/2-z
-x,-y,-z
1/2+x,y,-z
1/2-x,y,1/2+z
x,-y,1/2+z
loop_
_atom_site_type_symbol
_atom_site_label
_atom_site_fract_x
_atom_site_fract_y
_atom_site_fract_z
Si Si1 0.353046 0.845524 0.157995
Si Si2 0.000000 0.339969 0.250000
Si Si3 0.294660 0.664832 0.984090
Si Si4 0.968325 0.427803 0.591607
Si Si5 0.267808 0.309028 0.293536
Si Si6 0.422563 0.178940 0.192512
O O1 0.434633 0.758371 0.192849
O O2 0.289720 0.802189 0.234657
O O3 0.376116 0.030626 0.148997
O O4 0.314449 0.773857 0.068179
O O5 0.959624 0.450756 0.174234
O O6 0.250000 0.500000 0.012567
O O7 0.380569 0.632302 0.936940
O O8 0.248411 0.730714 0.897147
O O9 0.000000 0.500000 0.500000
O O10 0.035314 0.299392 0.623497
O O11 0.250000 0.500000 0.281275
O O12 0.357627 0.268141 0.255728
O O13 0.500000 0.119794 0.250000
#
# Coordination Sequence:
#
# PCOD9424299 Si02
#       6
#     8   4   8   8   8   8
#     4  12  26  44  73 109 149 188 238 308 377 437
#     4  12  22  44  72 108 140 194 244 298 364 438
#     4  11  24  44  74 107 141 194 250 301 361 443
#     4  12  24  43  73 105 143 195 252 299 351 441
#     4  11  24  49  76 101 142 192 247 299 361 443
#     4  12  25  48  72 104 151 187 234 305 372 432
#
# _framework density 21.306643000000001
#
# number of rings (size 3 to 8) (size 9 to 14) (size 15 to 20)
#    0.000    0.364    5.455    4.364    2.545    0.727 
#    3.273    1.818    0.000    0.000    0.000    0.000 
#    0.000    0.000    0.000    0.000    0.000    0.000 
#
# Total GULP energy -245846.476332 kJ/mol
# GULP energy per Si atom -5587.419917 kJ/mol
# Density = 2.125815 g / cm^3
# Si number density = 21.306643 Si / 1000 Ang^3
#
#
#
# Elastic Constant Matrix: (Units=GPa)
#
#
# Indices 1 2 3 4 5 6 
#
# 1 86.5833 43.1018 25.8653 0.0000 0.0000 0.0000
# 2 43.1018 121.8564 70.4556 0.0000 0.0000 0.0000
# 3 25.8653 70.4556 152.2461 0.0000 0.0000 0.0000
# 4 0.0000 0.0000 0.0000 -215.6002 0.0000 0.0000
# 5 0.0000 0.0000 0.0000 0.0000 35.7033 0.0000
# 6 0.0000 0.0000 0.0000 0.0000 0.0000 39.5544
#
#
#
# Elastic Compliance Matrix: (Units=1/GPa)
#
#
# Indices 1 2 3 4 5 6 
#
# 1 0.014019 -0.004890 -0.000119 0.000000 0.000000 0.000000
# 2 -0.004890 0.012910 -0.005144 0.000000 0.000000 0.000000
# 3 -0.000119 -0.005144 0.008969 0.000000 0.000000 0.000000
# 4 0.000000 0.000000 0.000000 -0.004638 0.000000 0.000000
# 5 0.000000 0.000000 0.000000 0.000000 0.028009 0.000000
# 6 0.000000 0.000000 0.000000 0.000000 0.000000 0.025282
#
#
# Mechanical properties :
#
#
# Convention : Reuss Voigt Hill
#
# Bulk Modulus (GPa) = 64.13045 71.05901 67.59473
# Shear Modulus (GPa) = 45.43262 -13.31761 16.05750
#
# Velocity S-wave (km/s) = 4.62272 -2.50280 2.74823
# Velocity P-wave (km/s) = 7.65877 5.00710 6.47023
#
# Compressibility (1/GPa) = 0.01559322
#
# Stress axis : x y z
#
# Youngs Moduli (GPa) = 71.32978 77.45899 111.49721
#
# Poissons Ratio (x) = 0.37879 0.01324
# Poissons Ratio (y) = 0.34881 0.57350
# Poissons Ratio (z) = 0.00847 0.39842
#
# Static dielectric constant tensor:
#      x y z
#    x 1.899730 0.000000 0.000000 
#    y 0.000000 1.806210 0.000000 
#    z 0.000000 0.000000 1.870770 
# 
# From -- ./inp_files/13997.got.cif
#   From: 2010.05.17/outbox.cif.g08.bks.cpg/sg54_7_cif.got.tgz:13997.got - 2010.06.03 13:09:01.
