data_PCOD9424480
_publ_section_title
;
Structure prediction by ZEFSAII (Michael W. Deem and Ramdas Pophale) SiO2 
 PCOD9424480
Probable space group: P C C A
;
_chemical_formula_sum "Si O2"
_cell_formula_units_Z 48
_cell_length_a 9.395982
_cell_length_b 16.182492
_cell_length_c 14.348549
_cell_angle_alpha 90.000000
_cell_angle_beta 90.000000
_cell_angle_gamma 90.000000
_cell_volume 2181.702666
_symmetry_space_group_name_H-M "P C C A"
_symmetry_group_IT_number 54
_symmetry_cell_setting 'orthorhombic'
loop_
_space_group_symop_operation_xyz
x,y,z
1/2-x,-y,z
1/2+x,-y,1/2-z
-x,y,1/2-z
-x,-y,-z
1/2+x,y,-z
1/2-x,y,1/2+z
x,-y,1/2+z
loop_
_atom_site_type_symbol
_atom_site_label
_atom_site_fract_x
_atom_site_fract_y
_atom_site_fract_z
Si Si1 0.849971 0.080521 0.567862
Si Si2 0.934351 0.162845 0.052941
Si Si3 0.297116 0.701591 0.704191
Si Si4 0.500000 0.773753 0.250000
Si Si5 0.000000 0.148959 0.750000
Si Si6 0.210964 0.593142 0.383482
Si Si7 0.055183 0.342170 0.518421
O O1 0.733655 0.150480 0.540432
O O2 0.971999 0.089901 0.490391
O O3 0.926832 0.097900 0.666665
O O4 0.750000 0.000000 0.571265
O O5 0.954149 0.171205 0.162941
O O6 0.983778 0.247079 0.002885
O O7 0.130536 0.719318 0.713397
O O8 0.379632 0.788968 0.710209
O O9 0.334429 0.647171 0.794571
O O10 0.344453 0.658373 0.609537
O O11 0.250000 0.500000 0.357718
O O12 0.352303 0.629397 0.431048
O O13 0.082081 0.603443 0.456930
#
# Coordination Sequence:
#
# PCOD9424480 Si02
#       7
#     8   8   8   4   4   8   8
#     4  12  27  46  72 110 153 191 239 314 381 435
#     4  12  24  46  73 105 141 194 255 299 358 463
#     4  12  23  45  73 102 140 195 257 298 360 447
#     4  12  24  41  73 110 134 190 266 300 340 445
#     4  12  22  49  75 102 140 202 246 296 362 451
#     4  12  26  44  66 107 148 184 250 309 379 430
#     4  12  23  46  74 100 140 203 243 308 367 446
#
# _framework density 22.001166000000001
#
# number of rings (size 3 to 8) (size 9 to 14) (size 15 to 20)
#    0.000    0.000    6.667    4.000    0.000    1.333 
#    3.000    1.667    0.000    0.000    0.000    0.000 
#    0.000    0.000    0.000    0.000    0.000    0.000 
#
# Total GULP energy -268640.026612 kJ/mol
# GULP energy per Si atom -5596.667221 kJ/mol
# Density = 2.195109 g / cm^3
# Si number density = 22.001166 Si / 1000 Ang^3
#
#
#
# Elastic Constant Matrix: (Units=GPa)
#
#
# Indices 1 2 3 4 5 6 
#
# 1 133.0881 26.9107 22.9028 0.0000 0.0000 0.0000
# 2 26.9107 76.9630 26.6256 0.0000 0.0000 0.0000
# 3 22.9028 26.6256 91.9112 0.0000 0.0000 0.0000
# 4 0.0000 0.0000 0.0000 6.2865 0.0000 0.0000
# 5 0.0000 0.0000 0.0000 0.0000 48.5629 0.0000
# 6 0.0000 0.0000 0.0000 0.0000 0.0000 33.4175
#
#
#
# Elastic Compliance Matrix: (Units=1/GPa)
#
#
# Indices 1 2 3 4 5 6 
#
# 1 0.008234 -0.002411 -0.001353 0.000000 0.000000 0.000000
# 2 -0.002411 0.015146 -0.003787 0.000000 0.000000 0.000000
# 3 -0.001353 -0.003787 0.012314 0.000000 0.000000 0.000000
# 4 0.000000 0.000000 0.000000 0.159070 0.000000 0.000000
# 5 0.000000 0.000000 0.000000 0.000000 0.020592 0.000000
# 6 0.000000 0.000000 0.000000 0.000000 0.000000 0.029924
#
#
# Mechanical properties :
#
#
# Convention : Reuss Voigt Hill
#
# Bulk Modulus (GPa) = 48.56181 50.53784 49.54983
# Shear Modulus (GPa) = 18.70922 32.68825 25.69874
#
# Velocity S-wave (km/s) = 2.91928 3.85873 3.42140
# Velocity P-wave (km/s) = 5.78647 6.54778 6.17886
#
# Compressibility (1/GPa) = 0.02059231
#
# Stress axis : x y z
#
# Youngs Moduli (GPa) = 121.44433 66.02235 81.20602
#
# Poissons Ratio (x) = 0.15918 0.10991
# Poissons Ratio (y) = 0.29280 0.30752
# Poissons Ratio (z) = 0.16436 0.25002
#
# Static dielectric constant tensor:
#      x y z
#    x 1.824750 0.000000 0.000000 
#    y 0.000000 1.847340 0.000000 
#    z 0.000000 0.000000 1.794030 
# 
# From -- ./inp_files/11764.got.cif
#   From: 2010.05.17/outbox.cif.g08.bks.cpg/sg54_6_cif.got.tgz:11764.got - 2010.06.03 13:09:01.
