data_PCOD9424495
_publ_section_title
;
Structure prediction by ZEFSAII (Michael W. Deem and Ramdas Pophale) SiO2 
 PCOD9424495
Probable space group: P C C A
;
_chemical_formula_sum "Si O2"
_cell_formula_units_Z 48
_cell_length_a 15.504071
_cell_length_b 7.535519
_cell_length_c 18.793965
_cell_angle_alpha 90.000000
_cell_angle_beta 90.000000
_cell_angle_gamma 90.000000
_cell_volume 2195.721890
_symmetry_space_group_name_H-M "P C C A"
_symmetry_group_IT_number 54
_symmetry_cell_setting 'orthorhombic'
loop_
_space_group_symop_operation_xyz
x,y,z
1/2-x,-y,z
1/2+x,-y,1/2-z
-x,y,1/2-z
-x,-y,-z
1/2+x,y,-z
1/2-x,y,1/2+z
x,-y,1/2+z
loop_
_atom_site_type_symbol
_atom_site_label
_atom_site_fract_x
_atom_site_fract_y
_atom_site_fract_z
Si Si1 0.767974 0.203398 0.764734
Si Si2 0.373785 0.247755 0.613102
Si Si3 0.697438 0.349324 0.622973
Si Si4 0.273376 0.198784 0.017292
Si Si5 0.083679 0.166877 0.627022
Si Si6 0.516235 0.482315 0.165263
O O1 0.696610 0.256489 0.823157
O O2 0.752945 0.306201 0.692524
O O3 0.860621 0.210301 0.801920
O O4 0.750000 0.000000 0.747547
O O5 0.316031 0.287647 0.543186
O O6 0.444398 0.395038 0.628010
O O7 0.416544 0.047861 0.616431
O O8 0.750000 0.500000 0.581569
O O9 0.698480 0.196450 0.564487
O O10 0.606025 0.424505 0.646292
O O11 0.357277 0.245988 0.063650
O O12 0.250000 0.000000 0.041861
O O13 0.996920 0.280789 0.636398
O O14 0.500000 0.487454 0.250000
#
# Coordination Sequence:
#
# PCOD9424495 Si02
#       6
#     8   8   8   8   8   8
#     4   9  18  38  66  89 121 166 210 261 315 380
#     4   9  20  42  68  91 122 168 215 259 319 382
#     4  12  25  39  58  96 131 164 213 263 320 381
#     4   9  21  44  66  90 124 171 217 257 315 382
#     4   9  21  41  68  93 121 169 215 255 319 385
#     4  12  24  40  64  97 132 164 211 270 320 380
#
# _framework density 21.860690999999999
#
# number of rings (size 3 to 8) (size 9 to 14) (size 15 to 20)
#    0.000    2.000    1.667    3.500    2.333    2.667 
#    6.000    1.667    0.000    0.000    0.000    0.000 
#    0.000    0.000    0.000    0.000    0.000    0.000 
#
# Total GULP energy -267743.508212 kJ/mol
# GULP energy per Si atom -5577.989754 kJ/mol
# Density = 2.181094 g / cm^3
# Si number density = 21.860691 Si / 1000 Ang^3
#
#
#
# Elastic Constant Matrix: (Units=GPa)
#
#
# Indices 1 2 3 4 5 6 
#
# 1 27.1304 12.0852 15.7692 0.0000 0.0000 0.0000
# 2 12.0852 42.2565 25.3950 0.0000 0.0000 0.0000
# 3 15.7692 25.3950 92.5529 0.0000 0.0000 0.0000
# 4 0.0000 0.0000 0.0000 8.6391 0.0000 0.0000
# 5 0.0000 0.0000 0.0000 0.0000 1.7970 0.0000
# 6 0.0000 0.0000 0.0000 0.0000 0.0000 25.9564
#
#
#
# Elastic Compliance Matrix: (Units=1/GPa)
#
#
# Indices 1 2 3 4 5 6 
#
# 1 0.043979 -0.009669 -0.004840 0.000000 0.000000 0.000000
# 2 -0.009669 0.030464 -0.006711 0.000000 0.000000 0.000000
# 3 -0.004840 -0.006711 0.013471 0.000000 0.000000 0.000000
# 4 0.000000 0.000000 0.000000 0.115752 0.000000 0.000000
# 5 0.000000 0.000000 0.000000 0.000000 0.556475 0.000000
# 6 0.000000 0.000000 0.000000 0.000000 0.000000 0.038526
#
#
# Mechanical properties :
#
#
# Convention : Reuss Voigt Hill
#
# Bulk Modulus (GPa) = 21.99126 29.82652 25.90889
# Shear Modulus (GPa) = 5.83930 14.52453 10.18192
#
# Velocity S-wave (km/s) = 1.63614 2.58042 2.16050
# Velocity P-wave (km/s) = 3.69470 4.74885 4.25455
#
# Compressibility (1/GPa) = 0.04547262
#
# Stress axis : x y z
#
# Youngs Moduli (GPa) = 22.73796 32.82603 74.23469
#
# Poissons Ratio (x) = 0.31740 0.35931
# Poissons Ratio (y) = 0.21985 0.49821
# Poissons Ratio (z) = 0.11006 0.22031
#
# Static dielectric constant tensor:
#      x y z
#    x 1.796740 0.000000 0.000000 
#    y 0.000000 1.899550 0.000000 
#    z 0.000000 0.000000 1.781710 
# 
# From -- ./inp_files/17994.got.cif
#   From: 2010.05.17/outbox.cif.g08.bks.cpg/sg54_9_cif.got.tgz:17994.got - 2010.06.03 13:09:01.
