data_PCOD9424851
_publ_section_title
;
Structure prediction by ZEFSAII (Michael W. Deem and Ramdas Pophale) SiO2 
 PCOD9424851
Probable space group: P B A M
;
_chemical_formula_sum "Si O2"
_cell_formula_units_Z 52
_cell_length_a 31.226134
_cell_length_b 5.422055
_cell_length_c 13.833181
_cell_angle_alpha 90.000000
_cell_angle_beta 90.000000
_cell_angle_gamma 90.000000
_cell_volume 2342.093330
_symmetry_space_group_name_H-M "P B A M"
_symmetry_group_IT_number 55
_symmetry_cell_setting 'orthorhombic'
loop_
_space_group_symop_operation_xyz
x,y,z
-x,-y,z
1/2+x,1/2-y,-z
1/2-x,1/2+y,-z
-x,-y,-z
x,y,-z
1/2-x,1/2+y,z
1/2+x,1/2-y,z
loop_
_atom_site_type_symbol
_atom_site_label
_atom_site_fract_x
_atom_site_fract_y
_atom_site_fract_z
Si Si1 0.270001 0.173447 0.613222
Si Si2 0.953606 0.373786 0.302167
Si Si3 0.360074 0.581781 0.806187
Si Si4 0.062249 0.344834 0.893284
Si Si5 0.363733 0.081049 0.681738
Si Si6 0.268840 0.461799 0.115154
Si Si7 0.000000 0.000000 0.801904
O O1 0.258467 0.188273 0.500000
O O2 0.255944 0.438941 0.654592
O O3 0.320561 0.125302 0.621733
O O4 0.937778 0.478216 0.198560
O O5 0.911500 0.416125 0.366327
O O6 0.964215 0.094134 0.273141
O O7 0.000000 0.500000 0.327126
O O8 0.399304 0.651242 0.876605
O O9 0.365217 0.321595 0.751717
O O10 0.316100 0.558496 0.863833
O O11 0.357643 0.815526 0.733337
O O12 0.018062 0.204533 0.872818
O O13 0.064819 0.452970 0.000000
O O14 0.262108 0.181885 0.151711
O O15 0.262226 0.442780 0.000000
#
# Coordination Sequence:
#
# PCOD9424851 Si02
#       7
#     8   8   8   8   8   8   4
#     4  10  22  41  65  95 125 150 178 220 279 346
#     4   9  20  35  52  77 111 150 198 243 290 336
#     4  11  22  36  53  80 110 142 189 234 278 331
#     4  10  20  32  48  72 105 145 192 244 292 333
#     4  11  22  38  59  85 114 148 185 226 282 340
#     4  10  21  36  51  69  99 142 186 230 279 326
#     4  10  17  34  50  70 101 142 190 242 287 340
#
# _framework density 22.202359999999999
#
# number of rings (size 3 to 8) (size 9 to 14) (size 15 to 20)
#    0.000    1.846    1.538    2.538    0.000    7.077 
#    0.000    1.538    0.000    0.462    0.000    0.538 
#    0.000    0.000    0.000    0.000    0.000    0.000 
#
# Total GULP energy -289891.251003 kJ/mol
# GULP energy per Si atom -5574.831750 kJ/mol
# Density = 2.215183 g / cm^3
# Si number density = 22.202360 Si / 1000 Ang^3
#
#
#
# Elastic Constant Matrix: (Units=GPa)
#
#
# Indices 1 2 3 4 5 6 
#
# 1 97.1600 21.6471 -10.0890 0.0000 0.0000 0.0000
# 2 21.6471 124.3343 16.8982 0.0000 0.0000 0.0000
# 3 -10.0890 16.8982 19.0072 0.0000 0.0000 0.0000
# 4 0.0000 0.0000 0.0000 12.2737 0.0000 0.0000
# 5 0.0000 0.0000 0.0000 0.0000 14.1619 0.0000
# 6 0.0000 0.0000 0.0000 0.0000 0.0000 41.0102
#
#
#
# Elastic Compliance Matrix: (Units=1/GPa)
#
#
# Indices 1 2 3 4 5 6 
#
# 1 0.012015 -0.003365 0.009369 0.000000 0.000000 0.000000
# 2 -0.003365 0.010091 -0.010757 0.000000 0.000000 0.000000
# 3 0.009369 -0.010757 0.067149 0.000000 0.000000 0.000000
# 4 0.000000 0.000000 0.000000 0.081475 0.000000 0.000000
# 5 0.000000 0.000000 0.000000 0.000000 0.070612 0.000000
# 6 0.000000 0.000000 0.000000 0.000000 0.000000 0.024384
#
#
# Mechanical properties :
#
#
# Convention : Reuss Voigt Hill
#
# Bulk Modulus (GPa) = 12.53952 33.04599 22.79275
# Shear Modulus (GPa) = 16.56644 27.62550 22.09597
#
# Velocity S-wave (km/s) = 2.73455 3.53123 3.15811
# Velocity P-wave (km/s) = 3.95354 5.61627 4.85659
#
# Compressibility (1/GPa) = 0.07974789
#
# Stress axis : x y z
#
# Youngs Moduli (GPa) = 83.22938 99.10059 14.89235
#
# Poissons Ratio (x) = 0.33350 -0.13953
# Poissons Ratio (y) = 0.28009 0.16020
# Poissons Ratio (z) = -0.77981 1.06606
#
# Static dielectric constant tensor:
#      x y z
#    x 1.901140 0.000000 0.000000 
#    y 0.000000 1.865090 0.000000 
#    z 0.000000 0.000000 1.810600 
# 
# From -- ./inp_files/16773.got.cif
#   From: 2010.05.17/outbox.cif.g08.bks.cpg/sg55_9_cif.got.tgz:16773.got - 2010.06.03 13:27:54.
