data_PCOD9424598
_publ_section_title
;
Structure prediction by ZEFSAII (Michael W. Deem and Ramdas Pophale) SiO2 
 PCOD9424598
Probable space group: P C C A
;
_chemical_formula_sum "Si O2"
_cell_formula_units_Z 16
_cell_length_a 7.788379
_cell_length_b 5.059366
_cell_length_c 16.425048
_cell_angle_alpha 90.000000
_cell_angle_beta 90.000000
_cell_angle_gamma 90.000000
_cell_volume 647.216860
_symmetry_space_group_name_H-M "P C C A"
_symmetry_group_IT_number 54
_symmetry_cell_setting 'orthorhombic'
loop_
_space_group_symop_operation_xyz
x,y,z
1/2-x,-y,z
1/2+x,-y,1/2-z
-x,y,1/2-z
-x,-y,-z
1/2+x,y,-z
1/2-x,y,1/2+z
x,-y,1/2+z
loop_
_atom_site_type_symbol
_atom_site_label
_atom_site_fract_x
_atom_site_fract_y
_atom_site_fract_z
Si Si1 0.250000 0.000000 0.328283
Si Si2 0.557433 0.389531 0.086892
Si Si3 0.750000 0.500000 0.790825
O O1 0.093073 0.918850 0.388848
O O2 0.267283 0.757369 0.265646
O O3 0.750000 0.500000 0.093500
O O4 0.416539 0.477570 0.152202
O O5 0.500000 0.500000 0.000000
#
# Coordination Sequence:
#
# PCOD9424598 Si02
#       3
#     4   8   4
#     4  12  30  52  88 122 164 226 284 348 418 498
#     4  12  29  54  82 124 171 223 277 348 427 503
#     4  12  30  54  84 122 168 220 290 350 414 506
#
# _framework density 24.721235
#
# number of rings (size 3 to 8) (size 9 to 14) (size 15 to 20)
#    0.000    0.000    5.000    1.500   14.000    4.000 
#    0.000    0.000    0.000    0.000    0.000    0.000 
#    0.000    0.000    0.000    0.000    0.000    0.000 
#
# Total GULP energy -89392.896396 kJ/mol
# GULP energy per Si atom -5587.056025 kJ/mol
# Density = 2.466497 g / cm^3
# Si number density = 24.721235 Si / 1000 Ang^3
#
#
#
# Elastic Constant Matrix: (Units=GPa)
#
#
# Indices 1 2 3 4 5 6 
#
# 1 197.4373 71.8762 105.6094 0.0000 0.0000 0.0000
# 2 71.8762 194.0654 123.8636 0.0000 0.0000 0.0000
# 3 105.6094 123.8636 265.3092 0.0000 0.0000 0.0000
# 4 0.0000 0.0000 0.0000 36.0888 0.0000 0.0000
# 5 0.0000 0.0000 0.0000 0.0000 24.8986 0.0000
# 6 0.0000 0.0000 0.0000 0.0000 0.0000 35.2094
#
#
#
# Elastic Compliance Matrix: (Units=1/GPa)
#
#
# Indices 1 2 3 4 5 6 
#
# 1 0.006594 -0.001092 -0.002115 0.000000 0.000000 0.000000
# 2 -0.001092 0.007521 -0.003076 0.000000 0.000000 0.000000
# 3 -0.002115 -0.003076 0.006047 0.000000 0.000000 0.000000
# 4 0.000000 0.000000 0.000000 0.027709 0.000000 0.000000
# 5 0.000000 0.000000 0.000000 0.000000 0.040163 0.000000
# 6 0.000000 0.000000 0.000000 0.000000 0.000000 0.028402
#
#
# Mechanical properties :
#
#
# Convention : Reuss Voigt Hill
#
# Bulk Modulus (GPa) = 131.66725 139.94560 135.80643
# Shear Modulus (GPa) = 38.01277 42.93688 40.47482
#
# Velocity S-wave (km/s) = 3.92555 4.17206 4.05068
# Velocity P-wave (km/s) = 8.59785 8.94095 8.77108
#
# Compressibility (1/GPa) = 0.00759490
#
# Stress axis : x y z
#
# Youngs Moduli (GPa) = 151.65891 132.95947 165.36354
#
# Poissons Ratio (x) = 0.14524 0.34970
# Poissons Ratio (y) = 0.16567 0.50874
# Poissons Ratio (z) = 0.32072 0.40905
#
# Static dielectric constant tensor:
#      x y z
#    x 1.974510 0.000000 0.000000 
#    y 0.000000 2.353780 0.000000 
#    z 0.000000 0.000000 1.982400 
# 
# From -- ./inp_files/11036.got.cif
#   From: 2010.05.17/outbox.cif.g08.bks.cpg/sg54_6_cif.got.tgz:11036.got - 2010.06.03 13:09:01.
