data_PCOD9424652
_publ_section_title
;
Structure prediction by ZEFSAII (Michael W. Deem and Ramdas Pophale) SiO2 
 PCOD9424652
Probable space group: P C C A
;
_chemical_formula_sum "Si O2"
_cell_formula_units_Z 48
_cell_length_a 15.000000
_cell_length_b 18.000000
_cell_length_c 9.000000
_cell_angle_alpha 90.000000
_cell_angle_beta 90.000000
_cell_angle_gamma 90.000000
_cell_volume 2430.000000
_symmetry_space_group_name_H-M "P C C A"
_symmetry_group_IT_number 54
_symmetry_cell_setting 'orthorhombic'
loop_
_space_group_symop_operation_xyz
x,y,z
1/2-x,-y,z
1/2+x,-y,1/2-z
-x,y,1/2-z
-x,-y,-z
1/2+x,y,-z
1/2-x,y,1/2+z
x,-y,1/2+z
loop_
_atom_site_type_symbol
_atom_site_label
_atom_site_fract_x
_atom_site_fract_y
_atom_site_fract_z
Si Si1 0.088638 0.077317 0.657101
Si Si2 0.666068 0.050064 0.644945
Si Si3 0.103601 0.414270 0.434528
Si Si4 0.393149 0.426695 0.580459
Si Si5 0.259416 0.302770 0.466968
Si Si6 0.757251 0.192624 0.786856
O O1 0.091944 0.063595 0.480917
O O2 0.152475 0.147560 0.685130
O O3 0.000000 0.090308 0.750000
O O4 0.130176 0.002544 0.726240
O O5 0.696577 0.129786 0.708648
O O6 0.750000 0.000000 0.583099
O O7 0.127261 0.490779 0.519255
O O8 0.119688 0.424933 0.258161
O O9 0.163544 0.344146 0.484598
O O10 0.996741 0.406822 0.453113
O O11 0.330767 0.365523 0.505378
O O12 0.276276 0.226980 0.559346
O O13 0.266326 0.268977 0.303572
#
# Coordination Sequence:
#
# PCOD9424652 Si02
#       6
#     8   8   8   8   8   8
#     4  11  23  40  63  91 121 157 210 255 302 362
#     4  10  21  41  63  86 120 164 202 249 304 375
#     4  10  23  42  64  89 126 161 214 254 304 369
#     4  10  23  42  63  91 121 167 208 259 304 365
#     4  12  23  41  64  92 124 169 200 255 316 373
#     4  11  24  40  62  88 127 160 204 248 314 372
#
# _framework density 19.753086
#
# number of rings (size 3 to 8) (size 9 to 14) (size 15 to 20)
#    0.000    1.333    3.333    2.500    4.667    2.667 
#    0.000    0.000    0.000    0.000    0.000    0.000 
#    0.000    0.000    0.000    0.000    0.000    0.000 
#
# Total GULP energy -267791.531419 kJ/mol
# GULP energy per Si atom -5578.990238 kJ/mol
# Density = 1.970813 g / cm^3
# Si number density = 19.753086 Si / 1000 Ang^3
#
#
#
# Elastic Constant Matrix: (Units=GPa)
#
#
# Indices 1 2 3 4 5 6 
#
# 1 27.2837 26.1238 17.4231 0.0000 0.0000 0.0000
# 2 26.1238 103.9551 9.1091 0.0000 0.0000 0.0000
# 3 17.4231 9.1091 22.2142 0.0000 0.0000 0.0000
# 4 0.0000 0.0000 0.0000 7.0201 0.0000 0.0000
# 5 0.0000 0.0000 0.0000 0.0000 11.0268 0.0000
# 6 0.0000 0.0000 0.0000 0.0000 0.0000 10.7475
#
#
#
# Elastic Compliance Matrix: (Units=1/GPa)
#
#
# Indices 1 2 3 4 5 6 
#
# 1 0.099759 -0.018892 -0.070496 0.000000 0.000000 0.000000
# 2 -0.018892 0.013556 0.009259 0.000000 0.000000 0.000000
# 3 -0.070496 0.009259 0.096511 0.000000 0.000000 0.000000
# 4 0.000000 0.000000 0.000000 0.142448 0.000000 0.000000
# 5 0.000000 0.000000 0.000000 0.000000 0.090688 0.000000
# 6 0.000000 0.000000 0.000000 0.000000 0.000000 0.093045
#
#
# Mechanical properties :
#
#
# Convention : Reuss Voigt Hill
#
# Bulk Modulus (GPa) = 20.17470 28.75165 24.46317
# Shear Modulus (GPa) = 7.01471 12.47869 9.74670
#
# Velocity S-wave (km/s) = 1.88651 2.51616 2.22373
# Velocity P-wave (km/s) = 3.87051 4.79880 4.35943
#
# Compressibility (1/GPa) = 0.04956703
#
# Stress axis : x y z
#
# Youngs Moduli (GPa) = 10.02416 73.76925 10.36147
#
# Poissons Ratio (x) = 1.39365 0.73045
# Poissons Ratio (y) = 0.18938 -0.09593
# Poissons Ratio (z) = 0.70667 -0.68302
#
# Static dielectric constant tensor:
#      x y z
#    x 1.713030 0.000000 0.000000 
#    y 0.000000 1.634210 0.000000 
#    z 0.000000 0.000000 1.594300 
# 
# From -- ./inp_files/3574.got.cif
#   From: 2010.05.17/outbox.ucp.g08.bks.cvg/sg54_2_cif.got.tgz:3574.got - 2010.06.11 16:34:40.
