data_PCOD9424195
_publ_section_title
;
Structure prediction by ZEFSAII (Michael W. Deem and Ramdas Pophale) SiO2 
 PCOD9424195
Probable space group: P C C A
;
_chemical_formula_sum "Si O2"
_cell_formula_units_Z 36
_cell_length_a 9.478994
_cell_length_b 8.902106
_cell_length_c 19.055455
_cell_angle_alpha 90.000000
_cell_angle_beta 90.000000
_cell_angle_gamma 90.000000
_cell_volume 1607.956638
_symmetry_space_group_name_H-M "P C C A"
_symmetry_group_IT_number 54
_symmetry_cell_setting 'orthorhombic'
loop_
_space_group_symop_operation_xyz
x,y,z
1/2-x,-y,z
1/2+x,-y,1/2-z
-x,y,1/2-z
-x,-y,-z
1/2+x,y,-z
1/2-x,y,1/2+z
x,-y,1/2+z
loop_
_atom_site_type_symbol
_atom_site_label
_atom_site_fract_x
_atom_site_fract_y
_atom_site_fract_z
Si Si1 0.007028 0.828792 0.668189
Si Si2 0.622476 0.194990 0.531314
Si Si3 0.899995 0.371610 0.533273
Si Si4 0.081942 0.517755 0.316622
Si Si5 0.750000 0.000000 0.909244
O O1 0.888661 0.874330 0.609462
O O2 0.986880 0.646609 0.668308
O O3 0.000000 0.873674 0.750000
O O4 0.152381 0.895908 0.639424
O O5 0.462638 0.236584 0.511946
O O6 0.663008 0.099391 0.464180
O O7 0.731997 0.337414 0.532621
O O8 0.000000 0.500000 0.500000
O O9 0.935786 0.380016 0.615202
O O10 0.250000 0.500000 0.303507
O O11 0.000000 0.580793 0.250000
#
# Coordination Sequence:
#
# PCOD9424195 Si02
#       5
#     8   8   8   8   4
#     4  11  25  45  71 101 144 183 232 300 356 417
#     4  12  24  44  73  97 138 184 238 289 346 417
#     4  12  22  41  69 103 135 177 228 288 353 418
#     4  11  23  43  68 103 142 177 225 290 365 425
#     4  12  26  48  68 106 132 190 248 284 344 424
#
# _framework density 22.388663999999999
#
# number of rings (size 3 to 8) (size 9 to 14) (size 15 to 20)
#    0.000    0.444    6.667    1.333    0.000    6.222 
#    0.000    0.000    0.000    0.000    0.000    0.000 
#    0.000    0.000    0.000    0.000    0.000    0.000 
#
# Total GULP energy -200479.947368 kJ/mol
# GULP energy per Si atom -5568.887427 kJ/mol
# Density = 2.233771 g / cm^3
# Si number density = 22.388664 Si / 1000 Ang^3
#
#
#
# Elastic Constant Matrix: (Units=GPa)
#
#
# Indices 1 2 3 4 5 6 
#
# 1 131.3961 34.4193 72.8636 0.0000 0.0000 0.0000
# 2 34.4193 36.8628 28.0921 0.0000 0.0000 0.0000
# 3 72.8636 28.0921 221.4624 0.0000 0.0000 0.0000
# 4 0.0000 0.0000 0.0000 10.9195 0.0000 0.0000
# 5 0.0000 0.0000 0.0000 0.0000 43.2721 0.0000
# 6 0.0000 0.0000 0.0000 0.0000 0.0000 30.9012
#
#
#
# Elastic Compliance Matrix: (Units=1/GPa)
#
#
# Indices 1 2 3 4 5 6 
#
# 1 0.011314 -0.008554 -0.002637 0.000000 0.000000 0.000000
# 2 -0.008554 0.036498 -0.001815 0.000000 0.000000 0.000000
# 3 -0.002637 -0.001815 0.005613 0.000000 0.000000 0.000000
# 4 0.000000 0.000000 0.000000 0.091580 0.000000 0.000000
# 5 0.000000 0.000000 0.000000 0.000000 0.023110 0.000000
# 6 0.000000 0.000000 0.000000 0.000000 0.000000 0.032361
#
#
# Mechanical properties :
#
#
# Convention : Reuss Voigt Hill
#
# Bulk Modulus (GPa) = 36.48052 73.38571 54.93311
# Shear Modulus (GPa) = 21.22005 33.97498 27.59751
#
# Velocity S-wave (km/s) = 3.08198 3.89975 3.51473
# Velocity P-wave (km/s) = 5.38464 7.28880 6.40785
#
# Compressibility (1/GPa) = 0.02741189
#
# Stress axis : x y z
#
# Youngs Moduli (GPa) = 88.38780 27.39875 178.14483
#
# Poissons Ratio (x) = 0.23437 0.46982
# Poissons Ratio (y) = 0.75607 0.32339
# Poissons Ratio (z) = 0.23310 0.04974
#
# Static dielectric constant tensor:
#      x y z
#    x 1.775350 0.000000 0.000000 
#    y 0.000000 1.946540 0.000000 
#    z 0.000000 0.000000 1.813800 
# 
# From -- ./inp_files/20142.got.cif
#   From: 2010.05.17/outbox.cif.g08.bks.cpg/sg54_11_cif.got.tgz:20142.got - 2010.06.03 13:09:01.
