data_PCOD9424861
_publ_section_title
;
Structure prediction by ZEFSAII (Michael W. Deem and Ramdas Pophale) SiO2 
 PCOD9424861
Probable space group: P B A M
;
_chemical_formula_sum "Si O2"
_cell_formula_units_Z 56
_cell_length_a 20.027303
_cell_length_b 8.374877
_cell_length_c 14.684346
_cell_angle_alpha 90.000000
_cell_angle_beta 90.000000
_cell_angle_gamma 90.000000
_cell_volume 2462.949543
_symmetry_space_group_name_H-M "P B A M"
_symmetry_group_IT_number 55
_symmetry_cell_setting 'orthorhombic'
loop_
_space_group_symop_operation_xyz
x,y,z
-x,-y,z
1/2+x,1/2-y,-z
1/2-x,1/2+y,-z
-x,-y,-z
x,y,-z
1/2-x,1/2+y,z
1/2+x,1/2-y,z
loop_
_atom_site_type_symbol
_atom_site_label
_atom_site_fract_x
_atom_site_fract_y
_atom_site_fract_z
Si Si1 0.255165 0.510069 0.216291
Si Si2 0.830949 0.262939 0.894632
Si Si3 0.196317 0.589245 0.399348
Si Si4 0.834530 0.817948 0.643725
Si Si5 0.028573 0.324145 0.336642
Si Si6 0.533025 0.656701 0.173607
Si Si7 0.409186 0.366403 0.364100
O O1 0.294936 0.370451 0.167575
O O2 0.216438 0.480274 0.312206
O O3 0.309749 0.639335 0.252858
O O4 0.200418 0.577439 0.147205
O O5 0.910887 0.247540 0.883494
O O6 0.813430 0.243648 0.000000
O O7 0.182742 0.523373 0.500000
O O8 0.264019 0.694418 0.405769
O O9 0.138008 0.711844 0.371567
O O10 0.894667 0.693735 0.638502
O O11 0.869311 0.980552 0.603348
O O12 0.016747 0.272962 0.230146
O O13 0.982157 0.198140 0.392504
O O14 0.000000 0.500000 0.350685
O O15 0.500000 0.500000 0.129316
O O16 0.574492 0.588655 0.259902
#
# Coordination Sequence:
#
# PCOD9424861 Si02
#       7
#     8   8   8   8   8   8   8
#     4  10  20  39  59  85 126 163 199 265 309 377
#     4  12  23  38  61  93 125 168 215 262 321 383
#     4  10  22  37  64  96 121 157 208 261 320 379
#     4  10  19  36  61  86 124 166 204 254 318 380
#     4  10  19  33  61  89 116 167 212 257 315 372
#     4  10  17  37  61  83 118 162 212 261 319 380
#     4  10  18  38  60  87 124 164 205 254 317 381
#
# _framework density 22.736967
#
# number of rings (size 3 to 8) (size 9 to 14) (size 15 to 20)
#    1.714    0.000    4.286    0.857    0.000    4.286 
#    0.000    0.714    0.000    3.429    0.000    0.000 
#    0.000    0.000    0.000    0.000    0.000    0.000 
#
# Total GULP energy -311824.613079 kJ/mol
# GULP energy per Si atom -5568.296662 kJ/mol
# Density = 2.268522 g / cm^3
# Si number density = 22.736967 Si / 1000 Ang^3
#
#
#
# Elastic Constant Matrix: (Units=GPa)
#
#
# Indices 1 2 3 4 5 6 
#
# 1 136.4964 9.6972 16.4738 0.0000 0.0000 0.0000
# 2 9.6972 47.7088 4.7945 0.0000 0.0000 0.0000
# 3 16.4738 4.7945 95.3030 0.0000 0.0000 0.0000
# 4 0.0000 0.0000 0.0000 -2.8730 0.0000 0.0000
# 5 0.0000 0.0000 0.0000 0.0000 21.2856 0.0000
# 6 0.0000 0.0000 0.0000 0.0000 0.0000 39.5452
#
#
#
# Elastic Compliance Matrix: (Units=1/GPa)
#
#
# Indices 1 2 3 4 5 6 
#
# 1 0.007576 -0.001415 -0.001238 0.000000 0.000000 0.000000
# 2 -0.001415 0.021331 -0.000828 0.000000 0.000000 0.000000
# 3 -0.001238 -0.000828 0.010749 0.000000 0.000000 0.000000
# 4 0.000000 0.000000 0.000000 -0.348071 0.000000 0.000000
# 5 0.000000 0.000000 0.000000 0.000000 0.046980 0.000000
# 6 0.000000 0.000000 0.000000 0.000000 0.000000 0.025288
#
#
# Mechanical properties :
#
#
# Convention : Reuss Voigt Hill
#
# Bulk Modulus (GPa) = 30.58891 37.93768 34.26330
# Shear Modulus (GPa) = -22.90578 28.16108 2.62765
#
# Velocity S-wave (km/s) = -3.17744 3.52313 1.07619
# Velocity P-wave (km/s) = 0.14526 5.76816 4.08000
#
# Compressibility (1/GPa) = 0.03269159
#
# Stress axis : x y z
#
# Youngs Moduli (GPa) = 131.99185 46.87915 93.03545
#
# Poissons Ratio (x) = 0.06636 0.11521
# Poissons Ratio (y) = 0.18683 0.07708
# Poissons Ratio (z) = 0.16346 0.03884
#
# Static dielectric constant tensor:
#      x y z
#    x 1.850610 0.000000 0.000000 
#    y 0.000000 1.953080 0.000000 
#    z 0.000000 0.000000 1.856850 
# 
# From -- ./inp_files/21899.got.cif
#   From: 2010.05.17/outbox.cif.g08.bks.cpg/sg55_11_cif.got.tgz:21899.got - 2010.06.03 13:27:54.
