data_PCOD9424335
_publ_section_title
;
Structure prediction by ZEFSAII (Michael W. Deem and Ramdas Pophale) SiO2 
 PCOD9424335
Probable space group: P C C A
;
_chemical_formula_sum "Si O2"
_cell_formula_units_Z 40
_cell_length_a 9.218996
_cell_length_b 7.888051
_cell_length_c 24.888825
_cell_angle_alpha 90.000000
_cell_angle_beta 90.000000
_cell_angle_gamma 90.000000
_cell_volume 1809.913129
_symmetry_space_group_name_H-M "P C C A"
_symmetry_group_IT_number 54
_symmetry_cell_setting 'orthorhombic'
loop_
_space_group_symop_operation_xyz
x,y,z
1/2-x,-y,z
1/2+x,-y,1/2-z
-x,y,1/2-z
-x,-y,-z
1/2+x,y,-z
1/2-x,y,1/2+z
x,-y,1/2+z
loop_
_atom_site_type_symbol
_atom_site_label
_atom_site_fract_x
_atom_site_fract_y
_atom_site_fract_z
Si Si1 0.778975 0.697273 0.041615
Si Si2 0.064670 0.629352 0.305976
Si Si3 0.574320 0.131230 0.460036
Si Si4 0.088608 0.024706 0.661102
Si Si5 0.371609 0.719758 0.345522
O O1 0.750000 0.500000 0.035971
O O2 0.696153 0.759142 0.095709
O O3 0.949099 0.728951 0.047912
O O4 0.712904 0.792422 0.990109
O O5 0.232214 0.691096 0.307083
O O6 0.056169 0.467514 0.345757
O O7 0.000000 0.565616 0.250000
O O8 0.975308 0.796923 0.319837
O O9 0.599870 0.044912 0.403196
O O10 0.500000 0.000000 0.500000
O O11 0.250000 0.000000 0.683544
O O12 0.980339 0.867800 0.671761
#
# Coordination Sequence:
#
# PCOD9424335 Si02
#       5
#     8   8   8   8   8
#     4  12  23  43  69 102 144 196 241 291 355 429
#     4  11  26  48  76 105 135 186 250 307 370 433
#     4  12  24  40  68 104 145 196 237 287 351 429
#     4  12  26  44  69 109 150 192 242 298 360 440
#     4  11  24  48  77 100 144 195 240 302 373 428
#
# _framework density 22.100508000000001
#
# number of rings (size 3 to 8) (size 9 to 14) (size 15 to 20)
#    0.000    0.400    6.000    3.000    0.000    6.400 
#    0.000    0.000    0.000    0.000    0.000    0.000 
#    0.000    0.000    0.000    0.000    0.000    0.000 
#
# Total GULP energy -223764.269256 kJ/mol
# GULP energy per Si atom -5594.106731 kJ/mol
# Density = 2.205021 g / cm^3
# Si number density = 22.100508 Si / 1000 Ang^3
#
#
#
# Elastic Constant Matrix: (Units=GPa)
#
#
# Indices 1 2 3 4 5 6 
#
# 1 111.0368 35.6002 8.0620 0.0000 0.0000 0.0000
# 2 35.6002 75.3960 -2.4765 0.0000 0.0000 0.0000
# 3 8.0620 -2.4765 55.0102 0.0000 0.0000 0.0000
# 4 0.0000 0.0000 0.0000 24.5237 0.0000 0.0000
# 5 0.0000 0.0000 0.0000 0.0000 32.9393 0.0000
# 6 0.0000 0.0000 0.0000 0.0000 0.0000 30.1540
#
#
#
# Elastic Compliance Matrix: (Units=1/GPa)
#
#
# Indices 1 2 3 4 5 6 
#
# 1 0.010790 -0.005154 -0.001813 0.000000 0.000000 0.000000
# 2 -0.005154 0.015745 0.001464 0.000000 0.000000 0.000000
# 3 -0.001813 0.001464 0.018510 0.000000 0.000000 0.000000
# 4 0.000000 0.000000 0.000000 0.040777 0.000000 0.000000
# 5 0.000000 0.000000 0.000000 0.000000 0.030359 0.000000
# 6 0.000000 0.000000 0.000000 0.000000 0.000000 0.033163
#
#
# Mechanical properties :
#
#
# Convention : Reuss Voigt Hill
#
# Bulk Modulus (GPa) = 29.37864 35.97938 32.67901
# Shear Modulus (GPa) = 29.12088 30.87386 29.99737
#
# Velocity S-wave (km/s) = 3.63389 3.74167 3.68817
# Velocity P-wave (km/s) = 5.56138 5.91456 5.74069
#
# Compressibility (1/GPa) = 0.03403833
#
# Stress axis : x y z
#
# Youngs Moduli (GPa) = 92.67574 63.51129 54.02443
#
# Poissons Ratio (x) = 0.32737 0.09797
# Poissons Ratio (y) = 0.47770 -0.07910
# Poissons Ratio (z) = 0.16806 -0.09300
#
# Static dielectric constant tensor:
#      x y z
#    x 1.854850 0.000000 0.000000 
#    y 0.000000 1.797990 0.000000 
#    z 0.000000 0.000000 1.875330 
# 
# From -- ./inp_files/23224.got.cif
#   From: 2010.05.17/outbox.cif.g08.bks.cpg/sg54_12_cif.got.tgz:23224.got - 2010.06.03 13:09:01.
