data_PCOD9424583
_publ_section_title
;
Structure prediction by ZEFSAII (Michael W. Deem and Ramdas Pophale) SiO2 
 PCOD9424583
Probable space group: P C C A
;
_chemical_formula_sum "Si O2"
_cell_formula_units_Z 40
_cell_length_a 22.657019
_cell_length_b 7.928639
_cell_length_c 9.057196
_cell_angle_alpha 90.000000
_cell_angle_beta 90.000000
_cell_angle_gamma 90.000000
_cell_volume 1627.028571
_symmetry_space_group_name_H-M "P C C A"
_symmetry_group_IT_number 54
_symmetry_cell_setting 'orthorhombic'
loop_
_space_group_symop_operation_xyz
x,y,z
1/2-x,-y,z
1/2+x,-y,1/2-z
-x,y,1/2-z
-x,-y,-z
1/2+x,y,-z
1/2-x,y,1/2+z
x,-y,1/2+z
loop_
_atom_site_type_symbol
_atom_site_label
_atom_site_fract_x
_atom_site_fract_y
_atom_site_fract_z
Si Si1 0.000000 0.093930 0.750000
Si Si2 0.948230 0.621585 0.446253
Si Si3 0.374186 0.040331 0.769260
Si Si4 0.873386 0.606508 0.738450
Si Si5 0.798185 0.855781 0.446802
Si Si6 0.250000 0.500000 0.651700
O O1 0.977113 0.209788 0.883873
O O2 0.942347 0.994404 0.695178
O O3 0.900907 0.638029 0.577507
O O4 0.915105 0.528216 0.314214
O O5 0.000000 0.500000 0.500000
O O6 0.375580 0.214384 0.675839
O O7 0.346803 0.884218 0.680964
O O8 0.329671 0.087756 0.901480
O O9 0.806807 0.543997 0.749789
O O10 0.768861 0.670566 0.436783
O O11 0.750000 0.000000 0.415740
#
# Coordination Sequence:
#
# PCOD9424583 Si02
#       6
#     4   8   8   8   8   4
#     4  12  28  50  80 114 168 210 274 342 414 484
#     4  12  27  50  78 117 159 213 275 337 403 490
#     4  12  29  50  81 118 161 210 271 340 404 485
#     4  12  27  49  79 117 158 211 271 331 408 480
#     4  12  28  56  81 121 163 211 272 338 406 489
#     4  12  28  54  84 118 162 216 266 344 408 490
#
# _framework density 24.584696999999998
#
# number of rings (size 3 to 8) (size 9 to 14) (size 15 to 20)
#    0.000    0.000    4.000    4.200    5.600    4.800 
#    3.600    0.000    0.000    0.000    0.000    0.000 
#    0.000    0.000    0.000    0.000    0.000    0.000 
#
# Total GULP energy -224094.724054 kJ/mol
# GULP energy per Si atom -5602.368101 kJ/mol
# Density = 2.452874 g / cm^3
# Si number density = 24.584697 Si / 1000 Ang^3
#
#
#
# Elastic Constant Matrix: (Units=GPa)
#
#
# Indices 1 2 3 4 5 6 
#
# 1 171.6269 51.5781 15.0450 0.0000 0.0000 0.0000
# 2 51.5781 150.8454 19.9421 0.0000 0.0000 0.0000
# 3 15.0450 19.9421 56.5852 0.0000 0.0000 0.0000
# 4 0.0000 0.0000 0.0000 32.9917 0.0000 0.0000
# 5 0.0000 0.0000 0.0000 0.0000 32.6012 0.0000
# 6 0.0000 0.0000 0.0000 0.0000 0.0000 67.7301
#
#
#
# Elastic Compliance Matrix: (Units=1/GPa)
#
#
# Indices 1 2 3 4 5 6 
#
# 1 0.006547 -0.002107 -0.000998 0.000000 0.000000 0.000000
# 2 -0.002107 0.007631 -0.002129 0.000000 0.000000 0.000000
# 3 -0.000998 -0.002129 0.018688 0.000000 0.000000 0.000000
# 4 0.000000 0.000000 0.000000 0.030311 0.000000 0.000000
# 5 0.000000 0.000000 0.000000 0.000000 0.030674 0.000000
# 6 0.000000 0.000000 0.000000 0.000000 0.000000 0.014764
#
#
# Mechanical properties :
#
#
# Convention : Reuss Voigt Hill
#
# Bulk Modulus (GPa) = 44.64673 61.35422 53.00048
# Shear Modulus (GPa) = 39.51004 46.16409 42.83707
#
# Velocity S-wave (km/s) = 4.01321 4.33801 4.17877
# Velocity P-wave (km/s) = 6.29875 7.07825 6.69985
#
# Compressibility (1/GPa) = 0.02239806
#
# Stress axis : x y z
#
# Youngs Moduli (GPa) = 152.73663 131.04219 53.50938
#
# Poissons Ratio (x) = 0.27606 0.05342
# Poissons Ratio (y) = 0.32177 0.11394
# Poissons Ratio (z) = 0.15248 0.27902
#
# Static dielectric constant tensor:
#      x y z
#    x 2.152360 0.000000 0.000000 
#    y 0.000000 2.006220 0.000000 
#    z 0.000000 0.000000 1.989010 
# 
# From -- ./inp_files/5058.got.cif
#   From: 2010.05.17/outbox.cif.g08.bks.cpg/sg54_3_cif.got.tgz:5058.got - 2010.06.03 13:09:01.
