data_PCOD9424012
_publ_section_title
;
Structure prediction by ZEFSAII (Michael W. Deem and Ramdas Pophale) SiO2 
 PCOD9424012
Probable space group: P C C A
;
_chemical_formula_sum "Si O2"
_cell_formula_units_Z 64
_cell_length_a 16.176158
_cell_length_b 11.025151
_cell_length_c 17.765094
_cell_angle_alpha 90.000000
_cell_angle_beta 90.000000
_cell_angle_gamma 90.000000
_cell_volume 3168.308309
_symmetry_space_group_name_H-M "P C C A"
_symmetry_group_IT_number 54
_symmetry_cell_setting 'orthorhombic'
loop_
_space_group_symop_operation_xyz
x,y,z
1/2-x,-y,z
1/2+x,-y,1/2-z
-x,y,1/2-z
-x,-y,-z
1/2+x,y,-z
1/2-x,y,1/2+z
x,-y,1/2+z
loop_
_atom_site_type_symbol
_atom_site_label
_atom_site_fract_x
_atom_site_fract_y
_atom_site_fract_z
Si Si1 0.127904 0.248073 0.245180
Si Si2 0.969116 0.365057 0.512018
Si Si3 0.306983 0.617770 0.910182
Si Si4 0.154908 0.526973 0.247087
Si Si5 0.045959 0.303147 0.671466
Si Si6 0.779228 0.861653 0.169191
Si Si7 0.470989 0.942771 0.827546
Si Si8 0.000445 0.183975 0.376826
O O1 0.117489 0.393706 0.238549
O O2 0.219089 0.190759 0.263606
O O3 0.085144 0.196782 0.169979
O O4 0.074066 0.219769 0.319652
O O5 0.870664 0.365177 0.522450
O O6 0.997298 0.271616 0.448220
O O7 0.000000 0.500000 0.500000
O O8 0.004600 0.334565 0.593605
O O9 0.250000 0.500000 0.924402
O O10 0.352811 0.580483 0.831556
O O11 0.269114 0.750432 0.890587
O O12 0.250000 0.500000 0.238856
O O13 0.128648 0.623219 0.184637
O O14 0.000000 0.338467 0.750000
O O15 0.040913 0.159380 0.668247
O O16 0.879552 0.881577 0.178287
O O17 0.750000 0.000000 0.151739
O O18 0.500000 0.006454 0.750000
O O19 0.479343 0.042669 0.891951
#
# Coordination Sequence:
#
# PCOD9424012 Si02
#       8
#     8   8   8   8   8   8   8   8
#     4  11  22  40  65 101 130 183 229 282 343 423
#     4  12  25  42  67 103 139 185 225 288 360 428
#     4  11  22  42  67  98 133 177 227 284 348 417
#     4  11  21  37  67  97 130 172 232 288 343 406
#     4  11  23  40  68  98 133 175 236 283 341 432
#     4  12  21  38  72 101 131 178 241 283 340 421
#     4  11  21  41  69 104 134 181 236 289 350 423
#     4  11  24  42  65  99 145 177 232 284 353 429
#
# _framework density 20.200054999999999
#
# number of rings (size 3 to 8) (size 9 to 14) (size 15 to 20)
#    0.000    0.750    7.500    2.250    1.750    0.500 
#    0.000    2.500    0.000    0.750    0.000    0.000 
#    0.000    0.000    0.000    0.000    0.000    0.000 
#
# Total GULP energy -356284.824848 kJ/mol
# GULP energy per Si atom -5566.950388 kJ/mol
# Density = 2.015408 g / cm^3
# Si number density = 20.200055 Si / 1000 Ang^3
#
#
#
# Elastic Constant Matrix: (Units=GPa)
#
#
# Indices 1 2 3 4 5 6 
#
# 1 62.8321 37.1364 30.6428 0.0000 0.0000 0.0000
# 2 37.1364 143.5945 48.2301 0.0000 0.0000 0.0000
# 3 30.6428 48.2301 84.9882 0.0000 0.0000 0.0000
# 4 0.0000 0.0000 0.0000 37.6675 0.0000 0.0000
# 5 0.0000 0.0000 0.0000 0.0000 28.0492 0.0000
# 6 0.0000 0.0000 0.0000 0.0000 0.0000 21.3828
#
#
#
# Elastic Compliance Matrix: (Units=1/GPa)
#
#
# Indices 1 2 3 4 5 6 
#
# 1 0.020649 -0.003508 -0.005454 0.000000 0.000000 0.000000
# 2 -0.003508 0.009200 -0.003956 0.000000 0.000000 0.000000
# 3 -0.005454 -0.003956 0.015978 0.000000 0.000000 0.000000
# 4 0.000000 0.000000 0.000000 0.026548 0.000000 0.000000
# 5 0.000000 0.000000 0.000000 0.000000 0.035652 0.000000
# 6 0.000000 0.000000 0.000000 0.000000 0.000000 0.046767
#
#
# Mechanical properties :
#
#
# Convention : Reuss Voigt Hill
#
# Bulk Modulus (GPa) = 50.02512 58.15927 54.09220
# Shear Modulus (GPa) = 26.69607 29.11360 27.90484
#
# Velocity S-wave (km/s) = 3.63930 3.80052 3.72078
# Velocity P-wave (km/s) = 6.51751 6.93633 6.73018
#
# Compressibility (1/GPa) = 0.01998996
#
# Stress axis : x y z
#
# Youngs Moduli (GPa) = 48.42871 108.69421 62.58655
#
# Poissons Ratio (x) = 0.38133 0.34135
# Poissons Ratio (y) = 0.16990 0.24760
# Poissons Ratio (z) = 0.26414 0.43000
#
# Static dielectric constant tensor:
#      x y z
#    x 1.786600 0.000000 0.000000 
#    y 0.000000 1.917900 0.000000 
#    z 0.000000 0.000000 1.671130 
# 
# From -- ./inp_files/18223.got.cif
#   From: 2010.05.17/outbox.cif.g08.bks.cpg/sg54_10_cif.got.tgz:18223.got - 2010.06.03 13:09:01.
