data_PCOD9424169
_publ_section_title
;
Structure prediction by ZEFSAII (Michael W. Deem and Ramdas Pophale) SiO2 
 PCOD9424169
Probable space group: P C C A
;
_chemical_formula_sum "Si O2"
_cell_formula_units_Z 40
_cell_length_a 14.375146
_cell_length_b 9.177291
_cell_length_c 13.408541
_cell_angle_alpha 90.000000
_cell_angle_beta 90.000000
_cell_angle_gamma 90.000000
_cell_volume 1768.920404
_symmetry_space_group_name_H-M "P C C A"
_symmetry_group_IT_number 54
_symmetry_cell_setting 'orthorhombic'
loop_
_space_group_symop_operation_xyz
x,y,z
1/2-x,-y,z
1/2+x,-y,1/2-z
-x,y,1/2-z
-x,-y,-z
1/2+x,y,-z
1/2-x,y,1/2+z
x,-y,1/2+z
loop_
_atom_site_type_symbol
_atom_site_label
_atom_site_fract_x
_atom_site_fract_y
_atom_site_fract_z
Si Si1 0.973991 0.364465 0.357549
Si Si2 0.323678 0.374942 0.926418
Si Si3 0.548563 0.850402 0.534347
Si Si4 0.786522 0.151070 0.688169
Si Si5 0.115634 0.327264 0.638180
O O1 0.070680 0.421746 0.406078
O O2 0.000000 0.299178 0.250000
O O3 0.934338 0.249470 0.436571
O O4 0.910420 0.505308 0.339878
O O5 0.250000 0.500000 0.905036
O O6 0.299340 0.239649 0.857280
O O7 0.318515 0.329695 0.041494
O O8 0.641133 0.876567 0.597961
O O9 0.476038 0.761389 0.603925
O O10 0.500000 0.000000 0.500000
O O11 0.837057 0.249050 0.769782
O O12 0.750000 0.000000 0.731246
#
# Coordination Sequence:
#
# PCOD9424169 Si02
#       5
#     8   8   8   8   8
#     4  11  23  43  69  97 129 178 228 271 332 411
#     4  11  23  41  66  99 132 168 221 284 334 390
#     4  11  24  44  68  94 133 179 222 270 333 412
#     4  12  26  44  66  99 135 173 223 282 343 400
#     4  11  24  44  67  93 131 178 221 273 338 411
#
# _framework density 22.612663000000001
#
# number of rings (size 3 to 8) (size 9 to 14) (size 15 to 20)
#    0.000    0.800    0.000   10.200    0.000    9.600 
#    0.000    0.000    0.000    0.000    0.000    0.000 
#    0.000    0.000    0.000    0.000    0.000    0.000 
#
# Total GULP energy -224163.826122 kJ/mol
# GULP energy per Si atom -5604.095653 kJ/mol
# Density = 2.256120 g / cm^3
# Si number density = 22.612663 Si / 1000 Ang^3
#
#
#
# Elastic Constant Matrix: (Units=GPa)
#
#
# Indices 1 2 3 4 5 6 
#
# 1 57.3368 39.6121 25.1255 0.0000 0.0000 0.0000
# 2 39.6121 134.9269 44.0184 0.0000 0.0000 0.0000
# 3 25.1255 44.0184 133.8794 0.0000 0.0000 0.0000
# 4 0.0000 0.0000 0.0000 6.1939 0.0000 0.0000
# 5 0.0000 0.0000 0.0000 0.0000 27.3234 0.0000
# 6 0.0000 0.0000 0.0000 0.0000 0.0000 19.0268
#
#
#
# Elastic Compliance Matrix: (Units=1/GPa)
#
#
# Indices 1 2 3 4 5 6 
#
# 1 0.022491 -0.005854 -0.002296 0.000000 0.000000 0.000000
# 2 -0.005854 0.009826 -0.002132 0.000000 0.000000 0.000000
# 3 -0.002296 -0.002132 0.008601 0.000000 0.000000 0.000000
# 4 0.000000 0.000000 0.000000 0.161449 0.000000 0.000000
# 5 0.000000 0.000000 0.000000 0.000000 0.036599 0.000000
# 6 0.000000 0.000000 0.000000 0.000000 0.000000 0.052557
#
#
# Mechanical properties :
#
#
# Convention : Reuss Voigt Hill
#
# Bulk Modulus (GPa) = 49.13055 60.40610 54.76833
# Shear Modulus (GPa) = 15.68027 25.00131 20.34079
#
# Velocity S-wave (km/s) = 2.63616 3.32871 3.00247
# Velocity P-wave (km/s) = 5.57135 6.44555 6.02433
#
# Compressibility (1/GPa) = 0.02035393
#
# Stress axis : x y z
#
# Youngs Moduli (GPa) = 44.46156 101.77559 116.26119
#
# Poissons Ratio (x) = 0.59578 0.26697
# Poissons Ratio (y) = 0.26027 0.24786
# Poissons Ratio (z) = 0.10210 0.21698
#
# Static dielectric constant tensor:
#      x y z
#    x 1.844270 0.000000 0.000000 
#    y 0.000000 1.801610 0.000000 
#    z 0.000000 0.000000 1.834930 
# 
# From -- ./inp_files/13219.got.cif
#   From: 2010.05.17/outbox.cif.g08.bks.cpg/sg54_7_cif.got.tgz:13219.got - 2010.06.03 13:09:01.
