data_PCOD9424248
_publ_section_title
;
Structure prediction by ZEFSAII (Michael W. Deem and Ramdas Pophale) SiO2 
 PCOD9424248
Probable space group: P C C A
;
_chemical_formula_sum "Si O2"
_cell_formula_units_Z 40
_cell_length_a 32.443377
_cell_length_b 4.915190
_cell_length_c 10.662405
_cell_angle_alpha 90.000000
_cell_angle_beta 90.000000
_cell_angle_gamma 90.000000
_cell_volume 1700.284275
_symmetry_space_group_name_H-M "P C C A"
_symmetry_group_IT_number 54
_symmetry_cell_setting 'orthorhombic'
loop_
_space_group_symop_operation_xyz
x,y,z
1/2-x,-y,z
1/2+x,-y,1/2-z
-x,y,1/2-z
-x,-y,-z
1/2+x,y,-z
1/2-x,y,1/2+z
x,-y,1/2+z
loop_
_atom_site_type_symbol
_atom_site_label
_atom_site_fract_x
_atom_site_fract_y
_atom_site_fract_z
Si Si1 0.356374 0.221509 0.591406
Si Si2 0.578503 0.657616 0.591381
Si Si3 0.523687 0.865248 0.120808
Si Si4 0.221830 0.256473 0.923214
Si Si5 0.345190 0.289234 0.239557
O O1 0.401661 0.200972 0.531592
O O2 0.317070 0.154702 0.505193
O O3 0.350975 0.541632 0.614266
O O4 0.351816 0.027334 0.711096
O O5 0.549687 0.396518 0.574285
O O6 0.619309 0.594891 0.670602
O O7 0.553467 0.890021 0.662179
O O8 0.500000 0.786946 0.250000
O O9 0.500000 0.000000 0.000000
O O10 0.250000 0.500000 0.975585
O O11 0.199152 0.351722 0.796809
O O12 0.250000 0.000000 0.897960
#
# Coordination Sequence:
#
# PCOD9424248 Si02
#       5
#     8   8   8   8   8
#     4  11  24  42  69  97 130 185 234 280 353 419
#     4  11  26  46  70  98 141 179 230 296 345 439
#     4  12  28  47  74 108 144 185 235 292 371 427
#     4  11  24  41  62  98 140 174 230 291 348 418
#     4  11  24  42  69  97 131 185 232 283 354 417
#
# _framework density 23.525476000000001
#
# number of rings (size 3 to 8) (size 9 to 14) (size 15 to 20)
#    0.000    0.800    0.000    6.000    8.400   11.200 
#    0.000    0.000    0.000    0.000    0.000    0.000 
#    0.000    0.000    0.000    0.000    0.000    0.000 
#
# Total GULP energy -223411.452946 kJ/mol
# GULP energy per Si atom -5585.286324 kJ/mol
# Density = 2.347193 g / cm^3
# Si number density = 23.525476 Si / 1000 Ang^3
#
#
#
# Elastic Constant Matrix: (Units=GPa)
#
#
# Indices 1 2 3 4 5 6 
#
# 1 119.1670 30.0457 31.8162 0.0000 0.0000 0.0000
# 2 30.0457 69.9865 -1.9615 0.0000 0.0000 0.0000
# 3 31.8162 -1.9615 61.4100 0.0000 0.0000 0.0000
# 4 0.0000 0.0000 0.0000 36.2770 0.0000 0.0000
# 5 0.0000 0.0000 0.0000 0.0000 19.0323 0.0000
# 6 0.0000 0.0000 0.0000 0.0000 0.0000 36.3149
#
#
#
# Elastic Compliance Matrix: (Units=1/GPa)
#
#
# Indices 1 2 3 4 5 6 
#
# 1 0.011251 -0.004998 -0.005988 0.000000 0.000000 0.000000
# 2 -0.004998 0.016521 0.003117 0.000000 0.000000 0.000000
# 3 -0.005988 0.003117 0.019486 0.000000 0.000000 0.000000
# 4 0.000000 0.000000 0.000000 0.027566 0.000000 0.000000
# 5 0.000000 0.000000 0.000000 0.000000 0.052542 0.000000
# 6 0.000000 0.000000 0.000000 0.000000 0.000000 0.027537
#
#
# Mechanical properties :
#
#
# Convention : Reuss Voigt Hill
#
# Bulk Modulus (GPa) = 31.72622 41.15158 36.43890
# Shear Modulus (GPa) = 27.60174 31.03571 29.31872
#
# Velocity S-wave (km/s) = 3.42902 3.63607 3.53406
# Velocity P-wave (km/s) = 5.40303 5.92945 5.67235
#
# Compressibility (1/GPa) = 0.03151967
#
# Stress axis : x y z
#
# Youngs Moduli (GPa) = 88.88468 60.52753 51.31848
#
# Poissons Ratio (x) = 0.30250 0.30732
# Poissons Ratio (y) = 0.44423 -0.15996
# Poissons Ratio (z) = 0.53228 -0.18867
#
# Static dielectric constant tensor:
#      x y z
#    x 1.904770 0.000000 0.000000 
#    y 0.000000 1.815460 0.000000 
#    z 0.000000 0.000000 1.977010 
# 
# From -- ./inp_files/10426.got.cif
#   From: 2010.05.17/outbox.cif.g08.bks.cpg/sg54_6_cif.got.tgz:10426.got - 2010.06.03 13:09:01.
