data_PCOD9424489
_publ_section_title
;
Structure prediction by ZEFSAII (Michael W. Deem and Ramdas Pophale) SiO2 
 PCOD9424489
Probable space group: P C C A
;
_chemical_formula_sum "Si O2"
_cell_formula_units_Z 60
_cell_length_a 17.169221
_cell_length_b 9.566089
_cell_length_c 16.227463
_cell_angle_alpha 90.000000
_cell_angle_beta 90.000000
_cell_angle_gamma 90.000000
_cell_volume 2665.235784
_symmetry_space_group_name_H-M "P C C A"
_symmetry_group_IT_number 54
_symmetry_cell_setting 'orthorhombic'
loop_
_space_group_symop_operation_xyz
x,y,z
1/2-x,-y,z
1/2+x,-y,1/2-z
-x,y,1/2-z
-x,-y,-z
1/2+x,y,-z
1/2-x,y,1/2+z
x,-y,1/2+z
loop_
_atom_site_type_symbol
_atom_site_label
_atom_site_fract_x
_atom_site_fract_y
_atom_site_fract_z
Si Si1 0.151765 0.153759 0.159991
Si Si2 0.636943 0.043122 0.662863
Si Si3 0.477981 0.040771 0.091687
Si Si4 0.250000 0.500000 0.339678
Si Si5 0.924212 0.326671 0.884579
Si Si6 0.478959 0.367606 0.653187
Si Si7 0.636839 0.301895 0.560865
Si Si8 0.303732 0.224880 0.240847
O O1 0.139565 0.139977 0.257629
O O2 0.100702 0.285373 0.132749
O O3 0.244680 0.175192 0.166860
O O4 0.106043 0.023813 0.117691
O O5 0.664349 0.144469 0.587813
O O6 0.546427 0.011342 0.649811
O O7 0.681168 0.901109 0.693177
O O8 0.484056 0.206424 0.093602
O O9 0.500000 0.000000 0.000000
O O10 0.314931 0.573969 0.396305
O O11 0.275945 0.368340 0.283725
O O12 0.963448 0.472723 0.868257
O O13 0.882637 0.269221 0.803346
O O14 0.867031 0.327325 0.963478
O O15 0.500000 0.353849 0.750000
O O16 0.549728 0.312651 0.597938
#
# Coordination Sequence:
#
# PCOD9424489 Si02
#       8
#     8   8   8   4   8   8   8   8
#     4  12  23  46  74 101 143 191 244 299 364 436
#     4  12  24  45  73 101 141 187 247 296 364 433
#     4  12  25  45  72 108 142 187 243 307 364 441
#     4  12  28  48  74 102 150 188 248 296 372 444
#     4  12  28  43  69 109 149 179 248 302 377 438
#     4  12  23  44  75 100 140 196 245 298 361 445
#     4  12  26  49  68 105 146 193 237 309 374 434
#     4  12  27  47  73 109 141 195 245 302 366 456
#
# _framework density 22.512080000000001
#
# number of rings (size 3 to 8) (size 9 to 14) (size 15 to 20)
#    0.000    0.000    6.667    2.800    3.733    1.600 
#    2.400    1.333    0.000    0.000    0.000    0.000 
#    0.000    0.000    0.000    0.000    0.000    0.000 
#
# Total GULP energy -335075.293222 kJ/mol
# GULP energy per Si atom -5584.588220 kJ/mol
# Density = 2.246084 g / cm^3
# Si number density = 22.512080 Si / 1000 Ang^3
#
#
#
# Elastic Constant Matrix: (Units=GPa)
#
#
# Indices 1 2 3 4 5 6 
#
# 1 71.5544 29.5101 -6.7069 0.0000 0.0000 0.0000
# 2 29.5101 166.2040 -5.3249 0.0000 0.0000 0.0000
# 3 -6.7069 -5.3249 37.8842 0.0000 0.0000 0.0000
# 4 0.0000 0.0000 0.0000 21.2784 0.0000 0.0000
# 5 0.0000 0.0000 0.0000 0.0000 20.1485 0.0000
# 6 0.0000 0.0000 0.0000 0.0000 0.0000 41.0620
#
#
#
# Elastic Compliance Matrix: (Units=1/GPa)
#
#
# Indices 1 2 3 4 5 6 
#
# 1 0.015282 -0.002639 0.002335 0.000000 0.000000 0.000000
# 2 -0.002639 0.006500 0.000446 0.000000 0.000000 0.000000
# 3 0.002335 0.000446 0.026872 0.000000 0.000000 0.000000
# 4 0.000000 0.000000 0.000000 0.046996 0.000000 0.000000
# 5 0.000000 0.000000 0.000000 0.000000 0.049632 0.000000
# 6 0.000000 0.000000 0.000000 0.000000 0.000000 0.024353
#
#
# Mechanical properties :
#
#
# Convention : Reuss Voigt Hill
#
# Bulk Modulus (GPa) = 20.43356 34.51103 27.47230
# Shear Modulus (GPa) = 26.93045 33.70872 30.31959
#
# Velocity S-wave (km/s) = 3.46246 3.87377 3.67388
# Velocity P-wave (km/s) = 5.00812 5.94739 5.49785
#
# Compressibility (1/GPa) = 0.04893909
#
# Stress axis : x y z
#
# Youngs Moduli (GPa) = 65.43463 153.85782 37.21307
#
# Poissons Ratio (x) = 0.40598 -0.08688
# Poissons Ratio (y) = 0.17266 -0.01661
# Poissons Ratio (z) = -0.15277 -0.06868
#
# Static dielectric constant tensor:
#      x y z
#    x 1.991530 0.000000 0.000000 
#    y 0.000000 1.844890 0.000000 
#    z 0.000000 0.000000 2.034180 
# 
# From -- ./inp_files/18691.got.cif
#   From: 2010.05.17/outbox.cif.g08.bks.cpg/sg54_10_cif.got.tgz:18691.got - 2010.06.03 13:09:01.
