data_PCOD9424650
_publ_section_title
;
Structure prediction by ZEFSAII (Michael W. Deem and Ramdas Pophale) SiO2 
 PCOD9424650
Probable space group: P C C A
;
_chemical_formula_sum "Si O2"
_cell_formula_units_Z 40
_cell_length_a 12.000000
_cell_length_b 9.000000
_cell_length_c 18.000000
_cell_angle_alpha 90.000000
_cell_angle_beta 90.000000
_cell_angle_gamma 90.000000
_cell_volume 1944.000000
_symmetry_space_group_name_H-M "P C C A"
_symmetry_group_IT_number 54
_symmetry_cell_setting 'orthorhombic'
loop_
_space_group_symop_operation_xyz
x,y,z
1/2-x,-y,z
1/2+x,-y,1/2-z
-x,y,1/2-z
-x,-y,-z
1/2+x,y,-z
1/2-x,y,1/2+z
x,-y,1/2+z
loop_
_atom_site_type_symbol
_atom_site_label
_atom_site_fract_x
_atom_site_fract_y
_atom_site_fract_z
Si Si1 0.783695 0.336573 0.847669
Si Si2 0.930743 0.101169 0.173109
Si Si3 0.030996 0.606309 0.400866
Si Si4 0.939342 0.712669 0.936961
Si Si5 0.811677 0.789396 0.193130
O O1 0.750000 0.500000 0.817107
O O2 0.685058 0.301549 0.904550
O O3 0.793220 0.222295 0.780923
O O4 0.905453 0.344441 0.882603
O O5 0.814235 0.190808 0.164714
O O6 0.000000 0.134073 0.250000
O O7 0.006156 0.145666 0.102882
O O8 0.888912 0.931464 0.175616
O O9 0.066574 0.694468 0.474857
O O10 0.119644 0.649458 0.337965
O O11 0.015315 0.430113 0.413241
#
# Coordination Sequence:
#
# PCOD9424650 Si02
#       5
#     8   8   8   8   8
#     4  10  21  40  64  96 126 163 213 264 317 373
#     4  11  23  41  63  92 127 167 210 256 320 377
#     4  10  23  40  65  96 128 163 213 259 316 385
#     4  10  23  41  64  93 130 169 203 262 325 378
#     4  11  24  40  65  93 123 165 214 266 309 378
#
# _framework density 20.576132000000001
#
# number of rings (size 3 to 8) (size 9 to 14) (size 15 to 20)
#    0.000    1.600    2.000    1.800    5.600    0.800 
#    0.000    0.000    0.000    0.000    0.000    0.000 
#    0.000    0.000    0.000    0.000    0.000    0.000 
#
# Total GULP energy -223312.973547 kJ/mol
# GULP energy per Si atom -5582.824339 kJ/mol
# Density = 2.052930 g / cm^3
# Si number density = 20.576132 Si / 1000 Ang^3
#
#
#
# Elastic Constant Matrix: (Units=GPa)
#
#
# Indices 1 2 3 4 5 6 
#
# 1 94.7821 15.5062 18.8672 0.0000 0.0000 0.0000
# 2 15.5062 14.6787 -2.5174 0.0000 0.0000 0.0000
# 3 18.8672 -2.5174 58.5173 0.0000 0.0000 0.0000
# 4 0.0000 0.0000 0.0000 -76.7985 0.0000 0.0000
# 5 0.0000 0.0000 0.0000 0.0000 -7.1170 0.0000
# 6 0.0000 0.0000 0.0000 0.0000 0.0000 21.8867
#
#
#
# Elastic Compliance Matrix: (Units=1/GPa)
#
#
# Indices 1 2 3 4 5 6 
#
# 1 0.014200 -0.015903 -0.005262 0.000000 0.000000 0.000000
# 2 -0.015903 0.086442 0.008846 0.000000 0.000000 0.000000
# 3 -0.005262 0.008846 0.019166 0.000000 0.000000 0.000000
# 4 0.000000 0.000000 0.000000 -0.013021 0.000000 0.000000
# 5 0.000000 0.000000 0.000000 0.000000 -0.140509 0.000000
# 6 0.000000 0.000000 0.000000 0.000000 0.000000 0.045690
#
#
# Mechanical properties :
#
#
# Convention : Reuss Voigt Hill
#
# Bulk Modulus (GPa) = 10.50753 25.74338 18.12546
# Shear Modulus (GPa) = 73.17487 -3.33097 34.92195
#
# Velocity S-wave (km/s) = 5.96994 -1.27372 4.12419
# Velocity P-wave (km/s) = 7.25521 3.22107 5.61308
#
# Compressibility (1/GPa) = 0.09516982
#
# Stress axis : x y z
#
# Youngs Moduli (GPa) = 70.42393 11.56844 52.17513
#
# Poissons Ratio (x) = 0.18397 0.27457
# Poissons Ratio (y) = 1.11993 -0.46154
# Poissons Ratio (z) = 0.37060 -0.10233
#
# Static dielectric constant tensor:
#      x y z
#    x 1.785340 0.000000 0.000000 
#    y 0.000000 1.766300 0.000000 
#    z 0.000000 0.000000 1.718510 
# 
# From -- ./inp_files/17080.got.cif
#   From: 2010.05.17/outbox.ucp.g08.bks.cvg/sg54_9_cif.got.tgz:17080.got - 2010.06.11 16:34:40.
