data_PCOD9424197
_publ_section_title
;
Structure prediction by ZEFSAII (Michael W. Deem and Ramdas Pophale) SiO2 
 PCOD9424197
Probable space group: P C C A
;
_chemical_formula_sum "Si O2"
_cell_formula_units_Z 60
_cell_length_a 26.484153
_cell_length_b 11.613516
_cell_length_c 8.914929
_cell_angle_alpha 90.000000
_cell_angle_beta 90.000000
_cell_angle_gamma 90.000000
_cell_volume 2742.001572
_symmetry_space_group_name_H-M "P C C A"
_symmetry_group_IT_number 54
_symmetry_cell_setting 'orthorhombic'
loop_
_space_group_symop_operation_xyz
x,y,z
1/2-x,-y,z
1/2+x,-y,1/2-z
-x,y,1/2-z
-x,-y,-z
1/2+x,y,-z
1/2-x,y,1/2+z
x,-y,1/2+z
loop_
_atom_site_type_symbol
_atom_site_label
_atom_site_fract_x
_atom_site_fract_y
_atom_site_fract_z
Si Si1 0.341371 0.213871 0.846686
Si Si2 0.266872 0.372984 0.676149
Si Si3 0.660711 0.253667 0.329784
Si Si4 0.500000 0.285633 0.750000
Si Si5 0.900715 0.389073 0.272936
Si Si6 0.854761 0.573951 0.067647
Si Si7 0.954764 0.919277 0.937282
Si Si8 0.119870 0.969031 0.302994
O O1 0.291519 0.281826 0.793328
O O2 0.379191 0.259574 0.720048
O O3 0.345072 0.077026 0.849515
O O4 0.363719 0.255579 0.005918
O O5 0.250000 0.500000 0.734825
O O6 0.215502 0.307260 0.635477
O O7 0.304580 0.401082 0.534787
O O8 0.655638 0.123025 0.277228
O O9 0.639574 0.327732 0.192317
O O10 0.455059 0.371055 0.794648
O O11 0.519514 0.198798 0.879500
O O12 0.897678 0.435011 0.440907
O O13 0.861742 0.461768 0.171524
O O14 0.925009 0.983353 0.802977
O O15 0.911078 0.910385 0.062334
O O16 0.000000 0.000000 0.000000
#
# Coordination Sequence:
#
# PCOD9424197 Si02
#       8
#     8   8   8   4   8   8   8   8
#     4  11  23  43  68  96 141 181 229 293 352 421
#     4  11  25  46  71 101 133 184 241 288 352 442
#     4  12  25  42  70 103 135 185 238 288 361 425
#     4  12  24  40  74 100 142 186 238 296 352 426
#     4  11  23  44  68 101 139 186 239 294 360 420
#     4  11  25  44  71  98 143 186 236 300 362 425
#     4  12  22  45  70 103 137 188 235 282 350 433
#     4  12  25  43  70 105 142 181 228 297 357 420
#
# _framework density 21.881824000000002
#
# number of rings (size 3 to 8) (size 9 to 14) (size 15 to 20)
#    0.000    0.533    4.000    4.800    1.867    3.200 
#    0.000    1.333    0.000    0.000    0.000    0.000 
#    0.000    0.000    0.000    0.000    0.000    0.000 
#
# Total GULP energy -334347.351257 kJ/mol
# GULP energy per Si atom -5572.455854 kJ/mol
# Density = 2.183202 g / cm^3
# Si number density = 21.881824 Si / 1000 Ang^3
#
#
#
# Elastic Constant Matrix: (Units=GPa)
#
#
# Indices 1 2 3 4 5 6 
#
# 1 78.0577 39.2400 12.2259 0.0000 0.0000 0.0000
# 2 39.2400 117.5477 50.7910 0.0000 0.0000 0.0000
# 3 12.2259 50.7910 123.7492 0.0000 0.0000 0.0000
# 4 0.0000 0.0000 0.0000 32.0369 0.0000 0.0000
# 5 0.0000 0.0000 0.0000 0.0000 22.4452 0.0000
# 6 0.0000 0.0000 0.0000 0.0000 0.0000 41.4496
#
#
#
# Elastic Compliance Matrix: (Units=1/GPa)
#
#
# Indices 1 2 3 4 5 6 
#
# 1 0.015447 -0.005466 0.000718 0.000000 0.000000 0.000000
# 2 -0.005466 0.012276 -0.004498 0.000000 0.000000 0.000000
# 3 0.000718 -0.004498 0.009856 0.000000 0.000000 0.000000
# 4 0.000000 0.000000 0.000000 0.031214 0.000000 0.000000
# 5 0.000000 0.000000 0.000000 0.000000 0.044553 0.000000
# 6 0.000000 0.000000 0.000000 0.000000 0.000000 0.024126
#
#
# Mechanical properties :
#
#
# Convention : Reuss Voigt Hill
#
# Bulk Modulus (GPa) = 52.39951 58.20759 55.30355
# Shear Modulus (GPa) = 30.80201 33.65952 32.23076
#
# Velocity S-wave (km/s) = 3.75594 3.92630 3.84206
# Velocity P-wave (km/s) = 6.54278 6.87117 6.70899
#
# Compressibility (1/GPa) = 0.01908415
#
# Stress axis : x y z
#
# Youngs Moduli (GPa) = 64.73883 81.46193 101.45870
#
# Poissons Ratio (x) = 0.44531 -0.07280
# Poissons Ratio (y) = 0.35389 0.45639
# Poissons Ratio (z) = -0.04645 0.36644
#
# Static dielectric constant tensor:
#      x y z
#    x 1.901870 0.000000 0.000000 
#    y 0.000000 1.838950 0.000000 
#    z 0.000000 0.000000 1.835250 
# 
# From -- ./inp_files/5571.got.cif
#   From: 2010.05.17/outbox.cif.g08.bks.cpg/sg54_3_cif.got.tgz:5571.got - 2010.06.03 13:09:01.
