data_PCOD9424469
_publ_section_title
;
Structure prediction by ZEFSAII (Michael W. Deem and Ramdas Pophale) SiO2 
 PCOD9424469
Probable space group: P C C A
;
_chemical_formula_sum "Si O2"
_cell_formula_units_Z 32
_cell_length_a 19.331603
_cell_length_b 4.700182
_cell_length_c 13.957977
_cell_angle_alpha 90.000000
_cell_angle_beta 90.000000
_cell_angle_gamma 90.000000
_cell_volume 1268.250438
_symmetry_space_group_name_H-M "P C C A"
_symmetry_group_IT_number 54
_symmetry_cell_setting 'orthorhombic'
loop_
_space_group_symop_operation_xyz
x,y,z
1/2-x,-y,z
1/2+x,-y,1/2-z
-x,y,1/2-z
-x,-y,-z
1/2+x,y,-z
1/2-x,y,1/2+z
x,-y,1/2+z
loop_
_atom_site_type_symbol
_atom_site_label
_atom_site_fract_x
_atom_site_fract_y
_atom_site_fract_z
Si Si1 0.382607 0.474469 0.649739
Si Si2 0.620710 0.163638 0.655482
Si Si3 0.978090 0.995031 0.388350
Si Si4 0.323017 0.363355 0.452205
O O1 0.357103 0.342256 0.750533
O O2 0.411454 0.796101 0.636404
O O3 0.331108 0.368232 0.566679
O O4 0.453811 0.311631 0.632952
O O5 0.616068 0.421414 0.579920
O O6 0.550386 0.982061 0.668710
O O7 0.668817 0.932338 0.602954
O O8 0.000000 0.000000 0.500000
O O9 0.250000 0.500000 0.426221
#
# Coordination Sequence:
#
# PCOD9424469 Si02
#       4
#     8   8   8   8
#     4  12  25  45  74 108 146 191 241 309 380 450
#     4  12  26  44  74 110 148 190 248 309 381 450
#     4  12  22  44  74 107 149 189 235 309 389 449
#     4  12  26  48  72 103 143 199 254 307 363 439
#
# _framework density 25.231611999999998
#
# number of rings (size 3 to 8) (size 9 to 14) (size 15 to 20)
#    0.000    0.000    5.000    5.250    0.000    3.000 
#    0.000    5.000    0.000    0.000    0.000    0.000 
#    0.000    0.000    0.000    0.000    0.000    0.000 
#
# Total GULP energy -178553.275578 kJ/mol
# GULP energy per Si atom -5579.789862 kJ/mol
# Density = 2.517418 g / cm^3
# Si number density = 25.231612 Si / 1000 Ang^3
#
#
#
# Elastic Constant Matrix: (Units=GPa)
#
#
# Indices 1 2 3 4 5 6 
#
# 1 59.7262 19.9856 1.5752 0.0000 0.0000 0.0000
# 2 19.9856 124.9688 31.1484 0.0000 0.0000 0.0000
# 3 1.5752 31.1484 170.7283 0.0000 0.0000 0.0000
# 4 0.0000 0.0000 0.0000 41.3926 0.0000 0.0000
# 5 0.0000 0.0000 0.0000 0.0000 -14.0983 0.0000
# 6 0.0000 0.0000 0.0000 0.0000 0.0000 31.6536
#
#
#
# Elastic Compliance Matrix: (Units=1/GPa)
#
#
# Indices 1 2 3 4 5 6 
#
# 1 0.017712 -0.002925 0.000370 0.000000 0.000000 0.000000
# 2 -0.002925 0.008866 -0.001591 0.000000 0.000000 0.000000
# 3 0.000370 -0.001591 0.006144 0.000000 0.000000 0.000000
# 4 0.000000 0.000000 0.000000 0.024159 0.000000 0.000000
# 5 0.000000 0.000000 0.000000 0.000000 -0.070931 0.000000
# 6 0.000000 0.000000 0.000000 0.000000 0.000000 0.031592
#
#
# Mechanical properties :
#
#
# Convention : Reuss Voigt Hill
#
# Bulk Modulus (GPa) = 40.93032 51.20461 46.06747
# Shear Modulus (GPa) = 147.15865 31.97054 89.56459
#
# Velocity S-wave (km/s) = 7.64524 3.56347 5.96440
# Velocity P-wave (km/s) = 9.70516 6.10483 8.10737
#
# Compressibility (1/GPa) = 0.02443177
#
# Stress axis : x y z
#
# Youngs Moduli (GPa) = 56.45884 112.78782 162.75936
#
# Poissons Ratio (x) = 0.32989 -0.06025
# Poissons Ratio (y) = 0.16513 0.25889
# Poissons Ratio (z) = -0.02090 0.17940
#
# Static dielectric constant tensor:
#      x y z
#    x 2.056760 0.000000 0.000000 
#    y 0.000000 2.452090 0.000000 
#    z 0.000000 0.000000 2.139230 
# 
# From -- ./inp_files/14390.got.cif
#   From: 2010.05.17/outbox.cif.g08.bks.cpg/sg54_8_cif.got.tgz:14390.got - 2010.06.03 13:09:01.
