data_PCOD9424751
_publ_section_title
;
Structure prediction by ZEFSAII (Michael W. Deem and Ramdas Pophale) SiO2 
 PCOD9424751
Probable space group: P B A M
;
_chemical_formula_sum "Si O2"
_cell_formula_units_Z 56
_cell_length_a 22.650662
_cell_length_b 17.902685
_cell_length_c 9.635641
_cell_angle_alpha 90.000000
_cell_angle_beta 90.000000
_cell_angle_gamma 90.000000
_cell_volume 3907.326300
_symmetry_space_group_name_H-M "P B A M"
_symmetry_group_IT_number 55
_symmetry_cell_setting 'orthorhombic'
loop_
_space_group_symop_operation_xyz
x,y,z
-x,-y,z
1/2+x,1/2-y,-z
1/2-x,1/2+y,-z
-x,-y,-z
x,y,-z
1/2-x,1/2+y,z
1/2+x,1/2-y,z
loop_
_atom_site_type_symbol
_atom_site_label
_atom_site_fract_x
_atom_site_fract_y
_atom_site_fract_z
Si Si1 0.181105 0.266338 0.341021
Si Si2 0.930628 0.008103 0.834007
Si Si3 0.818280 0.286810 0.340365
Si Si4 0.650529 0.369756 0.162856
Si Si5 0.279467 0.927576 0.333877
Si Si6 0.786363 0.423748 0.163768
Si Si7 0.144389 0.875925 0.334733
O O1 0.160586 0.262028 0.500000
O O2 0.249826 0.240291 0.340224
O O3 0.147443 0.207243 0.246584
O O4 0.183588 0.352970 0.297873
O O5 0.901745 0.076730 0.752698
O O6 0.895726 0.932841 0.792205
O O7 0.921844 0.017696 0.000000
O O8 0.000000 0.000000 0.807399
O O9 0.832094 0.307857 0.500000
O O10 0.821495 0.356162 0.236848
O O11 0.854302 0.212402 0.301488
O O12 0.716617 0.403333 0.179604
O O13 0.641889 0.355035 0.000000
O O14 0.285258 0.940520 0.500000
O O15 0.210382 0.908089 0.307943
O O16 0.296544 0.999331 0.245083
O O17 0.798620 0.429409 0.000000
O O18 0.134136 0.883098 0.500000
#
# Coordination Sequence:
#
# PCOD9424751 Si02
#       7
#     8   8   8   8   8   8   8
#     4   8  15  26  40  57  76 104 138 166 201 248
#     4  10  20  32  44  59  83 114 145 178 215 249
#     4   8  15  27  40  56  79 107 136 168 208 249
#     4   9  17  28  39  55  79 107 139 172 206 240
#     4   9  16  26  40  59  83 110 137 166 205 249
#     4  10  17  24  38  61  84 109 140 169 199 242
#     4   9  17  29  44  59  78 107 143 179 211 244
#
# _framework density 14.332051999999999
#
# number of rings (size 3 to 8) (size 9 to 14) (size 15 to 20)
#    0.000    3.000    1.429    2.143    0.000    2.571 
#    0.000    2.857    0.000    0.000    0.000    0.000 
#    0.000    1.143    0.000   12.857    0.000    5.714 
#
# Total GULP energy -311751.191654 kJ/mol
# GULP energy per Si atom -5566.985565 kJ/mol
# Density = 1.429943 g / cm^3
# Si number density = 14.332052 Si / 1000 Ang^3
#
#
#
# Elastic Constant Matrix: (Units=GPa)
#
#
# Indices 1 2 3 4 5 6 
#
# 1 38.1384 35.2659 27.0571 0.0000 0.0000 0.0000
# 2 35.2659 147.8053 82.3680 0.0000 0.0000 0.0000
# 3 27.0571 82.3680 61.8716 0.0000 0.0000 0.0000
# 4 0.0000 0.0000 0.0000 17.8699 0.0000 0.0000
# 5 0.0000 0.0000 0.0000 0.0000 13.0108 0.0000
# 6 0.0000 0.0000 0.0000 0.0000 0.0000 11.3136
#
#
#
# Elastic Compliance Matrix: (Units=1/GPa)
#
#
# Indices 1 2 3 4 5 6 
#
# 1 0.038036 0.000752 -0.017635 0.000000 0.000000 0.000000
# 2 0.000752 0.026227 -0.035244 0.000000 0.000000 0.000000
# 3 -0.017635 -0.035244 0.070794 0.000000 0.000000 0.000000
# 4 0.000000 0.000000 0.000000 0.055960 0.000000 0.000000
# 5 0.000000 0.000000 0.000000 0.000000 0.076859 0.000000
# 6 0.000000 0.000000 0.000000 0.000000 0.000000 0.088389
#
#
# Mechanical properties :
#
#
# Convention : Reuss Voigt Hill
#
# Bulk Modulus (GPa) = 32.46432 59.68860 46.07646
# Shear Modulus (GPa) = 10.62055 15.31380 12.96717
#
# Velocity S-wave (km/s) = 2.72515 3.27234 3.01120
# Velocity P-wave (km/s) = 5.70987 7.48431 6.65648
#
# Compressibility (1/GPa) = 0.03080305
#
# Stress axis : x y z
#
# Youngs Moduli (GPa) = 26.29112 38.12918 14.12554
#
# Poissons Ratio (x) = -0.02869 0.24910
# Poissons Ratio (y) = -0.01978 0.49784
# Poissons Ratio (z) = 0.46364 1.34382
#
# Static dielectric constant tensor:
#      x y z
#    x 1.442480 0.000000 0.000000 
#    y 0.000000 1.478700 0.000000 
#    z 0.000000 0.000000 1.474570 
# 
# From -- ./inp_files/7831.got.cif
#   From: 2010.05.17/outbox.cif.g08.bks.cpg/sg55_4_cif.got.tgz:7831.got - 2010.06.03 13:27:54.
