data_PCOD9424683
_publ_section_title
;
Structure prediction by ZEFSAII (Michael W. Deem and Ramdas Pophale) SiO2 
 PCOD9424683
Probable space group: P C C A
;
_chemical_formula_sum "Si O2"
_cell_formula_units_Z 40
_cell_length_a 18.000000
_cell_length_b 12.000000
_cell_length_c 9.000000
_cell_angle_alpha 90.000000
_cell_angle_beta 90.000000
_cell_angle_gamma 90.000000
_cell_volume 1944.000000
_symmetry_space_group_name_H-M "P C C A"
_symmetry_group_IT_number 54
_symmetry_cell_setting 'orthorhombic'
loop_
_space_group_symop_operation_xyz
x,y,z
1/2-x,-y,z
1/2+x,-y,1/2-z
-x,y,1/2-z
-x,-y,-z
1/2+x,y,-z
1/2-x,y,1/2+z
x,-y,1/2+z
loop_
_atom_site_type_symbol
_atom_site_label
_atom_site_fract_x
_atom_site_fract_y
_atom_site_fract_z
Si Si1 0.664710 0.346628 0.408490
Si Si2 0.832206 0.958638 0.608755
Si Si3 0.916366 0.124924 0.818515
Si Si4 0.940868 0.446322 0.379397
Si Si5 0.176723 0.714389 0.743741
O O1 0.609232 0.251721 0.345634
O O2 0.625174 0.462482 0.366673
O O3 0.670745 0.339093 0.589142
O O4 0.745341 0.320895 0.334784
O O5 0.890927 0.930471 0.476691
O O6 0.825389 0.847193 0.713762
O O7 0.750000 0.000000 0.555517
O O8 0.865051 0.060582 0.701514
O O9 0.000000 0.118532 0.750000
O O10 0.890754 0.331267 0.362920
O O11 0.000000 0.432330 0.250000
O O12 0.000000 0.500000 0.500000
#
# Coordination Sequence:
#
# PCOD9424683 Si02
#       5
#     8   8   8   8   8
#     4  11  25  46  69 101 143 188 243 297 368 441
#     4  11  23  45  72 105 145 191 251 306 373 455
#     4  11  24  44  68 106 144 191 244 312 377 439
#     4  12  26  48  70 102 142 182 235 302 369 438
#     4  11  26  44  74 104 140 190 240 296 363 442
#
# _framework density 20.576132000000001
#
# number of rings (size 3 to 8) (size 9 to 14) (size 15 to 20)
#    0.000    0.800    4.000    2.400    5.600    2.400 
#    3.600    0.000    0.000    0.000    0.000    0.000 
#    0.000    0.000    0.000    0.000    0.000    0.000 
#
# Total GULP energy -223016.341511 kJ/mol
# GULP energy per Si atom -5575.408538 kJ/mol
# Density = 2.052930 g / cm^3
# Si number density = 20.576132 Si / 1000 Ang^3
#
#
#
# Elastic Constant Matrix: (Units=GPa)
#
#
# Indices 1 2 3 4 5 6 
#
# 1 148.8466 10.8631 47.1256 0.0000 0.0000 0.0000
# 2 10.8631 74.9994 12.9039 0.0000 0.0000 0.0000
# 3 47.1256 12.9039 53.2328 0.0000 0.0000 0.0000
# 4 0.0000 0.0000 0.0000 28.5970 0.0000 0.0000
# 5 0.0000 0.0000 0.0000 0.0000 53.9812 0.0000
# 6 0.0000 0.0000 0.0000 0.0000 0.0000 44.8409
#
#
#
# Elastic Compliance Matrix: (Units=1/GPa)
#
#
# Indices 1 2 3 4 5 6 
#
# 1 0.009335 0.000073 -0.008282 0.000000 0.000000 0.000000
# 2 0.000073 0.013914 -0.003437 0.000000 0.000000 0.000000
# 3 -0.008282 -0.003437 0.026950 0.000000 0.000000 0.000000
# 4 0.000000 0.000000 0.000000 0.034969 0.000000 0.000000
# 5 0.000000 0.000000 0.000000 0.000000 0.018525 0.000000
# 6 0.000000 0.000000 0.000000 0.000000 0.000000 0.022301
#
#
# Mechanical properties :
#
#
# Convention : Reuss Voigt Hill
#
# Bulk Modulus (GPa) = 37.16501 46.54047 41.85274
# Shear Modulus (GPa) = 31.59442 39.22957 35.41200
#
# Velocity S-wave (km/s) = 3.92278 4.37115 4.15302
# Velocity P-wave (km/s) = 6.21442 6.93857 6.58645
#
# Compressibility (1/GPa) = 0.02690703
#
# Stress axis : x y z
#
# Youngs Moduli (GPa) = 107.12323 71.86851 37.10548
#
# Poissons Ratio (x) = -0.00523 0.30730
# Poissons Ratio (y) = -0.00780 0.12754
# Poissons Ratio (z) = 0.88716 0.24704
#
# Static dielectric constant tensor:
#      x y z
#    x 1.749000 0.000000 0.000000 
#    y 0.000000 1.808340 0.000000 
#    z 0.000000 0.000000 1.806720 
# 
# From -- ./inp_files/3427.got.cif
#   From: 2010.05.17/outbox.ucp.g08.bks.cvg/sg54_2_cif.got.tgz:3427.got - 2010.06.11 16:34:40.
