data_PCOD9424163
_publ_section_title
;
Structure prediction by ZEFSAII (Michael W. Deem and Ramdas Pophale) SiO2 
 PCOD9424163
Probable space group: P C C A
;
_chemical_formula_sum "Si O2"
_cell_formula_units_Z 40
_cell_length_a 13.931290
_cell_length_b 5.931339
_cell_length_c 16.797327
_cell_angle_alpha 90.000000
_cell_angle_beta 90.000000
_cell_angle_gamma 90.000000
_cell_volume 1387.983349
_symmetry_space_group_name_H-M "P C C A"
_symmetry_group_IT_number 54
_symmetry_cell_setting 'orthorhombic'
loop_
_space_group_symop_operation_xyz
x,y,z
1/2-x,-y,z
1/2+x,-y,1/2-z
-x,y,1/2-z
-x,-y,-z
1/2+x,y,-z
1/2-x,y,1/2+z
x,-y,1/2+z
loop_
_atom_site_type_symbol
_atom_site_label
_atom_site_fract_x
_atom_site_fract_y
_atom_site_fract_z
Si Si1 0.750000 0.500000 0.138298
Si Si2 0.615971 0.544468 0.991234
Si Si3 0.324295 0.832984 0.244269
Si Si4 0.956140 0.899682 0.136620
Si Si5 0.000000 0.503650 0.250000
Si Si6 0.878697 0.932370 0.955753
O O1 0.749519 0.286392 0.195054
O O2 0.837587 0.459468 0.078641
O O3 0.659913 0.325304 0.945938
O O4 0.642123 0.795902 0.959355
O O5 0.500000 0.500000 0.000000
O O6 0.547586 0.055108 0.882829
O O7 0.400586 0.627829 0.231635
O O8 0.250000 0.000000 0.193934
O O9 0.393899 0.986802 0.296431
O O10 0.908792 0.903929 0.048964
O O11 0.986966 0.663606 0.173222
#
# Coordination Sequence:
#
# PCOD9424163 Si02
#       6
#     4   8   8   8   4   8
#     4  12  26  40  80 118 156 208 290 332 406 518
#     4  12  21  41  67 119 159 196 258 347 415 477
#     4  12  25  44  74 116 152 211 287 345 408 502
#     4  11  23  44  71 116 149 212 268 334 414 497
#     4  12  28  46  72 120 166 218 274 358 424 498
#     4  11  23  40  78 110 158 203 268 335 417 486
#
# _framework density 28.818791999999998
#
# number of rings (size 3 to 8) (size 9 to 14) (size 15 to 20)
#    0.000    0.400    6.000    4.200    2.800    0.000 
#    0.000    0.000    0.000    6.000    5.200    0.000 
#    0.000    0.000    0.000    0.000    0.000    0.000 
#
# Total GULP energy -222971.041074 kJ/mol
# GULP energy per Si atom -5574.276027 kJ/mol
# Density = 2.875320 g / cm^3
# Si number density = 28.818792 Si / 1000 Ang^3
#
#
#
# Elastic Constant Matrix: (Units=GPa)
#
#
# Indices 1 2 3 4 5 6 
#
# 1 80.3990 58.2056 17.6133 0.0000 0.0000 0.0000
# 2 58.2056 269.3946 45.1251 0.0000 0.0000 0.0000
# 3 17.6133 45.1251 100.9425 0.0000 0.0000 0.0000
# 4 0.0000 0.0000 0.0000 -854.0984 0.0000 0.0000
# 5 0.0000 0.0000 0.0000 0.0000 16.1722 0.0000
# 6 0.0000 0.0000 0.0000 0.0000 0.0000 47.2126
#
#
#
# Elastic Compliance Matrix: (Units=1/GPa)
#
#
# Indices 1 2 3 4 5 6 
#
# 1 0.014890 -0.003007 -0.001254 0.000000 0.000000 0.000000
# 2 -0.003007 0.004620 -0.001541 0.000000 0.000000 0.000000
# 3 -0.001254 -0.001541 0.010814 0.000000 0.000000 0.000000
# 4 0.000000 0.000000 0.000000 -0.001171 0.000000 0.000000
# 5 0.000000 0.000000 0.000000 0.000000 0.061835 0.000000
# 6 0.000000 0.000000 0.000000 0.000000 0.000000 0.021181
#
#
# Mechanical properties :
#
#
# Convention : Reuss Voigt Hill
#
# Bulk Modulus (GPa) = 53.41669 76.95823 65.18746
# Shear Modulus (GPa) = 38.45831 -136.15658 -48.84914
#
# Velocity S-wave (km/s) = 3.65703 -6.88101 -4.12156
# Velocity P-wave (km/s) = 6.03385 6.03067 0.13864
#
# Compressibility (1/GPa) = 0.01872074
#
# Stress axis : x y z
#
# Youngs Moduli (GPa) = 67.16088 216.46061 92.47207
#
# Poissons Ratio (x) = 0.65091 0.11594
# Poissons Ratio (y) = 0.20196 0.14246
# Poissons Ratio (z) = 0.08421 0.33346
#
# Static dielectric constant tensor:
#      x y z
#    x 2.426860 0.000000 0.000000 
#    y 0.000000 2.373130 0.000000 
#    z 0.000000 0.000000 2.473110 
# 
# From -- ./inp_files/24368.got.cif
#   From: 2010.05.17/outbox.cif.g08.bks.cpg/sg54_13_cif.got.tgz:24368.got - 2010.06.03 13:09:01.
