data_PCOD9424333
_publ_section_title
;
Structure prediction by ZEFSAII (Michael W. Deem and Ramdas Pophale) SiO2 
 PCOD9424333
Probable space group: P C C A
;
_chemical_formula_sum "Si O2"
_cell_formula_units_Z 20
_cell_length_a 5.031600
_cell_length_b 5.009443
_cell_length_c 32.745496
_cell_angle_alpha 90.000000
_cell_angle_beta 90.000000
_cell_angle_gamma 90.000000
_cell_volume 825.367038
_symmetry_space_group_name_H-M "P C C A"
_symmetry_group_IT_number 54
_symmetry_cell_setting 'orthorhombic'
loop_
_space_group_symop_operation_xyz
x,y,z
1/2-x,-y,z
1/2+x,-y,1/2-z
-x,y,1/2-z
-x,-y,-z
1/2+x,y,-z
1/2-x,y,1/2+z
x,-y,1/2+z
loop_
_atom_site_type_symbol
_atom_site_label
_atom_site_fract_x
_atom_site_fract_y
_atom_site_fract_z
Si Si1 0.750000 0.000000 0.469847
Si Si2 0.250000 0.500000 0.722987
Si Si3 0.935053 0.757568 0.595002
Si Si4 0.750000 0.000000 0.830863
O O1 0.824938 0.233711 0.437549
O O2 0.500000 0.000000 0.500000
O O3 0.500000 0.408684 0.750000
O O4 0.150405 0.245457 0.696689
O O5 0.750000 0.500000 0.596932
O O6 0.750000 0.000000 0.581167
O O7 0.046522 0.848935 0.638831
#
# Coordination Sequence:
#
# PCOD9424333 Si02
#       4
#     4   4   8   4
#     4  11  24  48  72 109 152 198 252 319 378 450
#     4  12  28  48  76 110 148 192 242 308 382 450
#     4  11  25  46  76 107 147 201 252 308 380 447
#     4  11  26  46  74 109 150 194 250 307 372 466
#
# _framework density 24.231642999999998
#
# number of rings (size 3 to 8) (size 9 to 14) (size 15 to 20)
#    0.000    0.800    2.000    3.600    8.400    6.400 
#    0.000    0.000    0.000    0.000    0.000    0.000 
#    0.000    0.000    0.000    0.000    0.000    0.000 
#
# Total GULP energy -111742.063562 kJ/mol
# GULP energy per Si atom -5587.103178 kJ/mol
# Density = 2.417649 g / cm^3
# Si number density = 24.231643 Si / 1000 Ang^3
#
#
#
# Elastic Constant Matrix: (Units=GPa)
#
#
# Indices 1 2 3 4 5 6 
#
# 1 150.7966 62.4293 56.6758 0.0000 0.0000 0.0000
# 2 62.4293 219.4695 63.5722 0.0000 0.0000 0.0000
# 3 56.6758 63.5722 143.1005 0.0000 0.0000 0.0000
# 4 0.0000 0.0000 0.0000 -287.9457 0.0000 0.0000
# 5 0.0000 0.0000 0.0000 0.0000 29.3042 0.0000
# 6 0.0000 0.0000 0.0000 0.0000 0.0000 56.9847
#
#
#
# Elastic Compliance Matrix: (Units=1/GPa)
#
#
# Indices 1 2 3 4 5 6 
#
# 1 0.008258 -0.001609 -0.002556 0.000000 0.000000 0.000000
# 2 -0.001609 0.005543 -0.001825 0.000000 0.000000 0.000000
# 3 -0.002556 -0.001825 0.008811 0.000000 0.000000 0.000000
# 4 0.000000 0.000000 0.000000 -0.003473 0.000000 0.000000
# 5 0.000000 0.000000 0.000000 0.000000 0.034125 0.000000
# 6 0.000000 0.000000 0.000000 0.000000 0.000000 0.017549
#
#
# Mechanical properties :
#
#
# Convention : Reuss Voigt Hill
#
# Bulk Modulus (GPa) = 94.05330 97.63570 95.84450
# Shear Modulus (GPa) = 57.91291 -18.28541 19.81375
#
# Velocity S-wave (km/s) = 4.89404 -2.74999 2.86261
# Velocity P-wave (km/s) = 8.41629 5.50425 7.11093
#
# Compressibility (1/GPa) = 0.01063227
#
# Stress axis : x y z
#
# Youngs Moduli (GPa) = 121.09330 180.41622 113.49091
#
# Poissons Ratio (x) = 0.29023 0.29008
# Poissons Ratio (y) = 0.19480 0.20715
# Poissons Ratio (z) = 0.30952 0.32930
#
# Static dielectric constant tensor:
#      x y z
#    x 2.101950 0.000000 0.000000 
#    y 0.000000 1.945430 0.000000 
#    z 0.000000 0.000000 1.984600 
# 
# From -- ./inp_files/26758.got.cif
#   From: 2010.05.17/outbox.cif.g08.bks.cpg/sg54_14_cif.got.tgz:26758.got - 2010.06.03 13:09:01.
