data_PCOD9424742
_publ_section_title
;
Structure prediction by ZEFSAII (Michael W. Deem and Ramdas Pophale) SiO2 
 PCOD9424742
Probable space group: P B A M
;
_chemical_formula_sum "Si O2"
_cell_formula_units_Z 56
_cell_length_a 18.817974
_cell_length_b 8.924498
_cell_length_c 18.339456
_cell_angle_alpha 90.000000
_cell_angle_beta 90.000000
_cell_angle_gamma 90.000000
_cell_volume 3079.946054
_symmetry_space_group_name_H-M "P B A M"
_symmetry_group_IT_number 55
_symmetry_cell_setting 'orthorhombic'
loop_
_space_group_symop_operation_xyz
x,y,z
-x,-y,z
1/2+x,1/2-y,-z
1/2-x,1/2+y,-z
-x,-y,-z
x,y,-z
1/2-x,1/2+y,z
1/2+x,1/2-y,z
loop_
_atom_site_type_symbol
_atom_site_label
_atom_site_fract_x
_atom_site_fract_y
_atom_site_fract_z
Si Si1 0.146593 0.119830 0.920827
Si Si2 0.665049 0.648116 0.584997
Si Si3 0.591569 0.364190 0.239610
Si Si4 0.750152 0.137832 0.871621
Si Si5 0.678727 0.895175 0.221548
Si Si6 0.717522 0.354868 0.655503
Si Si7 0.435735 0.294271 0.715574
O O1 0.101657 0.152807 0.847383
O O2 0.206842 0.248097 0.921161
O O3 0.189167 0.964477 0.907624
O O4 0.110156 0.116846 0.000000
O O5 0.653005 0.672832 0.500000
O O6 0.679924 0.474094 0.602942
O O7 0.735905 0.734664 0.612146
O O8 0.598770 0.702122 0.634831
O O9 0.657490 0.302594 0.286851
O O10 0.589082 0.544130 0.252387
O O11 0.519682 0.296356 0.272548
O O12 0.786354 0.243294 0.810958
O O13 0.693517 0.024181 0.835979
O O14 0.724380 0.935599 0.292771
O O15 0.600369 0.845022 0.243255
#
# Coordination Sequence:
#
# PCOD9424742 Si02
#       7
#     8   8   8   8   8   8   8
#     4  11  21  33  53  81 112 139 171 229 278 309
#     4  10  20  34  53  82 110 135 172 224 275 313
#     4  10  18  34  54  78 106 138 188 215 258 325
#     4  10  18  31  54  78 107 132 181 220 266 312
#     4  10  16  32  55  78  98 139 180 225 246 312
#     4  10  18  31  57  78 102 141 177 217 263 314
#     4   9  19  33  54  78 103 143 179 216 259 320
#
# _framework density 18.182136
#
# number of rings (size 3 to 8) (size 9 to 14) (size 15 to 20)
#    0.000    2.000    4.286    2.571    0.000    0.000 
#    0.000    8.571    0.000    0.857    0.000    3.000 
#    0.000    0.000    0.000    0.000    0.000    0.000 
#
# Total GULP energy -311981.825206 kJ/mol
# GULP energy per Si atom -5571.104022 kJ/mol
# Density = 1.814075 g / cm^3
# Si number density = 18.182136 Si / 1000 Ang^3
#
#
#
# Elastic Constant Matrix: (Units=GPa)
#
#
# Indices 1 2 3 4 5 6 
#
# 1 82.1973 11.1820 46.6986 0.0000 0.0000 0.0000
# 2 11.1820 50.3391 18.5890 0.0000 0.0000 0.0000
# 3 46.6986 18.5890 133.1039 0.0000 0.0000 0.0000
# 4 0.0000 0.0000 0.0000 -2.8896 0.0000 0.0000
# 5 0.0000 0.0000 0.0000 0.0000 11.3876 0.0000
# 6 0.0000 0.0000 0.0000 0.0000 0.0000 21.3401
#
#
#
# Elastic Compliance Matrix: (Units=1/GPa)
#
#
# Indices 1 2 3 4 5 6 
#
# 1 0.015300 -0.001493 -0.005159 0.000000 0.000000 0.000000
# 2 -0.001493 0.021091 -0.002422 0.000000 0.000000 0.000000
# 3 -0.005159 -0.002422 0.009661 0.000000 0.000000 0.000000
# 4 0.000000 0.000000 0.000000 -0.346063 0.000000 0.000000
# 5 0.000000 0.000000 0.000000 0.000000 0.087815 0.000000
# 6 0.000000 0.000000 0.000000 0.000000 0.000000 0.046860
#
#
# Mechanical properties :
#
#
# Convention : Reuss Voigt Hill
#
# Bulk Modulus (GPa) = 35.83736 46.50882 41.17309
# Shear Modulus (GPa) = -36.26188 18.57901 -8.84143
#
# Velocity S-wave (km/s) = -4.47068 3.20007 -2.20755
# Velocity P-wave (km/s) = 2.62608 6.26808 4.02446
#
# Compressibility (1/GPa) = 0.02790384
#
# Stress axis : x y z
#
# Youngs Moduli (GPa) = 65.35861 47.41305 103.50620
#
# Poissons Ratio (x) = 0.07081 0.53403
# Poissons Ratio (y) = 0.09761 0.25065
# Poissons Ratio (z) = 0.33721 0.11481
#
# Static dielectric constant tensor:
#      x y z
#    x 1.624700 0.000000 0.000000 
#    y 0.000000 1.646010 0.000000 
#    z 0.000000 0.000000 1.657460 
# 
# From -- ./inp_files/21907.got.cif
#   From: 2010.05.17/outbox.cif.g08.bks.cpg/sg55_11_cif.got.tgz:21907.got - 2010.06.03 13:27:54.
