data_PCOD9424941
_publ_section_title
;
Structure prediction by ZEFSAII (Michael W. Deem and Ramdas Pophale) SiO2 
 PCOD9424941
Probable space group: P B A M
;
_chemical_formula_sum "Si O2"
_cell_formula_units_Z 40
_cell_length_a 21.497018
_cell_length_b 12.886229
_cell_length_c 8.968990
_cell_angle_alpha 90.000000
_cell_angle_beta 90.000000
_cell_angle_gamma 90.000000
_cell_volume 2484.549220
_symmetry_space_group_name_H-M "P B A M"
_symmetry_group_IT_number 55
_symmetry_cell_setting 'orthorhombic'
loop_
_space_group_symop_operation_xyz
x,y,z
-x,-y,z
1/2+x,1/2-y,-z
1/2-x,1/2+y,-z
-x,-y,-z
x,y,-z
1/2-x,1/2+y,z
1/2+x,1/2-y,z
loop_
_atom_site_type_symbol
_atom_site_label
_atom_site_fract_x
_atom_site_fract_y
_atom_site_fract_z
Si Si1 0.670415 0.663435 0.677720
Si Si2 0.428296 0.510391 0.320721
Si Si3 0.664452 0.330229 0.821677
Si Si4 0.703654 0.891390 0.677419
Si Si5 0.699285 0.101347 0.822756
O O1 0.574044 0.474842 0.500000
O O2 0.610972 0.593671 0.714039
O O3 0.665426 0.786095 0.709124
O O4 0.730633 0.621876 0.764431
O O5 0.500000 0.500000 0.276100
O O6 0.182624 0.847352 0.500000
O O7 0.392592 0.604899 0.242913
O O8 0.728094 0.372697 0.748118
O O9 0.662357 0.207227 0.787439
O O10 0.668700 0.342339 0.000000
O O11 0.710355 0.902232 0.500000
O O12 0.676477 0.996471 0.745399
O O13 0.700222 0.087759 0.000000
#
# Coordination Sequence:
#
# PCOD9424941 Si02
#       5
#     8   8   8   8   8
#     4   9  18  31  47  70  98 128 161 198 244 293
#     4  10  20  34  52  73  99 131 167 205 244 291
#     4  10  20  32  47  71 100 129 164 201 244 294
#     4  10  18  29  48  72  99 128 159 198 246 297
#     4  10  19  30  47  72 101 128 157 201 249 293
#
# _framework density 16.099499000000002
#
# number of rings (size 3 to 8) (size 9 to 14) (size 15 to 20)
#    0.000    2.200    2.000    1.800    0.000    3.600 
#    0.000    0.000    0.000    1.200    0.000    8.400 
#    0.000    0.000    0.000    0.000    0.000    0.000 
#
# Total GULP energy -223070.478289 kJ/mol
# GULP energy per Si atom -5576.761957 kJ/mol
# Density = 1.606286 g / cm^3
# Si number density = 16.099499 Si / 1000 Ang^3
#
#
#
# Elastic Constant Matrix: (Units=GPa)
#
#
# Indices 1 2 3 4 5 6 
#
# 1 87.7467 62.3088 34.9771 0.0000 0.0000 0.0000
# 2 62.3088 167.6587 63.4408 0.0000 0.0000 0.0000
# 3 34.9771 63.4408 46.6001 0.0000 0.0000 0.0000
# 4 0.0000 0.0000 0.0000 29.4388 0.0000 0.0000
# 5 0.0000 0.0000 0.0000 0.0000 -2.5788 0.0000
# 6 0.0000 0.0000 0.0000 0.0000 0.0000 18.5082
#
#
#
# Elastic Compliance Matrix: (Units=1/GPa)
#
#
# Indices 1 2 3 4 5 6 
#
# 1 0.016996 -0.003072 -0.008575 0.000000 0.000000 0.000000
# 2 -0.003072 0.012857 -0.015197 0.000000 0.000000 0.000000
# 3 -0.008575 -0.015197 0.048585 0.000000 0.000000 0.000000
# 4 0.000000 0.000000 0.000000 0.033969 0.000000 0.000000
# 5 0.000000 0.000000 0.000000 0.000000 -0.387776 0.000000
# 6 0.000000 0.000000 0.000000 0.000000 0.000000 0.054030
#
#
# Mechanical properties :
#
#
# Convention : Reuss Voigt Hill
#
# Bulk Modulus (GPa) = 40.40516 69.27321 54.83919
# Shear Modulus (GPa) = -31.36716 18.49223 -6.43746
#
# Velocity S-wave (km/s) = -4.41878 3.39281 -2.00181
# Velocity P-wave (km/s) = 0.93942 7.64655 5.36597
#
# Compressibility (1/GPa) = 0.02474931
#
# Stress axis : x y z
#
# Youngs Moduli (GPa) = 58.83847 77.78126 20.58253
#
# Poissons Ratio (x) = 0.23891 0.17650
# Poissons Ratio (y) = 0.18073 0.31280
# Poissons Ratio (z) = 0.50454 1.18207
#
# Static dielectric constant tensor:
#      x y z
#    x 1.494740 0.000000 0.000000 
#    y 0.000000 1.577100 0.000000 
#    z 0.000000 0.000000 1.536870 
# 
# From -- ./inp_files/3837.got.cif
#   From: 2010.05.17/outbox.cif.g08.bks.cpg/sg55_2_cif.got.tgz:3837.got - 2010.06.03 13:27:54.
