data_PCOD9424069
_publ_section_title
;
Structure prediction by ZEFSAII (Michael W. Deem and Ramdas Pophale) SiO2 
 PCOD9424069
Probable space group: P C C A
;
_chemical_formula_sum "Si O2"
_cell_formula_units_Z 32
_cell_length_a 5.150615
_cell_length_b 10.681512
_cell_length_c 31.634623
_cell_angle_alpha 90.000000
_cell_angle_beta 90.000000
_cell_angle_gamma 90.000000
_cell_volume 1740.421679
_symmetry_space_group_name_H-M "P C C A"
_symmetry_group_IT_number 54
_symmetry_cell_setting 'orthorhombic'
loop_
_space_group_symop_operation_xyz
x,y,z
1/2-x,-y,z
1/2+x,-y,1/2-z
-x,y,1/2-z
-x,-y,-z
1/2+x,y,-z
1/2-x,y,1/2+z
x,-y,1/2+z
loop_
_atom_site_type_symbol
_atom_site_label
_atom_site_fract_x
_atom_site_fract_y
_atom_site_fract_z
Si Si1 0.306070 0.760251 0.671725
Si Si2 0.763362 0.848084 0.524524
Si Si3 0.000000 0.076440 0.750000
Si Si4 0.797533 0.849979 0.622314
Si Si5 0.750000 0.500000 0.780680
O O1 0.381241 0.842481 0.712439
O O2 0.549287 0.777408 0.640623
O O3 0.263271 0.621703 0.689654
O O4 0.050635 0.812906 0.648894
O O5 0.486300 0.804353 0.507414
O O6 0.826816 0.817172 0.572858
O O7 0.750000 0.000000 0.522964
O O8 0.250000 0.000000 0.766483
O O9 0.750000 0.000000 0.625246
O O10 0.500000 0.494752 0.750000
#
# Coordination Sequence:
#
# PCOD9424069 Si02
#       5
#     8   8   4   8   4
#     4  12  24  40  59  83 114 156 197 243 289 330
#     4   9  17  31  53  82 119 155 182 217 280 354
#     4  12  24  38  58  84 118 150 186 230 300 362
#     4  11  22  37  58  92 124 148 187 241 293 351
#     4  12  26  46  62  78 108 156 212 252 272 334
#
# _framework density 18.386347000000001
#
# number of rings (size 3 to 8) (size 9 to 14) (size 15 to 20)
#    0.000    1.000    1.250    7.500    1.750    4.000 
#    0.000    0.000    0.000    0.000    0.000   17.500 
#    0.000    0.000    0.000    0.000    0.000    0.000 
#
# Total GULP energy -178858.900667 kJ/mol
# GULP energy per Si atom -5589.340646 kJ/mol
# Density = 1.834450 g / cm^3
# Si number density = 18.386347 Si / 1000 Ang^3
#
#
#
# Elastic Constant Matrix: (Units=GPa)
#
#
# Indices 1 2 3 4 5 6 
#
# 1 164.3296 50.4138 67.3836 0.0000 0.0000 0.0000
# 2 50.4138 87.5231 58.7495 0.0000 0.0000 0.0000
# 3 67.3836 58.7495 137.0833 0.0000 0.0000 0.0000
# 4 0.0000 0.0000 0.0000 317.6956 0.0000 0.0000
# 5 0.0000 0.0000 0.0000 0.0000 35.4773 0.0000
# 6 0.0000 0.0000 0.0000 0.0000 0.0000 13.4502
#
#
#
# Elastic Compliance Matrix: (Units=1/GPa)
#
#
# Indices 1 2 3 4 5 6 
#
# 1 0.008080 -0.002791 -0.002775 0.000000 0.000000 0.000000
# 2 -0.002791 0.017004 -0.005915 0.000000 0.000000 0.000000
# 3 -0.002775 -0.005915 0.011194 0.000000 0.000000 0.000000
# 4 0.000000 0.000000 0.000000 0.003148 0.000000 0.000000
# 5 0.000000 0.000000 0.000000 0.000000 0.028187 0.000000
# 6 0.000000 0.000000 0.000000 0.000000 0.000000 0.074348
#
#
# Mechanical properties :
#
#
# Convention : Reuss Voigt Hill
#
# Bulk Modulus (GPa) = 75.10797 82.44773 78.77785
# Shear Modulus (GPa) = 29.52248 87.48389 58.50319
#
# Velocity S-wave (km/s) = 4.01143 6.90537 5.64694
# Velocity P-wave (km/s) = 7.89899 10.41720 9.24424
#
# Compressibility (1/GPa) = 0.01331417
#
# Stress axis : x y z
#
# Youngs Moduli (GPa) = 123.76829 58.81033 89.33126
#
# Poissons Ratio (x) = 0.16413 0.24794
# Poissons Ratio (y) = 0.34542 0.52843
# Poissons Ratio (z) = 0.34352 0.34789
#
# Static dielectric constant tensor:
#      x y z
#    x 1.639800 0.000000 0.000000 
#    y 0.000000 1.630520 0.000000 
#    z 0.000000 0.000000 1.630150 
# 
# From -- ./inp_files/26907.got.cif
#   From: 2010.05.17/outbox.cif.g08.bks.cpg/sg54_14_cif.got.tgz:26907.got - 2010.06.03 13:09:01.
