data_PCOD9424430
_publ_section_title
;
Structure prediction by ZEFSAII (Michael W. Deem and Ramdas Pophale) SiO2 
 PCOD9424430
Probable space group: P C C A
;
_chemical_formula_sum "Si O2"
_cell_formula_units_Z 28
_cell_length_a 13.005934
_cell_length_b 4.948787
_cell_length_c 17.194172
_cell_angle_alpha 90.000000
_cell_angle_beta 90.000000
_cell_angle_gamma 90.000000
_cell_volume 1106.678759
_symmetry_space_group_name_H-M "P C C A"
_symmetry_group_IT_number 54
_symmetry_cell_setting 'orthorhombic'
loop_
_space_group_symop_operation_xyz
x,y,z
1/2-x,-y,z
1/2+x,-y,1/2-z
-x,y,1/2-z
-x,-y,-z
1/2+x,y,-z
1/2-x,y,1/2+z
x,-y,1/2+z
loop_
_atom_site_type_symbol
_atom_site_label
_atom_site_fract_x
_atom_site_fract_y
_atom_site_fract_z
Si Si1 0.141860 0.857180 0.315290
Si Si2 0.587648 0.025973 0.360733
Si Si3 0.889231 0.527512 0.960550
Si Si4 0.250000 0.500000 0.402735
O O1 0.130142 0.904203 0.224121
O O2 0.159678 0.543577 0.337780
O O3 0.036595 0.950708 0.354872
O O4 0.250000 0.000000 0.343693
O O5 0.631106 0.233060 0.424627
O O6 0.611986 0.727556 0.388346
O O7 0.817389 0.643696 0.028718
O O8 0.000000 0.500000 0.000000
#
# Coordination Sequence:
#
# PCOD9424430 Si02
#       4
#     8   8   8   4
#     4  11  27  47  74 107 146 198 249 303 373 448
#     4  11  28  49  74 105 152 196 242 309 375 452
#     4  12  26  49  74 110 147 191 249 309 379 437
#     4  12  28  42  80 106 150 192 250 308 372 446
#
# _framework density 25.300927999999999
#
# number of rings (size 3 to 8) (size 9 to 14) (size 15 to 20)
#    0.000    0.571    2.857    2.571   12.000    2.286 
#    0.000    0.000    0.000    0.000    0.000    0.000 
#    0.000    0.000    0.000    0.000    0.000    0.000 
#
# Total GULP energy -155874.568024 kJ/mol
# GULP energy per Si atom -5566.948858 kJ/mol
# Density = 2.524334 g / cm^3
# Si number density = 25.300928 Si / 1000 Ang^3
#
#
#
# Elastic Constant Matrix: (Units=GPa)
#
#
# Indices 1 2 3 4 5 6 
#
# 1 141.3248 23.5432 48.6759 0.0000 0.0000 0.0000
# 2 23.5432 65.5566 5.9802 0.0000 0.0000 0.0000
# 3 48.6759 5.9802 122.9635 0.0000 0.0000 0.0000
# 4 0.0000 0.0000 0.0000-1257.4153 0.0000 0.0000
# 5 0.0000 0.0000 0.0000 0.0000 108.1591 0.0000
# 6 0.0000 0.0000 0.0000 0.0000 0.0000 21.6848
#
#
#
# Elastic Compliance Matrix: (Units=1/GPa)
#
#
# Indices 1 2 3 4 5 6 
#
# 1 0.008682 -0.002817 -0.003300 0.000000 0.000000 0.000000
# 2 -0.002817 0.016236 0.000325 0.000000 0.000000 0.000000
# 3 -0.003300 0.000325 0.009423 0.000000 0.000000 0.000000
# 4 0.000000 0.000000 0.000000 -0.000795 0.000000 0.000000
# 5 0.000000 0.000000 0.000000 0.000000 0.009246 0.000000
# 6 0.000000 0.000000 0.000000 0.000000 0.000000 0.046115
#
#
# Mechanical properties :
#
#
# Convention : Reuss Voigt Hill
#
# Bulk Modulus (GPa) = 43.94005 54.02705 48.98355
# Shear Modulus (GPa) = 46.26452 -208.73790 -81.23669
#
# Velocity S-wave (km/s) = 4.28082 -9.09292 -5.67256
# Velocity P-wave (km/s) = 6.46827 9.42557 4.84783
#
# Compressibility (1/GPa) = 0.02275828
#
# Stress axis : x y z
#
# Youngs Moduli (GPa) = 115.18545 61.59191 106.12480
#
# Poissons Ratio (x) = 0.17349 0.35018
# Poissons Ratio (y) = 0.32446 -0.03454
# Poissons Ratio (z) = 0.38008 -0.02004
#
# Static dielectric constant tensor:
#      x y z
#    x 2.003200 0.000000 0.000000 
#    y 0.000000 5.887170 0.000000 
#    z 0.000000 0.000000 1.850260 
# 
# From -- ./inp_files/17498.got.cif
#   From: 2010.05.17/outbox.cif.g08.bks.cpg/sg54_9_cif.got.tgz:17498.got - 2010.06.03 13:09:01.
