data_PCOD9424760
_publ_section_title
;
Structure prediction by ZEFSAII (Michael W. Deem and Ramdas Pophale) SiO2 
 PCOD9424760
Probable space group: P B A M
;
_chemical_formula_sum "Si O2"
_cell_formula_units_Z 64
_cell_length_a 8.581832
_cell_length_b 19.202337
_cell_length_c 15.840321
_cell_angle_alpha 90.000000
_cell_angle_beta 90.000000
_cell_angle_gamma 90.000000
_cell_volume 2610.345983
_symmetry_space_group_name_H-M "P B A M"
_symmetry_group_IT_number 55
_symmetry_cell_setting 'orthorhombic'
loop_
_space_group_symop_operation_xyz
x,y,z
-x,-y,z
1/2+x,1/2-y,-z
1/2-x,1/2+y,-z
-x,-y,-z
x,y,-z
1/2-x,1/2+y,z
1/2+x,1/2-y,z
loop_
_atom_site_type_symbol
_atom_site_label
_atom_site_fract_x
_atom_site_fract_y
_atom_site_fract_z
Si Si1 0.731795 0.883138 0.227276
Si Si2 0.223190 0.092242 0.407988
Si Si3 0.843485 0.223397 0.760148
Si Si4 0.367127 0.911393 0.230888
Si Si5 0.336730 0.465889 0.093077
Si Si6 0.592124 0.107696 0.590712
Si Si7 0.032122 0.229085 0.408028
Si Si8 0.965298 0.833246 0.094174
O O1 0.813051 0.921643 0.307793
O O2 0.720005 0.800726 0.248498
O O3 0.552032 0.905729 0.219092
O O4 0.828421 0.877328 0.140330
O O5 0.167039 0.061823 0.500000
O O6 0.410080 0.087561 0.410477
O O7 0.168289 0.172578 0.413634
O O8 0.929291 0.207966 0.671959
O O9 0.966355 0.221034 0.838066
O O10 0.714427 0.164416 0.777230
O O11 0.335246 0.929286 0.328843
O O12 0.290314 0.964446 0.165564
O O13 0.500000 0.500000 0.117661
O O14 0.391235 0.386114 0.083923
O O15 0.289061 0.491942 0.000000
O O16 0.662756 0.091101 0.500000
O O17 0.589225 0.191489 0.602653
O O18 0.949931 0.226713 0.500000
O O19 0.920723 0.808212 0.000000
#
# Coordination Sequence:
#
# PCOD9424760 Si02
#       8
#     8   8   8   8   8   8   8   8
#     4  11  19  31  50  74 111 144 175 212 242 298
#     4   9  16  26  40  63  97 140 179 210 244 278
#     4  11  19  31  47  71 111 151 177 206 244 294
#     4  10  20  30  52  80 104 138 177 213 257 312
#     4   9  20  42  65  79  95 122 163 224 289 333
#     4   9  17  26  40  67 104 140 172 207 246 289
#     4  10  17  25  43  68 101 147 190 215 236 277
#     4  10  22  37  53  74 100 137 178 212 259 317
#
# _framework density 24.517824000000001
#
# number of rings (size 3 to 8) (size 9 to 14) (size 15 to 20)
#    0.000    2.125    3.750    1.500    0.000    1.500 
#    0.000    3.125    0.000    2.625    0.000    0.000 
#    0.000    4.000    0.000    0.000    0.000    0.000 
#
# Total GULP energy -357116.502846 kJ/mol
# GULP energy per Si atom -5579.945357 kJ/mol
# Density = 2.446202 g / cm^3
# Si number density = 24.517824 Si / 1000 Ang^3
#
#
#
# Elastic Constant Matrix: (Units=GPa)
#
#
# Indices 1 2 3 4 5 6 
#
# 1 56.4786 18.4904 91.2074 0.0000 0.0000 0.0000
# 2 18.4904 62.2707 18.8041 0.0000 0.0000 0.0000
# 3 91.2074 18.8041 204.5164 0.0000 0.0000 0.0000
# 4 0.0000 0.0000 0.0000 12.2876 0.0000 0.0000
# 5 0.0000 0.0000 0.0000 0.0000 34.4476 0.0000
# 6 0.0000 0.0000 0.0000 0.0000 0.0000 36.8082
#
#
#
# Elastic Compliance Matrix: (Units=1/GPa)
#
#
# Indices 1 2 3 4 5 6 
#
# 1 0.070838 -0.011823 -0.030504 0.000000 0.000000 0.000000
# 2 -0.011823 0.018491 0.003572 0.000000 0.000000 0.000000
# 3 -0.030504 0.003572 0.018165 0.000000 0.000000 0.000000
# 4 0.000000 0.000000 0.000000 0.081383 0.000000 0.000000
# 5 0.000000 0.000000 0.000000 0.000000 0.029030 0.000000
# 6 0.000000 0.000000 0.000000 0.000000 0.000000 0.027168
#
#
# Mechanical properties :
#
#
# Convention : Reuss Voigt Hill
#
# Bulk Modulus (GPa) = 33.35070 64.47438 48.91254
# Shear Modulus (GPa) = 15.03408 29.69295 22.36352
#
# Velocity S-wave (km/s) = 2.47895 3.48383 3.02343
# Velocity P-wave (km/s) = 4.67181 6.52202 5.67285
#
# Compressibility (1/GPa) = 0.02998438
#
# Stress axis : x y z
#
# Youngs Moduli (GPa) = 14.11674 54.08113 55.05098
#
# Poissons Ratio (x) = 0.63939 1.67929
# Poissons Ratio (y) = 0.16690 -0.19667
# Poissons Ratio (z) = 0.43062 -0.19320
#
# Static dielectric constant tensor:
#      x y z
#    x 1.938920 0.000000 0.000000 
#    y 0.000000 1.998970 0.000000 
#    z 0.000000 0.000000 2.077870 
# 
# From -- ./inp_files/17829.got.cif
#   From: 2010.05.17/outbox.cif.g08.bks.cpg/sg55_9_cif.got.tgz:17829.got - 2010.06.03 13:27:54.
