data_PCOD9424161
_publ_section_title
;
Structure prediction by ZEFSAII (Michael W. Deem and Ramdas Pophale) SiO2 
 PCOD9424161
Probable space group: P C C A
;
_chemical_formula_sum "Si O2"
_cell_formula_units_Z 24
_cell_length_a 5.037998
_cell_length_b 7.185121
_cell_length_c 26.782058
_cell_angle_alpha 90.000000
_cell_angle_beta 90.000000
_cell_angle_gamma 90.000000
_cell_volume 969.473680
_symmetry_space_group_name_H-M "P C C A"
_symmetry_group_IT_number 54
_symmetry_cell_setting 'orthorhombic'
loop_
_space_group_symop_operation_xyz
x,y,z
1/2-x,-y,z
1/2+x,-y,1/2-z
-x,y,1/2-z
-x,-y,-z
1/2+x,y,-z
1/2-x,y,1/2+z
x,-y,1/2+z
loop_
_atom_site_type_symbol
_atom_site_label
_atom_site_fract_x
_atom_site_fract_y
_atom_site_fract_z
Si Si1 0.223348 0.274078 0.028097
Si Si2 0.137743 0.198569 0.797672
Si Si3 0.348200 0.712669 0.139828
O O1 0.250000 0.500000 0.026841
O O2 0.116294 0.224916 0.082753
O O3 0.517266 0.210992 0.014063
O O4 0.387844 0.283867 0.826607
O O5 0.000000 0.296832 0.750000
O O6 0.897373 0.177389 0.836173
O O7 0.250000 0.000000 0.779774
O O8 0.250000 0.500000 0.138393
#
# Coordination Sequence:
#
# PCOD9424161 Si02
#       3
#     8   8   8
#     4   9  17  32  57  90 125 158 194 241 301 365
#     4  12  25  44  64  86 123 170 210 248 312 383
#     4  11  23  40  67  98 124 157 208 264 305 349
#
# _framework density 24.755704000000001
#
# number of rings (size 3 to 8) (size 9 to 14) (size 15 to 20)
#    0.000    1.333    0.000    7.000    0.000    8.000 
#    0.000    1.667    0.000   20.000    0.000    0.000 
#    0.000    0.000    0.000    0.000    0.000    0.000 
#
# Total GULP energy -134284.306563 kJ/mol
# GULP energy per Si atom -5595.179440 kJ/mol
# Density = 2.469936 g / cm^3
# Si number density = 24.755704 Si / 1000 Ang^3
#
#
#
# Elastic Constant Matrix: (Units=GPa)
#
#
# Indices 1 2 3 4 5 6 
#
# 1 203.0340 14.2072 86.7405 0.0000 0.0000 0.0000
# 2 14.2072 51.8439 4.1473 0.0000 0.0000 0.0000
# 3 86.7405 4.1473 163.0569 0.0000 0.0000 0.0000
# 4 0.0000 0.0000 0.0000 39.9893 0.0000 0.0000
# 5 0.0000 0.0000 0.0000 0.0000 42.9805 0.0000
# 6 0.0000 0.0000 0.0000 0.0000 0.0000 29.0091
#
#
#
# Elastic Compliance Matrix: (Units=1/GPa)
#
#
# Indices 1 2 3 4 5 6 
#
# 1 0.006489 -0.001505 -0.003414 0.000000 0.000000 0.000000
# 2 -0.001505 0.019677 0.000300 0.000000 0.000000 0.000000
# 3 -0.003414 0.000300 0.007941 0.000000 0.000000 0.000000
# 4 0.000000 0.000000 0.000000 0.025007 0.000000 0.000000
# 5 0.000000 0.000000 0.000000 0.000000 0.023266 0.000000
# 6 0.000000 0.000000 0.000000 0.000000 0.000000 0.034472
#
#
# Mechanical properties :
#
#
# Convention : Reuss Voigt Hill
#
# Bulk Modulus (GPa) = 40.20896 69.79163 55.00029
# Shear Modulus (GPa) = 37.20810 43.25177 40.22993
#
# Velocity S-wave (km/s) = 3.88107 4.18442 4.03560
# Velocity P-wave (km/s) = 6.03003 7.18326 6.63176
#
# Compressibility (1/GPa) = 0.02487008
#
# Stress axis : x y z
#
# Youngs Moduli (GPa) = 154.10746 50.82044 125.92684
#
# Poissons Ratio (x) = 0.07649 0.42987
# Poissons Ratio (y) = 0.23195 -0.03780
# Poissons Ratio (z) = 0.52606 -0.01526
#
# Static dielectric constant tensor:
#      x y z
#    x 1.878130 0.000000 0.000000 
#    y 0.000000 2.073920 0.000000 
#    z 0.000000 0.000000 1.944790 
# 
# From -- ./inp_files/22526.got.cif
#   From: 2010.05.17/outbox.cif.g08.bks.cpg/sg54_12_cif.got.tgz:22526.got - 2010.06.03 13:09:01.
