data_PCOD9424692
_publ_section_title
;
Structure prediction by ZEFSAII (Michael W. Deem and Ramdas Pophale) SiO2 
 PCOD9424692
Probable space group: P B A M
;
_chemical_formula_sum "Si O2"
_cell_formula_units_Z 64
_cell_length_a 24.368936
_cell_length_b 5.415689
_cell_length_c 29.748530
_cell_angle_alpha 90.000000
_cell_angle_beta 90.000000
_cell_angle_gamma 90.000000
_cell_volume 3926.049712
_symmetry_space_group_name_H-M "P B A M"
_symmetry_group_IT_number 55
_symmetry_cell_setting 'orthorhombic'
loop_
_space_group_symop_operation_xyz
x,y,z
-x,-y,z
1/2+x,1/2-y,-z
1/2-x,1/2+y,-z
-x,-y,-z
x,y,-z
1/2-x,1/2+y,z
1/2+x,1/2-y,z
loop_
_atom_site_type_symbol
_atom_site_label
_atom_site_fract_x
_atom_site_fract_y
_atom_site_fract_z
Si Si1 0.306153 0.478855 0.183546
Si Si2 0.182189 0.479302 0.146985
Si Si3 0.713471 0.048897 0.949951
Si Si4 0.878484 0.533141 0.416705
Si Si5 0.064949 0.955630 0.446765
Si Si6 0.768013 0.361719 0.550807
Si Si7 0.196016 0.880670 0.712632
Si Si8 0.319620 0.879978 0.321871
O O1 0.248253 0.490507 0.156870
O O2 0.337996 0.238835 0.166208
O O3 0.291479 0.444998 0.235752
O O4 0.336042 0.735235 0.173243
O O5 0.175137 0.453874 0.093716
O O6 0.750028 0.798749 0.946882
O O7 0.688191 0.048867 0.000000
O O8 0.905114 0.795134 0.429533
O O9 0.829266 0.459473 0.449845
O O10 0.846087 0.559134 0.369617
O O11 0.918210 0.295622 0.420736
O O12 0.077820 0.923472 0.500000
O O13 0.000000 0.000000 0.442798
O O14 0.746895 0.322699 0.500000
O O15 0.734549 0.589311 0.572482
O O16 0.161788 0.109149 0.693353
O O17 0.253081 0.859149 0.684442
O O18 0.167380 0.616007 0.709059
#
# Coordination Sequence:
#
# PCOD9424692 Si02
#       8
#     8   8   8   8   8   8   8   8
#     4  10  16  23  38  48  69  95 138 171 200 239
#     4  10  14  22  31  48  58  86 125 173 210 257
#     4  10  16  22  28  39  59  82 111 160 228 288
#     4  12  23  36  59  79  99 126 154 182 216 265
#     4  11  24  43  63  80  97 118 150 193 231 257
#     4  10  21  33  48  71 100 128 150 171 199 241
#     4  10  19  32  42  63  89 125 147 175 208 249
#     4  10  20  30  47  66  92 117 147 169 203 253
#
# _framework density 16.301373999999999
#
# number of rings (size 3 to 8) (size 9 to 14) (size 15 to 20)
#    0.000    1.625    2.500    6.750    3.500    2.000 
#    0.000    0.000    0.000    0.000    0.000    0.000 
#    0.000    0.000    0.000    0.000    0.000    0.000 
#
# Total GULP energy -356272.344130 kJ/mol
# GULP energy per Si atom -5566.755377 kJ/mol
# Density = 1.626427 g / cm^3
# Si number density = 16.301374 Si / 1000 Ang^3
#
#
#
# Elastic Constant Matrix: (Units=GPa)
#
#
# Indices 1 2 3 4 5 6 
#
# 1 23.5972 -3.5949 8.2984 0.0000 0.0000 0.0000
# 2 -3.5949 77.9214 -27.3203 0.0000 0.0000 0.0000
# 3 8.2984 -27.3203 61.0462 0.0000 0.0000 0.0000
# 4 0.0000 0.0000 0.0000 25.1770 0.0000 0.0000
# 5 0.0000 0.0000 0.0000 0.0000 -1.2228 0.0000
# 6 0.0000 0.0000 0.0000 0.0000 0.0000 15.7575
#
#
#
# Elastic Compliance Matrix: (Units=1/GPa)
#
#
# Indices 1 2 3 4 5 6 
#
# 1 0.044506 -0.000081 -0.006086 0.000000 0.000000 0.000000
# 2 -0.000081 0.015222 0.006823 0.000000 0.000000 0.000000
# 3 -0.006086 0.006823 0.020262 0.000000 0.000000 0.000000
# 4 0.000000 0.000000 0.000000 0.039719 0.000000 0.000000
# 5 0.000000 0.000000 0.000000 0.000000 -0.817789 0.000000
# 6 0.000000 0.000000 0.000000 0.000000 0.000000 0.063462
#
#
# Mechanical properties :
#
#
# Convention : Reuss Voigt Hill
#
# Bulk Modulus (GPa) = 12.29960 13.03682 12.66821
# Shear Modulus (GPa) = -8.21247 20.28776 6.03765
#
# Velocity S-wave (km/s) = -2.24696 3.53164 1.92660
# Velocity P-wave (km/s) = 0.91089 4.96434 3.56892
#
# Compressibility (1/GPa) = 0.08130348
#
# Stress axis : x y z
#
# Youngs Moduli (GPa) = 22.46895 65.69398 49.35341
#
# Poissons Ratio (x) = 0.00529 0.30037
# Poissons Ratio (y) = 0.00181 -0.33676
# Poissons Ratio (z) = 0.13675 -0.44825
#
# Static dielectric constant tensor:
#      x y z
#    x 1.519310 0.000000 0.000000 
#    y 0.000000 1.678280 0.000000 
#    z 0.000000 0.000000 1.589750 
# 
# From -- ./inp_files/24031.got.cif
#   From: 2010.05.17/outbox.cif.g08.bks.cpg/sg55_13_cif.got.tgz:24031.got - 2010.06.03 13:27:54.
