data_PCOD9424149
_publ_section_title
;
Structure prediction by ZEFSAII (Michael W. Deem and Ramdas Pophale) SiO2 
 PCOD9424149
Probable space group: P C C A
;
_chemical_formula_sum "Si O2"
_cell_formula_units_Z 32
_cell_length_a 12.725532
_cell_length_b 7.163186
_cell_length_c 16.668185
_cell_angle_alpha 90.000000
_cell_angle_beta 90.000000
_cell_angle_gamma 90.000000
_cell_volume 1519.394282
_symmetry_space_group_name_H-M "P C C A"
_symmetry_group_IT_number 54
_symmetry_cell_setting 'orthorhombic'
loop_
_space_group_symop_operation_xyz
x,y,z
1/2-x,-y,z
1/2+x,-y,1/2-z
-x,y,1/2-z
-x,-y,-z
1/2+x,y,-z
1/2-x,y,1/2+z
x,-y,1/2+z
loop_
_atom_site_type_symbol
_atom_site_label
_atom_site_fract_x
_atom_site_fract_y
_atom_site_fract_z
Si Si1 0.470403 0.855060 0.902095
Si Si2 0.135113 0.558730 0.304818
Si Si3 0.073215 0.507830 0.624770
Si Si4 0.857135 0.110501 0.432887
O O1 0.399373 0.765079 0.833091
O O2 0.546915 0.678388 0.926083
O O3 0.550454 0.017240 0.880074
O O4 0.397384 0.912093 0.975893
O O5 0.250000 0.500000 0.330956
O O6 0.124945 0.547666 0.209336
O O7 0.045267 0.433286 0.347677
O O8 0.140231 0.669367 0.584680
O O9 0.750000 0.000000 0.419486
#
# Coordination Sequence:
#
# PCOD9424149 Si02
#       4
#     8   8   8   8
#     4   9  22  43  59  91 131 160 215 264 303 387
#     4   9  20  40  64  87 124 168 205 250 320 365
#     4   9  21  41  59  93 126 162 217 254 306 390
#     4  11  23  38  67  95 126 168 207 262 324 372
#
# _framework density 21.061025000000001
#
# number of rings (size 3 to 8) (size 9 to 14) (size 15 to 20)
#    1.500    1.000    0.000    0.750    3.500    4.000 
#    9.000    0.000    0.000    0.000    0.000    0.000 
#    0.000    0.000    0.000    0.000    0.000    0.000 
#
# Total GULP energy -178139.964479 kJ/mol
# GULP energy per Si atom -5566.873890 kJ/mol
# Density = 2.101309 g / cm^3
# Si number density = 21.061025 Si / 1000 Ang^3
#
#
#
# Elastic Constant Matrix: (Units=GPa)
#
#
# Indices 1 2 3 4 5 6 
#
# 1 81.8821 21.7788 20.7916 0.0000 0.0000 0.0000
# 2 21.7788 58.0091 -3.5112 0.0000 0.0000 0.0000
# 3 20.7916 -3.5112 20.3255 0.0000 0.0000 0.0000
# 4 0.0000 0.0000 0.0000 2.3756 0.0000 0.0000
# 5 0.0000 0.0000 0.0000 0.0000 9.7384 0.0000
# 6 0.0000 0.0000 0.0000 0.0000 0.0000 27.6660
#
#
#
# Elastic Compliance Matrix: (Units=1/GPa)
#
#
# Indices 1 2 3 4 5 6 
#
# 1 0.020243 -0.008947 -0.022252 0.000000 0.000000 0.000000
# 2 -0.008947 0.021375 0.012844 0.000000 0.000000 0.000000
# 3 -0.022252 0.012844 0.074181 0.000000 0.000000 0.000000
# 4 0.000000 0.000000 0.000000 0.420953 0.000000 0.000000
# 5 0.000000 0.000000 0.000000 0.000000 0.102686 0.000000
# 6 0.000000 0.000000 0.000000 0.000000 0.000000 0.036145
#
#
# Mechanical properties :
#
#
# Convention : Reuss Voigt Hill
#
# Bulk Modulus (GPa) = 12.64396 26.48167 19.56282
# Shear Modulus (GPa) = 6.76905 16.03317 11.40111
#
# Velocity S-wave (km/s) = 1.79471 2.76211 2.32919
# Velocity P-wave (km/s) = 3.21110 4.77215 4.06722
#
# Compressibility (1/GPa) = 0.07908912
#
# Stress axis : x y z
#
# Youngs Moduli (GPa) = 49.40063 46.78343 13.48059
#
# Poissons Ratio (x) = 0.41856 0.29998
# Poissons Ratio (y) = 0.44198 -0.17315
# Poissons Ratio (z) = 1.09928 -0.60091
#
# Static dielectric constant tensor:
#      x y z
#    x 1.790950 0.000000 0.000000 
#    y 0.000000 1.788640 0.000000 
#    z 0.000000 0.000000 1.742230 
# 
# From -- ./inp_files/16990.got.cif
#   From: 2010.05.17/outbox.cif.g08.bks.cpg/sg54_9_cif.got.tgz:16990.got - 2010.06.03 13:09:01.
