data_PCOD9424043
_publ_section_title
;
Structure prediction by ZEFSAII (Michael W. Deem and Ramdas Pophale) SiO2 
 PCOD9424043
Probable space group: P C C A
;
_chemical_formula_sum "Si O2"
_cell_formula_units_Z 40
_cell_length_a 9.960602
_cell_length_b 9.654407
_cell_length_c 21.387392
_cell_angle_alpha 90.000000
_cell_angle_beta 90.000000
_cell_angle_gamma 90.000000
_cell_volume 2056.690869
_symmetry_space_group_name_H-M "P C C A"
_symmetry_group_IT_number 54
_symmetry_cell_setting 'orthorhombic'
loop_
_space_group_symop_operation_xyz
x,y,z
1/2-x,-y,z
1/2+x,-y,1/2-z
-x,y,1/2-z
-x,-y,-z
1/2+x,y,-z
1/2-x,y,1/2+z
x,-y,1/2+z
loop_
_atom_site_type_symbol
_atom_site_label
_atom_site_fract_x
_atom_site_fract_y
_atom_site_fract_z
Si Si1 0.500000 0.228585 0.750000
Si Si2 0.601994 0.031829 0.845042
Si Si3 0.251677 0.661769 0.815904
Si Si4 0.496665 0.154485 0.529418
Si Si5 0.263204 0.668299 0.963545
Si Si6 0.500000 0.807626 0.750000
O O1 0.606825 0.135897 0.787128
O O2 0.401848 0.300974 0.798561
O O3 0.522228 0.111516 0.898465
O O4 0.750000 0.000000 0.869514
O O5 0.535491 0.899466 0.811625
O O6 0.250000 0.500000 0.806362
O O7 0.283892 0.689601 0.888870
O O8 0.367563 0.725314 0.771764
O O9 0.629077 0.246301 0.519918
O O10 0.379148 0.252485 0.502046
O O11 0.500000 0.000000 0.500000
O O12 0.250000 0.500000 0.974622
#
# Coordination Sequence:
#
# PCOD9424043 Si02
#       6
#     4   8   8   8   8   4
#     4  11  21  42  62  88 129 163 214 258 322 389
#     4  11  22  38  64  91 126 165 211 270 328 387
#     4  11  23  42  65  93 129 172 215 263 326 399
#     4  12  24  43  68  98 132 172 224 282 330 395
#     4  11  25  45  68  97 135 178 223 275 341 403
#     4  11  23  38  64  96 127 165 216 272 328 387
#
# _framework density 19.448718
#
# number of rings (size 3 to 8) (size 9 to 14) (size 15 to 20)
#    0.000    0.800    4.000    4.200    0.000    0.000 
#    0.000    1.000    0.000    0.000    0.000    0.000 
#    0.000    0.000    0.000    0.000    0.000    0.000 
#
# Total GULP energy -222802.897603 kJ/mol
# GULP energy per Si atom -5570.072440 kJ/mol
# Density = 1.940445 g / cm^3
# Si number density = 19.448718 Si / 1000 Ang^3
#
#
#
# Elastic Constant Matrix: (Units=GPa)
#
#
# Indices 1 2 3 4 5 6 
#
# 1 144.6362 67.8620 33.2743 0.0000 0.0000 0.0000
# 2 67.8620 126.7118 56.8985 0.0000 0.0000 0.0000
# 3 33.2743 56.8985 75.8149 0.0000 0.0000 0.0000
# 4 0.0000 0.0000 0.0000 162.1551 0.0000 0.0000
# 5 0.0000 0.0000 0.0000 0.0000 25.3143 0.0000
# 6 0.0000 0.0000 0.0000 0.0000 0.0000 21.4064
#
#
#
# Elastic Compliance Matrix: (Units=1/GPa)
#
#
# Indices 1 2 3 4 5 6 
#
# 1 0.009248 -0.004721 -0.000515 0.000000 0.000000 0.000000
# 2 -0.004721 0.014314 -0.008670 0.000000 0.000000 0.000000
# 3 -0.000515 -0.008670 0.019923 0.000000 0.000000 0.000000
# 4 0.000000 0.000000 0.000000 0.006167 0.000000 0.000000
# 5 0.000000 0.000000 0.000000 0.000000 0.039503 0.000000
# 6 0.000000 0.000000 0.000000 0.000000 0.000000 0.046715
#
#
# Mechanical properties :
#
#
# Convention : Reuss Voigt Hill
#
# Bulk Modulus (GPa) = 63.81325 73.69249 68.75287
# Shear Modulus (GPa) = 29.60206 54.38369 41.99287
#
# Velocity S-wave (km/s) = 3.90559 5.29371 4.65172
# Velocity P-wave (km/s) = 7.29523 8.67971 8.01741
#
# Compressibility (1/GPa) = 0.01567073
#
# Stress axis : x y z
#
# Youngs Moduli (GPa) = 108.13571 69.86320 50.19289
#
# Poissons Ratio (x) = 0.32984 0.02587
# Poissons Ratio (y) = 0.51053 0.43518
# Poissons Ratio (z) = 0.05574 0.60573
#
# Static dielectric constant tensor:
#      x y z
#    x 1.667910 0.000000 0.000000 
#    y 0.000000 1.722320 0.000000 
#    z 0.000000 0.000000 1.714770 
# 
# From -- ./inp_files/23305.got.cif
#   From: 2010.05.17/outbox.cif.g08.bks.cpg/sg54_12_cif.got.tgz:23305.got - 2010.06.03 13:09:01.
