data_PCOD9424624
_publ_section_title
;
Structure prediction by ZEFSAII (Michael W. Deem and Ramdas Pophale) SiO2 
 PCOD9424624
Probable space group: P C C A
;
_chemical_formula_sum "Si O2"
_cell_formula_units_Z 36
_cell_length_a 12.000000
_cell_length_b 6.000000
_cell_length_c 24.000000
_cell_angle_alpha 90.000000
_cell_angle_beta 90.000000
_cell_angle_gamma 90.000000
_cell_volume 1728.000000
_symmetry_space_group_name_H-M "P C C A"
_symmetry_group_IT_number 54
_symmetry_cell_setting 'orthorhombic'
loop_
_space_group_symop_operation_xyz
x,y,z
1/2-x,-y,z
1/2+x,-y,1/2-z
-x,y,1/2-z
-x,-y,-z
1/2+x,y,-z
1/2-x,y,1/2+z
x,-y,1/2+z
loop_
_atom_site_type_symbol
_atom_site_label
_atom_site_fract_x
_atom_site_fract_y
_atom_site_fract_z
Si Si1 0.053599 0.738890 0.436204
Si Si2 0.539689 0.642982 0.354862
Si Si3 0.371055 0.953776 0.830891
Si Si4 0.000000 0.378547 0.750000
Si Si5 0.135571 0.118883 0.049858
O O1 0.102961 0.719053 0.498265
O O2 0.010604 0.525718 0.401638
O O3 0.139644 0.846806 0.392467
O O4 0.955802 0.922430 0.443322
O O5 0.447803 0.828856 0.338585
O O6 0.566021 0.524219 0.296259
O O7 0.637408 0.759282 0.390269
O O8 0.250000 0.000000 0.808251
O O9 0.427270 0.779010 0.789411
O O10 0.250000 0.000000 0.036180
#
# Coordination Sequence:
#
# PCOD9424624 Si02
#       5
#     8   8   8   4   8
#     4   9  20  37  59  89 121 152 195 244 291 353
#     4  10  21  40  59  83 119 156 198 245 296 354
#     4  10  21  40  62  85 114 154 202 250 293 343
#     4  10  22  40  58  84 118 154 200 250 294 346
#     4  10  20  37  60  90 125 155 189 240 299 358
#
# _framework density 20.833333
#
# number of rings (size 3 to 8) (size 9 to 14) (size 15 to 20)
#    0.000    2.222    0.000    2.000    0.000    4.444 
#    0.000   28.889    0.000    0.000    0.000    1.556 
#    0.000    0.000    0.000    0.000    0.000    0.000 
#
# Total GULP energy -200724.854767 kJ/mol
# GULP energy per Si atom -5575.690410 kJ/mol
# Density = 2.078592 g / cm^3
# Si number density = 20.833333 Si / 1000 Ang^3
#
#
#
# Elastic Constant Matrix: (Units=GPa)
#
#
# Indices 1 2 3 4 5 6 
#
# 1 20.2184 -11.7161 22.2784 0.0000 0.0000 0.0000
# 2 -11.7161 58.2286 44.7695 0.0000 0.0000 0.0000
# 3 22.2784 44.7695 173.8838 0.0000 0.0000 0.0000
# 4 0.0000 0.0000 0.0000 51.1375 0.0000 0.0000
# 5 0.0000 0.0000 0.0000 0.0000 10.5262 0.0000
# 6 0.0000 0.0000 0.0000 0.0000 0.0000 9.0272
#
#
#
# Elastic Compliance Matrix: (Units=1/GPa)
#
#
# Indices 1 2 3 4 5 6 
#
# 1 0.092231 0.034466 -0.020691 0.000000 0.000000 0.000000
# 2 0.034466 0.034292 -0.013245 0.000000 0.000000 0.000000
# 3 -0.020691 -0.013245 0.011812 0.000000 0.000000 0.000000
# 4 0.000000 0.000000 0.000000 0.019555 0.000000 0.000000
# 5 0.000000 0.000000 0.000000 0.000000 0.095001 0.000000
# 6 0.000000 0.000000 0.000000 0.000000 0.000000 0.110776
#
#
# Mechanical properties :
#
#
# Convention : Reuss Voigt Hill
#
# Bulk Modulus (GPa) = 7.17386 40.33272 23.75329
# Shear Modulus (GPa) = 12.22281 27.27146 19.74713
#
# Velocity S-wave (km/s) = 2.42481 3.62198 3.08208
# Velocity P-wave (km/s) = 3.36013 6.07399 4.90835
#
# Compressibility (1/GPa) = 0.13939500
#
# Stress axis : x y z
#
# Youngs Moduli (GPa) = 10.84237 29.16144 84.65945
#
# Poissons Ratio (x) = -1.00507 1.75166
# Poissons Ratio (y) = -0.37369 1.12130
# Poissons Ratio (z) = 0.22434 0.38624
#
# Static dielectric constant tensor:
#      x y z
#    x 1.787110 0.000000 0.000000 
#    y 0.000000 1.792710 0.000000 
#    z 0.000000 0.000000 1.735520 
# 
# From -- ./inp_files/23830.got.cif
#   From: 2010.05.17/outbox.ucp.g08.bks.cvg/sg54_12_cif.got.tgz:23830.got - 2010.06.11 16:34:40.
