data_PCOD9424663
_publ_section_title
;
Structure prediction by ZEFSAII (Michael W. Deem and Ramdas Pophale) SiO2 
 PCOD9424663
Probable space group: P C C A
;
_chemical_formula_sum "Si O2"
_cell_formula_units_Z 56
_cell_length_a 9.000000
_cell_length_b 15.000000
_cell_length_c 21.000000
_cell_angle_alpha 90.000000
_cell_angle_beta 90.000000
_cell_angle_gamma 90.000000
_cell_volume 2835.000000
_symmetry_space_group_name_H-M "P C C A"
_symmetry_group_IT_number 54
_symmetry_cell_setting 'orthorhombic'
loop_
_space_group_symop_operation_xyz
x,y,z
1/2-x,-y,z
1/2+x,-y,1/2-z
-x,y,1/2-z
-x,-y,-z
1/2+x,y,-z
1/2-x,y,1/2+z
x,-y,1/2+z
loop_
_atom_site_type_symbol
_atom_site_label
_atom_site_fract_x
_atom_site_fract_y
_atom_site_fract_z
Si Si1 0.186430 0.597963 0.932529
Si Si2 0.500000 0.087759 0.750000
Si Si3 0.750000 0.000000 0.033899
Si Si4 0.330507 0.597445 0.279677
Si Si5 0.314432 0.201905 0.270203
Si Si6 0.321650 0.834267 0.556809
Si Si7 0.965057 0.934878 0.141115
Si Si8 0.426181 0.711472 0.006909
O O1 0.250000 0.500000 0.951648
O O2 0.163209 0.596390 0.856638
O O3 0.312796 0.667119 0.956434
O O4 0.031878 0.634710 0.962695
O O5 0.656506 0.147794 0.753146
O O6 0.491176 0.016264 0.809156
O O7 0.890391 0.978037 0.078810
O O8 0.719907 0.914184 0.990571
O O9 0.250000 0.500000 0.261623
O O10 0.500000 0.600424 0.250000
O O11 0.240113 0.692973 0.266987
O O12 0.500000 0.203261 0.250000
O O13 0.348417 0.139528 0.332301
O O14 0.384601 0.881532 0.620836
O O15 0.460487 0.778745 0.527980
O O16 0.179671 0.766783 0.556391
#
# Coordination Sequence:
#
# PCOD9424663 Si02
#       8
#     8   4   4   8   8   8   8   8
#     4  10  22  43  71 102 138 182 224 298 362 424
#     4  12  26  50  70 104 150 196 242 308 364 422
#     4  12  24  44  64  96 140 188 238 298 350 426
#     4  11  25  48  75 106 145 187 239 307 369 438
#     4  12  26  47  73 104 140 193 247 297 369 431
#     4  11  24  42  64  98 137 188 229 291 355 417
#     4  12  25  45  68 100 148 188 247 301 356 440
#     4  10  22  41  68 101 136 178 238 280 359 424
#
# _framework density 19.753086
#
# number of rings (size 3 to 8) (size 9 to 14) (size 15 to 20)
#    0.000    0.857    4.286    2.143    2.000    2.286 
#    0.000    6.429    0.000    0.000    0.000    0.000 
#    0.000    0.000    0.000    0.000    0.000    0.000 
#
# Total GULP energy -311840.215553 kJ/mol
# GULP energy per Si atom -5568.575278 kJ/mol
# Density = 1.970813 g / cm^3
# Si number density = 19.753086 Si / 1000 Ang^3
#
#
#
# Elastic Constant Matrix: (Units=GPa)
#
#
# Indices 1 2 3 4 5 6 
#
# 1 162.7581 62.4758 48.3320 0.0000 0.0000 0.0000
# 2 62.4758 160.7600 42.8240 0.0000 0.0000 0.0000
# 3 48.3320 42.8240 71.9287 0.0000 0.0000 0.0000
# 4 0.0000 0.0000 0.0000 30.1524 0.0000 0.0000
# 5 0.0000 0.0000 0.0000 0.0000 45.6395 0.0000
# 6 0.0000 0.0000 0.0000 0.0000 0.0000 60.7997
#
#
#
# Elastic Compliance Matrix: (Units=1/GPa)
#
#
# Indices 1 2 3 4 5 6 
#
# 1 0.008204 -0.002044 -0.004296 0.000000 0.000000 0.000000
# 2 -0.002044 0.007902 -0.003331 0.000000 0.000000 0.000000
# 3 -0.004296 -0.003331 0.018773 0.000000 0.000000 0.000000
# 4 0.000000 0.000000 0.000000 0.033165 0.000000 0.000000
# 5 0.000000 0.000000 0.000000 0.000000 0.021911 0.000000
# 6 0.000000 0.000000 0.000000 0.000000 0.000000 0.016447
#
#
# Mechanical properties :
#
#
# Convention : Reuss Voigt Hill
#
# Bulk Modulus (GPa) = 64.36345 78.07893 71.22119
# Shear Modulus (GPa) = 38.19017 43.43932 40.81474
#
# Velocity S-wave (km/s) = 4.40179 4.69456 4.55053
# Velocity P-wave (km/s) = 7.64781 8.30653 7.98397
#
# Compressibility (1/GPa) = 0.01553677
#
# Stress axis : x y z
#
# Youngs Moduli (GPa) = 121.88534 126.54662 53.26918
#
# Poissons Ratio (x) = 0.25867 0.22884
# Poissons Ratio (y) = 0.24915 0.17745
# Poissons Ratio (z) = 0.52361 0.42155
#
# Static dielectric constant tensor:
#      x y z
#    x 1.740930 0.000000 0.000000 
#    y 0.000000 1.714190 0.000000 
#    z 0.000000 0.000000 1.734520 
# 
# From -- ./inp_files/20602.got.cif
#   From: 2010.05.17/outbox.ucp.g08.bks.cvg/sg54_11_cif.got.tgz:20602.got - 2010.06.11 16:34:40.
