data_PCOD9424232
_publ_section_title
;
Structure prediction by ZEFSAII (Michael W. Deem and Ramdas Pophale) SiO2 
 PCOD9424232
Probable space group: P C C A
;
_chemical_formula_sum "Si O2"
_cell_formula_units_Z 48
_cell_length_a 11.129951
_cell_length_b 8.553718
_cell_length_c 22.713172
_cell_angle_alpha 90.000000
_cell_angle_beta 90.000000
_cell_angle_gamma 90.000000
_cell_volume 2162.349899
_symmetry_space_group_name_H-M "P C C A"
_symmetry_group_IT_number 54
_symmetry_cell_setting 'orthorhombic'
loop_
_space_group_symop_operation_xyz
x,y,z
1/2-x,-y,z
1/2+x,-y,1/2-z
-x,y,1/2-z
-x,-y,-z
1/2+x,y,-z
1/2-x,y,1/2+z
x,-y,1/2+z
loop_
_atom_site_type_symbol
_atom_site_label
_atom_site_fract_x
_atom_site_fract_y
_atom_site_fract_z
Si Si1 0.903714 0.672779 0.118156
Si Si2 0.091928 0.160646 0.117143
Si Si3 0.919812 0.869365 0.302345
Si Si4 0.625826 0.094833 0.010763
Si Si5 0.126199 0.680607 0.853827
Si Si6 0.806561 0.329168 0.274832
O O1 0.912724 0.484733 0.117508
O O2 0.767945 0.700143 0.139408
O O3 0.000443 0.739673 0.164200
O O4 0.907643 0.771279 0.057940
O O5 0.150794 0.168389 0.053800
O O6 0.132197 0.293685 0.162834
O O7 0.948397 0.184276 0.114721
O O8 0.113338 0.997241 0.149385
O O9 0.802499 0.794332 0.273865
O O10 0.000000 0.940528 0.250000
O O11 0.750000 0.000000 0.026023
O O12 0.500000 0.000000 0.000000
O O13 0.112636 0.683616 0.783261
O O14 0.750000 0.500000 0.273680
#
# Coordination Sequence:
#
# PCOD9424232 Si02
#       6
#     8   8   8   8   8   8
#     4  11  24  44  74  98 139 198 243 292 370 439
#     4  12  27  42  69 105 142 186 237 303 371 435
#     4  12  22  40  67 102 135 182 237 298 367 437
#     4  12  26  50  75 105 151 192 250 314 365 443
#     4  11  23  47  67 103 140 186 244 297 366 453
#     4  12  23  43  67  99 147 184 229 307 369 436
#
# _framework density 22.198072
#
# number of rings (size 3 to 8) (size 9 to 14) (size 15 to 20)
#    0.000    0.333    5.000    5.000    0.000    0.667 
#    3.000    0.000    0.000    0.000    0.000    0.000 
#    0.000    0.000    0.000    0.000    0.000    0.000 
#
# Total GULP energy -268363.714080 kJ/mol
# GULP energy per Si atom -5590.910710 kJ/mol
# Density = 2.214755 g / cm^3
# Si number density = 22.198072 Si / 1000 Ang^3
#
#
#
# Elastic Constant Matrix: (Units=GPa)
#
#
# Indices 1 2 3 4 5 6 
#
# 1 87.0953 33.3523 11.3732 0.0000 0.0000 0.0000
# 2 33.3523 79.1840 39.2342 0.0000 0.0000 0.0000
# 3 11.3732 39.2342 135.8323 0.0000 0.0000 0.0000
# 4 0.0000 0.0000 0.0000 22.7671 0.0000 0.0000
# 5 0.0000 0.0000 0.0000 0.0000 31.1158 0.0000
# 6 0.0000 0.0000 0.0000 0.0000 0.0000 31.5000
#
#
#
# Elastic Compliance Matrix: (Units=1/GPa)
#
#
# Indices 1 2 3 4 5 6 
#
# 1 0.013733 -0.006085 0.000608 0.000000 0.000000 0.000000
# 2 -0.006085 0.017435 -0.004526 0.000000 0.000000 0.000000
# 3 0.000608 -0.004526 0.008619 0.000000 0.000000 0.000000
# 4 0.000000 0.000000 0.000000 0.043923 0.000000 0.000000
# 5 0.000000 0.000000 0.000000 0.000000 0.032138 0.000000
# 6 0.000000 0.000000 0.000000 0.000000 0.000000 0.031746
#
#
# Mechanical properties :
#
#
# Convention : Reuss Voigt Hill
#
# Bulk Modulus (GPa) = 50.56083 52.22566 51.39324
# Shear Modulus (GPa) = 28.70371 31.62003 30.16187
#
# Velocity S-wave (km/s) = 3.59983 3.77828 3.69014
# Velocity P-wave (km/s) = 6.33285 6.52779 6.43106
#
# Compressibility (1/GPa) = 0.01977816
#
# Stress axis : x y z
#
# Youngs Moduli (GPa) = 72.81920 57.35681 116.02910
#
# Poissons Ratio (x) = 0.34904 -0.07053
# Poissons Ratio (y) = 0.44313 0.52519
# Poissons Ratio (z) = -0.04427 0.25962
#
# Static dielectric constant tensor:
#      x y z
#    x 1.852950 0.000000 0.000000 
#    y 0.000000 1.801210 0.000000 
#    z 0.000000 0.000000 1.833510 
# 
# From -- ./inp_files/24041.got.cif
#   From: 2010.05.17/outbox.cif.g08.bks.cpg/sg54_13_cif.got.tgz:24041.got - 2010.06.03 13:09:01.
