data_PCOD9424132
_publ_section_title
;
Structure prediction by ZEFSAII (Michael W. Deem and Ramdas Pophale) SiO2 
 PCOD9424132
Probable space group: P C C A
;
_chemical_formula_sum "Si O2"
_cell_formula_units_Z 48
_cell_length_a 8.666167
_cell_length_b 16.422337
_cell_length_c 14.999071
_cell_angle_alpha 90.000000
_cell_angle_beta 90.000000
_cell_angle_gamma 90.000000
_cell_volume 2134.648510
_symmetry_space_group_name_H-M "P C C A"
_symmetry_group_IT_number 54
_symmetry_cell_setting 'orthorhombic'
loop_
_space_group_symop_operation_xyz
x,y,z
1/2-x,-y,z
1/2+x,-y,1/2-z
-x,y,1/2-z
-x,-y,-z
1/2+x,y,-z
1/2-x,y,1/2+z
x,-y,1/2+z
loop_
_atom_site_type_symbol
_atom_site_label
_atom_site_fract_x
_atom_site_fract_y
_atom_site_fract_z
Si Si1 0.879684 0.058506 0.451775
Si Si2 0.781246 0.705217 0.443783
Si Si3 0.183563 0.755680 0.737217
Si Si4 0.324514 0.582170 0.781943
Si Si5 0.826690 0.840091 0.589376
Si Si6 0.056163 0.588502 0.469161
O O1 0.785485 0.104151 0.529959
O O2 0.001758 0.119900 0.403739
O O3 0.750000 0.000000 0.404465
O O4 0.000000 0.000000 0.500000
O O5 0.750404 0.766572 0.362133
O O6 0.824997 0.756999 0.531321
O O7 0.634290 0.646518 0.457498
O O8 0.918685 0.642320 0.429015
O O9 0.238284 0.664097 0.756902
O O10 0.239557 0.817924 0.813405
O O11 0.000000 0.756988 0.750000
O O12 0.250000 0.500000 0.744687
O O13 0.500000 0.584225 0.750000
O O14 0.323505 0.578848 0.889171
O O15 0.000000 0.500000 0.500000
#
# Coordination Sequence:
#
# PCOD9424132 Si02
#       6
#     8   8   8   8   8   8
#     4   9  20  41  75 107 135 178 217 264 336 420
#     4  12  25  43  67  98 136 183 237 294 354 410
#     4  12  26  43  66 100 141 184 236 290 354 411
#     4  12  26  44  63  91 134 184 243 302 353 412
#     4  11  22  43  71 103 140 175 224 279 345 420
#     4  12  26  43  64  94 132 188 248 304 357 410
#
# _framework density 22.486135999999998
#
# number of rings (size 3 to 8) (size 9 to 14) (size 15 to 20)
#    0.000    0.667    3.333    5.000    4.667    0.000 
#    0.000    0.000    0.000   38.000    0.000    0.000 
#    0.000    0.000    0.000    0.000    0.000    0.000 
#
# Total GULP energy -268105.213145 kJ/mol
# GULP energy per Si atom -5585.525274 kJ/mol
# Density = 2.243496 g / cm^3
# Si number density = 22.486136 Si / 1000 Ang^3
#
#
#
# Elastic Constant Matrix: (Units=GPa)
#
#
# Indices 1 2 3 4 5 6 
#
# 1 89.2388 36.7824 10.7991 0.0000 0.0000 0.0000
# 2 36.7824 98.5410 12.4941 0.0000 0.0000 0.0000
# 3 10.7991 12.4941 89.3562 0.0000 0.0000 0.0000
# 4 0.0000 0.0000 0.0000 16.7238 0.0000 0.0000
# 5 0.0000 0.0000 0.0000 0.0000 22.2077 0.0000
# 6 0.0000 0.0000 0.0000 0.0000 0.0000 57.3765
#
#
#
# Elastic Compliance Matrix: (Units=1/GPa)
#
#
# Indices 1 2 3 4 5 6 
#
# 1 0.013319 -0.004854 -0.000931 0.000000 0.000000 0.000000
# 2 -0.004854 0.012100 -0.001105 0.000000 0.000000 0.000000
# 3 -0.000931 -0.001105 0.011458 0.000000 0.000000 0.000000
# 4 0.000000 0.000000 0.000000 0.059795 0.000000 0.000000
# 5 0.000000 0.000000 0.000000 0.000000 0.045029 0.000000
# 6 0.000000 0.000000 0.000000 0.000000 0.000000 0.017429
#
#
# Mechanical properties :
#
#
# Convention : Reuss Voigt Hill
#
# Bulk Modulus (GPa) = 43.29479 44.14302 43.71890
# Shear Modulus (GPa) = 27.68406 33.73229 30.70818
#
# Velocity S-wave (km/s) = 3.51260 3.87736 3.69948
# Velocity P-wave (km/s) = 5.97887 6.30231 6.14272
#
# Compressibility (1/GPa) = 0.02309747
#
# Stress axis : x y z
#
# Youngs Moduli (GPa) = 75.08016 82.64535 87.27349
#
# Poissons Ratio (x) = 0.40113 0.08125
# Poissons Ratio (y) = 0.36441 0.09646
# Poissons Ratio (z) = 0.06990 0.09135
#
# Static dielectric constant tensor:
#      x y z
#    x 1.863510 0.000000 0.000000 
#    y 0.000000 1.935910 0.000000 
#    z 0.000000 0.000000 1.898480 
# 
# From -- ./inp_files/11733.got.cif
#   From: 2010.05.17/outbox.cif.g08.bks.cpg/sg54_6_cif.got.tgz:11733.got - 2010.06.03 13:09:01.
