data_PCOD9424670
_publ_section_title
;
Structure prediction by ZEFSAII (Michael W. Deem and Ramdas Pophale) SiO2 
 PCOD9424670
Probable space group: P C C A
;
_chemical_formula_sum "Si O2"
_cell_formula_units_Z 60
_cell_length_a 24.000000
_cell_length_b 9.000000
_cell_length_c 15.000000
_cell_angle_alpha 90.000000
_cell_angle_beta 90.000000
_cell_angle_gamma 90.000000
_cell_volume 3240.000000
_symmetry_space_group_name_H-M "P C C A"
_symmetry_group_IT_number 54
_symmetry_cell_setting 'orthorhombic'
loop_
_space_group_symop_operation_xyz
x,y,z
1/2-x,-y,z
1/2+x,-y,1/2-z
-x,y,1/2-z
-x,-y,-z
1/2+x,y,-z
1/2-x,y,1/2+z
x,-y,1/2+z
loop_
_atom_site_type_symbol
_atom_site_label
_atom_site_fract_x
_atom_site_fract_y
_atom_site_fract_z
Si Si1 0.250000 0.500000 0.175724
Si Si2 0.472874 0.690544 0.656344
Si Si3 0.162818 0.949197 0.523244
Si Si4 0.664741 0.754239 0.301833
Si Si5 0.186552 0.966691 0.311770
Si Si6 0.461479 0.658622 0.169541
Si Si7 0.964819 0.147498 0.500607
Si Si8 0.659702 0.240229 0.353797
O O1 0.210143 0.373788 0.220321
O O2 0.201324 0.615170 0.134253
O O3 0.500000 0.739246 0.750000
O O4 0.474408 0.512943 0.653037
O O5 0.514344 0.759584 0.584366
O O6 0.407266 0.729591 0.642470
O O7 0.181536 0.833413 0.602679
O O8 0.098815 0.903775 0.506973
O O9 0.184199 0.945075 0.419766
O O10 0.170699 0.110530 0.571476
O O11 0.657737 0.883526 0.227319
O O12 0.604161 0.680458 0.312674
O O13 0.250000 0.000000 0.288883
O O14 0.168984 0.831494 0.245718
O O15 0.500000 0.711059 0.250000
O O16 0.476910 0.753810 0.084662
O O17 0.000000 0.000000 0.500000
#
# Coordination Sequence:
#
# PCOD9424670 Si02
#       8
#     4   8   8   8   8   8   8   8
#     4  12  22  42  66  86 128 162 208 252 306 372
#     4  11  22  40  64  89 124 166 201 252 314 368
#     4  10  24  42  63  91 123 162 209 251 313 368
#     4  10  23  42  64  88 123 164 201 256 309 364
#     4  11  23  40  62  87 118 160 206 255 299 361
#     4  10  23  40  63  89 125 163 203 247 312 371
#     4  11  22  39  60  94 122 157 202 257 301 370
#     4  11  23  42  63  90 124 163 203 257 308 366
#
# _framework density 18.518519000000001
#
# number of rings (size 3 to 8) (size 9 to 14) (size 15 to 20)
#    0.000    1.333    4.000    1.200    3.733    0.533 
#    0.000    2.667    0.000    0.000    0.000    0.000 
#    0.000    0.000    0.000    0.000    0.000    0.000 
#
# Total GULP energy -334043.073235 kJ/mol
# GULP energy per Si atom -5567.384554 kJ/mol
# Density = 1.847637 g / cm^3
# Si number density = 18.518519 Si / 1000 Ang^3
#
#
#
# Elastic Constant Matrix: (Units=GPa)
#
#
# Indices 1 2 3 4 5 6 
#
# 1 66.8333 20.7669 24.5756 0.0000 0.0000 0.0000
# 2 20.7669 73.2562 26.6704 0.0000 0.0000 0.0000
# 3 24.5756 26.6704 99.9517 0.0000 0.0000 0.0000
# 4 0.0000 0.0000 0.0000 31.3184 0.0000 0.0000
# 5 0.0000 0.0000 0.0000 0.0000 23.1446 0.0000
# 6 0.0000 0.0000 0.0000 0.0000 0.0000 37.7597
#
#
#
# Elastic Compliance Matrix: (Units=1/GPa)
#
#
# Indices 1 2 3 4 5 6 
#
# 1 0.017320 -0.003721 -0.003266 0.000000 0.000000 0.000000
# 2 -0.003721 0.015919 -0.003333 0.000000 0.000000 0.000000
# 3 -0.003266 -0.003333 0.011697 0.000000 0.000000 0.000000
# 4 0.000000 0.000000 0.000000 0.031930 0.000000 0.000000
# 5 0.000000 0.000000 0.000000 0.000000 0.043207 0.000000
# 6 0.000000 0.000000 0.000000 0.000000 0.000000 0.026483
#
#
# Mechanical properties :
#
#
# Convention : Reuss Voigt Hill
#
# Bulk Modulus (GPa) = 41.15743 42.67410 41.91576
# Shear Modulus (GPa) = 28.52367 29.64645 29.08506
#
# Velocity S-wave (km/s) = 3.92890 4.00548 3.96737
# Velocity P-wave (km/s) = 6.54636 6.66977 6.60835
#
# Compressibility (1/GPa) = 0.02429695
#
# Stress axis : x y z
#
# Youngs Moduli (GPa) = 57.73809 62.81838 85.49152
#
# Poissons Ratio (x) = 0.23374 0.27918
# Poissons Ratio (y) = 0.21484 0.28493
# Poissons Ratio (z) = 0.18855 0.20936
#
# Static dielectric constant tensor:
#      x y z
#    x 1.649170 0.000000 0.000000 
#    y 0.000000 1.645780 0.000000 
#    z 0.000000 0.000000 2.288370 
# 
# From -- ./inp_files/14973.got.cif
#   From: 2010.05.17/outbox.ucp.g08.bks.cvg/sg54_8_cif.got.tgz:14973.got - 2010.06.11 16:34:40.
