data_PCOD9424403
_publ_section_title
;
Structure prediction by ZEFSAII (Michael W. Deem and Ramdas Pophale) SiO2 
 PCOD9424403
Probable space group: P C C A
;
_chemical_formula_sum "Si O2"
_cell_formula_units_Z 56
_cell_length_a 28.858559
_cell_length_b 6.252054
_cell_length_c 13.505114
_cell_angle_alpha 90.000000
_cell_angle_beta 90.000000
_cell_angle_gamma 90.000000
_cell_volume 2436.663829
_symmetry_space_group_name_H-M "P C C A"
_symmetry_group_IT_number 54
_symmetry_cell_setting 'orthorhombic'
loop_
_space_group_symop_operation_xyz
x,y,z
1/2-x,-y,z
1/2+x,-y,1/2-z
-x,y,1/2-z
-x,-y,-z
1/2+x,y,-z
1/2-x,y,1/2+z
x,-y,1/2+z
loop_
_atom_site_type_symbol
_atom_site_label
_atom_site_fract_x
_atom_site_fract_y
_atom_site_fract_z
Si Si1 0.500000 0.875631 0.250000
Si Si2 0.105816 0.312247 0.523127
Si Si3 0.779694 0.694616 0.251155
Si Si4 0.562285 0.472412 0.659827
Si Si5 0.750000 0.000000 0.579317
Si Si6 0.360189 0.434939 0.695469
Si Si7 0.824662 0.983882 0.905781
Si Si8 0.009657 0.826382 0.086035
O O1 0.473293 0.721055 0.324005
O O2 0.472215 0.036940 0.179876
O O3 0.102772 0.387457 0.411378
O O4 0.138258 0.465865 0.585890
O O5 0.051683 0.320432 0.551466
O O6 0.127883 0.084657 0.549947
O O7 0.750000 0.500000 0.295132
O O8 0.827994 0.573459 0.231812
O O9 0.754208 0.801533 0.157480
O O10 0.794038 0.863455 0.334646
O O11 0.588188 0.478011 0.764790
O O12 0.534330 0.680530 0.620577
O O13 0.792987 0.039478 0.504201
O O14 0.340619 0.201705 0.670718
O O15 0.000000 0.000000 0.000000
#
# Coordination Sequence:
#
# PCOD9424403 Si02
#       8
#     4   8   8   8   4   8   8   8
#     4  12  24  44  72  96 148 196 248 314 376 444
#     4  11  26  44  71 105 147 191 251 310 373 456
#     4  11  26  47  73 106 146 189 238 309 373 452
#     4  12  27  43  73 108 144 201 254 309 391 451
#     4  12  26  44  80 106 144 190 256 296 388 460
#     4  11  26  46  72 103 154 185 245 308 379 451
#     4  11  27  49  74 112 150 197 245 315 380 465
#     4  12  26  46  70 107 148 198 253 315 379 457
#
# _framework density 22.982241999999999
#
# number of rings (size 3 to 8) (size 9 to 14) (size 15 to 20)
#    0.000    0.571    1.429    5.571   10.000    2.857 
#    0.000    0.000    0.000    0.000    0.000    0.000 
#    0.000    0.000    0.000    0.000    0.000    0.000 
#
# Total GULP energy -312064.769672 kJ/mol
# GULP energy per Si atom -5572.585173 kJ/mol
# Density = 2.292993 g / cm^3
# Si number density = 22.982242 Si / 1000 Ang^3
#
#
#
# Elastic Constant Matrix: (Units=GPa)
#
#
# Indices 1 2 3 4 5 6 
#
# 1 70.3893 25.0793 16.8845 0.0000 0.0000 0.0000
# 2 25.0793 107.5091 41.6727 0.0000 0.0000 0.0000
# 3 16.8845 41.6727 106.3080 0.0000 0.0000 0.0000
# 4 0.0000 0.0000 0.0000 29.7464 0.0000 0.0000
# 5 0.0000 0.0000 0.0000 0.0000 47.7270 0.0000
# 6 0.0000 0.0000 0.0000 0.0000 0.0000 43.1923
#
#
#
# Elastic Compliance Matrix: (Units=1/GPa)
#
#
# Indices 1 2 3 4 5 6 
#
# 1 0.015632 -0.003165 -0.001242 0.000000 0.000000 0.000000
# 2 -0.003165 0.011609 -0.004048 0.000000 0.000000 0.000000
# 3 -0.001242 -0.004048 0.011191 0.000000 0.000000 0.000000
# 4 0.000000 0.000000 0.000000 0.033618 0.000000 0.000000
# 5 0.000000 0.000000 0.000000 0.000000 0.020953 0.000000
# 6 0.000000 0.000000 0.000000 0.000000 0.000000 0.023152
#
#
# Mechanical properties :
#
#
# Convention : Reuss Voigt Hill
#
# Bulk Modulus (GPa) = 46.46511 50.16438 48.31474
# Shear Modulus (GPa) = 35.65345 37.50444 36.57895
#
# Velocity S-wave (km/s) = 3.94299 4.04405 3.99384
# Velocity P-wave (km/s) = 6.40244 6.60913 6.50661
#
# Compressibility (1/GPa) = 0.02152153
#
# Stress axis : x y z
#
# Youngs Moduli (GPa) = 63.96978 86.14010 89.35971
#
# Poissons Ratio (x) = 0.27265 0.11099
# Poissons Ratio (y) = 0.20248 0.36173
# Poissons Ratio (z) = 0.07946 0.34870
#
# Static dielectric constant tensor:
#      x y z
#    x 1.923930 0.000000 0.000000 
#    y 0.000000 1.898140 0.000000 
#    z 0.000000 0.000000 1.910430 
# 
# From -- ./inp_files/15383.got.cif
#   From: 2010.05.17/outbox.cif.g08.bks.cpg/sg54_8_cif.got.tgz:15383.got - 2010.06.03 13:09:01.
