data_PCOD9424586
_publ_section_title
;
Structure prediction by ZEFSAII (Michael W. Deem and Ramdas Pophale) SiO2 
 PCOD9424586
Probable space group: P C C A
;
_chemical_formula_sum "Si O2"
_cell_formula_units_Z 20
_cell_length_a 11.563071
_cell_length_b 4.849017
_cell_length_c 14.403776
_cell_angle_alpha 90.000000
_cell_angle_beta 90.000000
_cell_angle_gamma 90.000000
_cell_volume 807.612920
_symmetry_space_group_name_H-M "P C C A"
_symmetry_group_IT_number 54
_symmetry_cell_setting 'orthorhombic'
loop_
_space_group_symop_operation_xyz
x,y,z
1/2-x,-y,z
1/2+x,-y,1/2-z
-x,y,1/2-z
-x,-y,-z
1/2+x,y,-z
1/2-x,y,1/2+z
x,-y,1/2+z
loop_
_atom_site_type_symbol
_atom_site_label
_atom_site_fract_x
_atom_site_fract_y
_atom_site_fract_z
Si Si1 0.511541 0.983489 0.110180
Si Si2 0.250000 0.000000 0.296581
Si Si3 0.361118 0.526317 0.663713
O O1 0.640764 0.916121 0.141263
O O2 0.423074 0.771028 0.159487
O O3 0.470768 0.284686 0.141038
O O4 0.500000 0.000000 0.000000
O O5 0.294181 0.264897 0.237037
O O6 0.250000 0.500000 0.594154
#
# Coordination Sequence:
#
# PCOD9424586 Si02
#       3
#     8   4   8
#     4  12  30  52  79 119 163 209 273 339 411 477
#     4  12  30  46  90 112 162 214 278 330 412 490
#     4  12  27  50  79 112 159 212 275 324 401 492
#
# _framework density 24.764337999999999
#
# number of rings (size 3 to 8) (size 9 to 14) (size 15 to 20)
#    0.000    0.000    4.000    2.400   16.800    0.000 
#    0.000    0.000    0.000    0.000    0.000    0.000 
#    0.000    0.000    0.000    0.000    0.000    0.000 
#
# Total GULP energy -111416.161529 kJ/mol
# GULP energy per Si atom -5570.808076 kJ/mol
# Density = 2.470797 g / cm^3
# Si number density = 24.764338 Si / 1000 Ang^3
#
#
#
# Elastic Constant Matrix: (Units=GPa)
#
#
# Indices 1 2 3 4 5 6 
#
# 1 202.9104 6.4938 42.3422 0.0000 0.0000 0.0000
# 2 6.4938 162.9187 22.0518 0.0000 0.0000 0.0000
# 3 42.3422 22.0518 133.2473 0.0000 0.0000 0.0000
# 4 0.0000 0.0000 0.0000 -9.9305 0.0000 0.0000
# 5 0.0000 0.0000 0.0000 0.0000 10.0088 0.0000
# 6 0.0000 0.0000 0.0000 0.0000 0.0000 20.9504
#
#
#
# Elastic Compliance Matrix: (Units=1/GPa)
#
#
# Indices 1 2 3 4 5 6 
#
# 1 0.005278 0.000017 -0.001680 0.000000 0.000000 0.000000
# 2 0.000017 0.006279 -0.001045 0.000000 0.000000 0.000000
# 3 -0.001680 -0.001045 0.008212 0.000000 0.000000 0.000000
# 4 0.000000 0.000000 0.000000 -0.100700 0.000000 0.000000
# 5 0.000000 0.000000 0.000000 0.000000 0.099912 0.000000
# 6 0.000000 0.000000 0.000000 0.000000 0.000000 0.047732
#
#
# Mechanical properties :
#
#
# Convention : Reuss Voigt Hill
#
# Bulk Modulus (GPa) = 69.66968 71.20579 70.43774
# Shear Modulus (GPa) = 65.00939 32.75165 48.88052
#
# Velocity S-wave (km/s) = 5.12915 3.64061 4.44760
# Velocity P-wave (km/s) = 7.95435 6.81820 7.40809
#
# Compressibility (1/GPa) = 0.01435345
#
# Stress axis : x y z
#
# Youngs Moduli (GPa) = 189.45355 159.26787 121.77890
#
# Poissons Ratio (x) = -0.00271 0.20460
# Poissons Ratio (y) = -0.00322 0.12720
# Poissons Ratio (z) = 0.31831 0.16636
#
# Static dielectric constant tensor:
#      x y z
#    x 2.266770 0.000000 0.000000 
#    y 0.000000 2.055250 0.000000 
#    z 0.000000 0.000000 2.078730 
# 
# From -- ./inp_files/11969.got.cif
#   From: 2010.05.17/outbox.cif.g08.bks.cpg/sg54_6_cif.got.tgz:11969.got - 2010.06.03 13:09:01.
