data_PCOD9424336
_publ_section_title
;
Structure prediction by ZEFSAII (Michael W. Deem and Ramdas Pophale) SiO2 
 PCOD9424336
Probable space group: P C C A
;
_chemical_formula_sum "Si O2"
_cell_formula_units_Z 40
_cell_length_a 10.070016
_cell_length_b 11.796272
_cell_length_c 16.313005
_cell_angle_alpha 90.000000
_cell_angle_beta 90.000000
_cell_angle_gamma 90.000000
_cell_volume 1937.799805
_symmetry_space_group_name_H-M "P C C A"
_symmetry_group_IT_number 54
_symmetry_cell_setting 'orthorhombic'
loop_
_space_group_symop_operation_xyz
x,y,z
1/2-x,-y,z
1/2+x,-y,1/2-z
-x,y,1/2-z
-x,-y,-z
1/2+x,y,-z
1/2-x,y,1/2+z
x,-y,1/2+z
loop_
_atom_site_type_symbol
_atom_site_label
_atom_site_fract_x
_atom_site_fract_y
_atom_site_fract_z
Si Si1 0.189073 0.125329 0.178613
Si Si2 0.880565 0.472685 0.192834
Si Si3 0.081423 0.606473 0.466511
Si Si4 0.611052 0.208504 0.648126
Si Si5 0.319569 0.745319 0.528982
O O1 0.193980 0.170840 0.272131
O O2 0.272860 0.189869 0.109392
O O3 0.033216 0.147062 0.153981
O O4 0.250000 0.000000 0.179119
O O5 0.750000 0.500000 0.244746
O O6 0.869523 0.564204 0.120969
O O7 0.904353 0.345289 0.159357
O O8 0.000000 0.500784 0.250000
O O9 0.209592 0.646314 0.516715
O O10 0.000000 0.500000 0.500000
O O11 0.970419 0.703298 0.461395
O O12 0.678029 0.190279 0.559373
#
# Coordination Sequence:
#
# PCOD9424336 Si02
#       5
#     8   8   8   8   8
#     4  11  26  49  73  97 134 192 244 304 374 401
#     4  12  24  40  67 104 148 190 229 280 366 438
#     4  12  23  39  66 106 144 187 227 276 360 444
#     4  11  24  49  69 102 148 181 238 311 349 435
#     4  12  24  45  72 104 146 185 239 300 357 439
#
# _framework density 20.641967000000001
#
# number of rings (size 3 to 8) (size 9 to 14) (size 15 to 20)
#    0.000    0.400    8.000    0.600    2.800    1.600 
#    7.200    0.000    0.000    0.000    0.000    0.000 
#    0.000    0.000    0.000    0.000    0.000    0.000 
#
# Total GULP energy -223246.111282 kJ/mol
# GULP energy per Si atom -5581.152782 kJ/mol
# Density = 2.059499 g / cm^3
# Si number density = 20.641967 Si / 1000 Ang^3
#
#
#
# Elastic Constant Matrix: (Units=GPa)
#
#
# Indices 1 2 3 4 5 6 
#
# 1 113.5108 20.4353 31.9091 0.0000 0.0000 0.0000
# 2 20.4353 69.3184 46.0599 0.0000 0.0000 0.0000
# 3 31.9091 46.0599 108.4041 0.0000 0.0000 0.0000
# 4 0.0000 0.0000 0.0000 16.1542 0.0000 0.0000
# 5 0.0000 0.0000 0.0000 0.0000 38.8270 0.0000
# 6 0.0000 0.0000 0.0000 0.0000 0.0000 35.1123
#
#
#
# Elastic Compliance Matrix: (Units=1/GPa)
#
#
# Indices 1 2 3 4 5 6 
#
# 1 0.009693 -0.001340 -0.002284 0.000000 0.000000 0.000000
# 2 -0.001340 0.020287 -0.008225 0.000000 0.000000 0.000000
# 3 -0.002284 -0.008225 0.013392 0.000000 0.000000 0.000000
# 4 0.000000 0.000000 0.000000 0.061903 0.000000 0.000000
# 5 0.000000 0.000000 0.000000 0.000000 0.025755 0.000000
# 6 0.000000 0.000000 0.000000 0.000000 0.000000 0.028480
#
#
# Mechanical properties :
#
#
# Convention : Reuss Voigt Hill
#
# Bulk Modulus (GPa) = 50.82998 54.22686 52.52842
# Shear Modulus (GPa) = 26.34830 30.87398 28.61114
#
# Velocity S-wave (km/s) = 3.57661 3.87161 3.72703
# Velocity P-wave (km/s) = 6.46020 6.80537 6.63503
#
# Compressibility (1/GPa) = 0.01967343
#
# Stress axis : x y z
#
# Youngs Moduli (GPa) = 103.16747 49.29370 74.67274
#
# Poissons Ratio (x) = 0.06605 0.17054
# Poissons Ratio (y) = 0.13825 0.61419
# Poissons Ratio (z) = 0.23561 0.40545
#
# Static dielectric constant tensor:
#      x y z
#    x 1.817330 0.000000 0.000000 
#    y 0.000000 1.744190 0.000000 
#    z 0.000000 0.000000 1.788160 
# 
# From -- ./inp_files/16303.got.cif
#   From: 2010.05.17/outbox.cif.g08.bks.cpg/sg54_9_cif.got.tgz:16303.got - 2010.06.03 13:09:01.
