data_PCOD9424777
_publ_section_title
;
Structure prediction by ZEFSAII (Michael W. Deem and Ramdas Pophale) SiO2 
 PCOD9424777
Probable space group: P B A M
;
_chemical_formula_sum "Si O2"
_cell_formula_units_Z 56
_cell_length_a 22.878850
_cell_length_b 18.390969
_cell_length_c 8.690110
_cell_angle_alpha 90.000000
_cell_angle_beta 90.000000
_cell_angle_gamma 90.000000
_cell_volume 3656.487365
_symmetry_space_group_name_H-M "P B A M"
_symmetry_group_IT_number 55
_symmetry_cell_setting 'orthorhombic'
loop_
_space_group_symop_operation_xyz
x,y,z
-x,-y,z
1/2+x,1/2-y,-z
1/2-x,1/2+y,-z
-x,-y,-z
x,y,-z
1/2-x,1/2+y,z
1/2+x,1/2-y,z
loop_
_atom_site_type_symbol
_atom_site_label
_atom_site_fract_x
_atom_site_fract_y
_atom_site_fract_z
Si Si1 0.186293 0.264263 0.321905
Si Si2 0.932826 0.008330 0.814624
Si Si3 0.823129 0.283752 0.321683
Si Si4 0.659129 0.384702 0.183913
Si Si5 0.278178 0.911678 0.183234
Si Si6 0.783908 0.434254 0.314272
Si Si7 0.150891 0.870926 0.314272
O O1 0.169617 0.271362 0.500000
O O2 0.254742 0.239927 0.318365
O O3 0.152813 0.197789 0.242466
O O4 0.185178 0.341790 0.238748
O O5 0.900544 0.076713 0.739083
O O6 0.894968 0.936656 0.776765
O O7 0.930880 0.017207 0.000000
O O8 0.000000 0.000000 0.767464
O O9 0.841006 0.290141 0.500000
O O10 0.822543 0.365403 0.257010
O O11 0.855609 0.212818 0.257353
O O12 0.717649 0.417800 0.259853
O O13 0.667027 0.384772 0.000000
O O14 0.212333 0.900727 0.248504
O O15 0.301290 0.987735 0.249153
O O16 0.275394 0.914099 0.000000
O O17 0.784573 0.434979 0.500000
O O18 0.155477 0.870160 0.500000
#
# Coordination Sequence:
#
# PCOD9424777 Si02
#       7
#     8   8   8   8   8   8   8
#     4   9  17  29  43  60  83 113 147 180 219 266
#     4  10  21  34  46  63  89 120 154 191 230 268
#     4   7  14  26  40  59  81 108 141 176 215 259
#     4  10  18  29  44  61  84 115 150 187 227 264
#     4  11  19  27  41  64  91 117 147 180 218 265
#     4  10  17  27  43  62  88 119 148 178 217 265
#     4  10  18  30  46  62  83 114 152 189 225 263
#
# _framework density 15.315246
#
# number of rings (size 3 to 8) (size 9 to 14) (size 15 to 20)
#    0.000    2.429    1.429    4.714    0.000    0.857 
#    0.000    2.143    0.000    0.000    0.000    0.000 
#    0.000    1.143    0.000   13.143    0.000    4.000 
#
# Total GULP energy -311904.546082 kJ/mol
# GULP energy per Si atom -5569.724037 kJ/mol
# Density = 1.528039 g / cm^3
# Si number density = 15.315246 Si / 1000 Ang^3
#
#
#
# Elastic Constant Matrix: (Units=GPa)
#
#
# Indices 1 2 3 4 5 6 
#
# 1 44.0173 41.6076 20.6710 0.0000 0.0000 0.0000
# 2 41.6076 172.3240 47.6858 0.0000 0.0000 0.0000
# 3 20.6710 47.6858 62.2165 0.0000 0.0000 0.0000
# 4 0.0000 0.0000 0.0000 24.7508 0.0000 0.0000
# 5 0.0000 0.0000 0.0000 0.0000 4.8397 0.0000
# 6 0.0000 0.0000 0.0000 0.0000 0.0000 12.4052
#
#
#
# Elastic Compliance Matrix: (Units=1/GPa)
#
#
# Indices 1 2 3 4 5 6 
#
# 1 0.030998 -0.005882 -0.005790 0.000000 0.000000 0.000000
# 2 -0.005882 0.008481 -0.004546 0.000000 0.000000 0.000000
# 3 -0.005790 -0.004546 0.021481 0.000000 0.000000 0.000000
# 4 0.000000 0.000000 0.000000 0.040403 0.000000 0.000000
# 5 0.000000 0.000000 0.000000 0.000000 0.206626 0.000000
# 6 0.000000 0.000000 0.000000 0.000000 0.000000 0.080611
#
#
# Mechanical properties :
#
#
# Convention : Reuss Voigt Hill
#
# Bulk Modulus (GPa) = 35.05980 55.38738 45.22359
# Shear Modulus (GPa) = 11.61318 19.63870 15.62594
#
# Velocity S-wave (km/s) = 2.75667 3.58480 3.19766
# Velocity P-wave (km/s) = 5.75101 7.30601 6.57464
#
# Compressibility (1/GPa) = 0.02852270
#
# Stress axis : x y z
#
# Youngs Moduli (GPa) = 32.26051 117.90685 46.55237
#
# Poissons Ratio (x) = 0.69353 0.26956
# Poissons Ratio (y) = 0.18976 0.21164
# Poissons Ratio (z) = 0.18680 0.53603
#
# Static dielectric constant tensor:
#      x y z
#    x 1.467900 0.000000 0.000000 
#    y 0.000000 1.560740 0.000000 
#    z 0.000000 0.000000 1.516920 
# 
# From -- ./inp_files/8106.got.cif
#   From: 2010.05.17/outbox.cif.g08.bks.cpg/sg55_5_cif.got.tgz:8106.got - 2010.06.03 13:27:54.
