data_PCOD9424192
_publ_section_title
;
Structure prediction by ZEFSAII (Michael W. Deem and Ramdas Pophale) SiO2 
 PCOD9424192
Probable space group: P C C A
;
_chemical_formula_sum "Si O2"
_cell_formula_units_Z 24
_cell_length_a 8.706825
_cell_length_b 4.797473
_cell_length_c 25.337645
_cell_angle_alpha 90.000000
_cell_angle_beta 90.000000
_cell_angle_gamma 90.000000
_cell_volume 1058.372634
_symmetry_space_group_name_H-M "P C C A"
_symmetry_group_IT_number 54
_symmetry_cell_setting 'orthorhombic'
loop_
_space_group_symop_operation_xyz
x,y,z
1/2-x,-y,z
1/2+x,-y,1/2-z
-x,y,1/2-z
-x,-y,-z
1/2+x,y,-z
1/2-x,y,1/2+z
x,-y,1/2+z
loop_
_atom_site_type_symbol
_atom_site_label
_atom_site_fract_x
_atom_site_fract_y
_atom_site_fract_z
Si Si1 0.644521 0.266846 0.715403
Si Si2 0.921404 0.440686 0.605033
Si Si3 0.929093 0.936297 0.943088
O O1 0.750000 0.500000 0.744188
O O2 0.500000 0.179016 0.750000
O O3 0.585363 0.433503 0.663806
O O4 0.750000 0.000000 0.702433
O O5 0.750000 0.500000 0.583378
O O6 0.974538 0.124101 0.598687
O O7 0.040554 0.617906 0.571248
O O8 0.750000 0.000000 0.941169
O O9 0.000000 0.000000 0.000000
#
# Coordination Sequence:
#
# PCOD9424192 Si02
#       3
#     8   8   8
#     4  11  24  43  67  97 132 175 218 270 331 392
#     4  11  23  43  65  92 130 171 215 268 326 388
#     4  12  25  42  65  95 128 170 217 270 327 390
#
# _framework density 22.676324000000001
#
# number of rings (size 3 to 8) (size 9 to 14) (size 15 to 20)
#    0.000    0.667    0.000   10.000    0.000    4.000 
#    0.000    0.000    0.000    0.000    0.000    0.000 
#    0.000    0.000    0.000    0.000    0.000    0.000 
#
# Total GULP energy -134334.855024 kJ/mol
# GULP energy per Si atom -5597.285626 kJ/mol
# Density = 2.262471 g / cm^3
# Si number density = 22.676324 Si / 1000 Ang^3
#
#
#
# Elastic Constant Matrix: (Units=GPa)
#
#
# Indices 1 2 3 4 5 6 
#
# 1 144.7475 4.8552 29.1463 0.0000 0.0000 0.0000
# 2 4.8552 86.6615 9.0341 0.0000 0.0000 0.0000
# 3 29.1463 9.0341 73.4651 0.0000 0.0000 0.0000
# 4 0.0000 0.0000 0.0000 23.6343 0.0000 0.0000
# 5 0.0000 0.0000 0.0000 0.0000 31.8718 0.0000
# 6 0.0000 0.0000 0.0000 0.0000 0.0000 56.3079
#
#
#
# Elastic Compliance Matrix: (Units=1/GPa)
#
#
# Indices 1 2 3 4 5 6 
#
# 1 0.007509 -0.000112 -0.002966 0.000000 0.000000 0.000000
# 2 -0.000112 0.011691 -0.001393 0.000000 0.000000 0.000000
# 3 -0.002966 -0.001393 0.014960 0.000000 0.000000 0.000000
# 4 0.000000 0.000000 0.000000 0.042311 0.000000 0.000000
# 5 0.000000 0.000000 0.000000 0.000000 0.031376 0.000000
# 6 0.000000 0.000000 0.000000 0.000000 0.000000 0.017759
#
#
# Mechanical properties :
#
#
# Convention : Reuss Voigt Hill
#
# Bulk Modulus (GPa) = 39.65273 43.43838 41.54556
# Shear Modulus (GPa) = 34.97637 39.81872 37.39754
#
# Velocity S-wave (km/s) = 3.93162 4.19496 4.06543
# Velocity P-wave (km/s) = 6.17532 6.53154 6.35593
#
# Compressibility (1/GPa) = 0.02521894
#
# Stress axis : x y z
#
# Youngs Moduli (GPa) = 133.16527 85.53844 66.84586
#
# Poissons Ratio (x) = 0.00954 0.19824
# Poissons Ratio (y) = 0.01486 0.09314
# Poissons Ratio (z) = 0.39491 0.11919
#
# Static dielectric constant tensor:
#      x y z
#    x 1.837860 0.000000 0.000000 
#    y 0.000000 1.798120 0.000000 
#    z 0.000000 0.000000 1.842550 
# 
# From -- ./inp_files/23068.got.cif
#   From: 2010.05.17/outbox.cif.g08.bks.cpg/sg54_12_cif.got.tgz:23068.got - 2010.06.03 13:09:01.
