data_PCOD9424952
_publ_section_title
;
Structure prediction by ZEFSAII (Michael W. Deem and Ramdas Pophale) SiO2 
 PCOD9424952
Probable space group: P B A M
;
_chemical_formula_sum "Si O2"
_cell_formula_units_Z 52
_cell_length_a 14.279332
_cell_length_b 25.338770
_cell_length_c 8.228159
_cell_angle_alpha 90.000000
_cell_angle_beta 90.000000
_cell_angle_gamma 90.000000
_cell_volume 2977.118326
_symmetry_space_group_name_H-M "P B A M"
_symmetry_group_IT_number 55
_symmetry_cell_setting 'orthorhombic'
loop_
_space_group_symop_operation_xyz
x,y,z
-x,-y,z
1/2+x,1/2-y,-z
1/2-x,1/2+y,-z
-x,-y,-z
x,y,-z
1/2-x,1/2+y,z
1/2+x,1/2-y,z
loop_
_atom_site_type_symbol
_atom_site_label
_atom_site_fract_x
_atom_site_fract_y
_atom_site_fract_z
Si Si1 0.814774 0.649546 0.817764
Si Si2 0.630192 0.045249 0.694911
Si Si3 0.718993 0.294115 0.500000
Si Si4 0.120691 0.786451 0.826028
Si Si5 0.411581 0.803047 0.500000
Si Si6 0.087240 0.571816 0.695207
Si Si7 0.703355 0.831700 0.821399
Si Si8 0.920433 0.239617 0.500000
O O1 0.805960 0.586999 0.788022
O O2 0.715874 0.679773 0.810778
O O3 0.876245 0.669651 0.665073
O O4 0.853714 0.659396 0.000000
O O5 0.644124 0.049548 0.500000
O O6 0.522805 0.063096 0.728523
O O7 0.636683 0.983760 0.738603
O O8 0.631448 0.255565 0.500000
O O9 0.728830 0.326955 0.334262
O O10 0.810202 0.254829 0.500000
O O11 0.149755 0.724589 0.827279
O O12 0.060771 0.792144 0.664156
O O13 0.076246 0.798829 0.000000
O O14 0.522207 0.794092 0.500000
O O15 0.096135 0.578971 0.500000
O O16 0.131758 0.620989 0.786334
O O17 0.747338 0.838410 0.000000
#
# Coordination Sequence:
#
# PCOD9424952 Si02
#       8
#     8   8   4   8   4   8   8   4
#     4  11  21  33  51  72 101 137 174 212 253 298
#     4   9  19  31  47  68 100 137 173 210 245 296
#     4  10  20  36  47  69 105 128 165 212 250 302
#     4   9  19  34  48  71  99 128 168 212 252 298
#     4  12  22  34  53  74 102 138 169 212 259 308
#     4   9  18  32  46  69 100 136 175 209 245 296
#     4  10  18  29  49  66  89 130 165 201 247 287
#     4  10  20  32  52  69  96 136 164 201 257 303
#
# _framework density 17.466553999999999
#
# number of rings (size 3 to 8) (size 9 to 14) (size 15 to 20)
#    0.000    2.154    4.615    0.923    4.308    1.846 
#    0.000    1.538    0.000    0.000    0.000    0.000 
#    0.000    2.462    0.000    4.769    0.000    0.154 
#
# Total GULP energy -289739.875007 kJ/mol
# GULP energy per Si atom -5571.920673 kJ/mol
# Density = 1.742680 g / cm^3
# Si number density = 17.466554 Si / 1000 Ang^3
#
#
#
# Elastic Constant Matrix: (Units=GPa)
#
#
# Indices 1 2 3 4 5 6 
#
# 1 13.5231 18.7466 7.7800 0.0000 0.0000 0.0000
# 2 18.7466 95.4890 18.6046 0.0000 0.0000 0.0000
# 3 7.7800 18.6046 136.0366 0.0000 0.0000 0.0000
# 4 0.0000 0.0000 0.0000 -8.2697 0.0000 0.0000
# 5 0.0000 0.0000 0.0000 0.0000 6.5912 0.0000
# 6 0.0000 0.0000 0.0000 0.0000 0.0000 20.9411
#
#
#
# Elastic Compliance Matrix: (Units=1/GPa)
#
#
# Indices 1 2 3 4 5 6 
#
# 1 0.102943 -0.019585 -0.003209 0.000000 0.000000 0.000000
# 2 -0.019585 0.014485 -0.000861 0.000000 0.000000 0.000000
# 3 -0.003209 -0.000861 0.007652 0.000000 0.000000 0.000000
# 4 0.000000 0.000000 0.000000 -0.120923 0.000000 0.000000
# 5 0.000000 0.000000 0.000000 0.000000 0.151717 0.000000
# 6 0.000000 0.000000 0.000000 0.000000 0.000000 0.047753
#
#
# Mechanical properties :
#
#
# Convention : Reuss Voigt Hill
#
# Bulk Modulus (GPa) = 12.85825 37.25679 25.05752
# Shear Modulus (GPa) = 18.05962 17.18035 17.61999
#
# Velocity S-wave (km/s) = 3.21900 3.13967 3.17958
# Velocity P-wave (km/s) = 4.60365 5.87537 5.27795
#
# Compressibility (1/GPa) = 0.07777108
#
# Stress axis : x y z
#
# Youngs Moduli (GPa) = 9.71409 69.03645 130.68089
#
# Poissons Ratio (x) = 1.35207 0.41935
# Poissons Ratio (y) = 0.19025 0.11251
# Poissons Ratio (z) = 0.03117 0.05944
#
# Static dielectric constant tensor:
#      x y z
#    x 1.563270 0.000000 0.000000 
#    y 0.000000 1.613150 0.000000 
#    z 0.000000 0.000000 1.693500 
# 
# From -- ./inp_files/5959.got.cif
#   From: 2010.05.17/outbox.cif.g08.bks.cpg/sg55_3_cif.got.tgz:5959.got - 2010.06.03 13:27:54.
