data_PCOD9424118
_publ_section_title
;
Structure prediction by ZEFSAII (Michael W. Deem and Ramdas Pophale) SiO2 
 PCOD9424118
Probable space group: P C C A
;
_chemical_formula_sum "Si O2"
_cell_formula_units_Z 60
_cell_length_a 12.097209
_cell_length_b 13.341201
_cell_length_c 18.902349
_cell_angle_alpha 90.000000
_cell_angle_beta 90.000000
_cell_angle_gamma 90.000000
_cell_volume 3050.674618
_symmetry_space_group_name_H-M "P C C A"
_symmetry_group_IT_number 54
_symmetry_cell_setting 'orthorhombic'
loop_
_space_group_symop_operation_xyz
x,y,z
1/2-x,-y,z
1/2+x,-y,1/2-z
-x,y,1/2-z
-x,-y,-z
1/2+x,y,-z
1/2-x,y,1/2+z
x,-y,1/2+z
loop_
_atom_site_type_symbol
_atom_site_label
_atom_site_fract_x
_atom_site_fract_y
_atom_site_fract_z
Si Si1 0.478027 0.583672 0.670263
Si Si2 0.414032 0.594432 0.063519
Si Si3 0.149021 0.923212 0.850810
Si Si4 0.000000 0.945356 0.250000
Si Si5 0.619696 0.744277 0.043784
Si Si6 0.767986 0.117465 0.786423
Si Si7 0.815112 0.403790 0.587153
Si Si8 0.295357 0.719528 0.610639
O O1 0.500000 0.550253 0.750000
O O2 0.448860 0.492271 0.617416
O O3 0.590751 0.631062 0.640259
O O4 0.379281 0.662121 0.662053
O O5 0.511402 0.676359 0.056707
O O6 0.301681 0.644114 0.090708
O O7 0.378133 0.560010 0.984697
O O8 0.115864 0.848894 0.913612
O O9 0.200066 0.860610 0.784742
O O10 0.250000 0.000000 0.870186
O O11 0.049238 0.985938 0.813973
O O12 0.898434 0.877656 0.273501
O O13 0.726847 0.681930 0.070193
O O14 0.639496 0.753796 0.959682
O O15 0.739094 0.187651 0.850505
O O16 0.750000 0.000000 0.801479
O O17 0.750000 0.500000 0.616035
#
# Coordination Sequence:
#
# PCOD9424118 Si02
#       8
#     8   8   8   4   8   8   8   8
#     4  12  26  41  64  95 127 163 211 260 312 370
#     4  11  23  44  63  88 128 168 207 256 312 377
#     4   9  21  39  62  93 124 163 214 260 314 380
#     4   8  18  40  64  84 126 166 198 260 314 366
#     4  11  23  40  67  93 122 171 210 256 319 375
#     4   9  21  40  62  90 123 165 205 252 319 368
#     4  11  22  42  67  85 125 168 209 253 311 377
#     4  11  25  41  64  95 131 161 208 263 318 373
#
# _framework density 19.667781000000002
#
# number of rings (size 3 to 8) (size 9 to 14) (size 15 to 20)
#    0.000    1.867    2.667    2.400    6.533    3.733 
#    0.000    0.667    0.000    0.000    0.000    0.000 
#    0.000    0.000    0.000    0.000    0.000    0.000 
#
# Total GULP energy -334939.987139 kJ/mol
# GULP energy per Si atom -5582.333119 kJ/mol
# Density = 1.962302 g / cm^3
# Si number density = 19.667781 Si / 1000 Ang^3
#
#
#
# Elastic Constant Matrix: (Units=GPa)
#
#
# Indices 1 2 3 4 5 6 
#
# 1 74.9153 -6.5570 14.9979 0.0000 0.0000 0.0000
# 2 -6.5570 49.0656 24.1601 0.0000 0.0000 0.0000
# 3 14.9979 24.1601 61.1188 0.0000 0.0000 0.0000
# 4 0.0000 0.0000 0.0000 -23.2439 0.0000 0.0000
# 5 0.0000 0.0000 0.0000 0.0000 7.7347 0.0000
# 6 0.0000 0.0000 0.0000 0.0000 0.0000 8.7205
#
#
#
# Elastic Compliance Matrix: (Units=1/GPa)
#
#
# Indices 1 2 3 4 5 6 
#
# 1 0.014861 0.004696 -0.005503 0.000000 0.000000 0.000000
# 2 0.004696 0.026790 -0.011742 0.000000 0.000000 0.000000
# 3 -0.005503 -0.011742 0.022354 0.000000 0.000000 0.000000
# 4 0.000000 0.000000 0.000000 -0.043022 0.000000 0.000000
# 5 0.000000 0.000000 0.000000 0.000000 0.129288 0.000000
# 6 0.000000 0.000000 0.000000 0.000000 0.000000 0.114673
#
#
# Mechanical properties :
#
#
# Convention : Reuss Voigt Hill
#
# Bulk Modulus (GPa) = 25.70313 27.81130 26.75722
# Shear Modulus (GPa) = 16.50101 8.80884 12.65492
#
# Velocity S-wave (km/s) = 2.89967 2.11862 2.53935
# Velocity P-wave (km/s) = 4.93029 4.48954 4.71507
#
# Compressibility (1/GPa) = 0.03890576
#
# Stress axis : x y z
#
# Youngs Moduli (GPa) = 67.28988 37.32677 44.73535
#
# Poissons Ratio (x) = -0.17527 0.24618
# Poissons Ratio (y) = -0.31597 0.52530
# Poissons Ratio (z) = 0.37029 0.43831
#
# Static dielectric constant tensor:
#      x y z
#    x 1.801740 0.000000 0.000000 
#    y 0.000000 1.676950 0.000000 
#    z 0.000000 0.000000 1.692890 
# 
# From -- ./inp_files/17431.got.cif
#   From: 2010.05.17/outbox.cif.g08.bks.cpg/sg54_9_cif.got.tgz:17431.got - 2010.06.03 13:09:01.
