data_PCOD9424885
_publ_section_title
;
Structure prediction by ZEFSAII (Michael W. Deem and Ramdas Pophale) SiO2 
 PCOD9424885
Probable space group: P B A M
;
_chemical_formula_sum "Si O2"
_cell_formula_units_Z 64
_cell_length_a 27.086840
_cell_length_b 19.039833
_cell_length_c 8.547524
_cell_angle_alpha 90.000000
_cell_angle_beta 90.000000
_cell_angle_gamma 90.000000
_cell_volume 4408.205237
_symmetry_space_group_name_H-M "P B A M"
_symmetry_group_IT_number 55
_symmetry_cell_setting 'orthorhombic'
loop_
_space_group_symop_operation_xyz
x,y,z
-x,-y,z
1/2+x,1/2-y,-z
1/2-x,1/2+y,-z
-x,-y,-z
x,y,-z
1/2-x,1/2+y,z
1/2+x,1/2-y,z
loop_
_atom_site_type_symbol
_atom_site_label
_atom_site_fract_x
_atom_site_fract_y
_atom_site_fract_z
Si Si1 0.854187 0.653719 0.814361
Si Si2 0.053043 0.424166 0.684933
Si Si3 0.260925 0.082200 0.186172
Si Si4 0.644308 0.832520 0.688807
Si Si5 0.944867 0.420875 0.814040
Si Si6 0.803998 0.198147 0.316328
Si Si7 0.711198 0.278822 0.813788
Si Si8 0.242175 0.426775 0.311933
O O1 0.903027 0.628078 0.728620
O O2 0.838065 0.734442 0.782930
O O3 0.807690 0.606103 0.760885
O O4 0.860936 0.645023 0.000000
O O5 0.045246 0.426420 0.500000
O O6 0.067069 0.502376 0.743118
O O7 0.001289 0.405494 0.766507
O O8 0.311104 0.118775 0.247847
O O9 0.217074 0.138587 0.216255
O O10 0.253101 0.007371 0.264770
O O11 0.265476 0.072709 0.000000
O O12 0.645990 0.833669 0.500000
O O13 0.593300 0.864551 0.747432
O O14 0.654923 0.752408 0.745463
O O15 0.940626 0.424886 0.000000
O O16 0.813940 0.189954 0.500000
O O17 0.753636 0.241826 0.287774
O O18 0.788482 0.121371 0.255418
O O19 0.722560 0.268422 0.000000
O O20 0.238581 0.420580 0.500000
#
# Coordination Sequence:
#
# PCOD9424885 Si02
#       8
#     8   8   8   8   8   8   8   8
#     4  10  18  30  45  61  81 110 142 174 208 245
#     4  11  21  33  46  62  83 109 139 174 208 243
#     4  10  18  28  41  61  85 112 142 173 205 243
#     4  10  18  30  45  61  81 110 142 174 208 245
#     4  11  21  33  46  62  83 109 139 174 208 243
#     4   8  16  28  42  58  80 107 138 171 205 241
#     4   8  16  28  42  58  80 107 138 171 205 241
#     4  10  18  28  41  61  85 112 142 173 205 243
#
# _framework density 14.518380000000001
#
# number of rings (size 3 to 8) (size 9 to 14) (size 15 to 20)
#    0.000    2.250    0.000    5.250    0.000    2.000 
#    0.000    0.000    0.000    0.000    0.000    0.000 
#    0.000    1.000    0.000   11.500    0.000    3.500 
#
# Total GULP energy -356526.043312 kJ/mol
# GULP energy per Si atom -5570.719427 kJ/mol
# Density = 1.448534 g / cm^3
# Si number density = 14.518380 Si / 1000 Ang^3
#
#
#
# Elastic Constant Matrix: (Units=GPa)
#
#
# Indices 1 2 3 4 5 6 
#
# 1 45.4901 24.9367 -4.8082 0.0000 0.0000 0.0000
# 2 24.9367 79.6788 1.6365 0.0000 0.0000 0.0000
# 3 -4.8082 1.6365 28.1739 0.0000 0.0000 0.0000
# 4 0.0000 0.0000 0.0000 14.6703 0.0000 0.0000
# 5 0.0000 0.0000 0.0000 0.0000 17.4377 0.0000
# 6 0.0000 0.0000 0.0000 0.0000 0.0000 26.1094
#
#
#
# Elastic Compliance Matrix: (Units=1/GPa)
#
#
# Indices 1 2 3 4 5 6 
#
# 1 0.027263 -0.008638 0.005154 0.000000 0.000000 0.000000
# 2 -0.008638 0.015302 -0.002363 0.000000 0.000000 0.000000
# 3 0.005154 -0.002363 0.036511 0.000000 0.000000 0.000000
# 4 0.000000 0.000000 0.000000 0.068165 0.000000 0.000000
# 5 0.000000 0.000000 0.000000 0.000000 0.057347 0.000000
# 6 0.000000 0.000000 0.000000 0.000000 0.000000 0.038300
#
#
# Mechanical properties :
#
#
# Convention : Reuss Voigt Hill
#
# Bulk Modulus (GPa) = 14.84066 21.87478 18.35772
# Shear Modulus (GPa) = 18.04775 20.41532 19.23153
#
# Velocity S-wave (km/s) = 3.52958 3.75396 3.64350
# Velocity P-wave (km/s) = 5.18216 5.82145 5.51108
#
# Compressibility (1/GPa) = 0.06738243
#
# Stress axis : x y z
#
# Youngs Moduli (GPa) = 36.67990 65.34931 27.38918
#
# Poissons Ratio (x) = 0.56450 -0.14118
# Poissons Ratio (y) = 0.31685 0.06472
# Poissons Ratio (z) = -0.18906 0.15442
#
# Static dielectric constant tensor:
#      x y z
#    x 1.463390 0.000000 0.000000 
#    y 0.000000 1.502790 0.000000 
#    z 0.000000 0.000000 1.495310 
# 
# From -- ./inp_files/10302.got.cif
#   From: 2010.05.17/outbox.cif.g08.bks.cpg/sg55_6_cif.got.tgz:10302.got - 2010.06.03 13:27:54.
