data_PCOD9424047
_publ_section_title
;
Structure prediction by ZEFSAII (Michael W. Deem and Ramdas Pophale) SiO2 
 PCOD9424047
Probable space group: P C C A
;
_chemical_formula_sum "Si O2"
_cell_formula_units_Z 40
_cell_length_a 7.841890
_cell_length_b 11.784452
_cell_length_c 21.154952
_cell_angle_alpha 90.000000
_cell_angle_beta 90.000000
_cell_angle_gamma 90.000000
_cell_volume 1954.979385
_symmetry_space_group_name_H-M "P C C A"
_symmetry_group_IT_number 54
_symmetry_cell_setting 'orthorhombic'
loop_
_space_group_symop_operation_xyz
x,y,z
1/2-x,-y,z
1/2+x,-y,1/2-z
-x,y,1/2-z
-x,-y,-z
1/2+x,y,-z
1/2-x,y,1/2+z
x,-y,1/2+z
loop_
_atom_site_type_symbol
_atom_site_label
_atom_site_fract_x
_atom_site_fract_y
_atom_site_fract_z
Si Si1 0.861536 0.091096 0.524002
Si Si2 0.283633 0.130763 0.617151
Si Si3 0.581419 0.745098 0.180919
Si Si4 0.545360 0.494083 0.323440
Si Si5 0.449903 0.742987 0.866227
O O1 0.778045 0.137582 0.459382
O O2 0.909455 0.195203 0.567701
O O3 0.750000 0.000000 0.563080
O O4 0.000000 0.000000 0.500000
O O5 0.468920 0.173777 0.637003
O O6 0.134673 0.203939 0.650164
O O7 0.250000 0.000000 0.633240
O O8 0.500000 0.758122 0.250000
O O9 0.540566 0.614777 0.161661
O O10 0.783296 0.766221 0.176688
O O11 0.750000 0.500000 0.328790
O O12 0.500000 0.467760 0.250000
O O13 0.475981 0.391693 0.365651
#
# Coordination Sequence:
#
# PCOD9424047 Si02
#       5
#     8   8   8   8   8
#     4  11  21  42  68  95 134 181 229 274 335 412
#     4  11  24  43  66 102 136 181 233 273 338 412
#     4  11  25  45  68 101 137 181 226 281 351 411
#     4  11  22  44  71  97 132 177 231 282 345 416
#     4  12  24  40  75  96 132 179 229 287 335 405
#
# _framework density 20.460574999999999
#
# number of rings (size 3 to 8) (size 9 to 14) (size 15 to 20)
#    0.000    0.800    6.000    4.200    0.000    0.000 
#    3.600    1.000    4.400    0.000    0.000    0.000 
#    0.000    0.000    0.000    0.000    0.000    0.000 
#
# Total GULP energy -223093.782606 kJ/mol
# GULP energy per Si atom -5577.344565 kJ/mol
# Density = 2.041401 g / cm^3
# Si number density = 20.460575 Si / 1000 Ang^3
#
#
#
# Elastic Constant Matrix: (Units=GPa)
#
#
# Indices 1 2 3 4 5 6 
#
# 1 113.4733 6.4754 26.0846 0.0000 0.0000 0.0000
# 2 6.4754 108.4960 49.3159 0.0000 0.0000 0.0000
# 3 26.0846 49.3159 55.9413 0.0000 0.0000 0.0000
# 4 0.0000 0.0000 0.0000 37.4976 0.0000 0.0000
# 5 0.0000 0.0000 0.0000 0.0000 27.6054 0.0000
# 6 0.0000 0.0000 0.0000 0.0000 0.0000 35.9033
#
#
#
# Elastic Compliance Matrix: (Units=1/GPa)
#
#
# Indices 1 2 3 4 5 6 
#
# 1 0.010297 0.002616 -0.007108 0.000000 0.000000 0.000000
# 2 0.002616 0.016044 -0.015364 0.000000 0.000000 0.000000
# 3 -0.007108 -0.015364 0.034735 0.000000 0.000000 0.000000
# 4 0.000000 0.000000 0.000000 0.026668 0.000000 0.000000
# 5 0.000000 0.000000 0.000000 0.000000 0.036225 0.000000
# 6 0.000000 0.000000 0.000000 0.000000 0.000000 0.027853
#
#
# Mechanical properties :
#
#
# Convention : Reuss Voigt Hill
#
# Bulk Modulus (GPa) = 46.80583 49.07362 47.93973
# Shear Modulus (GPa) = 25.16924 33.27022 29.21973
#
# Velocity S-wave (km/s) = 3.51113 4.03682 3.78312
# Velocity P-wave (km/s) = 6.27401 6.76494 6.52410
#
# Compressibility (1/GPa) = 0.02136486
#
# Stress axis : x y z
#
# Youngs Moduli (GPa) = 97.11323 62.32705 28.78972
#
# Poissons Ratio (x) = -0.16306 0.20463
# Poissons Ratio (y) = -0.25407 0.44233
# Poissons Ratio (z) = 0.69026 0.95760
#
# Static dielectric constant tensor:
#      x y z
#    x 1.878730 0.000000 0.000000 
#    y 0.000000 1.648000 0.000000 
#    z 0.000000 0.000000 1.737950 
# 
# From -- ./inp_files/20278.got.cif
#   From: 2010.05.17/outbox.cif.g08.bks.cpg/sg54_11_cif.got.tgz:20278.got - 2010.06.03 13:09:01.
