data_PCOD9424277
_publ_section_title
;
Structure prediction by ZEFSAII (Michael W. Deem and Ramdas Pophale) SiO2 
 PCOD9424277
Probable space group: P C C A
;
_chemical_formula_sum "Si O2"
_cell_formula_units_Z 32
_cell_length_a 9.446267
_cell_length_b 16.160317
_cell_length_c 10.385759
_cell_angle_alpha 90.000000
_cell_angle_beta 90.000000
_cell_angle_gamma 90.000000
_cell_volume 1585.434604
_symmetry_space_group_name_H-M "P C C A"
_symmetry_group_IT_number 54
_symmetry_cell_setting 'orthorhombic'
loop_
_space_group_symop_operation_xyz
x,y,z
1/2-x,-y,z
1/2+x,-y,1/2-z
-x,y,1/2-z
-x,-y,-z
1/2+x,y,-z
1/2-x,y,1/2+z
x,-y,1/2+z
loop_
_atom_site_type_symbol
_atom_site_label
_atom_site_fract_x
_atom_site_fract_y
_atom_site_fract_z
Si Si1 0.750414 0.188744 0.469323
Si Si2 0.912624 0.531663 0.622350
Si Si3 0.665856 0.085746 0.219372
Si Si4 0.506141 0.721662 0.105318
O O1 0.731207 0.138849 0.337206
O O2 0.814489 0.133422 0.584136
O O3 0.600111 0.220235 0.517361
O O4 0.847822 0.269757 0.447418
O O5 0.750000 0.500000 0.624758
O O6 0.925589 0.631216 0.614383
O O7 0.000000 0.505626 0.750000
O O8 0.000000 0.500000 0.500000
O O9 0.500000 0.072673 0.250000
O O10 0.750000 0.000000 0.211586
O O11 0.500000 0.755128 0.250000
#
# Coordination Sequence:
#
# PCOD9424277 Si02
#       4
#     8   8   8   8
#     4  12  24  45  68  99 137 175 232 275 342 404
#     4  11  24  45  70 105 143 183 232 286 351 418
#     4  12  28  44  69 100 135 181 225 283 344 408
#     4  11  24  43  70 100 136 178 223 287 332 403
#
# _framework density 20.18374
#
# number of rings (size 3 to 8) (size 9 to 14) (size 15 to 20)
#    0.000    0.500    5.000    3.000    3.500    4.000 
#    4.500    0.000    0.000    0.000    0.000    0.000 
#    0.000    0.000    0.000    0.000    0.000    0.000 
#
# Total GULP energy -178806.297696 kJ/mol
# GULP energy per Si atom -5587.696803 kJ/mol
# Density = 2.013780 g / cm^3
# Si number density = 20.183740 Si / 1000 Ang^3
#
#
#
# Elastic Constant Matrix: (Units=GPa)
#
#
# Indices 1 2 3 4 5 6 
#
# 1 151.4550 46.7017 65.1546 0.0000 0.0000 0.0000
# 2 46.7017 69.9333 38.0523 0.0000 0.0000 0.0000
# 3 65.1546 38.0523 136.9152 0.0000 0.0000 0.0000
# 4 0.0000 0.0000 0.0000 31.5689 0.0000 0.0000
# 5 0.0000 0.0000 0.0000 0.0000 34.3413 0.0000
# 6 0.0000 0.0000 0.0000 0.0000 0.0000 42.4731
#
#
#
# Elastic Compliance Matrix: (Units=1/GPa)
#
#
# Indices 1 2 3 4 5 6 
#
# 1 0.009374 -0.004516 -0.003206 0.000000 0.000000 0.000000
# 2 -0.004516 0.019022 -0.003138 0.000000 0.000000 0.000000
# 3 -0.003206 -0.003138 0.009702 0.000000 0.000000 0.000000
# 4 0.000000 0.000000 0.000000 0.031677 0.000000 0.000000
# 5 0.000000 0.000000 0.000000 0.000000 0.029119 0.000000
# 6 0.000000 0.000000 0.000000 0.000000 0.000000 0.023544
#
#
# Mechanical properties :
#
#
# Convention : Reuss Voigt Hill
#
# Bulk Modulus (GPa) = 61.05374 73.12454 67.08914
# Shear Modulus (GPa) = 33.41858 35.56965 34.49411
#
# Velocity S-wave (km/s) = 4.07347 4.20252 4.13850
# Velocity P-wave (km/s) = 7.24146 7.73669 7.49317
#
# Compressibility (1/GPa) = 0.01637901
#
# Stress axis : x y z
#
# Youngs Moduli (GPa) = 106.67547 52.56975 103.07663
#
# Poissons Ratio (x) = 0.23739 0.33046
# Poissons Ratio (y) = 0.48172 0.32344
# Poissons Ratio (z) = 0.34199 0.16496
#
# Static dielectric constant tensor:
#      x y z
#    x 1.693080 0.000000 0.000000 
#    y 0.000000 1.729090 0.000000 
#    z 0.000000 0.000000 1.643950 
# 
# From -- ./inp_files/6699.got.cif
#   From: 2010.05.17/outbox.cif.g08.bks.cpg/sg54_4_cif.got.tgz:6699.got - 2010.06.03 13:09:01.
