data_PCOD9424140
_publ_section_title
;
Structure prediction by ZEFSAII (Michael W. Deem and Ramdas Pophale) SiO2 
 PCOD9424140
Probable space group: P C C A
;
_chemical_formula_sum "Si O2"
_cell_formula_units_Z 28
_cell_length_a 15.629411
_cell_length_b 7.567558
_cell_length_c 10.480246
_cell_angle_alpha 90.000000
_cell_angle_beta 90.000000
_cell_angle_gamma 90.000000
_cell_volume 1239.566546
_symmetry_space_group_name_H-M "P C C A"
_symmetry_group_IT_number 54
_symmetry_cell_setting 'orthorhombic'
loop_
_space_group_symop_operation_xyz
x,y,z
1/2-x,-y,z
1/2+x,-y,1/2-z
-x,y,1/2-z
-x,-y,-z
1/2+x,y,-z
1/2-x,y,1/2+z
x,-y,1/2+z
loop_
_atom_site_type_symbol
_atom_site_label
_atom_site_fract_x
_atom_site_fract_y
_atom_site_fract_z
Si Si1 0.696385 0.829203 0.971229
Si Si2 0.444487 0.001130 0.372524
Si Si3 0.750000 0.500000 0.608136
Si Si4 0.405562 0.368733 0.252474
O O1 0.632565 0.731800 0.871914
O O2 0.750000 0.000000 0.921965
O O3 0.640815 0.896308 0.091528
O O4 0.755857 0.672799 0.021180
O O5 0.500000 0.940530 0.250000
O O6 0.500000 0.000000 0.500000
O O7 0.420101 0.203054 0.345657
O O8 0.666107 0.500576 0.695662
O O9 0.500000 0.453589 0.250000
#
# Coordination Sequence:
#
# PCOD9424140 Si02
#       4
#     8   8   4   8
#     4  12  26  46  73 105 149 192 246 307 370 441
#     4  11  22  45  76 103 139 196 248 299 369 443
#     4  12  28  44  72 116 142 194 246 310 372 442
#     4  11  25  48  72 108 149 192 250 304 368 444
#
# _framework density 22.588540999999999
#
# number of rings (size 3 to 8) (size 9 to 14) (size 15 to 20)
#    0.000    0.571    8.571    0.857    4.000    2.286 
#    5.143    0.000    0.000    0.000    0.000    0.000 
#    0.000    0.000    0.000    0.000    0.000    0.000 
#
# Total GULP energy -156360.984443 kJ/mol
# GULP energy per Si atom -5584.320873 kJ/mol
# Density = 2.253713 g / cm^3
# Si number density = 22.588541 Si / 1000 Ang^3
#
#
#
# Elastic Constant Matrix: (Units=GPa)
#
#
# Indices 1 2 3 4 5 6 
#
# 1 136.6977 15.5213 36.3868 0.0000 0.0000 0.0000
# 2 15.5213 56.2514 -0.7658 0.0000 0.0000 0.0000
# 3 36.3868 -0.7658 94.4448 0.0000 0.0000 0.0000
# 4 0.0000 0.0000 0.0000 1.1240 0.0000 0.0000
# 5 0.0000 0.0000 0.0000 0.0000 37.9685 0.0000
# 6 0.0000 0.0000 0.0000 0.0000 0.0000 45.1059
#
#
#
# Elastic Compliance Matrix: (Units=1/GPa)
#
#
# Indices 1 2 3 4 5 6 
#
# 1 0.008458 -0.002378 -0.003278 0.000000 0.000000 0.000000
# 2 -0.002378 0.018448 0.001066 0.000000 0.000000 0.000000
# 3 -0.003278 0.001066 0.011860 0.000000 0.000000 0.000000
# 4 0.000000 0.000000 0.000000 0.889659 0.000000 0.000000
# 5 0.000000 0.000000 0.000000 0.000000 0.026338 0.000000
# 6 0.000000 0.000000 0.000000 0.000000 0.000000 0.022170
#
#
# Mechanical properties :
#
#
# Convention : Reuss Voigt Hill
#
# Bulk Modulus (GPa) = 33.80091 43.29763 38.54927
# Shear Modulus (GPa) = 5.02020 32.58978 18.80499
#
# Velocity S-wave (km/s) = 1.49241 3.80249 2.88844
# Velocity P-wave (km/s) = 4.23862 6.20388 5.31291
#
# Compressibility (1/GPa) = 0.02958500
#
# Stress axis : x y z
#
# Youngs Moduli (GPa) = 118.23131 54.20610 84.31911
#
# Poissons Ratio (x) = 0.12892 0.27639
# Poissons Ratio (y) = 0.28120 -0.08988
# Poissons Ratio (z) = 0.38755 -0.05778
#
# Static dielectric constant tensor:
#      x y z
#    x 2.184230 0.000000 0.000000 
#    y 0.000000 1.828220 0.000000 
#    z 0.000000 0.000000 1.734700 
# 
# From -- ./inp_files/7840.got.cif
#   From: 2010.05.17/outbox.cif.g08.bks.cpg/sg54_4_cif.got.tgz:7840.got - 2010.06.03 13:09:01.
