data_PCOD9424538
_publ_section_title
;
Structure prediction by ZEFSAII (Michael W. Deem and Ramdas Pophale) SiO2 
 PCOD9424538
Probable space group: P C C A
;
_chemical_formula_sum "Si O2"
_cell_formula_units_Z 24
_cell_length_a 16.543766
_cell_length_b 8.000016
_cell_length_c 7.216596
_cell_angle_alpha 90.000000
_cell_angle_beta 90.000000
_cell_angle_gamma 90.000000
_cell_volume 955.119315
_symmetry_space_group_name_H-M "P C C A"
_symmetry_group_IT_number 54
_symmetry_cell_setting 'orthorhombic'
loop_
_space_group_symop_operation_xyz
x,y,z
1/2-x,-y,z
1/2+x,-y,1/2-z
-x,y,1/2-z
-x,-y,-z
1/2+x,y,-z
1/2-x,y,1/2+z
x,-y,1/2+z
loop_
_atom_site_type_symbol
_atom_site_label
_atom_site_fract_x
_atom_site_fract_y
_atom_site_fract_z
Si Si1 0.138168 0.663875 0.243671
Si Si2 0.794024 0.825207 0.899369
Si Si3 0.081619 0.294026 0.362281
O O1 0.151779 0.773398 0.426272
O O2 0.114273 0.479964 0.311698
O O3 0.224442 0.686856 0.138729
O O4 0.075509 0.717921 0.083673
O O5 0.750000 0.000000 0.921313
O O6 0.851732 0.828865 0.721557
O O7 0.000000 0.269256 0.250000
#
# Coordination Sequence:
#
# PCOD9424538 Si02
#       3
#     8   8   8
#     4  12  25  44  77 108 149 201 257 310 367 451
#     4  12  27  46  75 110 149 204 262 307 377 458
#     4  12  27  47  77 118 152 196 255 319 379 445
#
# _framework density 25.127752999999998
#
# number of rings (size 3 to 8) (size 9 to 14) (size 15 to 20)
#    0.000    0.000    6.667    3.000    0.000    1.333 
#    0.000    3.333    0.000    0.000    0.000    0.000 
#    0.000    0.000    0.000    0.000    0.000    0.000 
#
# Total GULP energy -134598.431217 kJ/mol
# GULP energy per Si atom -5608.267967 kJ/mol
# Density = 2.507056 g / cm^3
# Si number density = 25.127753 Si / 1000 Ang^3
#
#
#
# Elastic Constant Matrix: (Units=GPa)
#
#
# Indices 1 2 3 4 5 6 
#
# 1 70.7847 27.3897 2.6741 0.0000 0.0000 0.0000
# 2 27.3897 69.5592 16.7132 0.0000 0.0000 0.0000
# 3 2.6741 16.7132 167.2027 0.0000 0.0000 0.0000
# 4 0.0000 0.0000 0.0000 26.2113 0.0000 0.0000
# 5 0.0000 0.0000 0.0000 0.0000 47.3582 0.0000
# 6 0.0000 0.0000 0.0000 0.0000 0.0000 14.4965
#
#
#
# Elastic Compliance Matrix: (Units=1/GPa)
#
#
# Indices 1 2 3 4 5 6 
#
# 1 0.016693 -0.006669 0.000400 0.000000 0.000000 0.000000
# 2 -0.006669 0.017394 -0.001632 0.000000 0.000000 0.000000
# 3 0.000400 -0.001632 0.006138 0.000000 0.000000 0.000000
# 4 0.000000 0.000000 0.000000 0.038151 0.000000 0.000000
# 5 0.000000 0.000000 0.000000 0.000000 0.021116 0.000000
# 6 0.000000 0.000000 0.000000 0.000000 0.000000 0.068982
#
#
# Mechanical properties :
#
#
# Convention : Reuss Voigt Hill
#
# Bulk Modulus (GPa) = 40.94688 44.56673 42.75680
# Shear Modulus (GPa) = 25.98518 34.99786 30.49152
#
# Velocity S-wave (km/s) = 3.21927 3.73607 3.48725
# Velocity P-wave (km/s) = 5.49082 6.03204 5.76778
#
# Compressibility (1/GPa) = 0.02442189
#
# Stress axis : x y z
#
# Youngs Moduli (GPa) = 59.90619 57.48991 162.93257
#
# Poissons Ratio (x) = 0.38340 -0.06512
# Poissons Ratio (y) = 0.39951 0.26591
# Poissons Ratio (z) = -0.02394 0.09383
#
# Static dielectric constant tensor:
#      x y z
#    x 2.004510 0.000000 0.000000 
#    y 0.000000 1.946200 0.000000 
#    z 0.000000 0.000000 2.015410 
# 
# From -- ./inp_files/3128.got.cif
#   From: 2010.05.17/outbox.cif.g08.bks.cpg/sg54_2_cif.got.tgz:3128.got - 2010.06.03 13:09:01.
