data_PCOD9424342
_publ_section_title
;
Structure prediction by ZEFSAII (Michael W. Deem and Ramdas Pophale) SiO2 
 PCOD9424342
Probable space group: P C C A
;
_chemical_formula_sum "Si O2"
_cell_formula_units_Z 64
_cell_length_a 26.345004
_cell_length_b 11.118252
_cell_length_c 8.620966
_cell_angle_alpha 90.000000
_cell_angle_beta 90.000000
_cell_angle_gamma 90.000000
_cell_volume 2525.170543
_symmetry_space_group_name_H-M "P C C A"
_symmetry_group_IT_number 54
_symmetry_cell_setting 'orthorhombic'
loop_
_space_group_symop_operation_xyz
x,y,z
1/2-x,-y,z
1/2+x,-y,1/2-z
-x,y,1/2-z
-x,-y,-z
1/2+x,y,-z
1/2-x,y,1/2+z
x,-y,1/2+z
loop_
_atom_site_type_symbol
_atom_site_label
_atom_site_fract_x
_atom_site_fract_y
_atom_site_fract_z
Si Si1 0.228355 0.366709 0.184902
Si Si2 0.990394 0.747154 0.569359
Si Si3 0.410624 0.721846 0.683902
Si Si4 0.088861 0.895863 0.451609
Si Si5 0.062117 0.483640 0.895234
Si Si6 0.621367 0.117628 0.714634
Si Si7 0.881233 0.377760 0.323507
Si Si8 0.311526 0.737773 0.498698
O O1 0.250000 0.500000 0.167017
O O2 0.173467 0.362433 0.102500
O O3 0.212654 0.342373 0.362144
O O4 0.266652 0.265021 0.124423
O O5 0.946879 0.781953 0.443848
O O6 0.037802 0.825275 0.498722
O O7 0.974610 0.599239 0.580131
O O8 0.000000 0.775107 0.750000
O O9 0.445875 0.622919 0.770778
O O10 0.360611 0.683604 0.588059
O O11 0.389432 0.808809 0.817765
O O12 0.084304 0.022399 0.363974
O O13 0.124166 0.917488 0.603020
O O14 0.114420 0.530992 0.817557
O O15 0.077750 0.419990 0.053574
O O16 0.603595 0.253920 0.742380
O O17 0.668391 0.144210 0.596572
#
# Coordination Sequence:
#
# PCOD9424342 Si02
#       8
#     8   8   8   8   8   8   8   8
#     4  11  25  40  74 122 167 213 271 330 398 522
#     4  12  28  50  77 125 166 217 281 347 415 509
#     4  12  26  49  78 114 164 228 267 350 424 495
#     4  12  27  54  87 112 154 216 298 351 414 494
#     4  12  25  45  79 112 178 217 268 329 430 510
#     4  11  26  52  81 117 156 220 272 351 412 492
#     4  11  25  47  75 119 168 218 263 327 426 502
#     4  11  26  46  75 118 169 214 274 334 420 485
#
# _framework density 25.344823000000002
#
# number of rings (size 3 to 8) (size 9 to 14) (size 15 to 20)
#    0.000    0.500    2.500    5.250    7.000    2.000 
#    0.000   14.375    0.000   30.000    0.000    0.000 
#    0.000    0.000    0.000    0.000    0.000    0.000 
#
# Total GULP energy -356574.548011 kJ/mol
# GULP energy per Si atom -5571.477313 kJ/mol
# Density = 2.528714 g / cm^3
# Si number density = 25.344823 Si / 1000 Ang^3
#
#
#
# Elastic Constant Matrix: (Units=GPa)
#
#
# Indices 1 2 3 4 5 6 
#
# 1 164.9252 41.7563 58.8888 0.0000 0.0000 0.0000
# 2 41.7563 106.5511 76.2153 0.0000 0.0000 0.0000
# 3 58.8888 76.2153 185.6477 0.0000 0.0000 0.0000
# 4 0.0000 0.0000 0.0000 52.4363 0.0000 0.0000
# 5 0.0000 0.0000 0.0000 0.0000 31.5487 0.0000
# 6 0.0000 0.0000 0.0000 0.0000 0.0000 23.0311
#
#
#
# Elastic Compliance Matrix: (Units=1/GPa)
#
#
# Indices 1 2 3 4 5 6 
#
# 1 0.007035 -0.001643 -0.001557 0.000000 0.000000 0.000000
# 2 -0.001643 0.013671 -0.005091 0.000000 0.000000 0.000000
# 3 -0.001557 -0.005091 0.007971 0.000000 0.000000 0.000000
# 4 0.000000 0.000000 0.000000 0.019071 0.000000 0.000000
# 5 0.000000 0.000000 0.000000 0.000000 0.031697 0.000000
# 6 0.000000 0.000000 0.000000 0.000000 0.000000 0.043420
#
#
# Mechanical properties :
#
#
# Convention : Reuss Voigt Hill
#
# Bulk Modulus (GPa) = 82.68721 90.09388 86.39055
# Shear Modulus (GPa) = 34.84847 40.08745 37.46796
#
# Velocity S-wave (km/s) = 3.71209 3.98135 3.84907
# Velocity P-wave (km/s) = 7.14622 7.53388 7.34261
#
# Compressibility (1/GPa) = 0.01209377
#
# Stress axis : x y z
#
# Youngs Moduli (GPa) = 142.13872 73.14855 125.46231
#
# Poissons Ratio (x) = 0.12021 0.19535
# Poissons Ratio (y) = 0.23359 0.63874
# Poissons Ratio (z) = 0.22131 0.37241
#
# Static dielectric constant tensor:
#      x y z
#    x 2.089300 0.000000 0.000000 
#    y 0.000000 2.082460 0.000000 
#    z 0.000000 0.000000 2.056770 
# 
# From -- ./inp_files/5980.got.cif
#   From: 2010.05.17/outbox.cif.g08.bks.cpg/sg54_3_cif.got.tgz:5980.got - 2010.06.03 13:09:01.
