data_PCOD9424729
_publ_section_title
;
Structure prediction by ZEFSAII (Michael W. Deem and Ramdas Pophale) SiO2 
 PCOD9424729
Probable space group: P B A M
;
_chemical_formula_sum "Si O2"
_cell_formula_units_Z 64
_cell_length_a 30.944679
_cell_length_b 15.197666
_cell_length_c 7.650432
_cell_angle_alpha 90.000000
_cell_angle_beta 90.000000
_cell_angle_gamma 90.000000
_cell_volume 3597.897918
_symmetry_space_group_name_H-M "P B A M"
_symmetry_group_IT_number 55
_symmetry_cell_setting 'orthorhombic'
loop_
_space_group_symop_operation_xyz
x,y,z
-x,-y,z
1/2+x,1/2-y,-z
1/2-x,1/2+y,-z
-x,-y,-z
x,y,-z
1/2-x,1/2+y,z
1/2+x,1/2-y,z
loop_
_atom_site_type_symbol
_atom_site_label
_atom_site_fract_x
_atom_site_fract_y
_atom_site_fract_z
Si Si1 0.718296 0.279436 0.200099
Si Si2 0.360013 0.830629 0.693300
Si Si3 0.822880 0.486429 0.204256
Si Si4 0.299870 0.335746 0.215131
Si Si5 0.449348 0.903923 0.209832
Si Si6 0.453523 0.106019 0.213467
Si Si7 0.219887 0.026569 0.794874
Si Si8 0.132148 0.693689 0.212958
O O1 0.673418 0.227004 0.197081
O O2 0.756584 0.217362 0.272795
O O3 0.712097 0.376187 0.281045
O O4 0.732708 0.296696 0.000000
O O5 0.356309 0.794136 0.500000
O O6 0.342345 0.930117 0.700708
O O7 0.410123 0.840782 0.741016
O O8 0.771439 0.487215 0.212986
O O9 0.840715 0.392856 0.264786
O O10 0.835834 0.496371 0.000000
O O11 0.299903 0.436400 0.278143
O O12 0.341617 0.279470 0.268889
O O13 0.298259 0.338862 0.000000
O O14 0.497293 0.876903 0.270430
O O15 0.441963 0.005569 0.267199
O O16 0.450560 0.907059 0.000000
O O17 0.416747 0.173993 0.270842
O O18 0.453336 0.106315 0.000000
O O19 0.206662 0.029631 0.000000
O O20 0.132085 0.695952 0.000000
#
# Coordination Sequence:
#
# PCOD9424729 Si02
#       8
#     8   8   8   8   8   8   8   8
#     4  10  18  30  48  66  88 120 155 187 218 260
#     4  12  23  31  41  64  94 125 157 189 227 265
#     4  10  16  27  48  67  90 122 156 186 216 261
#     4   9  15  23  42  71  95 113 144 186 223 261
#     4   9  16  29  47  65  87 118 154 189 223 272
#     4   8  14  24  44  70  91 114 148 185 225 273
#     4   9  16  26  44  70  91 115 153 189 218 256
#     4   9  14  22  42  72  96 116 143 182 225 266
#
# _framework density 17.788164999999999
#
# number of rings (size 3 to 8) (size 9 to 14) (size 15 to 20)
#    0.000    2.500    3.750    1.875    0.000    0.000 
#    0.000    1.875    0.000    0.000    0.000    0.875 
#    0.000    7.000    0.000    0.000    0.000    0.000 
#
# Total GULP energy -356682.816838 kJ/mol
# GULP energy per Si atom -5573.169013 kJ/mol
# Density = 1.774768 g / cm^3
# Si number density = 17.788165 Si / 1000 Ang^3
#
#
#
# Elastic Constant Matrix: (Units=GPa)
#
#
# Indices 1 2 3 4 5 6 
#
# 1 77.5410 30.4770 1.6857 0.0000 0.0000 0.0000
# 2 30.4770 93.0280 0.9502 0.0000 0.0000 0.0000
# 3 1.6857 0.9502 31.3178 0.0000 0.0000 0.0000
# 4 0.0000 0.0000 0.0000 71.9839 0.0000 0.0000
# 5 0.0000 0.0000 0.0000 0.0000 -22.8036 0.0000
# 6 0.0000 0.0000 0.0000 0.0000 0.0000 23.9843
#
#
#
# Elastic Compliance Matrix: (Units=1/GPa)
#
#
# Indices 1 2 3 4 5 6 
#
# 1 0.014816 -0.004847 -0.000650 0.000000 0.000000 0.000000
# 2 -0.004847 0.012339 -0.000113 0.000000 0.000000 0.000000
# 3 -0.000650 -0.000113 0.031969 0.000000 0.000000 0.000000
# 4 0.000000 0.000000 0.000000 0.013892 0.000000 0.000000
# 5 0.000000 0.000000 0.000000 0.000000 -0.043853 0.000000
# 6 0.000000 0.000000 0.000000 0.000000 0.000000 0.041694
#
#
# Mechanical properties :
#
#
# Convention : Reuss Voigt Hill
#
# Bulk Modulus (GPa) = 20.87620 29.79031 25.33325
# Shear Modulus (GPa) = 50.99651 25.88449 38.44050
#
# Velocity S-wave (km/s) = 5.36013 3.81878 4.65372
# Velocity P-wave (km/s) = 7.07598 6.01895 6.56876
#
# Compressibility (1/GPa) = 0.04790145
#
# Stress axis : x y z
#
# Youngs Moduli (GPa) = 67.49604 81.04653 31.28009
#
# Poissons Ratio (x) = 0.39284 0.02034
# Poissons Ratio (y) = 0.32716 0.00355
# Poissons Ratio (z) = 0.04390 0.00920
#
# Static dielectric constant tensor:
#      x y z
#    x 1.617070 0.000000 0.000000 
#    y 0.000000 1.607710 0.000000 
#    z 0.000000 0.000000 1.654700 
# 
# From -- ./inp_files/10911.got.cif
#   From: 2010.05.17/outbox.cif.g08.bks.cpg/sg55_6_cif.got.tgz:10911.got - 2010.06.03 13:27:54.
