data_PCOD9424350
_publ_section_title
;
Structure prediction by ZEFSAII (Michael W. Deem and Ramdas Pophale) SiO2 
 PCOD9424350
Probable space group: P C C A
;
_chemical_formula_sum "Si O2"
_cell_formula_units_Z 36
_cell_length_a 9.359806
_cell_length_b 10.246022
_cell_length_c 18.188079
_cell_angle_alpha 90.000000
_cell_angle_beta 90.000000
_cell_angle_gamma 90.000000
_cell_volume 1744.250930
_symmetry_space_group_name_H-M "P C C A"
_symmetry_group_IT_number 54
_symmetry_cell_setting 'orthorhombic'
loop_
_space_group_symop_operation_xyz
x,y,z
1/2-x,-y,z
1/2+x,-y,1/2-z
-x,y,1/2-z
-x,-y,-z
1/2+x,y,-z
1/2-x,y,1/2+z
x,-y,1/2+z
loop_
_atom_site_type_symbol
_atom_site_label
_atom_site_fract_x
_atom_site_fract_y
_atom_site_fract_z
Si Si1 0.750000 0.500000 0.079687
Si Si2 0.519568 0.339171 0.661842
Si Si3 0.413843 0.042460 0.825024
Si Si4 0.170742 0.721373 0.532289
Si Si5 0.054755 0.882412 0.050059
O O1 0.880147 0.454913 0.131860
O O2 0.737985 0.381193 0.022974
O O3 0.500000 0.350728 0.750000
O O4 0.582814 0.192573 0.646047
O O5 0.378189 0.336674 0.610694
O O6 0.500000 0.049713 0.750000
O O7 0.250000 0.000000 0.818187
O O8 0.498153 0.933827 0.872202
O O9 0.280264 0.840822 0.546861
O O10 0.033325 0.764509 0.485169
O O11 0.000000 0.000000 0.000000
#
# Coordination Sequence:
#
# PCOD9424350 Si02
#       5
#     4   8   8   8   8
#     4  12  24  50  68 100 136 184 248 284 340 432
#     4  11  26  45  70 100 144 182 236 297 358 417
#     4  11  25  43  68 103 141 181 224 291 360 428
#     4  12  25  44  72 100 135 190 231 293 341 417
#     4  12  23  41  71 101 138 175 231 280 354 416
#
# _framework density 20.639230000000001
#
# number of rings (size 3 to 8) (size 9 to 14) (size 15 to 20)
#    0.000    0.444    4.444    4.000    6.222    0.889 
#    0.000    1.111    0.000    0.000    0.000    0.000 
#    0.000    0.000    0.000    0.000    0.000    0.000 
#
# Total GULP energy -200821.114949 kJ/mol
# GULP energy per Si atom -5578.364304 kJ/mol
# Density = 2.059225 g / cm^3
# Si number density = 20.639230 Si / 1000 Ang^3
#
#
#
# Elastic Constant Matrix: (Units=GPa)
#
#
# Indices 1 2 3 4 5 6 
#
# 1 112.4840 34.7471 43.8600 0.0000 0.0000 0.0000
# 2 34.7471 59.2008 43.2393 0.0000 0.0000 0.0000
# 3 43.8600 43.2393 124.1332 0.0000 0.0000 0.0000
# 4 0.0000 0.0000 0.0000 27.8176 0.0000 0.0000
# 5 0.0000 0.0000 0.0000 0.0000 28.6188 0.0000
# 6 0.0000 0.0000 0.0000 0.0000 0.0000 43.2730
#
#
#
# Elastic Compliance Matrix: (Units=1/GPa)
#
#
# Indices 1 2 3 4 5 6 
#
# 1 0.011312 -0.004990 -0.002259 0.000000 0.000000 0.000000
# 2 -0.004990 0.024856 -0.006895 0.000000 0.000000 0.000000
# 3 -0.002259 -0.006895 0.011256 0.000000 0.000000 0.000000
# 4 0.000000 0.000000 0.000000 0.035948 0.000000 0.000000
# 5 0.000000 0.000000 0.000000 0.000000 0.034942 0.000000
# 6 0.000000 0.000000 0.000000 0.000000 0.000000 0.023109
#
#
# Mechanical properties :
#
#
# Convention : Reuss Voigt Hill
#
# Bulk Modulus (GPa) = 52.25514 59.94562 56.10038
# Shear Modulus (GPa) = 28.39441 31.53998 29.96720
#
# Velocity S-wave (km/s) = 3.71313 3.91341 3.81458
# Velocity P-wave (km/s) = 6.61487 7.03756 6.82948
#
# Compressibility (1/GPa) = 0.01913687
#
# Stress axis : x y z
#
# Youngs Moduli (GPa) = 88.39920 40.23095 88.84292
#
# Poissons Ratio (x) = 0.20074 0.20069
# Poissons Ratio (y) = 0.44109 0.61259
# Poissons Ratio (z) = 0.19969 0.27740
#
# Static dielectric constant tensor:
#      x y z
#    x 1.646750 0.000000 0.000000 
#    y 0.000000 1.629570 0.000000 
#    z 0.000000 0.000000 1.602340 
# 
# From -- ./inp_files/20132.got.cif
#   From: 2010.05.17/outbox.cif.g08.bks.cpg/sg54_11_cif.got.tgz:20132.got - 2010.06.03 13:09:01.
