data_PCOD9424129
_publ_section_title
;
Structure prediction by ZEFSAII (Michael W. Deem and Ramdas Pophale) SiO2 
 PCOD9424129
Probable space group: P C C A
;
_chemical_formula_sum "Si O2"
_cell_formula_units_Z 60
_cell_length_a 16.094964
_cell_length_b 9.545925
_cell_length_c 18.444873
_cell_angle_alpha 90.000000
_cell_angle_beta 90.000000
_cell_angle_gamma 90.000000
_cell_volume 2833.894621
_symmetry_space_group_name_H-M "P C C A"
_symmetry_group_IT_number 54
_symmetry_cell_setting 'orthorhombic'
loop_
_space_group_symop_operation_xyz
x,y,z
1/2-x,-y,z
1/2+x,-y,1/2-z
-x,y,1/2-z
-x,-y,-z
1/2+x,y,-z
1/2-x,y,1/2+z
x,-y,1/2+z
loop_
_atom_site_type_symbol
_atom_site_label
_atom_site_fract_x
_atom_site_fract_y
_atom_site_fract_z
Si Si1 0.657478 0.716565 0.709906
Si Si2 0.250000 0.500000 0.081683
Si Si3 0.848319 0.664900 0.523164
Si Si4 0.939450 0.579730 0.083492
Si Si5 0.445281 0.992260 0.817686
Si Si6 0.093416 0.488499 0.184911
Si Si7 0.025116 0.865163 0.045734
Si Si8 0.151641 0.721075 0.808908
O O1 0.633992 0.626335 0.638627
O O2 0.619101 0.868194 0.697574
O O3 0.611268 0.636152 0.774999
O O4 0.755416 0.727527 0.723261
O O5 0.171277 0.466424 0.131717
O O6 0.271950 0.373442 0.027736
O O7 0.909930 0.530159 0.523235
O O8 0.891035 0.801140 0.488096
O O9 0.832884 0.669037 0.608799
O O10 0.011065 0.510796 0.135713
O O11 0.968353 0.725663 0.047709
O O12 0.500000 0.026938 0.750000
O O13 0.511492 0.929347 0.874807
O O14 0.393779 0.133768 0.828611
O O15 0.100078 0.372090 0.249726
O O16 0.000000 0.000000 0.000000
#
# Coordination Sequence:
#
# PCOD9424129 Si02
#       8
#     8   4   8   8   8   8   8   8
#     4  11  22  43  68 100 136 184 231 295 353 423
#     4  12  26  42  70 104 144 178 232 298 378 414
#     4  12  25  44  71 104 143 182 235 302 363 437
#     4  11  24  43  73 100 138 187 243 285 359 433
#     4  11  26  43  70 100 138 189 240 287 358 435
#     4  12  24  43  71 103 137 185 237 303 356 433
#     4  11  23  44  66  99 141 186 232 291 349 431
#     4  12  25  43  71 104 141 181 239 302 359 427
#
# _framework density 21.172277000000001
#
# number of rings (size 3 to 8) (size 9 to 14) (size 15 to 20)
#    0.000    0.533    5.333    3.600    1.867    0.000 
#    0.000    0.000    0.000    0.000    0.000    0.000 
#    0.000    0.000    0.000    0.000    0.000    0.000 
#
# Total GULP energy -334653.780779 kJ/mol
# GULP energy per Si atom -5577.563013 kJ/mol
# Density = 2.112409 g / cm^3
# Si number density = 21.172277 Si / 1000 Ang^3
#
#
#
# Elastic Constant Matrix: (Units=GPa)
#
#
# Indices 1 2 3 4 5 6 
#
# 1 58.9569 16.2767 31.5544 0.0000 0.0000 0.0000
# 2 16.2767 79.7634 37.4104 0.0000 0.0000 0.0000
# 3 31.5544 37.4104 82.1712 0.0000 0.0000 0.0000
# 4 0.0000 0.0000 0.0000 52.2757 0.0000 0.0000
# 5 0.0000 0.0000 0.0000 0.0000 38.4748 0.0000
# 6 0.0000 0.0000 0.0000 0.0000 0.0000 20.2359
#
#
#
# Elastic Compliance Matrix: (Units=1/GPa)
#
#
# Indices 1 2 3 4 5 6 
#
# 1 0.021376 -0.000651 -0.007912 0.000000 0.000000 0.000000
# 2 -0.000651 0.015961 -0.007017 0.000000 0.000000 0.000000
# 3 -0.007912 -0.007017 0.018402 0.000000 0.000000 0.000000
# 4 0.000000 0.000000 0.000000 0.019129 0.000000 0.000000
# 5 0.000000 0.000000 0.000000 0.000000 0.025991 0.000000
# 6 0.000000 0.000000 0.000000 0.000000 0.000000 0.049417
#
#
# Mechanical properties :
#
#
# Convention : Reuss Voigt Hill
#
# Bulk Modulus (GPa) = 40.68384 43.48604 42.08494
# Shear Modulus (GPa) = 26.36723 31.24063 28.80393
#
# Velocity S-wave (km/s) = 3.53280 3.84545 3.69244
# Velocity P-wave (km/s) = 5.99152 6.34826 6.17246
#
# Compressibility (1/GPa) = 0.02457978
#
# Stress axis : x y z
#
# Youngs Moduli (GPa) = 46.78151 62.65352 54.34054
#
# Poissons Ratio (x) = 0.04079 0.42995
# Poissons Ratio (y) = 0.03046 0.38128
# Poissons Ratio (z) = 0.37014 0.43961
#
# Static dielectric constant tensor:
#      x y z
#    x 1.698420 0.000000 0.000000 
#    y 0.000000 1.741570 0.000000 
#    z 0.000000 0.000000 1.799060 
# 
# From -- ./inp_files/18684.got.cif
#   From: 2010.05.17/outbox.cif.g08.bks.cpg/sg54_10_cif.got.tgz:18684.got - 2010.06.03 13:09:01.
