data_PCOD9424173
_publ_section_title
;
Structure prediction by ZEFSAII (Michael W. Deem and Ramdas Pophale) SiO2 
 PCOD9424173
Probable space group: P C C A
;
_chemical_formula_sum "Si O2"
_cell_formula_units_Z 24
_cell_length_a 16.170990
_cell_length_b 4.984368
_cell_length_c 14.135223
_cell_angle_alpha 90.000000
_cell_angle_beta 90.000000
_cell_angle_gamma 90.000000
_cell_volume 1139.329578
_symmetry_space_group_name_H-M "P C C A"
_symmetry_group_IT_number 54
_symmetry_cell_setting 'orthorhombic'
loop_
_space_group_symop_operation_xyz
x,y,z
1/2-x,-y,z
1/2+x,-y,1/2-z
-x,y,1/2-z
-x,-y,-z
1/2+x,y,-z
1/2-x,y,1/2+z
x,-y,1/2+z
loop_
_atom_site_type_symbol
_atom_site_label
_atom_site_fract_x
_atom_site_fract_y
_atom_site_fract_z
Si Si1 0.309089 0.253465 0.174853
Si Si2 0.908671 0.115364 0.011340
Si Si3 0.843360 0.608259 0.117403
O O1 0.250000 0.500000 0.146407
O O2 0.403133 0.380483 0.924156
O O3 0.354793 0.334960 0.271495
O O4 0.250000 0.000000 0.195499
O O5 0.869971 0.185251 0.910032
O O6 0.855316 0.881809 0.060430
O O7 0.000000 0.000000 0.000000
O O8 0.750000 0.500000 0.106363
#
# Coordination Sequence:
#
# PCOD9424173 Si02
#       3
#     8   8   8
#     4  11  23  41  68  96 124 169 222 264 309 375
#     4  12  25  42  66  98 134 168 206 265 329 381
#     4  11  23  43  67  92 126 171 220 263 309 376
#
# _framework density 21.065021000000002
#
# number of rings (size 3 to 8) (size 9 to 14) (size 15 to 20)
#    0.000    0.667    0.000   11.000    0.000    1.333 
#    0.000    6.667    0.000    0.000    0.000    0.000 
#    0.000    0.000    0.000    0.000    0.000    0.000 
#
# Total GULP energy -134499.260508 kJ/mol
# GULP energy per Si atom -5604.135855 kJ/mol
# Density = 2.101708 g / cm^3
# Si number density = 21.065021 Si / 1000 Ang^3
#
#
#
# Elastic Constant Matrix: (Units=GPa)
#
#
# Indices 1 2 3 4 5 6 
#
# 1 79.6340 36.6403 88.0611 0.0000 0.0000 0.0000
# 2 36.6403 144.7392 77.7709 0.0000 0.0000 0.0000
# 3 88.0611 77.7709 218.2946 0.0000 0.0000 0.0000
# 4 0.0000 0.0000 0.0000 45.7441 0.0000 0.0000
# 5 0.0000 0.0000 0.0000 0.0000 -53.6624 0.0000
# 6 0.0000 0.0000 0.0000 0.0000 0.0000 35.3339
#
#
#
# Elastic Compliance Matrix: (Units=1/GPa)
#
#
# Indices 1 2 3 4 5 6 
#
# 1 0.022793 -0.001026 -0.008829 0.000000 0.000000 0.000000
# 2 -0.001026 0.008591 -0.002647 0.000000 0.000000 0.000000
# 3 -0.008829 -0.002647 0.009086 0.000000 0.000000 0.000000
# 4 0.000000 0.000000 0.000000 0.021861 0.000000 0.000000
# 5 0.000000 0.000000 0.000000 0.000000 -0.018635 0.000000
# 6 0.000000 0.000000 0.000000 0.000000 0.000000 0.028301
#
#
# Mechanical properties :
#
#
# Convention : Reuss Voigt Hill
#
# Bulk Modulus (GPa) = 64.65918 94.17916 79.41917
# Shear Modulus (GPa) = 48.94460 21.49615 35.22038
#
# Velocity S-wave (km/s) = 4.82550 3.19794 4.09343
# Velocity P-wave (km/s) = 7.86187 7.64471 7.75405
#
# Compressibility (1/GPa) = 0.01546571
#
# Stress axis : x y z
#
# Youngs Moduli (GPa) = 43.87271 116.40313 110.06234
#
# Poissons Ratio (x) = 0.11941 0.97179
# Poissons Ratio (y) = 0.04501 0.29131
# Poissons Ratio (z) = 0.38737 0.30810
#
# Static dielectric constant tensor:
#      x y z
#    x 1.724760 0.000000 0.000000 
#    y 0.000000 1.756950 0.000000 
#    z 0.000000 0.000000 1.743040 
# 
# From -- ./inp_files/12919.got.cif
#   From: 2010.05.17/outbox.cif.g08.bks.cpg/sg54_7_cif.got.tgz:12919.got - 2010.06.03 13:09:01.
