data_PCOD9424853
_publ_section_title
;
Structure prediction by ZEFSAII (Michael W. Deem and Ramdas Pophale) SiO2 
 PCOD9424853
Probable space group: P B A M
;
_chemical_formula_sum "Si O2"
_cell_formula_units_Z 58
_cell_length_a 8.307414
_cell_length_b 23.715005
_cell_length_c 15.616747
_cell_angle_alpha 90.000000
_cell_angle_beta 90.000000
_cell_angle_gamma 90.000000
_cell_volume 3076.661020
_symmetry_space_group_name_H-M "P B A M"
_symmetry_group_IT_number 55
_symmetry_cell_setting 'orthorhombic'
loop_
_space_group_symop_operation_xyz
x,y,z
-x,-y,z
1/2+x,1/2-y,-z
1/2-x,1/2+y,-z
-x,-y,-z
x,y,-z
1/2-x,1/2+y,z
1/2+x,1/2-y,z
loop_
_atom_site_type_symbol
_atom_site_label
_atom_site_fract_x
_atom_site_fract_y
_atom_site_fract_z
Si Si1 0.171808 0.967337 0.593923
Si Si2 0.500000 0.000000 0.000000
Si Si3 0.679477 0.718923 0.599023
Si Si4 0.468231 0.164973 0.401258
Si Si5 0.570461 0.590515 0.097902
Si Si6 0.804342 0.432928 0.316633
Si Si7 0.258538 0.022566 0.131372
Si Si8 0.541896 0.625724 0.286663
O O1 0.196770 0.941469 0.500000
O O2 0.157877 0.920585 0.667426
O O3 0.293413 0.017832 0.613242
O O4 0.000000 0.000000 0.594040
O O5 0.592118 0.963432 0.073346
O O6 0.626360 0.709681 0.500000
O O7 0.661169 0.785378 0.614732
O O8 0.572873 0.683827 0.665143
O O9 0.859653 0.695177 0.607132
O O10 0.449309 0.146187 0.500000
O O11 0.439121 0.112250 0.339824
O O12 0.398285 0.559073 0.107040
O O13 0.704239 0.541352 0.109273
O O14 0.574704 0.627726 0.184584
O O15 0.584707 0.613049 0.000000
O O16 0.807708 0.466163 0.227858
O O17 0.636261 0.397937 0.307993
#
# Coordination Sequence:
#
# PCOD9424853 Si02
#       8
#     8   2   8   8   8   8   8   8
#     4   9  16  27  46  73 107 142 175 210 255 319
#     4  12  20  30  48  76 102 146 176 224 272 302
#     4  10  21  37  56  81 107 141 184 230 277 325
#     4  10  21  37  56  77 108 143 183 229 274 323
#     4  10  17  34  53  75 104 146 182 222 259 324
#     4  10  19  33  50  79 110 143 183 220 269 324
#     4  10  19  31  50  74 109 140 181 219 267 317
#     4  10  19  31  55  80 106 141 182 225 271 325
#
# _framework density 18.851604999999999
#
# number of rings (size 3 to 8) (size 9 to 14) (size 15 to 20)
#    0.000    2.069    2.759    2.069    0.000    3.862 
#    0.000    0.000    0.000    2.483    1.793    0.000 
#    0.000    0.000    0.000    0.000    0.000    0.000 
#
# Total GULP energy -322936.448793 kJ/mol
# GULP energy per Si atom -5567.869807 kJ/mol
# Density = 1.880870 g / cm^3
# Si number density = 18.851605 Si / 1000 Ang^3
#
#
#
# Elastic Constant Matrix: (Units=GPa)
#
#
# Indices 1 2 3 4 5 6 
#
# 1 38.9035 5.1361 18.1633 0.0000 0.0000 0.0000
# 2 5.1361 27.5312 19.0372 0.0000 0.0000 0.0000
# 3 18.1633 19.0372 111.7347 0.0000 0.0000 0.0000
# 4 0.0000 0.0000 0.0000 19.3343 0.0000 0.0000
# 5 0.0000 0.0000 0.0000 0.0000 10.9737 0.0000
# 6 0.0000 0.0000 0.0000 0.0000 0.0000 21.2437
#
#
#
# Elastic Compliance Matrix: (Units=1/GPa)
#
#
# Indices 1 2 3 4 5 6 
#
# 1 0.027949 -0.002349 -0.004143 0.000000 0.000000 0.000000
# 2 -0.002349 0.041371 -0.006667 0.000000 0.000000 0.000000
# 3 -0.004143 -0.006667 0.010759 0.000000 0.000000 0.000000
# 4 0.000000 0.000000 0.000000 0.051721 0.000000 0.000000
# 5 0.000000 0.000000 0.000000 0.000000 0.091127 0.000000
# 6 0.000000 0.000000 0.000000 0.000000 0.000000 0.047073
#
#
# Mechanical properties :
#
#
# Convention : Reuss Voigt Hill
#
# Bulk Modulus (GPa) = 18.60098 29.20476 23.90287
# Shear Modulus (GPa) = 15.91148 19.36587 17.63868
#
# Velocity S-wave (km/s) = 2.90839 3.20860 3.06217
# Velocity P-wave (km/s) = 4.60073 5.40854 5.02091
#
# Compressibility (1/GPa) = 0.05376060
#
# Stress axis : x y z
#
# Youngs Moduli (GPa) = 35.77936 24.17177 92.94433
#
# Poissons Ratio (x) = 0.05679 0.38508
# Poissons Ratio (y) = 0.08405 0.61964
# Poissons Ratio (z) = 0.14824 0.16115
#
# Static dielectric constant tensor:
#      x y z
#    x 1.747370 0.000000 0.000000 
#    y 0.000000 1.631170 0.000000 
#    z 0.000000 0.000000 1.651770 
# 
# From -- ./inp_files/17886.got.cif
#   From: 2010.05.17/outbox.cif.g08.bks.cpg/sg55_9_cif.got.tgz:17886.got - 2010.06.03 13:27:54.
