data_PCOD9424352
_publ_section_title
;
Structure prediction by ZEFSAII (Michael W. Deem and Ramdas Pophale) SiO2 
 PCOD9424352
Probable space group: P C C A
;
_chemical_formula_sum "Si O2"
_cell_formula_units_Z 40
_cell_length_a 14.827620
_cell_length_b 12.372901
_cell_length_c 10.479729
_cell_angle_alpha 90.000000
_cell_angle_beta 90.000000
_cell_angle_gamma 90.000000
_cell_volume 1922.618149
_symmetry_space_group_name_H-M "P C C A"
_symmetry_group_IT_number 54
_symmetry_cell_setting 'orthorhombic'
loop_
_space_group_symop_operation_xyz
x,y,z
1/2-x,-y,z
1/2+x,-y,1/2-z
-x,y,1/2-z
-x,-y,-z
1/2+x,y,-z
1/2-x,y,1/2+z
x,-y,1/2+z
loop_
_atom_site_type_symbol
_atom_site_label
_atom_site_fract_x
_atom_site_fract_y
_atom_site_fract_z
Si Si1 0.902453 0.561013 0.508256
Si Si2 0.059901 0.012451 0.373095
Si Si3 0.328002 0.791700 0.482960
Si Si4 0.395564 0.437892 0.262303
Si Si5 0.334743 0.203260 0.286601
O O1 0.898097 0.690570 0.523726
O O2 0.853988 0.541006 0.374743
O O3 0.854267 0.506994 0.626444
O O4 0.000000 0.500000 0.500000
O O5 0.110979 0.902477 0.331902
O O6 0.000000 0.044438 0.250000
O O7 0.129333 0.103462 0.417249
O O8 0.000000 0.000000 0.500000
O O9 0.242723 0.771777 0.390819
O O10 0.307313 0.809323 0.635264
O O11 0.500000 0.471483 0.250000
O O12 0.394559 0.311133 0.289749
#
# Coordination Sequence:
#
# PCOD9424352 Si02
#       5
#     8   8   8   8   8
#     4   9  20  38  64  94 126 168 220 273 330 398
#     4  12  26  44  71  98 130 177 233 277 341 414
#     4  11  26  44  66 100 137 182 223 288 347 407
#     4   9  19  38  65  90 128 170 215 271 328 399
#     4  11  25  44  65  95 139 175 223 279 351 402
#
# _framework density 20.804964999999999
#
# number of rings (size 3 to 8) (size 9 to 14) (size 15 to 20)
#    0.000    1.600    2.000    1.200    8.400    6.400 
#    0.000    4.000    0.000    0.000    0.000    0.000 
#    0.000    0.000    0.000    0.000    0.000    0.000 
#
# Total GULP energy -222831.197508 kJ/mol
# GULP energy per Si atom -5570.779938 kJ/mol
# Density = 2.075761 g / cm^3
# Si number density = 20.804965 Si / 1000 Ang^3
#
#
#
# Elastic Constant Matrix: (Units=GPa)
#
#
# Indices 1 2 3 4 5 6 
#
# 1 51.9339 2.6337 18.6848 0.0000 0.0000 0.0000
# 2 2.6337 93.1860 74.1964 0.0000 0.0000 0.0000
# 3 18.6848 74.1964 183.2447 0.0000 0.0000 0.0000
# 4 0.0000 0.0000 0.0000 41.6177 0.0000 0.0000
# 5 0.0000 0.0000 0.0000 0.0000 20.6613 0.0000
# 6 0.0000 0.0000 0.0000 0.0000 0.0000 -90.8505
#
#
#
# Elastic Compliance Matrix: (Units=1/GPa)
#
#
# Indices 1 2 3 4 5 6 
#
# 1 0.020144 0.001573 -0.002691 0.000000 0.000000 0.000000
# 2 0.001573 0.015960 -0.006623 0.000000 0.000000 0.000000
# 3 -0.002691 -0.006623 0.008413 0.000000 0.000000 0.000000
# 4 0.000000 0.000000 0.000000 0.024028 0.000000 0.000000
# 5 0.000000 0.000000 0.000000 0.000000 0.048400 0.000000
# 6 0.000000 0.000000 0.000000 0.000000 0.000000 -0.011007
#
#
# Mechanical properties :
#
#
# Convention : Reuss Voigt Hill
#
# Bulk Modulus (GPa) = 34.44009 57.71049 46.07529
# Shear Modulus (GPa) = 38.13984 9.80903 23.97443
#
# Velocity S-wave (km/s) = 4.28624 2.17370 3.39830
# Velocity P-wave (km/s) = 6.40980 5.83944 6.13126
#
# Compressibility (1/GPa) = 0.02903592
#
# Stress axis : x y z
#
# Youngs Moduli (GPa) = 49.64348 62.65740 118.86231
#
# Poissons Ratio (x) = -0.09858 0.31986
# Poissons Ratio (y) = -0.07811 0.78718
# Poissons Ratio (z) = 0.13359 0.41496
#
# Static dielectric constant tensor:
#      x y z
#    x 1.873790 0.000000 0.000000 
#    y 0.000000 1.737400 0.000000 
#    z 0.000000 0.000000 1.832290 
# 
# From -- ./inp_files/3981.got.cif
#   From: 2010.05.17/outbox.cif.g08.bks.cpg/sg54_2_cif.got.tgz:3981.got - 2010.06.03 13:09:01.
