data_PCOD9424510
_publ_section_title
;
Structure prediction by ZEFSAII (Michael W. Deem and Ramdas Pophale) SiO2 
 PCOD9424510
Probable space group: P C C A
;
_chemical_formula_sum "Si O2"
_cell_formula_units_Z 48
_cell_length_a 14.480778
_cell_length_b 17.262720
_cell_length_c 8.406008
_cell_angle_alpha 90.000000
_cell_angle_beta 90.000000
_cell_angle_gamma 90.000000
_cell_volume 2101.313840
_symmetry_space_group_name_H-M "P C C A"
_symmetry_group_IT_number 54
_symmetry_cell_setting 'orthorhombic'
loop_
_space_group_symop_operation_xyz
x,y,z
1/2-x,-y,z
1/2+x,-y,1/2-z
-x,y,1/2-z
-x,-y,-z
1/2+x,y,-z
1/2-x,y,1/2+z
x,-y,1/2+z
loop_
_atom_site_type_symbol
_atom_site_label
_atom_site_fract_x
_atom_site_fract_y
_atom_site_fract_z
Si Si1 0.288563 0.580291 0.604511
Si Si2 0.479106 0.085310 0.436739
Si Si3 0.377718 0.796245 0.402292
Si Si4 0.549231 0.380700 0.584512
Si Si5 0.872517 0.343170 0.592085
Si Si6 0.823463 0.182059 0.465213
O O1 0.250000 0.500000 0.668346
O O2 0.365325 0.566776 0.468239
O O3 0.337043 0.631668 0.737297
O O4 0.202918 0.626020 0.532592
O O5 0.500000 0.091531 0.250000
O O6 0.542515 0.146931 0.533933
O O7 0.372105 0.105457 0.469261
O O8 0.500000 0.000000 0.500000
O O9 0.411293 0.707047 0.405676
O O10 0.349213 0.811262 0.219823
O O11 0.285351 0.809503 0.505601
O O12 0.500000 0.401143 0.750000
O O13 0.470263 0.379275 0.451702
O O14 0.872053 0.251612 0.564018
#
# Coordination Sequence:
#
# PCOD9424510 Si02
#       6
#     8   8   8   8   8   8
#     4  12  28  48  72 107 154 194 252 323 393 458
#     4  12  27  47  75 112 160 205 254 319 384 451
#     4  12  24  45  74 114 152 192 263 316 376 461
#     4  12  24  45  78 109 144 195 256 317 381 464
#     4  12  24  45  76 106 145 196 250 312 380 462
#     4  12  24  44  76 111 148 203 253 318 378 459
#
# _framework density 22.842849999999999
#
# number of rings (size 3 to 8) (size 9 to 14) (size 15 to 20)
#    0.000    0.000    5.000    5.500    2.333    1.333 
#    0.000    5.833    0.000    0.000    0.000    0.000 
#    0.000    0.000    0.000    0.000    0.000    0.000 
#
# Total GULP energy -269217.787177 kJ/mol
# GULP energy per Si atom -5608.703900 kJ/mol
# Density = 2.279086 g / cm^3
# Si number density = 22.842850 Si / 1000 Ang^3
#
#
#
# Elastic Constant Matrix: (Units=GPa)
#
#
# Indices 1 2 3 4 5 6 
#
# 1 123.3037 16.7411 35.0344 0.0000 0.0000 0.0000
# 2 16.7411 57.2732 29.4103 0.0000 0.0000 0.0000
# 3 35.0344 29.4103 143.1468 0.0000 0.0000 0.0000
# 4 0.0000 0.0000 0.0000 11.2976 0.0000 0.0000
# 5 0.0000 0.0000 0.0000 0.0000 48.1340 0.0000
# 6 0.0000 0.0000 0.0000 0.0000 0.0000 -19.3740
#
#
#
# Elastic Compliance Matrix: (Units=1/GPa)
#
#
# Indices 1 2 3 4 5 6 
#
# 1 0.008853 -0.001649 -0.001828 0.000000 0.000000 0.000000
# 2 -0.001649 0.019827 -0.003670 0.000000 0.000000 0.000000
# 3 -0.001828 -0.003670 0.008187 0.000000 0.000000 0.000000
# 4 0.000000 0.000000 0.000000 0.088514 0.000000 0.000000
# 5 0.000000 0.000000 0.000000 0.000000 0.020775 0.000000
# 6 0.000000 0.000000 0.000000 0.000000 0.000000 -0.051616
#
#
# Mechanical properties :
#
#
# Convention : Reuss Voigt Hill
#
# Bulk Modulus (GPa) = 44.30024 54.01057 49.15541
# Shear Modulus (GPa) = 42.97018 24.18072 33.57545
#
# Velocity S-wave (km/s) = 4.34190 3.25709 3.83802
# Velocity P-wave (km/s) = 6.67620 6.15147 6.41920
#
# Compressibility (1/GPa) = 0.02257324
#
# Stress axis : x y z
#
# Youngs Moduli (GPa) = 112.95153 50.43697 122.14159
#
# Poissons Ratio (x) = 0.08318 0.22327
# Poissons Ratio (y) = 0.18628 0.44824
# Poissons Ratio (z) = 0.20647 0.18510
#
# Static dielectric constant tensor:
#      x y z
#    x 1.847590 0.000000 0.000000 
#    y 0.000000 1.853820 0.000000 
#    z 0.000000 0.000000 1.850640 
# 
# From -- ./inp_files/3589.got.cif
#   From: 2010.05.17/outbox.cif.g08.bks.cpg/sg54_2_cif.got.tgz:3589.got - 2010.06.03 13:09:01.
