data_PCOD9424618
_publ_section_title
;
Structure prediction by ZEFSAII (Michael W. Deem and Ramdas Pophale) SiO2 
 PCOD9424618
Probable space group: P C C A
;
_chemical_formula_sum "Si O2"
_cell_formula_units_Z 60
_cell_length_a 27.000000
_cell_length_b 12.000000
_cell_length_c 9.000000
_cell_angle_alpha 90.000000
_cell_angle_beta 90.000000
_cell_angle_gamma 90.000000
_cell_volume 2916.000000
_symmetry_space_group_name_H-M "P C C A"
_symmetry_group_IT_number 54
_symmetry_cell_setting 'orthorhombic'
loop_
_space_group_symop_operation_xyz
x,y,z
1/2-x,-y,z
1/2+x,-y,1/2-z
-x,y,1/2-z
-x,-y,-z
1/2+x,y,-z
1/2-x,y,1/2+z
x,-y,1/2+z
loop_
_atom_site_type_symbol
_atom_site_label
_atom_site_fract_x
_atom_site_fract_y
_atom_site_fract_z
Si Si1 0.440149 0.577415 0.747462
Si Si2 0.911041 0.646163 0.589750
Si Si3 0.750000 0.000000 0.225097
Si Si4 0.281764 0.838303 0.026095
Si Si5 0.947914 0.881863 0.678635
Si Si6 0.103175 0.986592 0.545036
Si Si7 0.331887 0.793520 0.551562
Si Si8 0.871999 0.760778 0.117857
O O1 0.500000 0.574274 0.750000
O O2 0.417291 0.459408 0.802148
O O3 0.427051 0.607570 0.576360
O O4 0.415455 0.669783 0.859214
O O5 0.942269 0.749806 0.654397
O O6 0.858362 0.707895 0.560976
O O7 0.782825 0.081241 0.329427
O O8 0.718950 0.079993 0.117325
O O9 0.226732 0.789053 0.032341
O O10 0.326139 0.751117 0.999917
O O11 0.907555 0.933985 0.793554
O O12 0.000000 0.907145 0.750000
O O13 0.941514 0.939337 0.519018
O O14 0.107735 0.880504 0.435755
O O15 0.146838 0.079878 0.534092
O O16 0.347748 0.763067 0.718739
#
# Coordination Sequence:
#
# PCOD9424618 Si02
#       8
#     8   8   4   8   8   8   8   8
#     4  11  25  47  72  95 131 173 235 288 337 396
#     4  10  25  44  70  97 127 170 229 281 333 402
#     4  10  20  32  60  92 128 184 214 254 322 394
#     4  11  21  36  60  91 133 170 223 266 327 397
#     4  11  24  40  64  95 135 177 224 273 344 402
#     4  11  22  39  61  92 137 175 217 272 332 407
#     4  10  22  43  60  97 134 169 216 275 323 410
#     4  11  24  39  63  98 130 178 223 272 338 395
#
# _framework density 20.576132000000001
#
# number of rings (size 3 to 8) (size 9 to 14) (size 15 to 20)
#    0.000    1.333    2.667    2.800    3.733    2.667 
#    0.000    0.667    0.000    3.200    0.000    0.000 
#    0.000    0.000    0.000    0.000    0.000    0.000 
#
# Total GULP energy -334845.630006 kJ/mol
# GULP energy per Si atom -5580.760500 kJ/mol
# Density = 2.052930 g / cm^3
# Si number density = 20.576132 Si / 1000 Ang^3
#
#
#
# Elastic Constant Matrix: (Units=GPa)
#
#
# Indices 1 2 3 4 5 6 
#
# 1 84.7485 38.3142 0.3788 0.0000 0.0000 0.0000
# 2 38.3142 121.2465 26.2625 0.0000 0.0000 0.0000
# 3 0.3788 26.2625 77.0914 0.0000 0.0000 0.0000
# 4 0.0000 0.0000 0.0000 36.9108 0.0000 0.0000
# 5 0.0000 0.0000 0.0000 0.0000 28.7416 0.0000
# 6 0.0000 0.0000 0.0000 0.0000 0.0000 30.3432
#
#
#
# Elastic Compliance Matrix: (Units=1/GPa)
#
#
# Indices 1 2 3 4 5 6 
#
# 1 0.013935 -0.004738 0.001546 0.000000 0.000000 0.000000
# 2 -0.004738 0.010516 -0.003559 0.000000 0.000000 0.000000
# 3 0.001546 -0.003559 0.014177 0.000000 0.000000 0.000000
# 4 0.000000 0.000000 0.000000 0.027092 0.000000 0.000000
# 5 0.000000 0.000000 0.000000 0.000000 0.034793 0.000000
# 6 0.000000 0.000000 0.000000 0.000000 0.000000 0.032956
#
#
# Mechanical properties :
#
#
# Convention : Reuss Voigt Hill
#
# Bulk Modulus (GPa) = 39.80281 45.88860 42.84571
# Shear Modulus (GPa) = 32.18607 33.74116 32.96362
#
# Velocity S-wave (km/s) = 3.95934 4.05386 4.00688
# Velocity P-wave (km/s) = 6.34728 6.65297 6.50192
#
# Compressibility (1/GPa) = 0.02512385
#
# Stress axis : x y z
#
# Youngs Moduli (GPa) = 71.76260 95.09428 70.53923
#
# Poissons Ratio (x) = 0.45058 -0.10903
# Poissons Ratio (y) = 0.34003 0.25106
# Poissons Ratio (z) = -0.11092 0.33845
#
# Static dielectric constant tensor:
#      x y z
#    x 1.806240 0.000000 0.000000 
#    y 0.000000 1.719250 0.000000 
#    z 0.000000 0.000000 1.764890 
# 
# From -- ./inp_files/5581.got.cif
#   From: 2010.05.17/outbox.ucp.g08.bks.cvg/sg54_3_cif.got.tgz:5581.got - 2010.06.11 16:34:40.
