data_PCOD9424714
_publ_section_title
;
Structure prediction by ZEFSAII (Michael W. Deem and Ramdas Pophale) SiO2 
 PCOD9424714
Probable space group: P B A M
;
_chemical_formula_sum "Si O2"
_cell_formula_units_Z 52
_cell_length_a 5.575378
_cell_length_b 18.778712
_cell_length_c 24.143411
_cell_angle_alpha 90.000000
_cell_angle_beta 90.000000
_cell_angle_gamma 90.000000
_cell_volume 2527.776931
_symmetry_space_group_name_H-M "P B A M"
_symmetry_group_IT_number 55
_symmetry_cell_setting 'orthorhombic'
loop_
_space_group_symop_operation_xyz
x,y,z
-x,-y,z
1/2+x,1/2-y,-z
1/2-x,1/2+y,-z
-x,-y,-z
x,y,-z
1/2-x,1/2+y,z
1/2+x,1/2-y,z
loop_
_atom_site_type_symbol
_atom_site_label
_atom_site_fract_x
_atom_site_fract_y
_atom_site_fract_z
Si Si1 0.250000 0.043551 0.000000
Si Si2 0.750000 0.145462 0.851276
Si Si3 0.750000 0.867602 0.887533
Si Si4 0.749999 0.162604 0.390961
Si Si5 0.250001 0.673817 0.565746
Si Si6 0.250000 0.793800 0.271843
Si Si7 0.750000 0.994543 0.800998
O O1 0.250000 0.090341 0.944635
O O2 0.500000 0.000000 0.000000
O O3 0.000000 0.000000 0.000000
O O4 0.506285 0.169558 0.880602
O O5 0.750000 0.169866 0.787845
O O6 0.750000 0.058482 0.846732
O O7 0.993715 0.169558 0.880602
O O8 0.750000 0.921262 0.834657
O O9 0.498565 0.136875 0.416409
O O10 0.749999 0.248176 0.404934
O O11 0.750000 0.155134 0.324954
O O12 0.001433 0.136875 0.416409
O O13 0.250000 0.685649 0.500000
O O14 0.500001 0.750000 0.275569
O O15 0.500000 0.000000 0.769346
O O16 0.000000 0.000000 0.769346
#
# Coordination Sequence:
#
# PCOD9424714 Si02
#       7
#     4   8   8   8   8   8   8
#     4  12  20  30  54  84 110 130 136 172 242 304
#     4  10  20  32  48  67  93 128 160 186 234 279
#     4  10  19  33  49  76 102 119 144 179 228 305
#     4  10  16  27  38  58  84 111 152 202 224 263
#     4  10  16  25  41  60  83 115 151 185 241 297
#     4  12  21  34  47  64  90 127 170 217 232 245
#     4   8  14  27  44  63  91 114 136 171 212 281
#
# _framework density 20.571437
#
# number of rings (size 3 to 8) (size 9 to 14) (size 15 to 20)
#    0.000    1.846    3.077    6.923    0.000    0.000 
#    0.000    0.000    0.000    0.000    0.000   10.769 
#    0.000    0.000    0.000    0.000    0.000  235.385 
#
# Total GULP energy -289817.216734 kJ/mol
# GULP energy per Si atom -5573.408014 kJ/mol
# Density = 2.052462 g / cm^3
# Si number density = 20.571437 Si / 1000 Ang^3
#
#
#
# Elastic Constant Matrix: (Units=GPa)
#
#
# Indices 1 2 3 4 5 6 
#
# 1 273.1229 17.8611 58.2780 0.0000 0.0000 0.0000
# 2 17.8611 32.1463 -1.4138 0.0000 0.0000 0.0000
# 3 58.2780 -1.4138 125.0679 0.0000 0.0000 0.0000
# 4 0.0000 0.0000 0.0000 182.0243 0.0000 0.0000
# 5 0.0000 0.0000 0.0000 0.0000 68.8345 0.0000
# 6 0.0000 0.0000 0.0000 0.0000 0.0000 -9.4956
#
#
#
# Elastic Compliance Matrix: (Units=1/GPa)
#
#
# Indices 1 2 3 4 5 6 
#
# 1 0.004250 -0.002450 -0.002008 0.000000 0.000000 0.000000
# 2 -0.002450 0.032535 0.001509 0.000000 0.000000 0.000000
# 3 -0.002008 0.001509 0.008948 0.000000 0.000000 0.000000
# 4 0.000000 0.000000 0.000000 0.005494 0.000000 0.000000
# 5 0.000000 0.000000 0.000000 0.000000 0.014528 0.000000
# 6 0.000000 0.000000 0.000000 0.000000 0.000000 -0.105312
#
#
# Mechanical properties :
#
#
# Convention : Reuss Voigt Hill
#
# Bulk Modulus (GPa) = 25.10247 64.42084 44.76166
# Shear Modulus (GPa) = -245.32375 71.98010 -86.67183
#
# Velocity S-wave (km/s) = -10.93222 5.92168 -6.49797
# Velocity P-wave (km/s) = 12.12939 8.83961 5.87297
#
# Compressibility (1/GPa) = 0.03983672
#
# Stress axis : x y z
#
# Youngs Moduli (GPa) = 235.29221 30.73587 111.75151
#
# Poissons Ratio (x) = 0.07529 0.22441
# Poissons Ratio (y) = 0.57640 -0.16867
# Poissons Ratio (z) = 0.47249 -0.04639
#
# Static dielectric constant tensor:
#      x y z
#    x 1.540920 0.000000 0.000000 
#    y 0.000000 1.744640 0.000000 
#    z 0.000000 0.000000 1.668480 
# 
# From -- ./inp_files/22362.got.cif
#   From: 2010.05.17/outbox.cif.g08.bks.cpg/sg55_12_cif.got.tgz:22362.got - 2010.06.03 13:27:54.
