data_PCOD9424094
_publ_section_title
;
Structure prediction by ZEFSAII (Michael W. Deem and Ramdas Pophale) SiO2 
 PCOD9424094
Probable space group: P C C A
;
_chemical_formula_sum "Si O2"
_cell_formula_units_Z 32
_cell_length_a 18.029091
_cell_length_b 15.299956
_cell_length_c 4.942595
_cell_angle_alpha 90.000000
_cell_angle_beta 90.000000
_cell_angle_gamma 90.000000
_cell_volume 1363.386653
_symmetry_space_group_name_H-M "P C C A"
_symmetry_group_IT_number 54
_symmetry_cell_setting 'orthorhombic'
loop_
_space_group_symop_operation_xyz
x,y,z
1/2-x,-y,z
1/2+x,-y,1/2-z
-x,y,1/2-z
-x,-y,-z
1/2+x,y,-z
1/2-x,y,1/2+z
x,-y,1/2+z
loop_
_atom_site_type_symbol
_atom_site_label
_atom_site_fract_x
_atom_site_fract_y
_atom_site_fract_z
Si Si1 0.000000 0.137350 0.250000
Si Si2 0.071203 0.705975 0.059567
Si Si3 0.205143 0.755011 0.423509
Si Si4 0.500000 0.565299 0.250000
Si Si5 0.640200 0.942528 0.473881
O O1 0.055640 0.201103 0.414591
O O2 0.053031 0.084070 0.048354
O O3 0.139087 0.708291 0.264985
O O4 0.000000 0.690266 0.250000
O O5 0.066630 0.632128 0.828062
O O6 0.223764 0.735756 0.734218
O O7 0.183930 0.857434 0.429956
O O8 0.500000 0.500000 0.500000
O O9 0.656174 0.021437 0.676447
#
# Coordination Sequence:
#
# PCOD9424094 Si02
#       5
#     4   8   8   4   8
#     4  11  22  40  66 103 136 182 248 305 370 422
#     4  11  23  44  76 103 140 184 239 292 346 438
#     4  12  27  45  66  97 138 191 243 292 358 430
#     4  11  24  42  76 117 144 170 218 289 356 420
#     4  12  25  40  63  93 135 183 240 311 370 419
#
# _framework density 23.470963999999999
#
# number of rings (size 3 to 8) (size 9 to 14) (size 15 to 20)
#    0.000    0.500    3.750    5.250    3.500    3.000 
#    0.000    0.000    0.000    4.500    0.000    0.000 
#    0.000    0.000    0.000    0.000    0.000    0.000 
#
# Total GULP energy -179021.218083 kJ/mol
# GULP energy per Si atom -5594.413065 kJ/mol
# Density = 2.341754 g / cm^3
# Si number density = 23.470964 Si / 1000 Ang^3
#
#
#
# Elastic Constant Matrix: (Units=GPa)
#
#
# Indices 1 2 3 4 5 6 
#
# 1 91.6708 25.2080 30.2357 0.0000 0.0000 0.0000
# 2 25.2080 74.0977 37.2542 0.0000 0.0000 0.0000
# 3 30.2357 37.2542 152.0485 0.0000 0.0000 0.0000
# 4 0.0000 0.0000 0.0000 52.4293 0.0000 0.0000
# 5 0.0000 0.0000 0.0000 0.0000 50.0682 0.0000
# 6 0.0000 0.0000 0.0000 0.0000 0.0000 16.7239
#
#
#
# Elastic Compliance Matrix: (Units=1/GPa)
#
#
# Indices 1 2 3 4 5 6 
#
# 1 0.012379 -0.003391 -0.001631 0.000000 0.000000 0.000000
# 2 -0.003391 0.016321 -0.003324 0.000000 0.000000 0.000000
# 3 -0.001631 -0.003324 0.007716 0.000000 0.000000 0.000000
# 4 0.000000 0.000000 0.000000 0.019073 0.000000 0.000000
# 5 0.000000 0.000000 0.000000 0.000000 0.019973 0.000000
# 6 0.000000 0.000000 0.000000 0.000000 0.000000 0.059795
#
#
# Mechanical properties :
#
#
# Convention : Reuss Voigt Hill
#
# Bulk Modulus (GPa) = 50.70380 55.91253 53.30816
# Shear Modulus (GPa) = 31.54102 38.85223 35.19663
#
# Velocity S-wave (km/s) = 3.66981 4.07299 3.87664
# Velocity P-wave (km/s) = 6.29336 6.78179 6.54213
#
# Compressibility (1/GPa) = 0.01972239
#
# Stress axis : x y z
#
# Youngs Moduli (GPa) = 80.78167 61.27107 129.60647
#
# Poissons Ratio (x) = 0.20780 0.21135
# Poissons Ratio (y) = 0.27397 0.43087
# Poissons Ratio (z) = 0.13173 0.20369
#
# Static dielectric constant tensor:
#      x y z
#    x 1.963180 0.000000 0.000000 
#    y 0.000000 1.872690 0.000000 
#    z 0.000000 0.000000 1.910780 
# 
# From -- ./inp_files/875.got.cif
#   From: 2010.05.17/outbox.cif.g08.bks.cpg/sg54_1_cif.got.tgz:875.got - 2010.06.03 13:09:01.
