data_PCOD9424901
_publ_section_title
;
Structure prediction by ZEFSAII (Michael W. Deem and Ramdas Pophale) SiO2 
 PCOD9424901
Probable space group: P B A M
;
_chemical_formula_sum "Si O2"
_cell_formula_units_Z 44
_cell_length_a 15.811560
_cell_length_b 15.646540
_cell_length_c 8.176479
_cell_angle_alpha 90.000000
_cell_angle_beta 90.000000
_cell_angle_gamma 90.000000
_cell_volume 2022.829883
_symmetry_space_group_name_H-M "P B A M"
_symmetry_group_IT_number 55
_symmetry_cell_setting 'orthorhombic'
loop_
_space_group_symop_operation_xyz
x,y,z
-x,-y,z
1/2+x,1/2-y,-z
1/2-x,1/2+y,-z
-x,-y,-z
x,y,-z
1/2-x,1/2+y,z
1/2+x,1/2-y,z
loop_
_atom_site_type_symbol
_atom_site_label
_atom_site_fract_x
_atom_site_fract_y
_atom_site_fract_z
Si Si1 0.261155 0.807419 0.000000
Si Si2 0.621059 0.239545 0.311133
Si Si3 0.060869 0.421468 0.802365
Si Si4 0.165711 0.557410 0.677740
Si Si5 0.324627 0.134662 0.000000
Si Si6 0.631153 0.434918 0.320439
Si Si7 0.172865 0.991574 0.000000
O O1 0.314687 0.785430 0.835725
O O2 0.191419 0.733812 0.000000
O O3 0.222476 0.902068 0.000000
O O4 0.651620 0.231501 0.500000
O O5 0.598001 0.338957 0.289946
O O6 0.548027 0.170000 0.278959
O O7 0.147894 0.459191 0.724651
O O8 0.000000 0.500000 0.757750
O O9 0.065830 0.416030 0.000000
O O10 0.130091 0.577500 0.500000
O O11 0.266068 0.573899 0.669001
O O12 0.130744 0.609093 0.832687
O O13 0.241342 0.071500 0.000000
O O14 0.602837 0.465091 0.500000
O O15 0.619078 0.495348 0.164860
#
# Coordination Sequence:
#
# PCOD9424901 Si02
#       7
#     4   8   8   8   4   8   4
#     4  12  20  30  52  74 102 137 171 211 267 314
#     4  11  20  32  51  70  97 136 178 215 250 307
#     4  11  23  35  50  75 108 146 181 214 261 320
#     4  10  18  32  50  66  97 136 169 213 255 300
#     4  10  18  32  46  72 104 129 170 216 254 319
#     4   9  18  31  47  70  94 127 170 212 256 298
#     4  10  18  28  44  64  96 131 153 203 253 302
#
# _framework density 21.751705999999999
#
# number of rings (size 3 to 8) (size 9 to 14) (size 15 to 20)
#    0.000    1.636    5.455    2.727    0.000    3.636 
#    0.000    0.000    0.000    0.000    0.000    0.000 
#    0.000    2.909    0.000    5.636    1.091    0.000 
#
# Total GULP energy -245141.349716 kJ/mol
# GULP energy per Si atom -5571.394312 kJ/mol
# Density = 2.170220 g / cm^3
# Si number density = 21.751706 Si / 1000 Ang^3
#
#
#
# Elastic Constant Matrix: (Units=GPa)
#
#
# Indices 1 2 3 4 5 6 
#
# 1 11.3396 -4.7663 -8.5736 0.0000 0.0000 0.0000
# 2 -4.7663 41.7498 20.3462 0.0000 0.0000 0.0000
# 3 -8.5736 20.3462 220.4706 0.0000 0.0000 0.0000
# 4 0.0000 0.0000 0.0000 19.9711 0.0000 0.0000
# 5 0.0000 0.0000 0.0000 0.0000 5.9321 0.0000
# 6 0.0000 0.0000 0.0000 0.0000 0.0000 16.1029
#
#
#
# Elastic Compliance Matrix: (Units=1/GPa)
#
#
# Indices 1 2 3 4 5 6 
#
# 1 0.094252 0.009397 0.002798 0.000000 0.000000 0.000000
# 2 0.009397 0.026017 -0.002036 0.000000 0.000000 0.000000
# 3 0.002798 -0.002036 0.004832 0.000000 0.000000 0.000000
# 4 0.000000 0.000000 0.000000 0.050072 0.000000 0.000000
# 5 0.000000 0.000000 0.000000 0.000000 0.168576 0.000000
# 6 0.000000 0.000000 0.000000 0.000000 0.000000 0.062100
#
#
# Mechanical properties :
#
#
# Convention : Reuss Voigt Hill
#
# Bulk Modulus (GPa) = 6.87667 31.95252 19.41459
# Shear Modulus (GPa) = 11.52061 26.17146 18.84603
#
# Velocity S-wave (km/s) = 2.30389 3.47247 2.94669
# Velocity P-wave (km/s) = 3.20086 5.54968 4.53015
#
# Compressibility (1/GPa) = 0.14541925
#
# Stress axis : x y z
#
# Youngs Moduli (GPa) = 10.60987 38.43641 206.93577
#
# Poissons Ratio (x) = -0.36117 -0.57902
# Poissons Ratio (y) = -0.09970 0.42124
# Poissons Ratio (z) = -0.02969 0.07824
#
# Static dielectric constant tensor:
#      x y z
#    x 1.922490 0.000000 0.000000 
#    y 0.000000 1.840930 0.000000 
#    z 0.000000 0.000000 1.868350 
# 
# From -- ./inp_files/5858.got.cif
#   From: 2010.05.17/outbox.cif.g08.bks.cpg/sg55_3_cif.got.tgz:5858.got - 2010.06.03 13:27:54.
