data_PCOD9424460
_publ_section_title
;
Structure prediction by ZEFSAII (Michael W. Deem and Ramdas Pophale) SiO2 
 PCOD9424460
Probable space group: P C C A
;
_chemical_formula_sum "Si O2"
_cell_formula_units_Z 40
_cell_length_a 7.912275
_cell_length_b 11.093991
_cell_length_c 17.507045
_cell_angle_alpha 90.000000
_cell_angle_beta 90.000000
_cell_angle_gamma 90.000000
_cell_volume 1536.745785
_symmetry_space_group_name_H-M "P C C A"
_symmetry_group_IT_number 54
_symmetry_cell_setting 'orthorhombic'
loop_
_space_group_symop_operation_xyz
x,y,z
1/2-x,-y,z
1/2+x,-y,1/2-z
-x,y,1/2-z
-x,-y,-z
1/2+x,y,-z
1/2-x,y,1/2+z
x,-y,1/2+z
loop_
_atom_site_type_symbol
_atom_site_label
_atom_site_fract_x
_atom_site_fract_y
_atom_site_fract_z
Si Si1 0.750000 0.000000 0.531761
Si Si2 0.500000 0.415833 0.750000
Si Si3 0.482420 0.866720 0.877195
Si Si4 0.490064 0.420139 0.577489
Si Si5 0.184448 0.238136 0.746121
Si Si6 0.310077 0.264841 0.019652
O O1 0.923882 0.014111 0.579988
O O2 0.742783 0.125835 0.488053
O O3 0.508020 0.470827 0.663318
O O4 0.336298 0.328866 0.743068
O O5 0.323612 0.839621 0.822608
O O6 0.513816 0.755325 0.934555
O O7 0.500000 0.500000 0.500000
O O8 0.640459 0.325983 0.559942
O O9 0.313651 0.348257 0.568393
O O10 0.147191 0.144751 0.676861
O O11 0.000000 0.303538 0.750000
#
# Coordination Sequence:
#
# PCOD9424460 Si02
#       6
#     4   4   8   8   8   8
#     4  12  22  40  76 110 152 222 262 330 418 490
#     4  12  22  48  86 110 154 224 268 344 430 486
#     4   9  20  41  65 112 156 200 263 336 393 479
#     4  12  28  50  79 120 155 212 283 344 421 509
#     4   8  20  42  70 110 158 205 263 334 392 492
#     4  12  24  47  74 111 163 201 276 334 406 498
#
# _framework density 26.029026999999999
#
# number of rings (size 3 to 8) (size 9 to 14) (size 15 to 20)
#    1.200    0.000    4.000    2.400    0.000    0.000 
#    0.000   18.000    0.000    0.000    0.000    0.000 
#    0.000    0.000    0.000    0.000    0.000    0.000 
#
# Total GULP energy -222961.136056 kJ/mol
# GULP energy per Si atom -5574.028401 kJ/mol
# Density = 2.596978 g / cm^3
# Si number density = 26.029027 Si / 1000 Ang^3
#
#
#
# Elastic Constant Matrix: (Units=GPa)
#
#
# Indices 1 2 3 4 5 6 
#
# 1 117.1612 30.7703 28.3843 0.0000 0.0000 0.0000
# 2 30.7703 104.0595 79.5396 0.0000 0.0000 0.0000
# 3 28.3843 79.5396 197.9366 0.0000 0.0000 0.0000
# 4 0.0000 0.0000 0.0000 46.7008 0.0000 0.0000
# 5 0.0000 0.0000 0.0000 0.0000 30.4037 0.0000
# 6 0.0000 0.0000 0.0000 0.0000 0.0000 -7.3954
#
#
#
# Elastic Compliance Matrix: (Units=1/GPa)
#
#
# Indices 1 2 3 4 5 6 
#
# 1 0.009269 -0.002489 -0.000329 0.000000 0.000000 0.000000
# 2 -0.002489 0.014539 -0.005485 0.000000 0.000000 0.000000
# 3 -0.000329 -0.005485 0.007304 0.000000 0.000000 0.000000
# 4 0.000000 0.000000 0.000000 0.021413 0.000000 0.000000
# 5 0.000000 0.000000 0.000000 0.000000 0.032891 0.000000
# 6 0.000000 0.000000 0.000000 0.000000 0.000000 -0.135220
#
#
# Mechanical properties :
#
#
# Convention : Reuss Voigt Hill
#
# Bulk Modulus (GPa) = 68.94684 77.39395 73.17040
# Shear Modulus (GPa) = -176.28316 32.63937 -71.82190
#
# Velocity S-wave (km/s) = -8.23848 3.54497 -5.25860
# Velocity P-wave (km/s) = 7.99693 6.82305 2.94931
#
# Compressibility (1/GPa) = 0.01450393
#
# Stress axis : x y z
#
# Youngs Moduli (GPa) = 107.88985 68.78129 136.92025
#
# Poissons Ratio (x) = 0.17123 0.04502
# Poissons Ratio (y) = 0.26859 0.75106
# Poissons Ratio (z) = 0.03547 0.37729
#
# Static dielectric constant tensor:
#      x y z
#    x 2.102710 0.000000 0.000000 
#    y 0.000000 2.033620 0.000000 
#    z 0.000000 0.000000 2.383630 
# 
# From -- ./inp_files/11563.got.cif
#   From: 2010.05.17/outbox.cif.g08.bks.cpg/sg54_6_cif.got.tgz:11563.got - 2010.06.03 13:09:01.
