data_PCOD9424003
_publ_section_title
;
Structure prediction by ZEFSAII (Michael W. Deem and Ramdas Pophale) SiO2 
 PCOD9424003
Probable space group: P C C A
;
_chemical_formula_sum "Si O2"
_cell_formula_units_Z 60
_cell_length_a 16.640730
_cell_length_b 10.048000
_cell_length_c 17.831140
_cell_angle_alpha 90.000000
_cell_angle_beta 90.000000
_cell_angle_gamma 90.000000
_cell_volume 2981.474576
_symmetry_space_group_name_H-M "P C C A"
_symmetry_group_IT_number 54
_symmetry_cell_setting 'orthorhombic'
loop_
_space_group_symop_operation_xyz
x,y,z
1/2-x,-y,z
1/2+x,-y,1/2-z
-x,y,1/2-z
-x,-y,-z
1/2+x,y,-z
1/2-x,y,1/2+z
x,-y,1/2+z
loop_
_atom_site_type_symbol
_atom_site_label
_atom_site_fract_x
_atom_site_fract_y
_atom_site_fract_z
Si Si1 0.250000 0.000000 0.545582
Si Si2 0.490787 0.799101 0.339286
Si Si3 0.935782 0.493324 0.659071
Si Si4 0.158987 0.762144 0.595469
Si Si5 0.580013 0.916233 0.020342
Si Si6 0.336755 0.494777 0.195913
Si Si7 0.662049 0.555824 0.523799
Si Si8 0.577990 0.649312 0.922282
O O1 0.270715 0.129919 0.595100
O O2 0.167675 0.022710 0.498630
O O3 0.500000 0.825398 0.250000
O O4 0.469375 0.642941 0.350533
O O5 0.576322 0.827858 0.377920
O O6 0.427486 0.877610 0.391439
O O7 0.907737 0.485920 0.744580
O O8 0.856714 0.463517 0.610179
O O9 0.999104 0.389090 0.624707
O O10 0.162573 0.631434 0.648106
O O11 0.154715 0.701441 0.511584
O O12 0.575095 0.784940 0.967546
O O13 0.500000 0.000000 0.000000
O O14 0.250000 0.500000 0.233128
O O15 0.350169 0.374560 0.137445
O O16 0.750000 0.500000 0.505324
O O17 0.595349 0.465663 0.482880
#
# Coordination Sequence:
#
# PCOD9424003 Si02
#       8
#     4   8   8   8   8   8   8   8
#     4  12  26  46  70 100 132 186 252 292 336 408
#     4  12  22  44  69  98 132 178 223 276 355 425
#     4  12  21  37  67  99 133 171 212 278 359 421
#     4  11  22  40  68  93 135 178 230 281 339 418
#     4  12  26  45  72  96 132 186 238 287 337 416
#     4  11  22  39  63 102 141 174 215 286 358 416
#     4  11  21  34  59  97 127 163 214 282 343 398
#     4  11  21  40  65  96 127 167 227 277 348 410
#
# _framework density 20.124269999999999
#
# number of rings (size 3 to 8) (size 9 to 14) (size 15 to 20)
#    0.000    0.533    6.667    5.200    0.000    0.000 
#    0.000    2.000    0.000    0.000    0.000    0.000 
#    0.000    0.000    0.000    0.000    0.000    0.000 
#
# Total GULP energy -334716.802099 kJ/mol
# GULP energy per Si atom -5578.613368 kJ/mol
# Density = 2.007847 g / cm^3
# Si number density = 20.124270 Si / 1000 Ang^3
#
#
#
# Elastic Constant Matrix: (Units=GPa)
#
#
# Indices 1 2 3 4 5 6 
#
# 1 121.3310 36.9970 43.7949 0.0000 0.0000 0.0000
# 2 36.9970 97.7909 43.8674 0.0000 0.0000 0.0000
# 3 43.7949 43.8674 120.4157 0.0000 0.0000 0.0000
# 4 0.0000 0.0000 0.0000 20.2762 0.0000 0.0000
# 5 0.0000 0.0000 0.0000 0.0000 41.8614 0.0000
# 6 0.0000 0.0000 0.0000 0.0000 0.0000 35.5479
#
#
#
# Elastic Compliance Matrix: (Units=1/GPa)
#
#
# Indices 1 2 3 4 5 6 
#
# 1 0.010001 -0.002572 -0.002700 0.000000 0.000000 0.000000
# 2 -0.002572 0.012885 -0.003758 0.000000 0.000000 0.000000
# 3 -0.002700 -0.003758 0.010656 0.000000 0.000000 0.000000
# 4 0.000000 0.000000 0.000000 0.049319 0.000000 0.000000
# 5 0.000000 0.000000 0.000000 0.000000 0.023888 0.000000
# 6 0.000000 0.000000 0.000000 0.000000 0.000000 0.028131
#
#
# Mechanical properties :
#
#
# Convention : Reuss Voigt Hill
#
# Bulk Modulus (GPa) = 64.60041 65.42848 65.01445
# Shear Modulus (GPa) = 31.62509 33.86230 32.74370
#
# Velocity S-wave (km/s) = 3.96850 4.10647 4.03808
# Velocity P-wave (km/s) = 7.29172 7.42071 7.35650
#
# Compressibility (1/GPa) = 0.01547978
#
# Stress axis : x y z
#
# Youngs Moduli (GPa) = 99.99053 77.60916 93.84531
#
# Poissons Ratio (x) = 0.19964 0.25340
# Poissons Ratio (y) = 0.25721 0.35271
# Poissons Ratio (z) = 0.27000 0.29169
#
# Static dielectric constant tensor:
#      x y z
#    x 1.787310 0.000000 0.000000 
#    y 0.000000 1.701180 0.000000 
#    z 0.000000 0.000000 1.739050 
# 
# From -- ./inp_files/18686.got.cif
#   From: 2010.05.17/outbox.cif.g08.bks.cpg/sg54_10_cif.got.tgz:18686.got - 2010.06.03 13:09:01.
