data_PCOD9424894
_publ_section_title
;
Structure prediction by ZEFSAII (Michael W. Deem and Ramdas Pophale) SiO2 
 PCOD9424894
Probable space group: P B A M
;
_chemical_formula_sum "Si O2"
_cell_formula_units_Z 56
_cell_length_a 22.571281
_cell_length_b 18.252520
_cell_length_c 8.706903
_cell_angle_alpha 90.000000
_cell_angle_beta 90.000000
_cell_angle_gamma 90.000000
_cell_volume 3587.093911
_symmetry_space_group_name_H-M "P B A M"
_symmetry_group_IT_number 55
_symmetry_cell_setting 'orthorhombic'
loop_
_space_group_symop_operation_xyz
x,y,z
-x,-y,z
1/2+x,1/2-y,-z
1/2-x,1/2+y,-z
-x,-y,-z
x,y,-z
1/2-x,1/2+y,z
1/2+x,1/2-y,z
loop_
_atom_site_type_symbol
_atom_site_label
_atom_site_fract_x
_atom_site_fract_y
_atom_site_fract_z
Si Si1 0.845841 0.374538 0.817340
Si Si2 0.683513 0.727040 0.317176
Si Si3 0.214279 0.922497 0.816548
Si Si4 0.782488 0.920068 0.316625
Si Si5 0.568900 0.994649 0.317749
Si Si6 0.648091 0.119250 0.817378
Si Si7 0.689027 0.273842 0.815943
O O1 0.855402 0.292426 0.753752
O O2 0.784405 0.405236 0.745234
O O3 0.897640 0.429278 0.769082
O O4 0.838633 0.372631 0.000000
O O5 0.678861 0.726543 0.500000
O O6 0.677154 0.645716 0.249475
O O7 0.749726 0.750561 0.265310
O O8 0.284194 0.906192 0.784191
O O9 0.199206 0.999911 0.741012
O O10 0.208090 0.925662 0.000000
O O11 0.782049 0.916026 0.500000
O O12 0.822587 0.854851 0.246656
O O13 0.573609 0.981878 0.500000
O O14 0.602983 0.069141 0.274257
O O15 0.500000 0.000000 0.275910
O O16 0.645166 0.206229 0.784271
O O17 0.638966 0.108508 0.000000
O O18 0.698459 0.275889 0.000000
#
# Coordination Sequence:
#
# PCOD9424894 Si02
#       7
#     8   8   8   8   8   8   8
#     4  11  20  32  47  62  86 120 154 190 231 274
#     4  10  18  28  43  64  88 116 150 186 224 270
#     4  10  18  29  44  65  92 122 153 184 223 271
#     4  11  19  27  43  67  92 120 153 186 224 270
#     4  11  23  35  48  67  90 118 156 200 239 274
#     4   9  18  31  47  63  84 118 154 188 229 272
#     4   9  17  29  43  61  87 117 150 184 223 272
#
# _framework density 15.611523999999999
#
# number of rings (size 3 to 8) (size 9 to 14) (size 15 to 20)
#    0.000    1.857    1.429    7.714    0.000    4.000 
#    0.000    0.000    0.000    0.000    0.000    0.000 
#    0.000    1.143    0.000   12.000    0.000    6.571 
#
# Total GULP energy -312280.215629 kJ/mol
# GULP energy per Si atom -5576.432422 kJ/mol
# Density = 1.557599 g / cm^3
# Si number density = 15.611524 Si / 1000 Ang^3
#
#
#
# Elastic Constant Matrix: (Units=GPa)
#
#
# Indices 1 2 3 4 5 6 
#
# 1 35.3137 28.7391 26.4722 0.0000 0.0000 0.0000
# 2 28.7391 145.7178 55.0325 0.0000 0.0000 0.0000
# 3 26.4722 55.0325 101.5540 0.0000 0.0000 0.0000
# 4 0.0000 0.0000 0.0000 14.3048 0.0000 0.0000
# 5 0.0000 0.0000 0.0000 0.0000 22.7275 0.0000
# 6 0.0000 0.0000 0.0000 0.0000 0.0000 9.6407
#
#
#
# Elastic Compliance Matrix: (Units=1/GPa)
#
#
# Indices 1 2 3 4 5 6 
#
# 1 0.037558 -0.004665 -0.007263 0.000000 0.000000 0.000000
# 2 -0.004665 0.009208 -0.003774 0.000000 0.000000 0.000000
# 3 -0.007263 -0.003774 0.013785 0.000000 0.000000 0.000000
# 4 0.000000 0.000000 0.000000 0.069906 0.000000 0.000000
# 5 0.000000 0.000000 0.000000 0.000000 0.044000 0.000000
# 6 0.000000 0.000000 0.000000 0.000000 0.000000 0.103726
#
#
# Mechanical properties :
#
#
# Convention : Reuss Voigt Hill
#
# Bulk Modulus (GPa) = 34.30637 55.89701 45.10169
# Shear Modulus (GPa) = 15.65918 20.82407 18.24163
#
# Velocity S-wave (km/s) = 3.17054 3.65621 3.42200
# Velocity P-wave (km/s) = 5.95196 7.32847 6.67579
#
# Compressibility (1/GPa) = 0.02914910
#
# Stress axis : x y z
#
# Youngs Moduli (GPa) = 26.62552 108.60383 72.54183
#
# Poissons Ratio (x) = 0.50659 0.52684
# Poissons Ratio (y) = 0.12420 0.27376
# Poissons Ratio (z) = 0.19337 0.40985
#
# Static dielectric constant tensor:
#      x y z
#    x 1.482910 0.000000 0.000000 
#    y 0.000000 1.575030 0.000000 
#    z 0.000000 0.000000 1.516690 
# 
# From -- ./inp_files/9847.got.cif
#   From: 2010.05.17/outbox.cif.g08.bks.cpg/sg55_5_cif.got.tgz:9847.got - 2010.06.03 13:27:54.
