data_PCOD9424737
_publ_section_title
;
Structure prediction by ZEFSAII (Michael W. Deem and Ramdas Pophale) SiO2 
 PCOD9424737
Probable space group: P B A M
;
_chemical_formula_sum "Si O2"
_cell_formula_units_Z 48
_cell_length_a 13.115152
_cell_length_b 5.268581
_cell_length_c 29.776494
_cell_angle_alpha 90.000000
_cell_angle_beta 90.000000
_cell_angle_gamma 90.000000
_cell_volume 2057.503348
_symmetry_space_group_name_H-M "P B A M"
_symmetry_group_IT_number 55
_symmetry_cell_setting 'orthorhombic'
loop_
_space_group_symop_operation_xyz
x,y,z
-x,-y,z
1/2+x,1/2-y,-z
1/2-x,1/2+y,-z
-x,-y,-z
x,y,-z
1/2-x,1/2+y,z
1/2+x,1/2-y,z
loop_
_atom_site_type_symbol
_atom_site_label
_atom_site_fract_x
_atom_site_fract_y
_atom_site_fract_z
Si Si1 0.935393 0.750519 0.588083
Si Si2 0.181099 0.265764 0.772670
Si Si3 0.875524 0.864886 0.131051
Si Si4 0.070914 0.750241 0.000000
Si Si5 0.643088 0.863069 0.904914
Si Si6 0.314986 0.637323 0.321242
Si Si7 0.191376 0.391586 0.500000
O O1 0.873141 0.817843 0.632712
O O2 0.868096 0.678237 0.545169
O O3 0.000000 0.500000 0.598343
O O4 0.000000 0.000000 0.576500
O O5 0.231276 0.545213 0.773736
O O6 0.118292 0.226235 0.817923
O O7 0.127138 0.208155 0.725091
O O8 0.905417 0.641048 0.097479
O O9 0.754937 0.901056 0.116842
O O10 0.913259 0.150088 0.124694
O O11 0.140112 0.739162 0.955408
O O12 0.000000 0.500000 0.000000
O O13 0.000000 0.000000 0.000000
O O14 0.275874 0.347600 0.320390
O O15 0.215232 0.691081 0.500000
#
# Coordination Sequence:
#
# PCOD9424737 Si02
#       7
#     8   8   8   4   8   8   4
#     4  12  24  41  62  90 131 171 210 255 317 373
#     4  10  16  30  54  89 114 137 176 235 294 354
#     4  10  17  32  57  92 102 123 171 237 309 310
#     4  12  26  42  52  70 106 158 192 208 264 354
#     4  10  20  33  57  78 110 131 173 232 281 329
#     4  10  21  36  60  90 121 164 208 253 307 362
#     4  12  24  42  68  94 126 160 224 270 314 364
#
# _framework density 23.329243000000002
#
# number of rings (size 3 to 8) (size 9 to 14) (size 15 to 20)
#    0.000    1.333    3.333    4.500    0.000    2.667 
#    0.000    0.000    0.000    6.000    0.000    0.000 
#    0.000    0.000    0.000    0.000    0.000    0.000 
#
# Total GULP energy -268291.754908 kJ/mol
# GULP energy per Si atom -5589.411561 kJ/mol
# Density = 2.327615 g / cm^3
# Si number density = 23.329243 Si / 1000 Ang^3
#
#
#
# Elastic Constant Matrix: (Units=GPa)
#
#
# Indices 1 2 3 4 5 6 
#
# 1 19.4285 2.7113 3.8671 0.0000 0.0000 0.0000
# 2 2.7113 134.2486 -25.2451 0.0000 0.0000 0.0000
# 3 3.8671 -25.2451 154.7926 0.0000 0.0000 0.0000
# 4 0.0000 0.0000 0.0000 47.9210 0.0000 0.0000
# 5 0.0000 0.0000 0.0000 0.0000 0.9586 0.0000
# 6 0.0000 0.0000 0.0000 0.0000 0.0000 51.4527
#
#
#
# Elastic Compliance Matrix: (Units=1/GPa)
#
#
# Indices 1 2 3 4 5 6 
#
# 1 0.051959 -0.001334 -0.001516 0.000000 0.000000 0.000000
# 2 -0.001334 0.007719 0.001292 0.000000 0.000000 0.000000
# 3 -0.001516 0.001292 0.006709 0.000000 0.000000 0.000000
# 4 0.000000 0.000000 0.000000 0.020868 0.000000 0.000000
# 5 0.000000 0.000000 0.000000 0.000000 1.043187 0.000000
# 6 0.000000 0.000000 0.000000 0.000000 0.000000 0.019435
#
#
# Mechanical properties :
#
#
# Convention : Reuss Voigt Hill
#
# Bulk Modulus (GPa) = 15.80511 30.12624 22.96567
# Shear Modulus (GPa) = 4.25864 41.87556 23.06710
#
# Velocity S-wave (km/s) = 1.35256 4.24132 3.14787
# Velocity P-wave (km/s) = 3.03788 6.07673 4.80392
#
# Compressibility (1/GPa) = 0.06327068
#
# Stress axis : x y z
#
# Youngs Moduli (GPa) = 19.24606 129.55367 149.05650
#
# Poissons Ratio (x) = 0.17287 0.22592
# Poissons Ratio (y) = 0.02568 -0.19261
# Poissons Ratio (z) = 0.02917 -0.16741
#
# Static dielectric constant tensor:
#      x y z
#    x 2.452270 0.000000 0.000000 
#    y 0.000000 1.867660 0.000000 
#    z 0.000000 0.000000 1.873960 
# 
# From -- ./inp_files/23987.got.cif
#   From: 2010.05.17/outbox.cif.g08.bks.cpg/sg55_12_cif.got.tgz:23987.got - 2010.06.03 13:27:54.
