data_PCOD9424166
_publ_section_title
;
Structure prediction by ZEFSAII (Michael W. Deem and Ramdas Pophale) SiO2 
 PCOD9424166
Probable space group: P C C A
;
_chemical_formula_sum "Si O2"
_cell_formula_units_Z 32
_cell_length_a 16.460325
_cell_length_b 7.840138
_cell_length_c 10.588874
_cell_angle_alpha 90.000000
_cell_angle_beta 90.000000
_cell_angle_gamma 90.000000
_cell_volume 1366.507103
_symmetry_space_group_name_H-M "P C C A"
_symmetry_group_IT_number 54
_symmetry_cell_setting 'orthorhombic'
loop_
_space_group_symop_operation_xyz
x,y,z
1/2-x,-y,z
1/2+x,-y,1/2-z
-x,y,1/2-z
-x,-y,-z
1/2+x,y,-z
1/2-x,y,1/2+z
x,-y,1/2+z
loop_
_atom_site_type_symbol
_atom_site_label
_atom_site_fract_x
_atom_site_fract_y
_atom_site_fract_z
Si Si1 0.655847 0.511203 0.728743
Si Si2 0.153735 0.027070 0.958883
Si Si3 0.412718 0.407691 0.520133
Si Si4 0.093197 0.887546 0.211063
O O1 0.750000 0.500000 0.756850
O O2 0.641120 0.482673 0.580100
O O3 0.626917 0.700352 0.763524
O O4 0.606277 0.405281 0.831458
O O5 0.250000 0.000000 0.983391
O O6 0.107055 0.920716 0.064406
O O7 0.113135 0.214863 0.980541
O O8 0.139037 0.989174 0.810782
O O9 0.500000 0.500000 0.500000
O O10 0.000000 0.895558 0.250000
#
# Coordination Sequence:
#
# PCOD9424166 Si02
#       4
#     8   8   8   8
#     4  11  23  41  64  94 132 177 225 280 339 408
#     4  11  24  43  68 101 136 178 226 280 340 408
#     4  11  24  43  67 100 136 177 227 282 340 408
#     4  11  24  43  65  97 134 174 223 280 338 406
#
# _framework density 23.417366999999999
#
# number of rings (size 3 to 8) (size 9 to 14) (size 15 to 20)
#    0.000    1.000    0.000    7.500    0.000    8.000 
#    0.000    0.000    0.000    0.000    0.000    0.000 
#    0.000    0.000    0.000    0.000    0.000    0.000 
#
# Total GULP energy -178491.441678 kJ/mol
# GULP energy per Si atom -5577.857552 kJ/mol
# Density = 2.336407 g / cm^3
# Si number density = 23.417367 Si / 1000 Ang^3
#
#
#
# Elastic Constant Matrix: (Units=GPa)
#
#
# Indices 1 2 3 4 5 6 
#
# 1 139.6974 10.3614 -27.0050 0.0000 0.0000 0.0000
# 2 10.3614 51.7837 18.7149 0.0000 0.0000 0.0000
# 3 -27.0050 18.7149 70.3035 0.0000 0.0000 0.0000
# 4 0.0000 0.0000 0.0000 41.1080 0.0000 0.0000
# 5 0.0000 0.0000 0.0000 0.0000 47.3226 0.0000
# 6 0.0000 0.0000 0.0000 0.0000 0.0000 46.9001
#
#
#
# Elastic Compliance Matrix: (Units=1/GPa)
#
#
# Indices 1 2 3 4 5 6 
#
# 1 0.008147 -0.003055 0.003943 0.000000 0.000000 0.000000
# 2 -0.003055 0.022512 -0.007166 0.000000 0.000000 0.000000
# 3 0.003943 -0.007166 0.017646 0.000000 0.000000 0.000000
# 4 0.000000 0.000000 0.000000 0.024326 0.000000 0.000000
# 5 0.000000 0.000000 0.000000 0.000000 0.021132 0.000000
# 6 0.000000 0.000000 0.000000 0.000000 0.000000 0.021322
#
#
# Mechanical properties :
#
#
# Convention : Reuss Voigt Hill
#
# Bulk Modulus (GPa) = 27.97337 29.54746 28.76041
# Shear Modulus (GPa) = 35.82720 44.38036 40.10378
#
# Velocity S-wave (km/s) = 3.91569 4.35810 4.14281
# Velocity P-wave (km/s) = 5.69342 6.16192 5.93229
#
# Compressibility (1/GPa) = 0.03574829
#
# Stress axis : x y z
#
# Youngs Moduli (GPa) = 122.74312 44.42006 56.66940
#
# Poissons Ratio (x) = 0.13571 -0.22343
# Poissons Ratio (y) = 0.37499 0.40611
# Poissons Ratio (z) = -0.48394 0.31833
#
# Static dielectric constant tensor:
#      x y z
#    x 1.885460 0.000000 0.000000 
#    y 0.000000 1.964320 0.000000 
#    z 0.000000 0.000000 2.035100 
# 
# From -- ./inp_files/7919.got.cif
#   From: 2010.05.17/outbox.cif.g08.bks.cpg/sg54_4_cif.got.tgz:7919.got - 2010.06.03 13:09:01.
