data_PCOD9424635
_publ_section_title
;
Structure prediction by ZEFSAII (Michael W. Deem and Ramdas Pophale) SiO2 
 PCOD9424635
Probable space group: P C C A
;
_chemical_formula_sum "Si O2"
_cell_formula_units_Z 48
_cell_length_a 9.000000
_cell_length_b 9.000000
_cell_length_c 30.000000
_cell_angle_alpha 90.000000
_cell_angle_beta 90.000000
_cell_angle_gamma 90.000000
_cell_volume 2430.000000
_symmetry_space_group_name_H-M "P C C A"
_symmetry_group_IT_number 54
_symmetry_cell_setting 'orthorhombic'
loop_
_space_group_symop_operation_xyz
x,y,z
1/2-x,-y,z
1/2+x,-y,1/2-z
-x,y,1/2-z
-x,-y,-z
1/2+x,y,-z
1/2-x,y,1/2+z
x,-y,1/2+z
loop_
_atom_site_type_symbol
_atom_site_label
_atom_site_fract_x
_atom_site_fract_y
_atom_site_fract_z
Si Si1 0.934431 0.832658 0.798985
Si Si2 0.043223 0.338890 0.881931
Si Si3 0.401436 0.317758 0.882491
Si Si4 0.582938 0.185353 0.296451
Si Si5 0.361690 0.878137 0.554549
Si Si6 0.125478 0.898997 0.956796
O O1 0.760319 0.791089 0.796972
O O2 0.000000 0.800430 0.750000
O O3 0.026198 0.754552 0.838474
O O4 0.943174 0.010515 0.806432
O O5 0.220975 0.307056 0.883598
O O6 0.039404 0.515607 0.886427
O O7 0.988969 0.285590 0.834038
O O8 0.931815 0.253545 0.916184
O O9 0.441773 0.230124 0.927101
O O10 0.500000 0.215871 0.250000
O O11 0.308118 0.839176 0.503943
O O12 0.250000 0.000000 0.576551
O O13 0.498886 0.979675 0.541880
O O14 0.250000 0.000000 0.933151
#
# Coordination Sequence:
#
# PCOD9424635 Si02
#       6
#     8   8   8   8   8   8
#     4  10  22  40  65  93 119 159 208 254 308 369
#     4  11  24  40  60  90 127 165 205 256 314 375
#     4  11  24  40  61  89 125 169 206 250 316 375
#     4  10  22  40  64  93 122 156 205 260 307 366
#     4  10  22  38  64  92 121 157 211 261 309 367
#     4  10  20  40  64  90 118 163 210 258 307 366
#
# _framework density 19.753086
#
# number of rings (size 3 to 8) (size 9 to 14) (size 15 to 20)
#    0.000    1.667    1.667    2.000    4.667    3.333 
#    0.000    0.000    0.000    0.000    0.000    0.000 
#    0.000    0.000    0.000    0.000    0.000    0.000 
#
# Total GULP energy -267297.640102 kJ/mol
# GULP energy per Si atom -5568.700835 kJ/mol
# Density = 1.970813 g / cm^3
# Si number density = 19.753086 Si / 1000 Ang^3
#
#
#
# Elastic Constant Matrix: (Units=GPa)
#
#
# Indices 1 2 3 4 5 6 
#
# 1 -28.0980 -0.6034 -30.8955 0.0000 0.0000 0.0000
# 2 -0.6034 92.1464 61.7625 0.0000 0.0000 0.0000
# 3 -30.8955 61.7625 80.3343 0.0000 0.0000 0.0000
# 4 0.0000 0.0000 0.0000 -76.2124 0.0000 0.0000
# 5 0.0000 0.0000 0.0000 0.0000 33.5128 0.0000
# 6 0.0000 0.0000 0.0000 0.0000 0.0000 32.1897
#
#
#
# Elastic Compliance Matrix: (Units=1/GPa)
#
#
# Indices 1 2 3 4 5 6 
#
# 1 -0.019238 0.009972 -0.015065 0.000000 0.000000 0.000000
# 2 0.009972 0.017222 -0.009405 0.000000 0.000000 0.000000
# 3 -0.015065 -0.009405 0.013885 0.000000 0.000000 0.000000
# 4 0.000000 0.000000 0.000000 -0.013121 0.000000 0.000000
# 5 0.000000 0.000000 0.000000 0.000000 0.029839 0.000000
# 6 0.000000 0.000000 0.000000 0.000000 0.000000 0.031066
#
#
# Mechanical properties :
#
#
# Convention : Reuss Voigt Hill
#
# Bulk Modulus (GPa) = -58.37850 22.76775 -17.80537
# Shear Modulus (GPa) = 60.28460 5.50595 32.89527
#
# Velocity S-wave (km/s) = 5.53040 1.67136 4.08526
# Velocity P-wave (km/s) = 3.34098 3.90842 3.63579
#
# Compressibility (1/GPa) = -0.01712959
#
# Stress axis : x y z
#
# Youngs Moduli (GPa) = -51.97911 58.06651 72.02032
#
# Poissons Ratio (x) = -0.57903 1.08502
# Poissons Ratio (y) = 0.51833 0.67737
# Poissons Ratio (z) = -0.78309 0.54613
#
# Static dielectric constant tensor:
#      x y z
#    x -12.129180 0.000000 0.000000 
#    y 0.000000 1.718470 0.000000 
#    z 0.000000 0.000000 1.763840 
# 
# From -- ./inp_files/27737.got.cif
#   From: 2010.05.17/outbox.ucp.g08.bks.cvg/sg54_14_cif.got.tgz:27737.got - 2010.06.11 16:34:40.
