data_PCOD9424706
_publ_section_title
;
Structure prediction by ZEFSAII (Michael W. Deem and Ramdas Pophale) SiO2 
 PCOD9424706
Probable space group: P B A M
;
_chemical_formula_sum "Si O2"
_cell_formula_units_Z 40
_cell_length_a 5.485319
_cell_length_b 14.468958
_cell_length_c 22.441199
_cell_angle_alpha 90.000000
_cell_angle_beta 90.000000
_cell_angle_gamma 90.000000
_cell_volume 1781.087280
_symmetry_space_group_name_H-M "P B A M"
_symmetry_group_IT_number 55
_symmetry_cell_setting 'orthorhombic'
loop_
_space_group_symop_operation_xyz
x,y,z
-x,-y,z
1/2+x,1/2-y,-z
1/2-x,1/2+y,-z
-x,-y,-z
x,y,-z
1/2-x,1/2+y,z
1/2+x,1/2-y,z
loop_
_atom_site_type_symbol
_atom_site_label
_atom_site_fract_x
_atom_site_fract_y
_atom_site_fract_z
Si Si1 0.263426 0.605013 0.260883
Si Si2 0.263929 0.604422 0.119344
Si Si3 0.822924 0.690512 0.432365
Si Si4 0.263900 0.894988 0.309567
Si Si5 0.736170 0.106767 0.070758
O O1 0.292192 0.600947 0.190127
O O2 0.249612 0.500778 0.287296
O O3 0.504779 0.646926 0.290298
O O4 0.001839 0.646509 0.277638
O O5 0.504086 0.647177 0.090007
O O6 0.250088 0.499750 0.093495
O O7 0.004354 0.646596 0.101644
O O8 0.815396 0.653324 0.500000
O O9 0.582372 0.756037 0.426018
O O10 0.801479 0.616272 0.379856
O O11 0.708480 0.108483 0.000000
#
# Coordination Sequence:
#
# PCOD9424706 Si02
#       5
#     8   8   8   8   8
#     4  10  19  30  47  71  96 127 160 188 234 286
#     4  10  16  25  36  53  84 118 157 187 219 269
#     4  10  21  37  55  73  94 123 157 192 234 281
#     4  10  18  32  49  70  95 120 157 195 225 281
#     4  10  16  22  33  51  77 118 167 192 210 251
#
# _framework density 22.458193000000001
#
# number of rings (size 3 to 8) (size 9 to 14) (size 15 to 20)
#    0.000    2.000    0.000   10.200    0.000    0.000 
#    0.000    4.000    0.000    0.000    0.000    0.000 
#    0.000    0.000    0.000    0.000    0.000 1926.000 
#
# Total GULP energy -223364.475054 kJ/mol
# GULP energy per Si atom -5584.111876 kJ/mol
# Density = 2.240708 g / cm^3
# Si number density = 22.458193 Si / 1000 Ang^3
#
#
#
# Elastic Constant Matrix: (Units=GPa)
#
#
# Indices 1 2 3 4 5 6 
#
# 1 170.1891 -26.4502 -41.3244 0.0000 0.0000 0.0000
# 2 -26.4502 55.9939 -26.6057 0.0000 0.0000 0.0000
# 3 -41.3244 -26.6057 105.1243 0.0000 0.0000 0.0000
# 4 0.0000 0.0000 0.0000 -47.7968 0.0000 0.0000
# 5 0.0000 0.0000 0.0000 0.0000 40.3752 0.0000
# 6 0.0000 0.0000 0.0000 0.0000 0.0000-2150.6922
#
#
#
# Elastic Compliance Matrix: (Units=1/GPa)
#
#
# Indices 1 2 3 4 5 6 
#
# 1 0.007918 0.005933 0.004614 0.000000 0.000000 0.000000
# 2 0.005933 0.024746 0.008595 0.000000 0.000000 0.000000
# 3 0.004614 0.008595 0.013502 0.000000 0.000000 0.000000
# 4 0.000000 0.000000 0.000000 -0.020922 0.000000 0.000000
# 5 0.000000 0.000000 0.000000 0.000000 0.024768 0.000000
# 6 0.000000 0.000000 0.000000 0.000000 0.000000 -0.000465
#
#
# Mechanical properties :
#
#
# Convention : Reuss Voigt Hill
#
# Bulk Modulus (GPa) = 11.84135 15.83853 13.83994
# Shear Modulus (GPa) = 126.86461 -403.24360 -138.18950
#
# Velocity S-wave (km/s) = 7.52409 -13.41428 -7.85274
# Velocity P-wave (km/s) = 8.98702 15.25962 8.72036
#
# Compressibility (1/GPa) = 0.08444980
#
# Stress axis : x y z
#
# Youngs Moduli (GPa) = 126.29006 40.41125 74.06474
#
# Poissons Ratio (x) = -0.23975 -0.34175
# Poissons Ratio (y) = -0.74926 -0.63659
# Poissons Ratio (z) = -0.58273 -0.34734
#
# Static dielectric constant tensor:
#      x y z
#    x 1.961680 0.000000 0.000000 
#    y 0.000000 2.247590 0.000000 
#    z 0.000000 0.000000 1.751680 
# 
# From -- ./inp_files/20343.got.cif
#   From: 2010.05.17/outbox.cif.g08.bks.cpg/sg55_11_cif.got.tgz:20343.got - 2010.06.03 13:27:54.
