data_PCOD9424358
_publ_section_title
;
Structure prediction by ZEFSAII (Michael W. Deem and Ramdas Pophale) SiO2 
 PCOD9424358
Probable space group: P C C A
;
_chemical_formula_sum "Si O2"
_cell_formula_units_Z 32
_cell_length_a 13.649408
_cell_length_b 11.247105
_cell_length_c 8.467108
_cell_angle_alpha 90.000000
_cell_angle_beta 90.000000
_cell_angle_gamma 90.000000
_cell_volume 1299.839303
_symmetry_space_group_name_H-M "P C C A"
_symmetry_group_IT_number 54
_symmetry_cell_setting 'orthorhombic'
loop_
_space_group_symop_operation_xyz
x,y,z
1/2-x,-y,z
1/2+x,-y,1/2-z
-x,y,1/2-z
-x,-y,-z
1/2+x,y,-z
1/2-x,y,1/2+z
x,-y,1/2+z
loop_
_atom_site_type_symbol
_atom_site_label
_atom_site_fract_x
_atom_site_fract_y
_atom_site_fract_z
Si Si1 0.225516 0.861860 0.070899
Si Si2 0.388278 0.529658 0.450605
Si Si3 0.618255 0.679009 0.750238
Si Si4 0.612633 0.764962 0.235107
O O1 0.159415 0.809150 0.214920
O O2 0.328481 0.796953 0.107508
O O3 0.250000 0.000000 0.078762
O O4 0.166359 0.829757 0.912128
O O5 0.500000 0.500000 0.500000
O O6 0.347783 0.601605 0.598344
O O7 0.346354 0.404746 0.391959
O O8 0.387029 0.625097 0.308077
O O9 0.500000 0.684323 0.750000
O O10 0.500000 0.801712 0.250000
#
# Coordination Sequence:
#
# PCOD9424358 Si02
#       4
#     8   8   8   8
#     4  11  26  45  66  99 140 188 248 291 344 436
#     4   9  18  37  65 101 137 170 221 282 354 435
#     4   9  19  37  66 100 137 178 222 288 356 417
#     4  11  25  45  70 100 139 185 235 299 361 419
#
# _framework density 24.618427000000001
#
# number of rings (size 3 to 8) (size 9 to 14) (size 15 to 20)
#    0.000    2.000    0.000    3.000    0.000   11.000 
#    0.000    7.500    0.000    0.000    0.000    0.000 
#    0.000    0.000    0.000    0.000    0.000    0.000 
#
# Total GULP energy -178968.092877 kJ/mol
# GULP energy per Si atom -5592.752902 kJ/mol
# Density = 2.456239 g / cm^3
# Si number density = 24.618427 Si / 1000 Ang^3
#
#
#
# Elastic Constant Matrix: (Units=GPa)
#
#
# Indices 1 2 3 4 5 6 
#
# 1 173.6076 59.9938 62.1805 0.0000 0.0000 0.0000
# 2 59.9938 209.6853 77.3044 0.0000 0.0000 0.0000
# 3 62.1805 77.3044 102.2113 0.0000 0.0000 0.0000
# 4 0.0000 0.0000 0.0000 32.7975 0.0000 0.0000
# 5 0.0000 0.0000 0.0000 0.0000 50.6677 0.0000
# 6 0.0000 0.0000 0.0000 0.0000 0.0000 25.0003
#
#
#
# Elastic Compliance Matrix: (Units=1/GPa)
#
#
# Indices 1 2 3 4 5 6 
#
# 1 0.007426 -0.000637 -0.004036 0.000000 0.000000 0.000000
# 2 -0.000637 0.006668 -0.004655 0.000000 0.000000 0.000000
# 3 -0.004036 -0.004655 0.015760 0.000000 0.000000 0.000000
# 4 0.000000 0.000000 0.000000 0.030490 0.000000 0.000000
# 5 0.000000 0.000000 0.000000 0.000000 0.019736 0.000000
# 6 0.000000 0.000000 0.000000 0.000000 0.000000 0.040000
#
#
# Mechanical properties :
#
#
# Convention : Reuss Voigt Hill
#
# Bulk Modulus (GPa) = 89.30922 98.27352 93.79137
# Shear Modulus (GPa) = 35.09570 40.76146 37.92858
#
# Velocity S-wave (km/s) = 3.77979 4.07348 3.92938
# Velocity P-wave (km/s) = 7.44347 7.88224 7.66599
#
# Compressibility (1/GPa) = 0.01119705
#
# Stress axis : x y z
#
# Youngs Moduli (GPa) = 134.66825 149.98035 63.45209
#
# Poissons Ratio (x) = 0.09549 0.25609
# Poissons Ratio (y) = 0.08574 0.29540
# Poissons Ratio (z) = 0.54351 0.69823
#
# Static dielectric constant tensor:
#      x y z
#    x 2.002390 0.000000 0.000000 
#    y 0.000000 1.923590 0.000000 
#    z 0.000000 0.000000 2.042640 
# 
# From -- ./inp_files/3252.got.cif
#   From: 2010.05.17/outbox.cif.g08.bks.cpg/sg54_2_cif.got.tgz:3252.got - 2010.06.03 13:09:01.
