data_PCOD9424022
_publ_section_title
;
Structure prediction by ZEFSAII (Michael W. Deem and Ramdas Pophale) SiO2 
 PCOD9424022
Probable space group: P C C A
;
_chemical_formula_sum "Si O2"
_cell_formula_units_Z 48
_cell_length_a 17.273870
_cell_length_b 16.293576
_cell_length_c 8.150651
_cell_angle_alpha 90.000000
_cell_angle_beta 90.000000
_cell_angle_gamma 90.000000
_cell_volume 2294.026102
_symmetry_space_group_name_H-M "P C C A"
_symmetry_group_IT_number 54
_symmetry_cell_setting 'orthorhombic'
loop_
_space_group_symop_operation_xyz
x,y,z
1/2-x,-y,z
1/2+x,-y,1/2-z
-x,y,1/2-z
-x,-y,-z
1/2+x,y,-z
1/2-x,y,1/2+z
x,-y,1/2+z
loop_
_atom_site_type_symbol
_atom_site_label
_atom_site_fract_x
_atom_site_fract_y
_atom_site_fract_z
Si Si1 0.418097 0.956802 0.851751
Si Si2 0.500000 0.260106 0.250000
Si Si3 0.925635 0.617293 0.483440
Si Si4 0.812317 0.749991 0.618535
Si Si5 0.583224 0.127901 0.790723
Si Si6 0.664168 0.816687 0.765112
Si Si7 0.000000 0.499761 0.750000
O O1 0.500000 0.945102 0.750000
O O2 0.342492 0.912193 0.775970
O O3 0.404780 0.054200 0.840084
O O4 0.421467 0.918762 0.034587
O O5 0.519038 0.311266 0.414012
O O6 0.422307 0.211017 0.279663
O O7 0.851208 0.663507 0.562105
O O8 0.930352 0.557198 0.323201
O O9 0.964056 0.559777 0.616861
O O10 0.856495 0.798928 0.763828
O O11 0.723444 0.757351 0.671179
O O12 0.822012 0.803652 0.455580
O O13 0.500000 0.165284 0.750000
#
# Coordination Sequence:
#
# PCOD9424022 Si02
#       7
#     8   4   8   8   8   8   4
#     4  11  21  39  61  87 128 177 220 273 317 400
#     4   9  20  38  66  89 126 172 212 269 334 390
#     4   9  20  37  64  95 122 161 210 261 314 401
#     4  11  24  39  60  96 129 165 221 278 328 390
#     4  11  23  37  60  91 127 172 224 268 334 386
#     4  11  22  40  61  90 132 171 219 273 334 382
#     4   9  18  38  66  93 126 164 208 251 330 402
#
# _framework density 20.923912999999999
#
# number of rings (size 3 to 8) (size 9 to 14) (size 15 to 20)
#    0.000    1.667    0.833    5.000    3.500    2.000 
#    0.000    3.333    0.000   34.000    0.000    0.000 
#    0.000    0.000    0.000    0.000    0.000    0.000 
#
# Total GULP energy -267295.807482 kJ/mol
# GULP energy per Si atom -5568.662656 kJ/mol
# Density = 2.087629 g / cm^3
# Si number density = 20.923913 Si / 1000 Ang^3
#
#
#
# Elastic Constant Matrix: (Units=GPa)
#
#
# Indices 1 2 3 4 5 6 
#
# 1 100.7107 45.9962 16.3041 0.0000 0.0000 0.0000
# 2 45.9962 79.4217 20.6738 0.0000 0.0000 0.0000
# 3 16.3041 20.6738 78.7464 0.0000 0.0000 0.0000
# 4 0.0000 0.0000 0.0000 57.5598 0.0000 0.0000
# 5 0.0000 0.0000 0.0000 0.0000 27.4242 0.0000
# 6 0.0000 0.0000 0.0000 0.0000 0.0000 18.3816
#
#
#
# Elastic Compliance Matrix: (Units=1/GPa)
#
#
# Indices 1 2 3 4 5 6 
#
# 1 0.013547 -0.007637 -0.000800 0.000000 0.000000 0.000000
# 2 -0.007637 0.017820 -0.003097 0.000000 0.000000 0.000000
# 3 -0.000800 -0.003097 0.013678 0.000000 0.000000 0.000000
# 4 0.000000 0.000000 0.000000 0.017373 0.000000 0.000000
# 5 0.000000 0.000000 0.000000 0.000000 0.036464 0.000000
# 6 0.000000 0.000000 0.000000 0.000000 0.000000 0.054402
#
#
# Mechanical properties :
#
#
# Convention : Reuss Voigt Hill
#
# Bulk Modulus (GPa) = 45.50350 47.20302 46.35326
# Shear Modulus (GPa) = 27.22141 32.40009 29.81075
#
# Velocity S-wave (km/s) = 3.61081 3.93933 3.77864
# Velocity P-wave (km/s) = 6.25926 6.58023 6.42175
#
# Compressibility (1/GPa) = 0.02197633
#
# Stress axis : x y z
#
# Youngs Moduli (GPa) = 73.81679 56.11554 73.11162
#
# Poissons Ratio (x) = 0.42858 0.05847
# Poissons Ratio (y) = 0.56377 0.22644
# Poissons Ratio (z) = 0.05904 0.17380
#
# Static dielectric constant tensor:
#      x y z
#    x 1.785150 0.000000 0.000000 
#    y 0.000000 1.810120 0.000000 
#    z 0.000000 0.000000 1.837870 
# 
# From -- ./inp_files/3604.got.cif
#   From: 2010.05.17/outbox.cif.g08.bks.cpg/sg54_2_cif.got.tgz:3604.got - 2010.06.03 13:09:01.
