data_PCOD9424679
_publ_section_title
;
Structure prediction by ZEFSAII (Michael W. Deem and Ramdas Pophale) SiO2 
 PCOD9424679
Probable space group: P C C A
;
_chemical_formula_sum "Si O2"
_cell_formula_units_Z 64
_cell_length_a 18.000000
_cell_length_b 15.000000
_cell_length_c 12.000000
_cell_angle_alpha 90.000000
_cell_angle_beta 90.000000
_cell_angle_gamma 90.000000
_cell_volume 3240.000000
_symmetry_space_group_name_H-M "P C C A"
_symmetry_group_IT_number 54
_symmetry_cell_setting 'orthorhombic'
loop_
_space_group_symop_operation_xyz
x,y,z
1/2-x,-y,z
1/2+x,-y,1/2-z
-x,y,1/2-z
-x,-y,-z
1/2+x,y,-z
1/2-x,y,1/2+z
x,-y,1/2+z
loop_
_atom_site_type_symbol
_atom_site_label
_atom_site_fract_x
_atom_site_fract_y
_atom_site_fract_z
Si Si1 0.607010 0.840642 0.583870
Si Si2 0.471033 0.530024 0.876437
Si Si3 0.928766 0.228001 0.171452
Si Si4 0.321683 0.281051 0.235674
Si Si5 0.186573 0.572647 0.427099
Si Si6 0.040897 0.980115 0.875271
Si Si7 0.329360 0.727067 0.115980
Si Si8 0.034442 0.280033 0.577625
O O1 0.659226 0.795341 0.675569
O O2 0.635221 0.804602 0.463061
O O3 0.522029 0.802944 0.594571
O O4 0.603724 0.944768 0.611297
O O5 0.500000 0.502382 0.750000
O O6 0.383858 0.514937 0.887152
O O7 0.484644 0.635743 0.887770
O O8 0.500000 0.500000 0.000000
O O9 0.929218 0.122120 0.136077
O O10 0.867260 0.264452 0.260073
O O11 0.000000 0.239568 0.250000
O O12 0.939383 0.278432 0.052517
O O13 0.300352 0.363801 0.318204
O O14 0.256337 0.261863 0.148576
O O15 0.395386 0.288402 0.159406
O O16 0.250000 0.500000 0.453226
O O17 0.167539 0.637479 0.535075
O O18 0.000000 0.993941 0.750000
O O19 0.000000 0.000000 0.000000
#
# Coordination Sequence:
#
# PCOD9424679 Si02
#       8
#     8   8   8   8   8   8   8   8
#     4  11  21  44  70  98 139 183 238 295 347 433
#     4  12  26  45  69 103 135 172 231 300 358 429
#     4  11  22  40  71 107 144 184 234 300 355 429
#     4  11  25  41  71  95 133 185 237 280 365 438
#     4  11  26  47  70  97 135 182 237 300 365 445
#     4  11  21  38  70 114 143 184 245 306 356 423
#     4  11  25  45  66  99 144 188 236 293 366 445
#     4  12  21  44  73  97 132 184 232 292 363 425
#
# _framework density 19.753086
#
# number of rings (size 3 to 8) (size 9 to 14) (size 15 to 20)
#    0.000    0.750    6.250    1.875    5.250    3.000 
#    0.000    0.625    0.000    0.000    0.000    0.000 
#    0.000    0.000    0.000    0.000    0.000    0.000 
#
# Total GULP energy -356293.343101 kJ/mol
# GULP energy per Si atom -5567.083486 kJ/mol
# Density = 1.970813 g / cm^3
# Si number density = 19.753086 Si / 1000 Ang^3
#
#
#
# Elastic Constant Matrix: (Units=GPa)
#
#
# Indices 1 2 3 4 5 6 
#
# 1 90.9585 17.1229 19.7213 0.0000 0.0000 0.0000
# 2 17.1229 62.1870 24.5504 0.0000 0.0000 0.0000
# 3 19.7213 24.5504 160.5590 0.0000 0.0000 0.0000
# 4 0.0000 0.0000 0.0000 34.5963 0.0000 0.0000
# 5 0.0000 0.0000 0.0000 0.0000 52.2722 0.0000
# 6 0.0000 0.0000 0.0000 0.0000 0.0000 25.4927
#
#
#
# Elastic Compliance Matrix: (Units=1/GPa)
#
#
# Indices 1 2 3 4 5 6 
#
# 1 0.011747 -0.002836 -0.001009 0.000000 0.000000 0.000000
# 2 -0.002836 0.017798 -0.002373 0.000000 0.000000 0.000000
# 3 -0.001009 -0.002373 0.006715 0.000000 0.000000 0.000000
# 4 0.000000 0.000000 0.000000 0.028905 0.000000 0.000000
# 5 0.000000 0.000000 0.000000 0.000000 0.019131 0.000000
# 6 0.000000 0.000000 0.000000 0.000000 0.000000 0.039227
#
#
# Mechanical properties :
#
#
# Convention : Reuss Voigt Hill
#
# Bulk Modulus (GPa) = 41.97544 48.49928 45.23736
# Shear Modulus (GPa) = 34.74632 39.29291 37.01961
#
# Velocity S-wave (km/s) = 4.19863 4.46489 4.33380
# Velocity P-wave (km/s) = 6.69335 7.15446 6.92774
#
# Compressibility (1/GPa) = 0.02382346
#
# Stress axis : x y z
#
# Youngs Moduli (GPa) = 85.13026 56.18520 148.91899
#
# Poissons Ratio (x) = 0.15934 0.15029
# Poissons Ratio (y) = 0.24143 0.35340
# Poissons Ratio (z) = 0.08591 0.13333
#
# Static dielectric constant tensor:
#      x y z
#    x 1.786590 0.000000 0.000000 
#    y 0.000000 1.752130 0.000000 
#    z 0.000000 0.000000 1.739340 
# 
# From -- ./inp_files/9069.got.cif
#   From: 2010.05.17/outbox.ucp.g08.bks.cvg/sg54_5_cif.got.tgz:9069.got - 2010.06.11 16:34:40.
