data_PCOD9424813
_publ_section_title
;
Structure prediction by ZEFSAII (Michael W. Deem and Ramdas Pophale) SiO2 
 PCOD9424813
Probable space group: P B A M
;
_chemical_formula_sum "Si O2"
_cell_formula_units_Z 64
_cell_length_a 20.324368
_cell_length_b 12.802421
_cell_length_c 13.478742
_cell_angle_alpha 90.000000
_cell_angle_beta 90.000000
_cell_angle_gamma 90.000000
_cell_volume 3507.183707
_symmetry_space_group_name_H-M "P B A M"
_symmetry_group_IT_number 55
_symmetry_cell_setting 'orthorhombic'
loop_
_space_group_symop_operation_xyz
x,y,z
-x,-y,z
1/2+x,1/2-y,-z
1/2-x,1/2+y,-z
-x,-y,-z
x,y,-z
1/2-x,1/2+y,z
1/2+x,1/2-y,z
loop_
_atom_site_type_symbol
_atom_site_label
_atom_site_fract_x
_atom_site_fract_y
_atom_site_fract_z
Si Si1 0.903074 0.534558 0.389487
Si Si2 0.181843 0.203779 0.226139
Si Si3 0.403763 0.169778 0.261514
Si Si4 0.339922 0.461584 0.252018
Si Si5 0.693969 0.727890 0.883864
Si Si6 0.960341 0.728596 0.284928
Si Si7 0.939805 0.139524 0.383463
Si Si8 0.764338 0.653252 0.611139
O O1 0.919307 0.496488 0.500000
O O2 0.903520 0.443258 0.309427
O O3 0.949909 0.629263 0.356472
O O4 0.831112 0.586157 0.391981
O O5 0.229458 0.251843 0.142607
O O6 0.107649 0.248497 0.230305
O O7 0.217506 0.243385 0.327048
O O8 0.175818 0.079530 0.223633
O O9 0.347759 0.189575 0.181407
O O10 0.476132 0.198904 0.218955
O O11 0.398787 0.255611 0.350839
O O12 0.331071 0.383404 0.159063
O O13 0.409335 0.446076 0.309107
O O14 0.287831 0.416624 0.331124
O O15 0.682646 0.737004 0.000000
O O16 0.986716 0.825424 0.351173
O O17 0.935185 0.116302 0.500000
O O18 0.742778 0.677165 0.500000
#
# Coordination Sequence:
#
# PCOD9424813 Si02
#       8
#     8   8   8   8   8   8   8   8
#     4  10  17  29  54  84 119 160 197 223 263 325
#     4  10  21  38  57  79 115 145 184 229 286 329
#     4   9  19  33  55  83 112 151 183 240 280 327
#     4  10  20  36  57  79 108 148 187 231 276 337
#     4  10  22  42  63  83 105 136 185 244 295 344
#     4   9  20  33  51  82 120 151 183 230 267 324
#     4   9  18  31  49  78 114 152 188 219 260 322
#     4   9  19  32  49  80 115 149 188 230 269 320
#
# _framework density 18.248259999999998
#
# number of rings (size 3 to 8) (size 9 to 14) (size 15 to 20)
#    0.750    1.750    0.000    2.250    0.000    3.000 
#    0.000    4.375    0.000    2.250    0.000    0.000 
#    0.000    0.000    0.000    0.000    0.000    0.000 
#
# Total GULP energy -356459.104335 kJ/mol
# GULP energy per Si atom -5569.673505 kJ/mol
# Density = 1.820673 g / cm^3
# Si number density = 18.248260 Si / 1000 Ang^3
#
#
#
# Elastic Constant Matrix: (Units=GPa)
#
#
# Indices 1 2 3 4 5 6 
#
# 1 68.3850 18.2246 49.6402 0.0000 0.0000 0.0000
# 2 18.2246 94.4324 30.7153 0.0000 0.0000 0.0000
# 3 49.6402 30.7153 87.1693 0.0000 0.0000 0.0000
# 4 0.0000 0.0000 0.0000 8.2880 0.0000 0.0000
# 5 0.0000 0.0000 0.0000 0.0000 13.4385 0.0000
# 6 0.0000 0.0000 0.0000 0.0000 0.0000 4.1570
#
#
#
# Elastic Compliance Matrix: (Units=1/GPa)
#
#
# Indices 1 2 3 4 5 6 
#
# 1 0.024931 -0.000219 -0.014121 0.000000 0.000000 0.000000
# 2 -0.000219 0.011962 -0.004091 0.000000 0.000000 0.000000
# 3 -0.014121 -0.004091 0.020955 0.000000 0.000000 0.000000
# 4 0.000000 0.000000 0.000000 0.120657 0.000000 0.000000
# 5 0.000000 0.000000 0.000000 0.000000 0.074413 0.000000
# 6 0.000000 0.000000 0.000000 0.000000 0.000000 0.240559
#
#
# Mechanical properties :
#
#
# Convention : Reuss Voigt Hill
#
# Bulk Modulus (GPa) = 47.64491 49.68298 48.66395
# Shear Modulus (GPa) = 9.30520 15.27045 12.28783
#
# Velocity S-wave (km/s) = 2.26060 2.89592 2.59775
# Velocity P-wave (km/s) = 5.74280 6.20218 5.97690
#
# Compressibility (1/GPa) = 0.02098860
#
# Stress axis : x y z
#
# Youngs Moduli (GPa) = 40.11000 83.59609 47.72233
#
# Poissons Ratio (x) = 0.01828 0.67387
# Poissons Ratio (y) = 0.00877 0.19521
# Poissons Ratio (z) = 0.56638 0.34196
#
# Static dielectric constant tensor:
#      x y z
#    x 1.705540 0.000000 0.000000 
#    y 0.000000 1.627300 0.000000 
#    z 0.000000 0.000000 1.590880 
# 
# From -- ./inp_files/15770.got.cif
#   From: 2010.05.17/outbox.cif.g08.bks.cpg/sg55_8_cif.got.tgz:15770.got - 2010.06.03 13:27:54.
