data_PCOD9424201
_publ_section_title
;
Structure prediction by ZEFSAII (Michael W. Deem and Ramdas Pophale) SiO2 
 PCOD9424201
Probable space group: P C C A
;
_chemical_formula_sum "Si O2"
_cell_formula_units_Z 40
_cell_length_a 13.527314
_cell_length_b 8.608663
_cell_length_c 14.382133
_cell_angle_alpha 90.000000
_cell_angle_beta 90.000000
_cell_angle_gamma 90.000000
_cell_volume 1674.829411
_symmetry_space_group_name_H-M "P C C A"
_symmetry_group_IT_number 54
_symmetry_cell_setting 'orthorhombic'
loop_
_space_group_symop_operation_xyz
x,y,z
1/2-x,-y,z
1/2+x,-y,1/2-z
-x,y,1/2-z
-x,-y,-z
1/2+x,y,-z
1/2-x,y,1/2+z
x,-y,1/2+z
loop_
_atom_site_type_symbol
_atom_site_label
_atom_site_fract_x
_atom_site_fract_y
_atom_site_fract_z
Si Si1 0.246327 0.184534 0.073470
Si Si2 0.982587 0.735981 0.945167
Si Si3 0.461384 0.596675 0.856573
Si Si4 0.273877 0.333121 0.250895
Si Si5 0.170643 0.858194 0.886677
O O1 0.132369 0.235668 0.077087
O O2 0.307922 0.236536 0.162766
O O3 0.250000 0.000000 0.070811
O O4 0.293648 0.237766 0.976982
O O5 0.015803 0.577425 0.892401
O O6 0.054670 0.875262 0.909910
O O7 0.991481 0.704704 0.056151
O O8 0.500000 0.615081 0.750000
O O9 0.347280 0.636065 0.835563
O O10 0.250000 0.500000 0.210367
O O11 0.182497 0.240900 0.293880
O O12 0.250000 0.000000 0.876485
#
# Coordination Sequence:
#
# PCOD9424201 Si02
#       5
#     8   8   8   8   8
#     4  11  26  46  72 104 144 196 245 304 371 436
#     4  11  24  45  74 105 145 193 243 303 369 437
#     4  11  23  43  72 111 141 183 245 302 366 434
#     4  12  23  44  71 104 142 184 242 299 366 430
#     4  11  25  45  69 101 146 189 238 297 367 439
#
# _framework density 23.883030999999999
#
# number of rings (size 3 to 8) (size 9 to 14) (size 15 to 20)
#    0.000    0.800    4.000    3.000    0.000    5.600 
#    3.600    0.000    0.000    0.000    0.000    0.000 
#    0.000    0.000    0.000    0.000    0.000    0.000 
#
# Total GULP energy -223255.347445 kJ/mol
# GULP energy per Si atom -5581.383686 kJ/mol
# Density = 2.382867 g / cm^3
# Si number density = 23.883031 Si / 1000 Ang^3
#
#
#
# Elastic Constant Matrix: (Units=GPa)
#
#
# Indices 1 2 3 4 5 6 
#
# 1 88.7093 5.3433 9.2437 0.0000 0.0000 0.0000
# 2 5.3433 56.8766 33.6317 0.0000 0.0000 0.0000
# 3 9.2437 33.6317 132.0616 0.0000 0.0000 0.0000
# 4 0.0000 0.0000 0.0000 7.2985 0.0000 0.0000
# 5 0.0000 0.0000 0.0000 0.0000 45.2327 0.0000
# 6 0.0000 0.0000 0.0000 0.0000 0.0000 23.0957
#
#
#
# Elastic Compliance Matrix: (Units=1/GPa)
#
#
# Indices 1 2 3 4 5 6 
#
# 1 0.011379 -0.000704 -0.000617 0.000000 0.000000 0.000000
# 2 -0.000704 0.020742 -0.005233 0.000000 0.000000 0.000000
# 3 -0.000617 -0.005233 0.008948 0.000000 0.000000 0.000000
# 4 0.000000 0.000000 0.000000 0.137014 0.000000 0.000000
# 5 0.000000 0.000000 0.000000 0.000000 0.022108 0.000000
# 6 0.000000 0.000000 0.000000 0.000000 0.000000 0.043298
#
#
# Mechanical properties :
#
#
# Convention : Reuss Voigt Hill
#
# Bulk Modulus (GPa) = 35.76380 41.56498 38.66439
# Shear Modulus (GPa) = 18.80273 30.42066 24.61170
#
# Velocity S-wave (km/s) = 2.80890 3.57281 3.21364
# Velocity P-wave (km/s) = 5.05242 5.87038 5.47669
#
# Compressibility (1/GPa) = 0.02796123
#
# Stress axis : x y z
#
# Youngs Moduli (GPa) = 87.87732 48.21030 111.75516
#
# Poissons Ratio (x) = 0.03394 0.06898
# Poissons Ratio (y) = 0.06187 0.58483
# Poissons Ratio (z) = 0.05424 0.25229
#
# Static dielectric constant tensor:
#      x y z
#    x 1.956410 0.000000 0.000000 
#    y 0.000000 1.954450 0.000000 
#    z 0.000000 0.000000 1.840700 
# 
# From -- ./inp_files/13199.got.cif
#   From: 2010.05.17/outbox.cif.g08.bks.cpg/sg54_7_cif.got.tgz:13199.got - 2010.06.03 13:09:01.
