data_PCOD9424331
_publ_section_title
;
Structure prediction by ZEFSAII (Michael W. Deem and Ramdas Pophale) SiO2 
 PCOD9424331
Probable space group: P C C A
;
_chemical_formula_sum "Si O2"
_cell_formula_units_Z 64
_cell_length_a 14.687797
_cell_length_b 9.123574
_cell_length_c 17.319862
_cell_angle_alpha 90.000000
_cell_angle_beta 90.000000
_cell_angle_gamma 90.000000
_cell_volume 2320.951620
_symmetry_space_group_name_H-M "P C C A"
_symmetry_group_IT_number 54
_symmetry_cell_setting 'orthorhombic'
loop_
_space_group_symop_operation_xyz
x,y,z
1/2-x,-y,z
1/2+x,-y,1/2-z
-x,y,1/2-z
-x,-y,-z
1/2+x,y,-z
1/2-x,y,1/2+z
x,-y,1/2+z
loop_
_atom_site_type_symbol
_atom_site_label
_atom_site_fract_x
_atom_site_fract_y
_atom_site_fract_z
Si Si1 0.707193 0.787135 0.086719
Si Si2 0.820998 0.399688 0.830451
Si Si3 0.078262 0.900389 0.031024
Si Si4 0.594022 0.154330 0.718318
Si Si5 0.377571 0.812055 0.805569
Si Si6 0.998405 0.392253 0.580839
Si Si7 0.661331 0.903795 0.374025
Si Si8 0.171275 0.637993 0.527039
O O1 0.623528 0.756940 0.143516
O O2 0.785772 0.837050 0.144834
O O3 0.755505 0.658537 0.040785
O O4 0.665828 0.900515 0.024748
O O5 0.750000 0.500000 0.781666
O O6 0.855238 0.271781 0.774522
O O7 0.913417 0.468589 0.872067
O O8 0.750093 0.365492 0.901434
O O9 0.052748 0.732986 0.035786
O O10 0.089916 0.965099 0.116385
O O11 0.000000 0.000000 0.000000
O O12 0.500000 0.211714 0.750000
O O13 0.660255 0.169048 0.791268
O O14 0.589105 0.979645 0.702813
O O15 0.441540 0.699444 0.853737
O O16 0.917111 0.436947 0.518182
O O17 0.634440 0.794577 0.442893
O O18 0.750000 0.000000 0.383605
#
# Coordination Sequence:
#
# PCOD9424331 Si02
#       8
#     8   8   8   8   8   8   8   8
#     4  11  25  45  75 118 159 203 265 336 411 489
#     4  12  27  48  74 105 154 206 276 325 386 484
#     4  12  22  39  74 117 157 196 248 329 415 498
#     4  12  26  42  73 119 163 200 258 329 425 500
#     4  11  25  48  78 112 155 218 267 331 405 495
#     4  11  24  47  80 108 148 204 269 328 408 477
#     4  12  24  40  70 110 156 201 243 321 413 485
#     4  11  26  46  75 110 150 207 264 327 398 487
#
# _framework density 27.574895000000001
#
# number of rings (size 3 to 8) (size 9 to 14) (size 15 to 20)
#    0.000    0.500    2.500    6.375    7.000    0.000 
#    0.000    8.750    0.000    0.000    0.000    0.000 
#    0.000    0.000    0.000    0.000    0.000    0.000 
#
# Total GULP energy -356701.399254 kJ/mol
# GULP energy per Si atom -5573.459363 kJ/mol
# Density = 2.751213 g / cm^3
# Si number density = 27.574895 Si / 1000 Ang^3
#
#
#
# Elastic Constant Matrix: (Units=GPa)
#
#
# Indices 1 2 3 4 5 6 
#
# 1 148.2286 4.5611 42.4421 0.0000 0.0000 0.0000
# 2 4.5611 47.4149 19.3751 0.0000 0.0000 0.0000
# 3 42.4421 19.3751 142.0669 0.0000 0.0000 0.0000
# 4 0.0000 0.0000 0.0000 -316.1699 0.0000 0.0000
# 5 0.0000 0.0000 0.0000 0.0000 52.5142 0.0000
# 6 0.0000 0.0000 0.0000 0.0000 0.0000 29.0367
#
#
#
# Elastic Compliance Matrix: (Units=1/GPa)
#
#
# Indices 1 2 3 4 5 6 
#
# 1 0.007379 0.000202 -0.002232 0.000000 0.000000 0.000000
# 2 0.000202 0.022341 -0.003107 0.000000 0.000000 0.000000
# 3 -0.002232 -0.003107 0.008130 0.000000 0.000000 0.000000
# 4 0.000000 0.000000 0.000000 -0.003163 0.000000 0.000000
# 5 0.000000 0.000000 0.000000 0.000000 0.019042 0.000000
# 6 0.000000 0.000000 0.000000 0.000000 0.000000 0.034439
#
#
# Mechanical properties :
#
#
# Convention : Reuss Voigt Hill
#
# Bulk Modulus (GPa) = 36.26442 52.27411 44.26927
# Shear Modulus (GPa) = 46.45364 -28.83500 8.80932
#
# Velocity S-wave (km/s) = 4.10888 -3.23723 1.78931
# Velocity P-wave (km/s) = 5.97414 2.24174 4.51197
#
# Compressibility (1/GPa) = 0.02757524
#
# Stress axis : x y z
#
# Youngs Moduli (GPa) = 135.51550 44.76142 123.00821
#
# Poissons Ratio (x) = -0.00905 0.27457
# Poissons Ratio (y) = -0.02741 0.38222
# Poissons Ratio (z) = 0.30249 0.13908
#
# Static dielectric constant tensor:
#      x y z
#    x 2.371280 0.000000 0.000000 
#    y 0.000000 2.594450 0.000000 
#    z 0.000000 0.000000 2.260970 
# 
# From -- ./inp_files/18245.got.cif
#   From: 2010.05.17/outbox.cif.g08.bks.cpg/sg54_10_cif.got.tgz:18245.got - 2010.06.03 13:09:01.
