data_PCOD9424312
_publ_section_title
;
Structure prediction by ZEFSAII (Michael W. Deem and Ramdas Pophale) SiO2 
 PCOD9424312
Probable space group: P C C A
;
_chemical_formula_sum "Si O2"
_cell_formula_units_Z 24
_cell_length_a 7.116140
_cell_length_b 8.620583
_cell_length_c 14.562196
_cell_angle_alpha 90.000000
_cell_angle_beta 90.000000
_cell_angle_gamma 90.000000
_cell_volume 893.321926
_symmetry_space_group_name_H-M "P C C A"
_symmetry_group_IT_number 54
_symmetry_cell_setting 'orthorhombic'
loop_
_space_group_symop_operation_xyz
x,y,z
1/2-x,-y,z
1/2+x,-y,1/2-z
-x,y,1/2-z
-x,-y,-z
1/2+x,y,-z
1/2-x,y,1/2+z
x,-y,1/2+z
loop_
_atom_site_type_symbol
_atom_site_label
_atom_site_fract_x
_atom_site_fract_y
_atom_site_fract_z
Si Si1 0.351511 0.836014 0.954023
Si Si2 0.000000 0.600517 0.750000
Si Si3 0.758739 0.164539 0.846577
Si Si4 0.750000 0.500000 0.099331
O O1 0.535894 0.819724 0.891169
O O2 0.251756 0.666519 0.949315
O O3 0.250000 0.000000 0.930281
O O4 0.377852 0.849741 0.064317
O O5 0.824039 0.705360 0.780984
O O6 0.933519 0.505065 0.663203
O O7 0.750000 0.000000 0.796006
#
# Coordination Sequence:
#
# PCOD9424312 Si02
#       4
#     8   4   8   4
#     4  11  24  47  75 102 135 186 242 291 344 420
#     4  12  26  42  66 106 146 188 230 294 368 420
#     4  11  24  45  73 103 141 184 236 292 353 422
#     4  12  26  44  70 102 142 186 236 290 354 420
#
# _framework density 26.866015000000001
#
# number of rings (size 3 to 8) (size 9 to 14) (size 15 to 20)
#    0.000    0.667    0.000   10.000    0.000   10.667 
#    0.000    3.333    0.000    0.000    0.000    0.000 
#    0.000    0.000    0.000    0.000    0.000    0.000 
#
# Total GULP energy -134344.195780 kJ/mol
# GULP energy per Si atom -5597.674824 kJ/mol
# Density = 2.680487 g / cm^3
# Si number density = 26.866015 Si / 1000 Ang^3
#
#
#
# Elastic Constant Matrix: (Units=GPa)
#
#
# Indices 1 2 3 4 5 6 
#
# 1 101.1048 59.5145 7.0059 0.0000 0.0000 0.0000
# 2 59.5145 235.6058 47.7628 0.0000 0.0000 0.0000
# 3 7.0059 47.7628 63.0907 0.0000 0.0000 0.0000
# 4 0.0000 0.0000 0.0000 15.8453 0.0000 0.0000
# 5 0.0000 0.0000 0.0000 0.0000 48.4367 0.0000
# 6 0.0000 0.0000 0.0000 0.0000 0.0000 45.2455
#
#
#
# Elastic Compliance Matrix: (Units=1/GPa)
#
#
# Indices 1 2 3 4 5 6 
#
# 1 0.011683 -0.003176 0.001107 0.000000 0.000000 0.000000
# 2 -0.003176 0.005877 -0.004097 0.000000 0.000000 0.000000
# 3 0.001107 -0.004097 0.018829 0.000000 0.000000 0.000000
# 4 0.000000 0.000000 0.000000 0.063110 0.000000 0.000000
# 5 0.000000 0.000000 0.000000 0.000000 0.020646 0.000000
# 6 0.000000 0.000000 0.000000 0.000000 0.000000 0.022102
#
#
# Mechanical properties :
#
#
# Convention : Reuss Voigt Hill
#
# Bulk Modulus (GPa) = 41.56610 69.81864 55.69237
# Shear Modulus (GPa) = 30.75095 40.94003 35.84549
#
# Velocity S-wave (km/s) = 3.38687 3.90790 3.65668
# Velocity P-wave (km/s) = 5.54975 6.81222 6.21314
#
# Compressibility (1/GPa) = 0.02405807
#
# Stress axis : x y z
#
# Youngs Moduli (GPa) = 85.59213 170.15465 53.11064
#
# Poissons Ratio (x) = 0.54034 -0.05878
# Poissons Ratio (y) = 0.27181 0.21757
# Poissons Ratio (z) = -0.09473 0.69705
#
# Static dielectric constant tensor:
#      x y z
#    x 2.207500 0.000000 0.000000 
#    y 0.000000 2.077570 0.000000 
#    z 0.000000 0.000000 1.999140 
# 
# From -- ./inp_files/16120.got.cif
#   From: 2010.05.17/outbox.cif.g08.bks.cpg/sg54_9_cif.got.tgz:16120.got - 2010.06.03 13:09:01.
