data_PCOD9424738
_publ_section_title
;
Structure prediction by ZEFSAII (Michael W. Deem and Ramdas Pophale) SiO2 
 PCOD9424738
Probable space group: P B A M
;
_chemical_formula_sum "Si O2"
_cell_formula_units_Z 48
_cell_length_a 13.730850
_cell_length_b 5.545259
_cell_length_c 26.343814
_cell_angle_alpha 90.000000
_cell_angle_beta 90.000000
_cell_angle_gamma 90.000000
_cell_volume 2005.847491
_symmetry_space_group_name_H-M "P B A M"
_symmetry_group_IT_number 55
_symmetry_cell_setting 'orthorhombic'
loop_
_space_group_symop_operation_xyz
x,y,z
-x,-y,z
1/2+x,1/2-y,-z
1/2-x,1/2+y,-z
-x,-y,-z
x,y,-z
1/2-x,1/2+y,z
1/2+x,1/2-y,z
loop_
_atom_site_type_symbol
_atom_site_label
_atom_site_fract_x
_atom_site_fract_y
_atom_site_fract_z
Si Si1 0.056164 0.750131 0.600583
Si Si2 0.194244 0.230875 0.750246
Si Si3 0.871647 0.851437 0.146851
Si Si4 0.064327 0.747660 0.000000
Si Si5 0.644271 0.848268 0.892019
Si Si6 0.261360 0.220413 0.359448
Si Si7 0.311400 0.295121 0.500000
O O1 0.124153 0.737189 0.650996
O O2 0.119111 0.767554 0.549092
O O3 0.000000 0.500000 0.598282
O O4 0.000000 0.000000 0.603654
O O5 0.241725 0.491171 0.760309
O O6 0.114301 0.206429 0.793557
O O7 0.190718 0.222723 0.688856
O O8 0.901472 0.613180 0.116045
O O9 0.755364 0.866338 0.129625
O O10 0.905668 0.123137 0.136661
O O11 0.132517 0.730336 0.049664
O O12 0.000000 0.500000 0.000000
O O13 0.000000 0.000000 0.000000
O O14 0.243935 0.468830 0.387587
O O15 0.262342 0.563675 0.500000
#
# Coordination Sequence:
#
# PCOD9424738 Si02
#       7
#     8   8   8   4   8   8   4
#     4  12  24  41  62  91 132 173 212 258 320 377
#     4  10  16  30  54  89 114 137 178 238 298 358
#     4  10  17  32  57  92 102 125 171 241 308 315
#     4  12  26  42  52  72 108 160 192 210 266 360
#     4  10  20  33  57  79 111 131 177 230 286 327
#     4  10  21  36  60  91 121 164 210 257 312 367
#     4  12  24  42  68  94 128 162 228 272 316 366
#
# _framework density 23.930036999999999
#
# number of rings (size 3 to 8) (size 9 to 14) (size 15 to 20)
#    0.000    1.333    3.333    4.500    0.000    2.667 
#    0.000    0.000    0.000    2.000    0.000    0.000 
#    0.000    0.000    0.000    0.000    0.000    0.000 
#
# Total GULP energy -267250.384509 kJ/mol
# GULP energy per Si atom -5567.716344 kJ/mol
# Density = 2.387557 g / cm^3
# Si number density = 23.930037 Si / 1000 Ang^3
#
#
#
# Elastic Constant Matrix: (Units=GPa)
#
#
# Indices 1 2 3 4 5 6 
#
# 1 46.0682 30.3575 -0.1249 0.0000 0.0000 0.0000
# 2 30.3575 249.3777 12.4624 0.0000 0.0000 0.0000
# 3 -0.1249 12.4624 84.1903 0.0000 0.0000 0.0000
# 4 0.0000 0.0000 0.0000 15.8016 0.0000 0.0000
# 5 0.0000 0.0000 0.0000 0.0000 13.8068 0.0000
# 6 0.0000 0.0000 0.0000 0.0000 0.0000 52.7788
#
#
#
# Elastic Compliance Matrix: (Units=1/GPa)
#
#
# Indices 1 2 3 4 5 6 
#
# 1 0.023618 -0.002898 0.000464 0.000000 0.000000 0.000000
# 2 -0.002898 0.004396 -0.000655 0.000000 0.000000 0.000000
# 3 0.000464 -0.000655 0.011975 0.000000 0.000000 0.000000
# 4 0.000000 0.000000 0.000000 0.063285 0.000000 0.000000
# 5 0.000000 0.000000 0.000000 0.000000 0.072428 0.000000
# 6 0.000000 0.000000 0.000000 0.000000 0.000000 0.018947
#
#
# Mechanical properties :
#
#
# Convention : Reuss Voigt Hill
#
# Bulk Modulus (GPa) = 29.57640 51.66957 40.62298
# Shear Modulus (GPa) = 23.57408 38.94020 31.25714
#
# Velocity S-wave (km/s) = 3.14208 4.03830 3.61804
# Velocity P-wave (km/s) = 5.05469 6.58655 5.87080
#
# Compressibility (1/GPa) = 0.03381074
#
# Stress axis : x y z
#
# Youngs Moduli (GPa) = 42.34045 227.50378 83.50387
#
# Poissons Ratio (x) = 0.65937 -0.03875
# Poissons Ratio (y) = 0.12272 0.05469
# Poissons Ratio (z) = -0.01965 0.14900
#
# Static dielectric constant tensor:
#      x y z
#    x 2.089890 0.000000 0.000000 
#    y 0.000000 1.992070 0.000000 
#    z 0.000000 0.000000 1.941200 
# 
# From -- ./inp_files/23986.got.cif
#   From: 2010.05.17/outbox.cif.g08.bks.cpg/sg55_12_cif.got.tgz:23986.got - 2010.06.03 13:27:54.
