data_PCOD9424391
_publ_section_title
;
Structure prediction by ZEFSAII (Michael W. Deem and Ramdas Pophale) SiO2 
 PCOD9424391
Probable space group: P C C A
;
_chemical_formula_sum "Si O2"
_cell_formula_units_Z 48
_cell_length_a 12.165275
_cell_length_b 11.009789
_cell_length_c 15.951058
_cell_angle_alpha 90.000000
_cell_angle_beta 90.000000
_cell_angle_gamma 90.000000
_cell_volume 2136.438624
_symmetry_space_group_name_H-M "P C C A"
_symmetry_group_IT_number 54
_symmetry_cell_setting 'orthorhombic'
loop_
_space_group_symop_operation_xyz
x,y,z
1/2-x,-y,z
1/2+x,-y,1/2-z
-x,y,1/2-z
-x,-y,-z
1/2+x,y,-z
1/2-x,y,1/2+z
x,-y,1/2+z
loop_
_atom_site_type_symbol
_atom_site_label
_atom_site_fract_x
_atom_site_fract_y
_atom_site_fract_z
Si Si1 0.632507 0.354005 0.147640
Si Si2 0.904240 0.320065 0.935212
Si Si3 0.207729 0.868874 0.805903
Si Si4 0.750000 0.500000 0.499371
Si Si5 0.000000 0.543671 0.750000
Si Si6 0.501918 0.744401 0.111311
Si Si7 0.783103 0.130208 0.393384
O O1 0.511241 0.311226 0.121053
O O2 0.707628 0.242404 0.177798
O O3 0.691070 0.408268 0.064651
O O4 0.600787 0.459718 0.215364
O O5 0.816392 0.219860 0.910552
O O6 0.841179 0.446720 0.937377
O O7 0.937005 0.309014 0.031787
O O8 0.089915 0.831750 0.843353
O O9 0.197233 0.880594 0.706059
O O10 0.250000 0.000000 0.838140
O O11 0.029984 0.636585 0.674968
O O12 0.396940 0.814816 0.075565
O O13 0.750000 0.000000 0.428747
#
# Coordination Sequence:
#
# PCOD9424391 Si02
#       7
#     8   8   8   4   4   8   8
#     4  12  25  46  71 108 142 190 246 298 377 436
#     4  12  27  45  73 108 149 192 242 307 369 443
#     4  11  25  48  77 105 148 195 251 311 362 445
#     4  12  24  44  68 102 152 184 234 300 374 444
#     4  12  24  44  74 102 146 190 246 300 368 450
#     4  12  25  48  74 105 146 198 241 309 377 433
#     4  11  27  48  74 107 145 198 252 301 372 442
#
# _framework density 22.467298
#
# number of rings (size 3 to 8) (size 9 to 14) (size 15 to 20)
#    0.000    0.333    5.000    2.500    4.667    1.333 
#    3.000    0.000    0.000    0.000    0.000    0.000 
#    0.000    0.000    0.000    0.000    0.000    0.000 
#
# Total GULP energy -268642.986051 kJ/mol
# GULP energy per Si atom -5596.728876 kJ/mol
# Density = 2.241616 g / cm^3
# Si number density = 22.467298 Si / 1000 Ang^3
#
#
#
# Elastic Constant Matrix: (Units=GPa)
#
#
# Indices 1 2 3 4 5 6 
#
# 1 136.0190 41.2688 -4.4318 0.0000 0.0000 0.0000
# 2 41.2688 102.7174 -4.0909 0.0000 0.0000 0.0000
# 3 -4.4318 -4.0909 29.8550 0.0000 0.0000 0.0000
# 4 0.0000 0.0000 0.0000 6.9805 0.0000 0.0000
# 5 0.0000 0.0000 0.0000 0.0000 347.8598 0.0000
# 6 0.0000 0.0000 0.0000 0.0000 0.0000 15.5308
#
#
#
# Elastic Compliance Matrix: (Units=1/GPa)
#
#
# Indices 1 2 3 4 5 6 
#
# 1 0.008391 -0.003340 0.000788 0.000000 0.000000 0.000000
# 2 -0.003340 0.011118 0.001028 0.000000 0.000000 0.000000
# 3 0.000788 0.001028 0.033753 0.000000 0.000000 0.000000
# 4 0.000000 0.000000 0.000000 0.143257 0.000000 0.000000
# 5 0.000000 0.000000 0.000000 0.000000 0.002875 0.000000
# 6 0.000000 0.000000 0.000000 0.000000 0.000000 0.064388
#
#
# Mechanical properties :
#
#
# Convention : Reuss Voigt Hill
#
# Bulk Modulus (GPa) = 19.91487 37.12039 28.51763
# Shear Modulus (GPa) = 17.63245 89.79723 53.71484
#
# Velocity S-wave (km/s) = 2.80448 6.32888 4.89489
# Velocity P-wave (km/s) = 4.40113 8.36446 6.68334
#
# Compressibility (1/GPa) = 0.05021373
#
# Stress axis : x y z
#
# Youngs Moduli (GPa) = 119.17661 89.94245 29.62701
#
# Poissons Ratio (x) = 0.30039 -0.02334
# Poissons Ratio (y) = 0.39803 -0.03045
# Poissons Ratio (z) = -0.09390 -0.09244
#
# Static dielectric constant tensor:
#      x y z
#    x 1.806110 0.000000 0.000000 
#    y 0.000000 1.860470 0.000000 
#    z 0.000000 0.000000 1.820300 
# 
# From -- ./inp_files/17322.got.cif
#   From: 2010.05.17/outbox.cif.g08.bks.cpg/sg54_9_cif.got.tgz:17322.got - 2010.06.03 13:09:01.
