data_PCOD9424298
_publ_section_title
;
Structure prediction by ZEFSAII (Michael W. Deem and Ramdas Pophale) SiO2 
 PCOD9424298
Probable space group: P C C A
;
_chemical_formula_sum "Si O2"
_cell_formula_units_Z 56
_cell_length_a 13.472761
_cell_length_b 15.371195
_cell_length_c 14.454640
_cell_angle_alpha 90.000000
_cell_angle_beta 90.000000
_cell_angle_gamma 90.000000
_cell_volume 2993.446617
_symmetry_space_group_name_H-M "P C C A"
_symmetry_group_IT_number 54
_symmetry_cell_setting 'orthorhombic'
loop_
_space_group_symop_operation_xyz
x,y,z
1/2-x,-y,z
1/2+x,-y,1/2-z
-x,y,1/2-z
-x,-y,-z
1/2+x,y,-z
1/2-x,y,1/2+z
x,-y,1/2+z
loop_
_atom_site_type_symbol
_atom_site_label
_atom_site_fract_x
_atom_site_fract_y
_atom_site_fract_z
Si Si1 0.500000 0.465839 0.250000
Si Si2 0.250000 0.000000 0.998064
Si Si3 0.663884 0.702312 0.426256
Si Si4 0.974632 0.576931 0.570095
Si Si5 0.704858 0.303676 0.600978
Si Si6 0.122075 0.114060 0.354965
Si Si7 0.789531 0.598771 0.279992
Si Si8 0.886092 0.106507 0.359157
O O1 0.465430 0.529289 0.331546
O O2 0.592036 0.408187 0.282486
O O3 0.174573 0.050557 0.066268
O O4 0.312470 0.062774 0.930001
O O5 0.565548 0.643944 0.430398
O O6 0.710491 0.717868 0.526810
O O7 0.742930 0.649745 0.365301
O O8 0.639825 0.793095 0.378087
O O9 0.874414 0.630642 0.554908
O O10 0.000000 0.500000 0.500000
O O11 0.648605 0.216247 0.633136
O O12 0.753012 0.352694 0.687898
O O13 0.141339 0.087103 0.247993
O O14 0.004900 0.097708 0.370780
O O15 0.750000 0.500000 0.280920
#
# Coordination Sequence:
#
# PCOD9424298 Si02
#       8
#     4   4   8   8   8   8   8   8
#     4  12  24  40  60  92 124 176 216 280 314 382
#     4  12  24  48  68 108 134 164 212 284 356 388
#     4  12  24  40  63  94 127 174 223 271 325 385
#     4  12  24  38  62  89 128 175 227 266 319 382
#     4  12  24  40  63  94 127 174 223 271 325 385
#     4  11  24  44  73  99 130 174 221 270 333 418
#     4  12  24  40  62  89 128 170 220 271 321 377
#     4  11  24  44  73  99 130 174 221 270 333 418
#
# _framework density 18.707533000000002
#
# number of rings (size 3 to 8) (size 9 to 14) (size 15 to 20)
#    0.000    0.286    7.143    2.571    0.000    0.000 
#    0.000    0.000    0.000    0.000    0.000    0.000 
#    0.000    0.000    0.000    0.000    0.000    0.000 
#
# Total GULP energy -313143.986860 kJ/mol
# GULP energy per Si atom -5591.856908 kJ/mol
# Density = 1.866495 g / cm^3
# Si number density = 18.707533 Si / 1000 Ang^3
#
#
#
# Elastic Constant Matrix: (Units=GPa)
#
#
# Indices 1 2 3 4 5 6 
#
# 1 74.9087 31.3531 10.8816 0.0000 0.0000 0.0000
# 2 31.3531 99.1666 37.7558 0.0000 0.0000 0.0000
# 3 10.8816 37.7558 102.8800 0.0000 0.0000 0.0000
# 4 0.0000 0.0000 0.0000 -108.3265 0.0000 0.0000
# 5 0.0000 0.0000 0.0000 0.0000 35.5062 0.0000
# 6 0.0000 0.0000 0.0000 0.0000 0.0000 17.9066
#
#
#
# Elastic Compliance Matrix: (Units=1/GPa)
#
#
# Indices 1 2 3 4 5 6 
#
# 1 0.015389 -0.004935 0.000184 0.000000 0.000000 0.000000
# 2 -0.004935 0.013305 -0.004361 0.000000 0.000000 0.000000
# 3 0.000184 -0.004361 0.011301 0.000000 0.000000 0.000000
# 4 0.000000 0.000000 0.000000 -0.009231 0.000000 0.000000
# 5 0.000000 0.000000 0.000000 0.000000 0.028164 0.000000
# 6 0.000000 0.000000 0.000000 0.000000 0.000000 0.055845
#
#
# Mechanical properties :
#
#
# Convention : Reuss Voigt Hill
#
# Bulk Modulus (GPa) = 45.93591 48.54847 47.24219
# Shear Modulus (GPa) = 35.64977 2.14824 18.89901
#
# Velocity S-wave (km/s) = 4.37010 1.07276 3.18187
# Velocity P-wave (km/s) = 7.07614 5.24805 6.22952
#
# Compressibility (1/GPa) = 0.02176946
#
# Stress axis : x y z
#
# Youngs Moduli (GPa) = 64.98339 75.16191 88.48803
#
# Poissons Ratio (x) = 0.37094 -0.01624
# Poissons Ratio (y) = 0.32071 0.38586
# Poissons Ratio (z) = -0.01193 0.32775
#
# Static dielectric constant tensor:
#      x y z
#    x 1.627400 0.000000 0.000000 
#    y 0.000000 1.617620 0.000000 
#    z 0.000000 0.000000 1.624300 
# 
# From -- ./inp_files/8493.got.cif
#   From: 2010.05.17/outbox.cif.g08.bks.cpg/sg54_5_cif.got.tgz:8493.got - 2010.06.03 13:09:01.
