data_PCOD9424439
_publ_section_title
;
Structure prediction by ZEFSAII (Michael W. Deem and Ramdas Pophale) SiO2 
 PCOD9424439
Probable space group: P C C A
;
_chemical_formula_sum "Si O2"
_cell_formula_units_Z 24
_cell_length_a 17.836481
_cell_length_b 4.615385
_cell_length_c 10.713689
_cell_angle_alpha 90.000000
_cell_angle_beta 90.000000
_cell_angle_gamma 90.000000
_cell_volume 881.974736
_symmetry_space_group_name_H-M "P C C A"
_symmetry_group_IT_number 54
_symmetry_cell_setting 'orthorhombic'
loop_
_space_group_symop_operation_xyz
x,y,z
1/2-x,-y,z
1/2+x,-y,1/2-z
-x,y,1/2-z
-x,-y,-z
1/2+x,y,-z
1/2-x,y,1/2+z
x,-y,1/2+z
loop_
_atom_site_type_symbol
_atom_site_label
_atom_site_fract_x
_atom_site_fract_y
_atom_site_fract_z
Si Si1 0.750000 0.500000 0.817871
Si Si2 0.006966 0.199583 0.880672
Si Si3 0.250000 0.000000 0.869601
Si Si4 0.868192 0.560229 0.501017
O O1 0.778301 0.249693 0.725741
O O2 0.689849 0.377988 0.917207
O O3 0.000000 0.039981 0.750000
O O4 0.930323 0.372501 0.896722
O O5 0.080281 0.397184 0.898054
O O6 0.000000 0.000000 0.000000
O O7 0.181349 0.825919 0.940420
#
# Coordination Sequence:
#
# PCOD9424439 Si02
#       4
#     4   8   4   8
#     4  12  28  48  84 124 176 224 298 366 458 532
#     4  11  28  51  85 122 176 233 301 365 456 537
#     4  12  28  48  88 122 178 228 294 372 454 534
#     4  11  28  51  78 127 170 230 294 375 444 542
#
# _framework density 27.211663000000001
#
# number of rings (size 3 to 8) (size 9 to 14) (size 15 to 20)
#    0.000    0.667    0.000    4.000   18.667    5.333 
#    0.000    0.000    0.000    0.000    0.000    0.000 
#    0.000    0.000    0.000    0.000    0.000    0.000 
#
# Total GULP energy -133993.614711 kJ/mol
# GULP energy per Si atom -5583.067280 kJ/mol
# Density = 2.714973 g / cm^3
# Si number density = 27.211663 Si / 1000 Ang^3
#
#
#
# Elastic Constant Matrix: (Units=GPa)
#
#
# Indices 1 2 3 4 5 6 
#
# 1 211.0614 64.1165 79.4995 0.0000 0.0000 0.0000
# 2 64.1165 127.2574 69.5072 0.0000 0.0000 0.0000
# 3 79.4995 69.5072 203.2135 0.0000 0.0000 0.0000
# 4 0.0000 0.0000 0.0000 46.1185 0.0000 0.0000
# 5 0.0000 0.0000 0.0000 0.0000 23.3425 0.0000
# 6 0.0000 0.0000 0.0000 0.0000 0.0000 41.7221
#
#
#
# Elastic Compliance Matrix: (Units=1/GPa)
#
#
# Indices 1 2 3 4 5 6 
#
# 1 0.005996 -0.002139 -0.001614 0.000000 0.000000 0.000000
# 2 -0.002139 0.010427 -0.002729 0.000000 0.000000 0.000000
# 3 -0.001614 -0.002729 0.006486 0.000000 0.000000 0.000000
# 4 0.000000 0.000000 0.000000 0.021683 0.000000 0.000000
# 5 0.000000 0.000000 0.000000 0.000000 0.042840 0.000000
# 6 0.000000 0.000000 0.000000 0.000000 0.000000 0.023968
#
#
# Mechanical properties :
#
#
# Convention : Reuss Voigt Hill
#
# Bulk Modulus (GPa) = 100.57257 107.53096 104.05176
# Shear Modulus (GPa) = 39.16047 44.13055 41.64551
#
# Velocity S-wave (km/s) = 3.79767 4.03147 3.91631
# Velocity P-wave (km/s) = 7.50129 7.82768 7.66622
#
# Compressibility (1/GPa) = 0.00994307
#
# Stress axis : x y z
#
# Youngs Moduli (GPa) = 166.78499 95.90693 154.18145
#
# Poissons Ratio (x) = 0.20518 0.24883
# Poissons Ratio (y) = 0.35682 0.42083
# Poissons Ratio (z) = 0.26917 0.26177
#
# Static dielectric constant tensor:
#      x y z
#    x 1.049850 0.000000 0.000000 
#    y 0.000000 2.516290 0.000000 
#    z 0.000000 0.000000 2.136880 
# 
# From -- ./inp_files/9112.got.cif
#   From: 2010.05.17/outbox.cif.g08.bks.cpg/sg54_5_cif.got.tgz:9112.got - 2010.06.03 13:09:01.
