data_PCOD9424492
_publ_section_title
;
Structure prediction by ZEFSAII (Michael W. Deem and Ramdas Pophale) SiO2 
 PCOD9424492
Probable space group: P C C A
;
_chemical_formula_sum "Si O2"
_cell_formula_units_Z 32
_cell_length_a 9.695981
_cell_length_b 9.599888
_cell_length_c 14.895014
_cell_angle_alpha 90.000000
_cell_angle_beta 90.000000
_cell_angle_gamma 90.000000
_cell_volume 1386.432843
_symmetry_space_group_name_H-M "P C C A"
_symmetry_group_IT_number 54
_symmetry_cell_setting 'orthorhombic'
loop_
_space_group_symop_operation_xyz
x,y,z
1/2-x,-y,z
1/2+x,-y,1/2-z
-x,y,1/2-z
-x,-y,-z
1/2+x,y,-z
1/2-x,y,1/2+z
x,-y,1/2+z
loop_
_atom_site_type_symbol
_atom_site_label
_atom_site_fract_x
_atom_site_fract_y
_atom_site_fract_z
Si Si1 0.837745 0.282333 0.732283
Si Si2 0.901004 0.114159 0.956800
Si Si3 0.750000 0.000000 0.790927
Si Si4 0.154778 0.300656 0.967930
Si Si5 0.750000 0.500000 0.883725
O O1 0.810267 0.345370 0.633733
O O2 0.799814 0.381855 0.814717
O O3 0.000000 0.253271 0.750000
O O4 0.745473 0.140808 0.734077
O O5 0.000442 0.245961 0.956858
O O6 0.867984 0.044509 0.861118
O O7 0.760096 0.175045 0.001134
O O8 0.000000 0.000000 0.000000
O O9 0.155666 0.415889 0.045600
#
# Coordination Sequence:
#
# PCOD9424492 Si02
#       5
#     8   8   4   8   4
#     4  12  27  47  76 111 151 199 257 310 377 453
#     4  12  23  46  73 109 147 197 245 311 378 443
#     4  12  24  46  70 110 152 188 254 320 362 452
#     4  12  26  46  76 107 151 200 250 306 378 444
#     4  12  26  52  72 112 156 200 252 314 370 466
#
# _framework density 23.080815999999999
#
# number of rings (size 3 to 8) (size 9 to 14) (size 15 to 20)
#    0.000    0.000    7.500    0.750    3.500    6.000 
#    0.000    3.750    0.000    0.000    0.000    0.000 
#    0.000    0.000    0.000    0.000    0.000    0.000 
#
# Total GULP energy -178401.548270 kJ/mol
# GULP energy per Si atom -5575.048383 kJ/mol
# Density = 2.302828 g / cm^3
# Si number density = 23.080816 Si / 1000 Ang^3
#
#
#
# Elastic Constant Matrix: (Units=GPa)
#
#
# Indices 1 2 3 4 5 6 
#
# 1 87.4057 42.5406 28.9718 0.0000 0.0000 0.0000
# 2 42.5406 139.1659 62.5216 0.0000 0.0000 0.0000
# 3 28.9718 62.5216 177.0750 0.0000 0.0000 0.0000
# 4 0.0000 0.0000 0.0000 0.2429 0.0000 0.0000
# 5 0.0000 0.0000 0.0000 0.0000 13.3984 0.0000
# 6 0.0000 0.0000 0.0000 0.0000 0.0000 15.8881
#
#
#
# Elastic Compliance Matrix: (Units=1/GPa)
#
#
# Indices 1 2 3 4 5 6 
#
# 1 0.013559 -0.003742 -0.000897 0.000000 0.000000 0.000000
# 2 -0.003742 0.009573 -0.002768 0.000000 0.000000 0.000000
# 3 -0.000897 -0.002768 0.006771 0.000000 0.000000 0.000000
# 4 0.000000 0.000000 0.000000 4.116605 0.000000 0.000000
# 5 0.000000 0.000000 0.000000 0.000000 0.074636 0.000000
# 6 0.000000 0.000000 0.000000 0.000000 0.000000 0.062940
#
#
# Mechanical properties :
#
#
# Convention : Reuss Voigt Hill
#
# Bulk Modulus (GPa) = 66.26928 74.63495 70.45212
# Shear Modulus (GPa) = 1.16173 23.88007 12.52090
#
# Velocity S-wave (km/s) = 0.71023 3.22005 2.33165
# Velocity P-wave (km/s) = 5.42649 6.79938 6.15135
#
# Compressibility (1/GPa) = 0.01508995
#
# Stress axis : x y z
#
# Youngs Moduli (GPa) = 73.74924 104.46141 147.67986
#
# Poissons Ratio (x) = 0.39087 0.13252
# Poissons Ratio (y) = 0.27595 0.40875
# Poissons Ratio (z) = 0.06618 0.28913
#
# Static dielectric constant tensor:
#      x y z
#    x 1.869470 0.000000 0.000000 
#    y 0.000000 1.988400 0.000000 
#    z 0.000000 0.000000 1.899550 
# 
# From -- ./inp_files/12264.got.cif
#   From: 2010.05.17/outbox.cif.g08.bks.cpg/sg54_7_cif.got.tgz:12264.got - 2010.06.03 13:09:01.
