data_PCOD9424445
_publ_section_title
;
Structure prediction by ZEFSAII (Michael W. Deem and Ramdas Pophale) SiO2 
 PCOD9424445
Probable space group: P C C A
;
_chemical_formula_sum "Si O2"
_cell_formula_units_Z 48
_cell_length_a 17.154564
_cell_length_b 8.738697
_cell_length_c 15.067412
_cell_angle_alpha 90.000000
_cell_angle_beta 90.000000
_cell_angle_gamma 90.000000
_cell_volume 2258.733689
_symmetry_space_group_name_H-M "P C C A"
_symmetry_group_IT_number 54
_symmetry_cell_setting 'orthorhombic'
loop_
_space_group_symop_operation_xyz
x,y,z
1/2-x,-y,z
1/2+x,-y,1/2-z
-x,y,1/2-z
-x,-y,-z
1/2+x,y,-z
1/2-x,y,1/2+z
x,-y,1/2+z
loop_
_atom_site_type_symbol
_atom_site_label
_atom_site_fract_x
_atom_site_fract_y
_atom_site_fract_z
Si Si1 0.325642 0.601086 0.296360
Si Si2 0.542279 0.659957 0.672889
Si Si3 0.322661 0.800165 0.474198
Si Si4 0.421250 0.910475 0.977994
Si Si5 0.675377 0.281237 0.902119
Si Si6 0.075563 0.553650 0.053451
O O1 0.250000 0.500000 0.284824
O O2 0.393341 0.474236 0.315811
O O3 0.312742 0.710135 0.381579
O O4 0.327869 0.695444 0.203654
O O5 0.500000 0.758774 0.750000
O O6 0.569225 0.779026 0.596989
O O7 0.463062 0.567331 0.648647
O O8 0.252484 0.777456 0.545649
O O9 0.395778 0.715671 0.519968
O O10 0.351598 0.971380 0.454585
O O11 0.393722 0.829531 0.068051
O O12 0.500000 0.000000 0.000000
O O13 0.649531 0.443690 0.944686
O O14 0.000000 0.500000 0.000000
#
# Coordination Sequence:
#
# PCOD9424445 Si02
#       6
#     8   8   8   8   8   8
#     4  12  26  44  74 107 138 184 244 305 359 425
#     4  12  25  42  71 108 142 182 247 304 360 419
#     4  12  25  46  70 102 148 190 232 294 365 438
#     4  12  26  47  70 100 148 192 230 290 365 443
#     4  12  26  45  71 103 141 187 240 297 364 421
#     4  12  20  42  72 101 140 183 232 297 345 417
#
# _framework density 21.250845999999999
#
# number of rings (size 3 to 8) (size 9 to 14) (size 15 to 20)
#    0.000    0.000    6.667    4.000    0.000    1.333 
#    0.000    3.333    0.000    0.000    0.000    0.000 
#    0.000    0.000    0.000    0.000    0.000    0.000 
#
# Total GULP energy -267438.151483 kJ/mol
# GULP energy per Si atom -5571.628156 kJ/mol
# Density = 2.120248 g / cm^3
# Si number density = 21.250846 Si / 1000 Ang^3
#
#
#
# Elastic Constant Matrix: (Units=GPa)
#
#
# Indices 1 2 3 4 5 6 
#
# 1 93.4344 42.9177 61.4196 0.0000 0.0000 0.0000
# 2 42.9177 83.6923 28.4778 0.0000 0.0000 0.0000
# 3 61.4196 28.4778 103.8208 0.0000 0.0000 0.0000
# 4 0.0000 0.0000 0.0000 25.8110 0.0000 0.0000
# 5 0.0000 0.0000 0.0000 0.0000 82.3417 0.0000
# 6 0.0000 0.0000 0.0000 0.0000 0.0000 51.1140
#
#
#
# Elastic Compliance Matrix: (Units=1/GPa)
#
#
# Indices 1 2 3 4 5 6 
#
# 1 0.020772 -0.007137 -0.010331 0.000000 0.000000 0.000000
# 2 -0.007137 0.015630 -0.000065 0.000000 0.000000 0.000000
# 3 -0.010331 -0.000065 0.015762 0.000000 0.000000 0.000000
# 4 0.000000 0.000000 0.000000 0.038743 0.000000 0.000000
# 5 0.000000 0.000000 0.000000 0.000000 0.012145 0.000000
# 6 0.000000 0.000000 0.000000 0.000000 0.000000 0.019564
#
#
# Mechanical properties :
#
#
# Convention : Reuss Voigt Hill
#
# Bulk Modulus (GPa) = 58.48629 60.73087 59.60858
# Shear Modulus (GPa) = 30.60329 41.72882 36.16605
#
# Velocity S-wave (km/s) = 3.79898 4.43610 4.12984
# Velocity P-wave (km/s) = 6.84285 7.40802 7.13103
#
# Compressibility (1/GPa) = 0.01709802
#
# Stress axis : x y z
#
# Youngs Moduli (GPa) = 48.14201 63.97765 63.44517
#
# Poissons Ratio (x) = 0.45658 0.65545
# Poissons Ratio (y) = 0.34357 0.00415
# Poissons Ratio (z) = 0.49735 0.00419
#
# Static dielectric constant tensor:
#      x y z
#    x 1.767940 0.000000 0.000000 
#    y 0.000000 1.843090 0.000000 
#    z 0.000000 0.000000 2.195700 
# 
# From -- ./inp_files/14160.got.cif
#   From: 2010.05.17/outbox.cif.g08.bks.cpg/sg54_8_cif.got.tgz:14160.got - 2010.06.03 13:09:01.
