data_PCOD9424607
_publ_section_title
;
Structure prediction by ZEFSAII (Michael W. Deem and Ramdas Pophale) SiO2 
 PCOD9424607
Probable space group: P C C A
;
_chemical_formula_sum "Si O2"
_cell_formula_units_Z 48
_cell_length_a 18.000000
_cell_length_b 9.000000
_cell_length_c 15.000000
_cell_angle_alpha 90.000000
_cell_angle_beta 90.000000
_cell_angle_gamma 90.000000
_cell_volume 2430.000000
_symmetry_space_group_name_H-M "P C C A"
_symmetry_group_IT_number 54
_symmetry_cell_setting 'orthorhombic'
loop_
_space_group_symop_operation_xyz
x,y,z
1/2-x,-y,z
1/2+x,-y,1/2-z
-x,y,1/2-z
-x,-y,-z
1/2+x,y,-z
1/2-x,y,1/2+z
x,-y,1/2+z
loop_
_atom_site_type_symbol
_atom_site_label
_atom_site_fract_x
_atom_site_fract_y
_atom_site_fract_z
Si Si1 0.919591 0.545741 0.752892
Si Si2 0.203370 0.150548 0.528915
Si Si3 0.092566 0.593185 0.441848
Si Si4 0.926919 0.335650 0.919215
Si Si5 0.773101 0.330402 0.313375
Si Si6 0.764133 0.321894 0.619612
O O1 0.904427 0.491255 0.653232
O O2 0.922379 0.403234 0.819315
O O3 0.858953 0.658754 0.788467
O O4 0.000000 0.616754 0.750000
O O5 0.120086 0.186267 0.565592
O O6 0.250848 0.239737 0.602051
O O7 0.203426 0.229842 0.432961
O O8 0.250000 0.000000 0.520234
O O9 0.103023 0.472866 0.519701
O O10 0.160043 0.705863 0.433553
O O11 0.012920 0.671158 0.447585
O O12 0.750000 0.500000 0.329788
O O13 0.732427 0.280823 0.222795
O O14 0.750000 0.500000 0.614015
#
# Coordination Sequence:
#
# PCOD9424607 Si02
#       6
#     8   8   8   8   8   8
#     4  10  18  30  54  85 108 130 174 238 286 318
#     4  12  24  36  53  80 118 155 182 220 280 355
#     4  10  18  31  55  83 104 135 176 245 284 313
#     4  10  19  32  51  80 113 136 179 226 283 330
#     4  11  19  35  59  83 107 137 190 239 276 324
#     4  11  19  35  59  82 107 137 193 239 282 320
#
# _framework density 19.753086
#
# number of rings (size 3 to 8) (size 9 to 14) (size 15 to 20)
#    0.000    1.333    6.667    1.500    0.000    0.667 
#    0.000    0.833    0.000    5.000    0.000    0.000 
#    0.000    0.000    0.000    0.000    0.000    0.000 
#
# Total GULP energy -267330.938030 kJ/mol
# GULP energy per Si atom -5569.394542 kJ/mol
# Density = 1.970813 g / cm^3
# Si number density = 19.753086 Si / 1000 Ang^3
#
#
#
# Elastic Constant Matrix: (Units=GPa)
#
#
# Indices 1 2 3 4 5 6 
#
# 1 114.6802 8.9616 -3.2484 0.0000 0.0000 0.0000
# 2 8.9616 39.1881 29.9492 0.0000 0.0000 0.0000
# 3 -3.2484 29.9492 102.4658 0.0000 0.0000 0.0000
# 4 0.0000 0.0000 0.0000 10.6245 0.0000 0.0000
# 5 0.0000 0.0000 0.0000 0.0000 28.2813 0.0000
# 6 0.0000 0.0000 0.0000 0.0000 0.0000 25.2322
#
#
#
# Elastic Compliance Matrix: (Units=1/GPa)
#
#
# Indices 1 2 3 4 5 6 
#
# 1 0.008981 -0.002925 0.001140 0.000000 0.000000 0.000000
# 2 -0.002925 0.033810 -0.009975 0.000000 0.000000 0.000000
# 3 0.001140 -0.009975 0.012711 0.000000 0.000000 0.000000
# 4 0.000000 0.000000 0.000000 0.094122 0.000000 0.000000
# 5 0.000000 0.000000 0.000000 0.000000 0.035359 0.000000
# 6 0.000000 0.000000 0.000000 0.000000 0.000000 0.039632
#
#
# Mechanical properties :
#
#
# Convention : Reuss Voigt Hill
#
# Bulk Modulus (GPa) = 31.26779 36.40655 33.83717
# Shear Modulus (GPa) = 19.32032 27.53906 23.42969
#
# Velocity S-wave (km/s) = 3.13084 3.73790 3.44776
# Velocity P-wave (km/s) = 5.37896 6.09098 5.74601
#
# Compressibility (1/GPa) = 0.03198180
#
# Stress axis : x y z
#
# Youngs Moduli (GPa) = 111.34968 29.57706 78.67210
#
# Poissons Ratio (x) = 0.08650 -0.08965
# Poissons Ratio (y) = 0.32565 0.78474
# Poissons Ratio (z) = -0.12689 0.29503
#
# Static dielectric constant tensor:
#      x y z
#    x 1.886150 0.000000 0.000000 
#    y 0.000000 1.670740 0.000000 
#    z 0.000000 0.000000 1.704200 
# 
# From -- ./inp_files/14149.got.cif
#   From: 2010.05.17/outbox.ucp.g08.bks.cvg/sg54_8_cif.got.tgz:14149.got - 2010.06.11 16:34:40.
