data_PCOD9424098
_publ_section_title
;
Structure prediction by ZEFSAII (Michael W. Deem and Ramdas Pophale) SiO2 
 PCOD9424098
Probable space group: P C C A
;
_chemical_formula_sum "Si O2"
_cell_formula_units_Z 32
_cell_length_a 16.739546
_cell_length_b 10.103238
_cell_length_c 8.358500
_cell_angle_alpha 90.000000
_cell_angle_beta 90.000000
_cell_angle_gamma 90.000000
_cell_volume 1413.619755
_symmetry_space_group_name_H-M "P C C A"
_symmetry_group_IT_number 54
_symmetry_cell_setting 'orthorhombic'
loop_
_space_group_symop_operation_xyz
x,y,z
1/2-x,-y,z
1/2+x,-y,1/2-z
-x,y,1/2-z
-x,-y,-z
1/2+x,y,-z
1/2-x,y,1/2+z
x,-y,1/2+z
loop_
_atom_site_type_symbol
_atom_site_label
_atom_site_fract_x
_atom_site_fract_y
_atom_site_fract_z
Si Si1 0.163040 0.565431 0.958574
Si Si2 0.146313 0.107064 0.003017
Si Si3 0.823693 0.163162 0.868199
Si Si4 0.079655 0.353509 0.150436
O O1 0.250000 0.500000 0.969715
O O2 0.154738 0.690330 0.075967
O O3 0.098751 0.455130 0.008385
O O4 0.149082 0.619350 0.780628
O O5 0.230271 0.141294 0.090869
O O6 0.083130 0.206278 0.080207
O O7 0.131490 0.952353 0.032971
O O8 0.159352 0.138597 0.817354
O O9 0.000000 0.376070 0.250000
#
# Coordination Sequence:
#
# PCOD9424098 Si02
#       4
#     8   8   8   8
#     4  12  24  42  69 100 132 181 234 280 330 405
#     4  11  22  41  66 100 133 171 221 281 338 400
#     4  11  22  40  70 100 130 169 230 281 329 394
#     4  12  26  44  65 100 143 181 222 281 349 404
#
# _framework density 22.636922999999999
#
# number of rings (size 3 to 8) (size 9 to 14) (size 15 to 20)
#    0.000    0.500    2.500    9.000    0.000    0.000 
#    0.000    6.250    0.000    0.000    0.000    0.000 
#    0.000    0.000    0.000    0.000    0.000    0.000 
#
# Total GULP energy -179256.297486 kJ/mol
# GULP energy per Si atom -5601.759296 kJ/mol
# Density = 2.258540 g / cm^3
# Si number density = 22.636923 Si / 1000 Ang^3
#
#
#
# Elastic Constant Matrix: (Units=GPa)
#
#
# Indices 1 2 3 4 5 6 
#
# 1 24.4536 27.3100 2.7617 0.0000 0.0000 0.0000
# 2 27.3100 145.9994 24.6199 0.0000 0.0000 0.0000
# 3 2.7617 24.6199 133.9451 0.0000 0.0000 0.0000
# 4 0.0000 0.0000 0.0000 8.8477 0.0000 0.0000
# 5 0.0000 0.0000 0.0000 0.0000 20.1140 0.0000
# 6 0.0000 0.0000 0.0000 0.0000 0.0000 12.2838
#
#
#
# Elastic Compliance Matrix: (Units=1/GPa)
#
#
# Indices 1 2 3 4 5 6 
#
# 1 0.051763 -0.009807 0.000735 0.000000 0.000000 0.000000
# 2 -0.009807 0.008926 -0.001439 0.000000 0.000000 0.000000
# 3 0.000735 -0.001439 0.007715 0.000000 0.000000 0.000000
# 4 0.000000 0.000000 0.000000 0.113024 0.000000 0.000000
# 5 0.000000 0.000000 0.000000 0.000000 0.049717 0.000000
# 6 0.000000 0.000000 0.000000 0.000000 0.000000 0.081408
#
#
# Mechanical properties :
#
#
# Convention : Reuss Voigt Hill
#
# Bulk Modulus (GPa) = 21.10392 45.97569 33.53981
# Shear Modulus (GPa) = 14.31157 24.89618 19.60387
#
# Velocity S-wave (km/s) = 2.51713 3.31993 2.94600
# Velocity P-wave (km/s) = 4.21793 5.92031 5.14009
#
# Compressibility (1/GPa) = 0.04738456
#
# Stress axis : x y z
#
# Youngs Moduli (GPa) = 19.31889 112.02876 129.61771
#
# Poissons Ratio (x) = 1.09861 -0.09530
# Poissons Ratio (y) = 0.18945 0.18646
# Poissons Ratio (z) = -0.01420 0.16116
#
# Static dielectric constant tensor:
#      x y z
#    x 1.854710 0.000000 0.000000 
#    y 0.000000 1.856000 0.000000 
#    z 0.000000 0.000000 1.810000 
# 
# From -- ./inp_files/3321.got.cif
#   From: 2010.05.17/outbox.cif.g08.bks.cpg/sg54_2_cif.got.tgz:3321.got - 2010.06.03 13:09:01.
