data_PCOD9424144
_publ_section_title
;
Structure prediction by ZEFSAII (Michael W. Deem and Ramdas Pophale) SiO2 
 PCOD9424144
Probable space group: P C C A
;
_chemical_formula_sum "Si O2"
_cell_formula_units_Z 32
_cell_length_a 10.023531
_cell_length_b 6.923252
_cell_length_c 20.714735
_cell_angle_alpha 90.000000
_cell_angle_beta 90.000000
_cell_angle_gamma 90.000000
_cell_volume 1437.507964
_symmetry_space_group_name_H-M "P C C A"
_symmetry_group_IT_number 54
_symmetry_cell_setting 'orthorhombic'
loop_
_space_group_symop_operation_xyz
x,y,z
1/2-x,-y,z
1/2+x,-y,1/2-z
-x,y,1/2-z
-x,-y,-z
1/2+x,y,-z
1/2-x,y,1/2+z
x,-y,1/2+z
loop_
_atom_site_type_symbol
_atom_site_label
_atom_site_fract_x
_atom_site_fract_y
_atom_site_fract_z
Si Si1 0.367580 0.658204 0.953713
Si Si2 0.388045 0.985254 0.852758
Si Si3 0.500000 0.275269 0.250000
Si Si4 0.750000 0.500000 0.799041
Si Si5 0.057910 0.336124 0.097588
O O1 0.250000 0.500000 0.953463
O O2 0.347068 0.846736 0.911570
O O3 0.490451 0.541939 0.920719
O O4 0.390353 0.724636 0.027159
O O5 0.492168 0.864867 0.811016
O O6 0.250000 0.000000 0.813080
O O7 0.450255 0.185572 0.875446
O O8 0.366681 0.404071 0.243699
O O9 0.828871 0.640205 0.848524
#
# Coordination Sequence:
#
# PCOD9424144 Si02
#       5
#     8   8   4   4   8
#     4  11  22  47  72 113 148 187 242 305 378 439
#     4  12  27  46  74 110 144 196 246 309 362 443
#     4  12  32  48  74 106 150 198 254 296 364 442
#     4  12  28  52  74 106 146 206 246 312 368 442
#     4  11  25  46  76 105 149 190 245 305 377 439
#
# _framework density 22.260746999999999
#
# number of rings (size 3 to 8) (size 9 to 14) (size 15 to 20)
#    0.000    0.500    6.250    0.750    8.750    0.000 
#    4.500    0.000    0.000    0.000    0.000    0.000 
#    0.000    0.000    0.000    0.000    0.000    0.000 
#
# Total GULP energy -178864.003589 kJ/mol
# GULP energy per Si atom -5589.500112 kJ/mol
# Density = 2.221008 g / cm^3
# Si number density = 22.260747 Si / 1000 Ang^3
#
#
#
# Elastic Constant Matrix: (Units=GPa)
#
#
# Indices 1 2 3 4 5 6 
#
# 1 94.0571 29.0699 10.2354 0.0000 0.0000 0.0000
# 2 29.0699 73.2277 33.2196 0.0000 0.0000 0.0000
# 3 10.2354 33.2196 63.2519 0.0000 0.0000 0.0000
# 4 0.0000 0.0000 0.0000 19.2141 0.0000 0.0000
# 5 0.0000 0.0000 0.0000 0.0000 -6.1556 0.0000
# 6 0.0000 0.0000 0.0000 0.0000 0.0000 46.2744
#
#
#
# Elastic Compliance Matrix: (Units=1/GPa)
#
#
# Indices 1 2 3 4 5 6 
#
# 1 0.012145 -0.005159 0.000744 0.000000 0.000000 0.000000
# 2 -0.005159 0.020119 -0.009731 0.000000 0.000000 0.000000
# 3 0.000744 -0.009731 0.020800 0.000000 0.000000 0.000000
# 4 0.000000 0.000000 0.000000 0.052045 0.000000 0.000000
# 5 0.000000 0.000000 0.000000 0.000000 -0.162454 0.000000
# 6 0.000000 0.000000 0.000000 0.000000 0.000000 0.021610
#
#
# Mechanical properties :
#
#
# Convention : Reuss Voigt Hill
#
# Bulk Modulus (GPa) = 40.36862 41.73184 41.05023
# Shear Modulus (GPa) = 6130.51845 22.40070 3076.45957
#
# Velocity S-wave (km/s) = 52.53511 3.17564 37.21574
# Velocity P-wave (km/s) = 60.81193 5.67748 43.18752
#
# Compressibility (1/GPa) = 0.02477172
#
# Stress axis : x y z
#
# Youngs Moduli (GPa) = 82.33600 49.70496 48.07623
#
# Poissons Ratio (x) = 0.25643 -0.03578
# Poissons Ratio (y) = 0.42478 0.46785
# Poissons Ratio (z) = -0.06127 0.48370
#
# Static dielectric constant tensor:
#      x y z
#    x 1.920170 0.000000 0.000000 
#    y 0.000000 1.796960 0.000000 
#    z 0.000000 0.000000 1.824830 
# 
# From -- ./inp_files/20865.got.cif
#   From: 2010.05.17/outbox.cif.g08.bks.cpg/sg54_11_cif.got.tgz:20865.got - 2010.06.03 13:09:01.
