data_PCOD9424083
_publ_section_title
;
Structure prediction by ZEFSAII (Michael W. Deem and Ramdas Pophale) SiO2 
 PCOD9424083
Probable space group: P C C A
;
_chemical_formula_sum "Si O2"
_cell_formula_units_Z 40
_cell_length_a 8.264991
_cell_length_b 9.251980
_cell_length_c 23.394782
_cell_angle_alpha 90.000000
_cell_angle_beta 90.000000
_cell_angle_gamma 90.000000
_cell_volume 1788.941228
_symmetry_space_group_name_H-M "P C C A"
_symmetry_group_IT_number 54
_symmetry_cell_setting 'orthorhombic'
loop_
_space_group_symop_operation_xyz
x,y,z
1/2-x,-y,z
1/2+x,-y,1/2-z
-x,y,1/2-z
-x,-y,-z
1/2+x,y,-z
1/2-x,y,1/2+z
x,-y,1/2+z
loop_
_atom_site_type_symbol
_atom_site_label
_atom_site_fract_x
_atom_site_fract_y
_atom_site_fract_z
Si Si1 0.401239 0.106427 0.388901
Si Si2 0.640852 0.127517 0.291939
Si Si3 0.314852 0.342635 0.909008
Si Si4 0.823573 0.340159 0.372187
Si Si5 0.669720 0.843053 0.975349
O O1 0.175471 0.738796 0.373296
O O2 0.250000 0.000000 0.389446
O O3 0.540709 0.059460 0.345370
O O4 0.492429 0.130043 0.448612
O O5 0.500000 0.178759 0.250000
O O6 0.752459 0.251635 0.318544
O O7 0.750000 0.000000 0.265709
O O8 0.250000 0.500000 0.925155
O O9 0.483031 0.347989 0.875578
O O10 0.340400 0.244919 0.965719
O O11 0.750000 0.500000 0.373286
O O12 0.762868 0.254283 0.428584
O O13 0.750000 0.000000 0.978717
#
# Coordination Sequence:
#
# PCOD9424083 Si02
#       5
#     8   8   8   8   8
#     4  11  22  39  63  92 127 168 214 265 321 380
#     4  11  24  45  71  98 125 160 209 267 329 389
#     4  12  24  39  62  93 132 178 220 262 316 378
#     4  11  24  44  66  95 134 173 217 267 319 383
#     4  11  23  39  62  95 136 180 222 264 313 375
#
# _framework density 22.359594999999999
#
# number of rings (size 3 to 8) (size 9 to 14) (size 15 to 20)
#    0.000    0.800    0.000   10.200    0.000    4.800 
#    0.000    7.000    0.000    0.000    0.000    0.000 
#    0.000    0.000    0.000    0.000    0.000    0.000 
#
# Total GULP energy -223942.947747 kJ/mol
# GULP energy per Si atom -5598.573694 kJ/mol
# Density = 2.230870 g / cm^3
# Si number density = 22.359595 Si / 1000 Ang^3
#
#
#
# Elastic Constant Matrix: (Units=GPa)
#
#
# Indices 1 2 3 4 5 6 
#
# 1 160.2698 58.9949 24.9638 0.0000 0.0000 0.0000
# 2 58.9949 163.0121 24.0891 0.0000 0.0000 0.0000
# 3 24.9638 24.0891 61.7451 0.0000 0.0000 0.0000
# 4 0.0000 0.0000 0.0000 12.5684 0.0000 0.0000
# 5 0.0000 0.0000 0.0000 0.0000 27.3646 0.0000
# 6 0.0000 0.0000 0.0000 0.0000 0.0000 40.6339
#
#
#
# Elastic Compliance Matrix: (Units=1/GPa)
#
#
# Indices 1 2 3 4 5 6 
#
# 1 0.007441 -0.002386 -0.002078 0.000000 0.000000 0.000000
# 2 -0.002386 0.007275 -0.001874 0.000000 0.000000 0.000000
# 3 -0.002078 -0.001874 0.017767 0.000000 0.000000 0.000000
# 4 0.000000 0.000000 0.000000 0.079565 0.000000 0.000000
# 5 0.000000 0.000000 0.000000 0.000000 0.036544 0.000000
# 6 0.000000 0.000000 0.000000 0.000000 0.000000 0.024610
#
#
# Mechanical properties :
#
#
# Convention : Reuss Voigt Hill
#
# Bulk Modulus (GPa) = 50.48382 66.79140 58.63761
# Shear Modulus (GPa) = 25.97693 34.57865 30.27779
#
# Velocity S-wave (km/s) = 3.41219 3.93680 3.68384
# Velocity P-wave (km/s) = 6.17666 7.11342 6.66153
#
# Compressibility (1/GPa) = 0.01980833
#
# Stress axis : x y z
#
# Youngs Moduli (GPa) = 134.38329 137.45902 56.28550
#
# Poissons Ratio (x) = 0.32798 0.11694
# Poissons Ratio (y) = 0.32065 0.10545
# Poissons Ratio (z) = 0.27921 0.25753
#
# Static dielectric constant tensor:
#      x y z
#    x 1.870010 0.000000 0.000000 
#    y 0.000000 1.824000 0.000000 
#    z 0.000000 0.000000 1.868040 
# 
# From -- ./inp_files/23219.got.cif
#   From: 2010.05.17/outbox.cif.g08.bks.cpg/sg54_12_cif.got.tgz:23219.got - 2010.06.03 13:09:01.
