data_PCOD9424796
_publ_section_title
;
Structure prediction by ZEFSAII (Michael W. Deem and Ramdas Pophale) SiO2 
 PCOD9424796
Probable space group: P B A M
;
_chemical_formula_sum "Si O2"
_cell_formula_units_Z 64
_cell_length_a 20.188538
_cell_length_b 21.003608
_cell_length_c 8.814626
_cell_angle_alpha 90.000000
_cell_angle_beta 90.000000
_cell_angle_gamma 90.000000
_cell_volume 3737.684711
_symmetry_space_group_name_H-M "P B A M"
_symmetry_group_IT_number 55
_symmetry_cell_setting 'orthorhombic'
loop_
_space_group_symop_operation_xyz
x,y,z
-x,-y,z
1/2+x,1/2-y,-z
1/2-x,1/2+y,-z
-x,-y,-z
x,y,-z
1/2-x,1/2+y,z
1/2+x,1/2-y,z
loop_
_atom_site_type_symbol
_atom_site_label
_atom_site_fract_x
_atom_site_fract_y
_atom_site_fract_z
Si Si1 0.657887 0.151788 0.683122
Si Si2 0.680242 0.290701 0.324624
Si Si3 0.519786 0.304029 0.675395
Si Si4 0.462969 0.564175 0.816874
Si Si5 0.196802 0.480684 0.184278
Si Si6 0.011413 0.328310 0.182046
Si Si7 0.689603 0.422514 0.182083
Si Si8 0.059591 0.545883 0.815754
O O1 0.654137 0.151737 0.500000
O O2 0.692381 0.218627 0.730394
O O3 0.693815 0.089300 0.744699
O O4 0.583108 0.153083 0.749163
O O5 0.700185 0.295350 0.500000
O O6 0.600028 0.297017 0.317646
O O7 0.707810 0.351549 0.236975
O O8 0.500262 0.303023 0.500000
O O9 0.504964 0.371773 0.750561
O O10 0.493245 0.241916 0.760692
O O11 0.500000 0.500000 0.769812
O O12 0.385775 0.562905 0.768808
O O13 0.464627 0.568081 0.000000
O O14 0.259206 0.523419 0.231726
O O15 0.129940 0.517945 0.231669
O O16 0.196691 0.475138 0.000000
O O17 0.959004 0.382403 0.228611
O O18 0.017582 0.328358 0.000000
O O19 0.690096 0.421922 0.000000
O O20 0.000000 0.500000 0.764561
O O21 0.059628 0.544515 0.000000
#
# Coordination Sequence:
#
# PCOD9424796 Si02
#       8
#     8   8   8   8   8   8   8   8
#     4  10  19  30  46  72  98 125 161 200 238 280
#     4   8  16  30  47  66  92 122 153 192 233 279
#     4   9  17  29  46  72 100 123 155 198 240 285
#     4   9  17  31  52  76  99 123 156 199 248 299
#     4  10  19  32  49  70  97 126 160 201 240 284
#     4  10  17  28  48  69  94 128 163 200 239 280
#     4   9  18  31  50  74  95 119 157 202 241 282
#     4   9  16  28  46  69  95 127 162 194 235 280
#
# _framework density 17.122900000000001
#
# number of rings (size 3 to 8) (size 9 to 14) (size 15 to 20)
#    0.000    2.750    1.250    1.875    0.000    4.250 
#    0.000    1.875    2.750    0.000    0.000    0.000 
#    0.000    0.000    0.000    0.000    0.000    0.000 
#
# Total GULP energy -356539.613452 kJ/mol
# GULP energy per Si atom -5570.931460 kJ/mol
# Density = 1.708393 g / cm^3
# Si number density = 17.122900 Si / 1000 Ang^3
#
#
#
# Elastic Constant Matrix: (Units=GPa)
#
#
# Indices 1 2 3 4 5 6 
#
# 1 46.5521 58.3444 16.7381 0.0000 0.0000 0.0000
# 2 58.3444 200.5374 42.7438 0.0000 0.0000 0.0000
# 3 16.7381 42.7438 29.7474 0.0000 0.0000 0.0000
# 4 0.0000 0.0000 0.0000 17.4683 0.0000 0.0000
# 5 0.0000 0.0000 0.0000 0.0000 7.3884 0.0000
# 6 0.0000 0.0000 0.0000 0.0000 0.0000 27.3518
#
#
#
# Elastic Compliance Matrix: (Units=1/GPa)
#
#
# Indices 1 2 3 4 5 6 
#
# 1 0.034867 -0.008595 -0.007269 0.000000 0.000000 0.000000
# 2 -0.008595 0.009307 -0.008537 0.000000 0.000000 0.000000
# 3 -0.007269 -0.008537 0.049973 0.000000 0.000000 0.000000
# 4 0.000000 0.000000 0.000000 0.057246 0.000000 0.000000
# 5 0.000000 0.000000 0.000000 0.000000 0.135348 0.000000
# 6 0.000000 0.000000 0.000000 0.000000 0.000000 0.036561
#
#
# Mechanical properties :
#
#
# Convention : Reuss Voigt Hill
#
# Bulk Modulus (GPa) = 22.05290 56.94328 39.49809
# Shear Modulus (GPa) = 12.91263 21.04240 16.97752
#
# Velocity S-wave (km/s) = 2.74909 3.50938 3.15224
# Velocity P-wave (km/s) = 4.79415 7.05328 6.03045
#
# Compressibility (1/GPa) = 0.04534551
#
# Stress axis : x y z
#
# Youngs Moduli (GPa) = 28.68045 107.44890 20.01094
#
# Poissons Ratio (x) = 0.92351 0.14546
# Poissons Ratio (y) = 0.24650 0.17083
# Poissons Ratio (z) = 0.20848 0.91726
#
# Static dielectric constant tensor:
#      x y z
#    x 1.563940 0.000000 0.000000 
#    y 0.000000 1.594900 0.000000 
#    z 0.000000 0.000000 1.577150 
# 
# From -- ./inp_files/8994.got.cif
#   From: 2010.05.17/outbox.cif.g08.bks.cpg/sg55_5_cif.got.tgz:8994.got - 2010.06.03 13:27:54.
