data_PCOD9424281
_publ_section_title
;
Structure prediction by ZEFSAII (Michael W. Deem and Ramdas Pophale) SiO2 
 PCOD9424281
Probable space group: P C C A
;
_chemical_formula_sum "Si O2"
_cell_formula_units_Z 32
_cell_length_a 7.966806
_cell_length_b 8.161657
_cell_length_c 21.440784
_cell_angle_alpha 90.000000
_cell_angle_beta 90.000000
_cell_angle_gamma 90.000000
_cell_volume 1394.129903
_symmetry_space_group_name_H-M "P C C A"
_symmetry_group_IT_number 54
_symmetry_cell_setting 'orthorhombic'
loop_
_space_group_symop_operation_xyz
x,y,z
1/2-x,-y,z
1/2+x,-y,1/2-z
-x,y,1/2-z
-x,-y,-z
1/2+x,y,-z
1/2-x,y,1/2+z
x,-y,1/2+z
loop_
_atom_site_type_symbol
_atom_site_label
_atom_site_fract_x
_atom_site_fract_y
_atom_site_fract_z
Si Si1 0.211792 0.687585 0.104556
Si Si2 0.543892 0.813724 0.151059
Si Si3 0.583397 0.800295 0.683840
Si Si4 0.634138 0.869386 0.022127
O O1 0.250000 0.500000 0.092515
O O2 0.349445 0.756108 0.154687
O O3 0.209972 0.785040 0.038555
O O4 0.024729 0.705805 0.132031
O O5 0.717909 0.757843 0.183425
O O6 0.546271 0.007153 0.168238
O O7 0.572392 0.760438 0.078371
O O8 0.500000 0.763878 0.750000
O O9 0.750000 0.000000 0.057612
O O10 0.500000 0.000000 0.000000
#
# Coordination Sequence:
#
# PCOD9424281 Si02
#       4
#     8   8   8   8
#     4  12  27  44  67 107 149 184 227 290 371 430
#     4  11  24  43  75 101 134 179 238 296 342 413
#     4  11  25  46  71 103 132 184 248 289 342 417
#     4  12  19  42  70  99 138 176 236 293 339 414
#
# _framework density 22.953384
#
# number of rings (size 3 to 8) (size 9 to 14) (size 15 to 20)
#    0.000    0.500    7.500    0.750    7.000    2.000 
#    4.500    0.000    0.000    0.000    0.000    0.000 
#    0.000    0.000    0.000    0.000    0.000    0.000 
#
# Total GULP energy -178190.639640 kJ/mol
# GULP energy per Si atom -5568.457489 kJ/mol
# Density = 2.290114 g / cm^3
# Si number density = 22.953384 Si / 1000 Ang^3
#
#
#
# Elastic Constant Matrix: (Units=GPa)
#
#
# Indices 1 2 3 4 5 6 
#
# 1 75.8387 4.5893 -5.5705 0.0000 0.0000 0.0000
# 2 4.5893 64.0841 -4.8325 0.0000 0.0000 0.0000
# 3 -5.5705 -4.8325 91.0204 0.0000 0.0000 0.0000
# 4 0.0000 0.0000 0.0000 -8.3447 0.0000 0.0000
# 5 0.0000 0.0000 0.0000 0.0000 33.8458 0.0000
# 6 0.0000 0.0000 0.0000 0.0000 0.0000 22.0216
#
#
#
# Elastic Compliance Matrix: (Units=1/GPa)
#
#
# Indices 1 2 3 4 5 6 
#
# 1 0.013296 -0.000894 0.000766 0.000000 0.000000 0.000000
# 2 -0.000894 0.015727 0.000780 0.000000 0.000000 0.000000
# 3 0.000766 0.000780 0.011075 0.000000 0.000000 0.000000
# 4 0.000000 0.000000 0.000000 -0.119837 0.000000 0.000000
# 5 0.000000 0.000000 0.000000 0.000000 0.029546 0.000000
# 6 0.000000 0.000000 0.000000 0.000000 0.000000 0.045410
#
#
# Mechanical properties :
#
#
# Convention : Reuss Voigt Hill
#
# Bulk Modulus (GPa) = 24.15298 24.36842 24.26070
# Shear Modulus (GPa) = 648.18109 25.28835 336.73472
#
# Velocity S-wave (km/s) = 16.82270 3.32283 12.12527
# Velocity P-wave (km/s) = 19.69475 5.03598 14.37436
#
# Compressibility (1/GPa) = 0.04140276
#
# Stress axis : x y z
#
# Youngs Moduli (GPa) = 75.20897 63.58340 90.29449
#
# Poissons Ratio (x) = 0.05687 -0.06919
# Poissons Ratio (y) = 0.06727 -0.07045
# Poissons Ratio (z) = -0.05763 -0.04961
#
# Static dielectric constant tensor:
#      x y z
#    x 1.912100 0.000000 0.000000 
#    y 0.000000 1.826810 0.000000 
#    z 0.000000 0.000000 1.893490 
# 
# From -- ./inp_files/19993.got.cif
#   From: 2010.05.17/outbox.cif.g08.bks.cpg/sg54_10_cif.got.tgz:19993.got - 2010.06.03 13:09:01.
