data_PCOD9424856
_publ_section_title
;
Structure prediction by ZEFSAII (Michael W. Deem and Ramdas Pophale) SiO2 
 PCOD9424856
Probable space group: P B A M
;
_chemical_formula_sum "Si O2"
_cell_formula_units_Z 58
_cell_length_a 18.261234
_cell_length_b 8.720587
_cell_length_c 18.915270
_cell_angle_alpha 90.000000
_cell_angle_beta 90.000000
_cell_angle_gamma 90.000000
_cell_volume 3012.231776
_symmetry_space_group_name_H-M "P B A M"
_symmetry_group_IT_number 55
_symmetry_cell_setting 'orthorhombic'
loop_
_space_group_symop_operation_xyz
x,y,z
-x,-y,z
1/2+x,1/2-y,-z
1/2-x,1/2+y,-z
-x,-y,-z
x,y,-z
1/2-x,1/2+y,z
1/2+x,1/2-y,z
loop_
_atom_site_type_symbol
_atom_site_label
_atom_site_fract_x
_atom_site_fract_y
_atom_site_fract_z
Si Si1 0.277537 0.186267 0.333416
Si Si2 0.457960 0.839265 0.317031
Si Si3 0.954833 0.237130 0.894297
Si Si4 0.331872 0.893119 0.416778
Si Si5 0.500000 0.000000 0.000000
Si Si6 0.146196 0.156858 0.226560
Si Si7 0.416248 0.334408 0.739036
Si Si8 0.885732 0.917010 0.921249
O O1 0.231999 0.278151 0.392331
O O2 0.217876 0.140824 0.274285
O O3 0.339894 0.282289 0.294223
O O4 0.315610 0.045089 0.371848
O O5 0.409537 0.833712 0.387641
O O6 0.399409 0.803382 0.254259
O O7 0.519741 0.709232 0.314523
O O8 0.500000 0.000000 0.310006
O O9 0.937365 0.254276 0.811417
O O10 0.035207 0.162285 0.907363
O O11 0.899485 0.100427 0.918029
O O12 0.958953 0.392786 0.938506
O O13 0.331841 0.917860 0.500000
O O14 0.162462 0.145315 0.143435
O O15 0.093241 0.011492 0.240846
O O16 0.861389 0.874445 0.000000
#
# Coordination Sequence:
#
# PCOD9424856 Si02
#       8
#     8   8   8   8   2   8   8   8
#     4  11  22  42  65  89 120 165 213 249 301 379
#     4  11  22  37  62  95 122 152 203 261 303 359
#     4  10  20  30  54  80 118 152 198 246 307 357
#     4  11  24  42  63  90 125 162 200 249 314 376
#     4  12  20  30  44  88 124 150 186 264 312 348
#     4  10  22  38  65  87 122 167 209 253 300 371
#     4  11  21  39  61  91 117 163 207 257 305 366
#     4  10  17  36  54  80 115 165 204 238 302 376
#
# _framework density 19.254826000000001
#
# number of rings (size 3 to 8) (size 9 to 14) (size 15 to 20)
#    0.000    1.379    5.517    1.241    0.966    0.276 
#    0.000    0.000    1.517    1.655    0.000    0.000 
#    0.000    0.000    0.000    0.000    0.000    0.000 
#
# Total GULP energy -323037.364357 kJ/mol
# GULP energy per Si atom -5569.609730 kJ/mol
# Density = 1.921100 g / cm^3
# Si number density = 19.254826 Si / 1000 Ang^3
#
#
#
# Elastic Constant Matrix: (Units=GPa)
#
#
# Indices 1 2 3 4 5 6 
#
# 1 65.4055 19.9680 49.0041 0.0000 0.0000 0.0000
# 2 19.9680 29.2172 19.0400 0.0000 0.0000 0.0000
# 3 49.0041 19.0400 135.6227 0.0000 0.0000 0.0000
# 4 0.0000 0.0000 0.0000 3.7860 0.0000 0.0000
# 5 0.0000 0.0000 0.0000 0.0000 16.8612 0.0000
# 6 0.0000 0.0000 0.0000 0.0000 0.0000 8.3804
#
#
#
# Elastic Compliance Matrix: (Units=1/GPa)
#
#
# Indices 1 2 3 4 5 6 
#
# 1 0.024245 -0.011955 -0.007082 0.000000 0.000000 0.000000
# 2 -0.011955 0.043568 -0.001797 0.000000 0.000000 0.000000
# 3 -0.007082 -0.001797 0.010185 0.000000 0.000000 0.000000
# 4 0.000000 0.000000 0.000000 0.264133 0.000000 0.000000
# 5 0.000000 0.000000 0.000000 0.000000 0.059308 0.000000
# 6 0.000000 0.000000 0.000000 0.000000 0.000000 0.119327
#
#
# Mechanical properties :
#
#
# Convention : Reuss Voigt Hill
#
# Bulk Modulus (GPa) = 27.52548 45.14106 36.33327
# Shear Modulus (GPa) = 8.70259 15.28774 11.99516
#
# Velocity S-wave (km/s) = 2.12826 2.82080 2.49864
# Velocity P-wave (km/s) = 4.51284 5.83988 5.21871
#
# Compressibility (1/GPa) = 0.03632997
#
# Stress axis : x y z
#
# Youngs Moduli (GPa) = 41.24553 22.95288 98.18744
#
# Poissons Ratio (x) = 0.27439 0.69537
# Poissons Ratio (y) = 0.49308 0.17643
# Poissons Ratio (z) = 0.29210 0.04124
#
# Static dielectric constant tensor:
#      x y z
#    x 1.676090 0.000000 0.000000 
#    y 0.000000 1.707900 0.000000 
#    z 0.000000 0.000000 1.675790 
# 
# From -- ./inp_files/21808.got.cif
#   From: 2010.05.17/outbox.cif.g08.bks.cpg/sg55_11_cif.got.tgz:21808.got - 2010.06.03 13:27:54.
