data_PCOD9424830
_publ_section_title
;
Structure prediction by ZEFSAII (Michael W. Deem and Ramdas Pophale) SiO2 
 PCOD9424830
Probable space group: P B A M
;
_chemical_formula_sum "Si O2"
_cell_formula_units_Z 48
_cell_length_a 13.900862
_cell_length_b 19.108357
_cell_length_c 7.968264
_cell_angle_alpha 90.000000
_cell_angle_beta 90.000000
_cell_angle_gamma 90.000000
_cell_volume 2116.551270
_symmetry_space_group_name_H-M "P B A M"
_symmetry_group_IT_number 55
_symmetry_cell_setting 'orthorhombic'
loop_
_space_group_symop_operation_xyz
x,y,z
-x,-y,z
1/2+x,1/2-y,-z
1/2-x,1/2+y,-z
-x,-y,-z
x,y,-z
1/2-x,1/2+y,z
1/2+x,1/2-y,z
loop_
_atom_site_type_symbol
_atom_site_label
_atom_site_fract_x
_atom_site_fract_y
_atom_site_fract_z
Si Si1 0.329799 0.360489 0.804479
Si Si2 0.110972 0.011859 0.794664
Si Si3 0.763412 0.384811 0.802197
Si Si4 0.890568 0.523348 0.813638
Si Si5 0.921301 0.274616 0.203361
Si Si6 0.872111 0.669706 0.685419
O O1 0.335348 0.439944 0.738334
O O2 0.404548 0.304220 0.733319
O O3 0.226529 0.322838 0.787103
O O4 0.353096 0.368039 0.000000
O O5 0.162281 0.083815 0.734551
O O6 0.116107 0.015659 0.000000
O O7 0.000000 0.000000 0.749083
O O8 0.827994 0.454804 0.790427
O O9 0.833540 0.324260 0.733144
O O10 0.748226 0.367686 0.000000
O O11 0.881882 0.585713 0.685289
O O12 0.000000 0.500000 0.817325
O O13 0.865338 0.552303 0.000000
O O14 0.027341 0.301736 0.246622
O O15 0.915400 0.275772 0.000000
O O16 0.856353 0.697889 0.500000
#
# Coordination Sequence:
#
# PCOD9424830 Si02
#       6
#     8   8   8   8   8   8
#     4  10  21  38  60  84 112 150 198 245 286 343
#     4   9  17  30  53  84 113 143 183 234 290 338
#     4   9  16  29  53  83 113 141 176 233 291 336
#     4  10  17  31  57  82 108 141 185 235 283 335
#     4  10  21  37  59  86 112 147 197 248 295 341
#     4  12  24  36  55  83 118 153 187 232 294 361
#
# _framework density 22.678401999999998
#
# number of rings (size 3 to 8) (size 9 to 14) (size 15 to 20)
#    0.000    2.000    3.333    1.500    0.000    2.333 
#    0.000    5.000    0.000    0.500    0.000    0.000 
#    0.000    0.000    0.000    0.000    0.000    0.000 
#
# Total GULP energy -267534.450969 kJ/mol
# GULP energy per Si atom -5573.634395 kJ/mol
# Density = 2.262679 g / cm^3
# Si number density = 22.678402 Si / 1000 Ang^3
#
#
#
# Elastic Constant Matrix: (Units=GPa)
#
#
# Indices 1 2 3 4 5 6 
#
# 1 84.0812 11.2310 -15.9197 0.0000 0.0000 0.0000
# 2 11.2310 55.4462 8.2107 0.0000 0.0000 0.0000
# 3 -15.9197 8.2107 13.7954 0.0000 0.0000 0.0000
# 4 0.0000 0.0000 0.0000 -8.1999 0.0000 0.0000
# 5 0.0000 0.0000 0.0000 0.0000 -17.0353 0.0000
# 6 0.0000 0.0000 0.0000 0.0000 0.0000 24.0060
#
#
#
# Elastic Compliance Matrix: (Units=1/GPa)
#
#
# Indices 1 2 3 4 5 6 
#
# 1 0.017473 -0.007156 0.024423 0.000000 0.000000 0.000000
# 2 -0.007156 0.022709 -0.021774 0.000000 0.000000 0.000000
# 3 0.024423 -0.021774 0.113632 0.000000 0.000000 0.000000
# 4 0.000000 0.000000 0.000000 -0.121952 0.000000 0.000000
# 5 0.000000 0.000000 0.000000 0.000000 -0.058702 0.000000
# 6 0.000000 0.000000 0.000000 0.000000 0.000000 0.041656
#
#
# Mechanical properties :
#
#
# Convention : Reuss Voigt Hill
#
# Bulk Modulus (GPa) = 6.90604 17.81853 12.36228
# Shear Modulus (GPa) = 69.34979 9.74088 39.54533
#
# Velocity S-wave (km/s) = 5.53589 2.07474 4.18035
# Velocity P-wave (km/s) = 6.62670 3.68965 5.36315
#
# Compressibility (1/GPa) = 0.14480072
#
# Stress axis : x y z
#
# Youngs Moduli (GPa) = 57.22999 44.03451 8.80034
#
# Poissons Ratio (x) = 0.31511 -0.21493
# Poissons Ratio (y) = 0.40954 0.19162
# Poissons Ratio (z) = -1.39774 0.95882
#
# Static dielectric constant tensor:
#      x y z
#    x 1.886910 0.000000 0.000000 
#    y 0.000000 1.872450 0.000000 
#    z 0.000000 0.000000 1.850990 
# 
# From -- ./inp_files/5808.got.cif
#   From: 2010.05.17/outbox.cif.g08.bks.cpg/sg55_3_cif.got.tgz:5808.got - 2010.06.03 13:27:54.
