data_PCOD9424026
_publ_section_title
;
Structure prediction by ZEFSAII (Michael W. Deem and Ramdas Pophale) SiO2 
 PCOD9424026
Probable space group: P C C A
;
_chemical_formula_sum "Si O2"
_cell_formula_units_Z 40
_cell_length_a 11.706628
_cell_length_b 8.602975
_cell_length_c 17.665380
_cell_angle_alpha 90.000000
_cell_angle_beta 90.000000
_cell_angle_gamma 90.000000
_cell_volume 1779.112712
_symmetry_space_group_name_H-M "P C C A"
_symmetry_group_IT_number 54
_symmetry_cell_setting 'orthorhombic'
loop_
_space_group_symop_operation_xyz
x,y,z
1/2-x,-y,z
1/2+x,-y,1/2-z
-x,y,1/2-z
-x,-y,-z
1/2+x,y,-z
1/2-x,y,1/2+z
x,-y,1/2+z
loop_
_atom_site_type_symbol
_atom_site_label
_atom_site_fract_x
_atom_site_fract_y
_atom_site_fract_z
Si Si1 0.513409 0.863045 0.671283
Si Si2 0.785752 0.171723 0.909058
Si Si3 0.406333 0.361207 0.518790
Si Si4 0.786026 0.664969 0.144404
Si Si5 0.602052 0.133498 0.570170
O O1 0.500000 0.954553 0.750000
O O2 0.399282 0.787117 0.637788
O O3 0.611530 0.740153 0.690110
O O4 0.565209 0.971810 0.606076
O O5 0.750000 0.000000 0.876774
O O6 0.697339 0.316241 0.920779
O O7 0.825047 0.128480 0.994056
O O8 0.500000 0.500000 0.500000
O O9 0.339313 0.358306 0.439609
O O10 0.490084 0.224026 0.544163
O O11 0.750000 0.500000 0.175574
O O12 0.677126 0.774673 0.131893
#
# Coordination Sequence:
#
# PCOD9424026 Si02
#       5
#     8   8   8   8   8
#     4  12  26  45  66  99 143 190 239 284 343 435
#     4  11  22  38  69 100 135 177 231 300 354 410
#     4  11  21  39  69 107 137 169 228 299 366 412
#     4  11  23  41  67  99 140 178 226 286 359 416
#     4  11  21  42  71  99 135 177 229 301 354 408
#
# _framework density 22.483118000000001
#
# number of rings (size 3 to 8) (size 9 to 14) (size 15 to 20)
#    0.000    0.800    6.000    3.600    0.000    1.600 
#    0.000    3.000    0.000    0.000    0.000    0.000 
#    0.000    0.000    0.000    0.000    0.000    0.000 
#
# Total GULP energy -222815.655748 kJ/mol
# GULP energy per Si atom -5570.391394 kJ/mol
# Density = 2.243195 g / cm^3
# Si number density = 22.483118 Si / 1000 Ang^3
#
#
#
# Elastic Constant Matrix: (Units=GPa)
#
#
# Indices 1 2 3 4 5 6 
#
# 1 112.9752 64.2301 17.9598 0.0000 0.0000 0.0000
# 2 64.2301 101.8713 16.9981 0.0000 0.0000 0.0000
# 3 17.9598 16.9981 53.6664 0.0000 0.0000 0.0000
# 4 0.0000 0.0000 0.0000 1.3994 0.0000 0.0000
# 5 0.0000 0.0000 0.0000 0.0000 -5.6646 0.0000
# 6 0.0000 0.0000 0.0000 0.0000 0.0000 50.3228
#
#
#
# Elastic Compliance Matrix: (Units=1/GPa)
#
#
# Indices 1 2 3 4 5 6 
#
# 1 0.013997 -0.008492 -0.001994 0.000000 0.000000 0.000000
# 2 -0.008492 0.015516 -0.002073 0.000000 0.000000 0.000000
# 3 -0.001994 -0.002073 0.019958 0.000000 0.000000 0.000000
# 4 0.000000 0.000000 0.000000 0.714570 0.000000 0.000000
# 5 0.000000 0.000000 0.000000 0.000000 -0.176536 0.000000
# 6 0.000000 0.000000 0.000000 0.000000 0.000000 0.019872
#
#
# Mechanical properties :
#
#
# Convention : Reuss Voigt Hill
#
# Bulk Modulus (GPa) = 41.06370 51.87652 46.47011
# Shear Modulus (GPa) = 7.80503 20.49986 14.15245
#
# Velocity S-wave (km/s) = 1.86522 3.02286 2.51165
# Velocity P-wave (km/s) = 4.78984 5.94199 5.39675
#
# Compressibility (1/GPa) = 0.02435241
#
# Stress axis : x y z
#
# Youngs Moduli (GPa) = 71.44607 64.44779 50.10642
#
# Poissons Ratio (x) = 0.54730 0.09993
# Poissons Ratio (y) = 0.60673 0.10385
# Poissons Ratio (z) = 0.14248 0.13358
#
# Static dielectric constant tensor:
#      x y z
#    x 1.967030 0.000000 0.000000 
#    y 0.000000 1.903060 0.000000 
#    z 0.000000 0.000000 1.872000 
# 
# From -- ./inp_files/17117.got.cif
#   From: 2010.05.17/outbox.cif.g08.bks.cpg/sg54_9_cif.got.tgz:17117.got - 2010.06.03 13:09:01.
