data_PCOD9424010
_publ_section_title
;
Structure prediction by ZEFSAII (Michael W. Deem and Ramdas Pophale) SiO2 
 PCOD9424010
Probable space group: P C C A
;
_chemical_formula_sum "Si O2"
_cell_formula_units_Z 48
_cell_length_a 14.865599
_cell_length_b 10.451777
_cell_length_c 16.820066
_cell_angle_alpha 90.000000
_cell_angle_beta 90.000000
_cell_angle_gamma 90.000000
_cell_volume 2613.366045
_symmetry_space_group_name_H-M "P C C A"
_symmetry_group_IT_number 54
_symmetry_cell_setting 'orthorhombic'
loop_
_space_group_symop_operation_xyz
x,y,z
1/2-x,-y,z
1/2+x,-y,1/2-z
-x,y,1/2-z
-x,-y,-z
1/2+x,y,-z
1/2-x,y,1/2+z
x,-y,1/2+z
loop_
_atom_site_type_symbol
_atom_site_label
_atom_site_fract_x
_atom_site_fract_y
_atom_site_fract_z
Si Si1 0.903982 0.520917 0.295686
Si Si2 0.015452 0.872310 0.949246
Si Si3 0.690410 0.619725 0.642625
Si Si4 0.193320 0.872056 0.841131
Si Si5 0.909259 0.774254 0.803866
Si Si6 0.498220 0.623708 0.556261
O O1 0.836641 0.586236 0.233773
O O2 0.879894 0.373517 0.314705
O O3 0.000000 0.515243 0.250000
O O4 0.924496 0.598599 0.375373
O O5 0.936094 0.841224 0.886028
O O6 0.106245 0.880966 0.897445
O O7 0.021490 0.750297 0.006722
O O8 0.000000 0.000000 0.000000
O O9 0.750000 0.500000 0.613265
O O10 0.748234 0.747767 0.637101
O O11 0.596772 0.632994 0.596113
O O12 0.160548 0.849875 0.750638
O O13 0.250000 0.000000 0.848552
O O14 0.000000 0.769190 0.750000
O O15 0.500000 0.500000 0.500000
#
# Coordination Sequence:
#
# PCOD9424010 Si02
#       6
#     8   8   8   8   8   8
#     4   9  18  35  60  87 115 152 202 243 289 363
#     4  11  23  41  63  88 126 168 199 240 305 378
#     4  11  21  37  61  90 119 154 206 263 299 344
#     4  11  23  41  62  88 120 159 207 257 303 350
#     4   9  18  37  62  83 111 158 201 239 295 363
#     4  11  21  37  62  89 121 165 202 241 306 374
#
# _framework density 18.367118000000001
#
# number of rings (size 3 to 8) (size 9 to 14) (size 15 to 20)
#    0.000    1.667    3.333    2.000    0.000    1.333 
#    0.000   15.000    0.000    0.000    0.000    0.000 
#    0.000    0.000    0.000    0.000    0.000    0.000 
#
# Total GULP energy -268006.805941 kJ/mol
# GULP energy per Si atom -5583.475124 kJ/mol
# Density = 1.832531 g / cm^3
# Si number density = 18.367118 Si / 1000 Ang^3
#
#
#
# Elastic Constant Matrix: (Units=GPa)
#
#
# Indices 1 2 3 4 5 6 
#
# 1 81.3644 53.7230 37.6158 0.0000 0.0000 0.0000
# 2 53.7230 179.4433 75.3570 0.0000 0.0000 0.0000
# 3 37.6158 75.3570 122.4393 0.0000 0.0000 0.0000
# 4 0.0000 0.0000 0.0000 -615.9092 0.0000 0.0000
# 5 0.0000 0.0000 0.0000 0.0000 32.6987 0.0000
# 6 0.0000 0.0000 0.0000 0.0000 0.0000 34.3244
#
#
#
# Elastic Compliance Matrix: (Units=1/GPa)
#
#
# Indices 1 2 3 4 5 6 
#
# 1 0.015928 -0.003659 -0.002641 0.000000 0.000000 0.000000
# 2 -0.003659 0.008356 -0.004019 0.000000 0.000000 0.000000
# 3 -0.002641 -0.004019 0.011452 0.000000 0.000000 0.000000
# 4 0.000000 0.000000 0.000000 -0.001624 0.000000 0.000000
# 5 0.000000 0.000000 0.000000 0.000000 0.030582 0.000000
# 6 0.000000 0.000000 0.000000 0.000000 0.000000 0.029134
#
#
# Mechanical properties :
#
#
# Convention : Reuss Voigt Hill
#
# Bulk Modulus (GPa) = 66.23607 79.62652 72.93130
# Shear Modulus (GPa) = 41.84154 -95.34047 -26.74947
#
# Velocity S-wave (km/s) = 4.77809 -7.21255 -3.82039
# Velocity P-wave (km/s) = 8.15970 5.09062 4.50924
#
# Compressibility (1/GPa) = 0.01509751
#
# Stress axis : x y z
#
# Youngs Moduli (GPa) = 62.78413 119.67513 87.32134
#
# Poissons Ratio (x) = 0.43794 0.23062
# Poissons Ratio (y) = 0.22975 0.35090
# Poissons Ratio (z) = 0.16582 0.48092
#
# Static dielectric constant tensor:
#      x y z
#    x 1.639650 0.000000 0.000000 
#    y 0.000000 1.592800 0.000000 
#    z 0.000000 0.000000 1.630620 
# 
# From -- ./inp_files/18020.got.cif
#   From: 2010.05.17/outbox.cif.g08.bks.cpg/sg54_10_cif.got.tgz:18020.got - 2010.06.03 13:09:01.
