data_PCOD9424503
_publ_section_title
;
Structure prediction by ZEFSAII (Michael W. Deem and Ramdas Pophale) SiO2 
 PCOD9424503
Probable space group: P C C A
;
_chemical_formula_sum "Si O2"
_cell_formula_units_Z 40
_cell_length_a 15.401176
_cell_length_b 12.070731
_cell_length_c 8.951865
_cell_angle_alpha 90.000000
_cell_angle_beta 90.000000
_cell_angle_gamma 90.000000
_cell_volume 1664.182611
_symmetry_space_group_name_H-M "P C C A"
_symmetry_group_IT_number 54
_symmetry_cell_setting 'orthorhombic'
loop_
_space_group_symop_operation_xyz
x,y,z
1/2-x,-y,z
1/2+x,-y,1/2-z
-x,y,1/2-z
-x,-y,-z
1/2+x,y,-z
1/2-x,y,1/2+z
x,-y,1/2+z
loop_
_atom_site_type_symbol
_atom_site_label
_atom_site_fract_x
_atom_site_fract_y
_atom_site_fract_z
Si Si1 0.808929 0.109110 0.071339
Si Si2 0.660030 0.208738 0.893213
Si Si3 0.159084 0.440201 0.275747
Si Si4 0.489375 0.157286 0.080572
Si Si5 0.435585 0.589244 0.569629
O O1 0.746363 0.199880 0.993368
O O2 0.903971 0.104067 0.995510
O O3 0.750000 0.000000 0.057211
O O4 0.823481 0.138458 0.243640
O O5 0.646162 0.334339 0.833126
O O6 0.577572 0.159232 0.982842
O O7 0.250000 0.500000 0.262572
O O8 0.139651 0.405584 0.444208
O O9 0.095819 0.537341 0.222756
O O10 0.500000 0.114015 0.250000
O O11 0.468692 0.287808 0.088996
O O12 0.500000 0.500000 0.500000
#
# Coordination Sequence:
#
# PCOD9424503 Si02
#       5
#     8   8   8   8   8
#     4  12  28  52  81 115 151 201 275 343 407 477
#     4  12  27  49  81 112 161 207 263 336 405 479
#     4  12  26  42  69 112 158 209 256 314 389 479
#     4  12  26  50  81 118 160 214 265 332 408 488
#     4  12  24  42  71 110 159 209 255 313 384 478
#
# _framework density 24.035824999999999
#
# number of rings (size 3 to 8) (size 9 to 14) (size 15 to 20)
#    0.000    0.000    4.000    6.000    2.800    0.800 
#    0.000    3.000    0.000    0.000    0.000    0.000 
#    0.000    0.000    0.000    0.000    0.000    0.000 
#
# Total GULP energy -224154.386141 kJ/mol
# GULP energy per Si atom -5603.859654 kJ/mol
# Density = 2.398112 g / cm^3
# Si number density = 24.035825 Si / 1000 Ang^3
#
#
#
# Elastic Constant Matrix: (Units=GPa)
#
#
# Indices 1 2 3 4 5 6 
#
# 1 186.7576 31.6865 89.4661 0.0000 0.0000 0.0000
# 2 31.6865 112.5022 26.4885 0.0000 0.0000 0.0000
# 3 89.4661 26.4885 176.5353 0.0000 0.0000 0.0000
# 4 0.0000 0.0000 0.0000 29.6468 0.0000 0.0000
# 5 0.0000 0.0000 0.0000 0.0000 46.5808 0.0000
# 6 0.0000 0.0000 0.0000 0.0000 0.0000 39.5167
#
#
#
# Elastic Compliance Matrix: (Units=1/GPa)
#
#
# Indices 1 2 3 4 5 6 
#
# 1 0.007228 -0.001216 -0.003481 0.000000 0.000000 0.000000
# 2 -0.001216 0.009419 -0.000797 0.000000 0.000000 0.000000
# 3 -0.003481 -0.000797 0.007548 0.000000 0.000000 0.000000
# 4 0.000000 0.000000 0.000000 0.033730 0.000000 0.000000
# 5 0.000000 0.000000 0.000000 0.000000 0.021468 0.000000
# 6 0.000000 0.000000 0.000000 0.000000 0.000000 0.025306
#
#
# Mechanical properties :
#
#
# Convention : Reuss Voigt Hill
#
# Bulk Modulus (GPa) = 75.71421 85.67526 80.69474
# Shear Modulus (GPa) = 41.63544 45.02582 43.33063
#
# Velocity S-wave (km/s) = 4.16651 4.33284 4.25049
# Velocity P-wave (km/s) = 7.39699 7.79445 7.59832
#
# Compressibility (1/GPa) = 0.01320756
#
# Stress axis : x y z
#
# Youngs Moduli (GPa) = 138.34412 106.16933 132.48281
#
# Poissons Ratio (x) = 0.12914 0.46114
# Poissons Ratio (y) = 0.16827 0.10557
# Poissons Ratio (z) = 0.48154 0.08460
#
# Static dielectric constant tensor:
#      x y z
#    x 1.722860 0.000000 0.000000 
#    y 0.000000 1.906600 0.000000 
#    z 0.000000 0.000000 1.868020 
# 
# From -- ./inp_files/3413.got.cif
#   From: 2010.05.17/outbox.cif.g08.bks.cpg/sg54_2_cif.got.tgz:3413.got - 2010.06.03 13:09:01.
