data_PCOD9424764
_publ_section_title
;
Structure prediction by ZEFSAII (Michael W. Deem and Ramdas Pophale) SiO2 
 PCOD9424764
Probable space group: P B A M
;
_chemical_formula_sum "Si O2"
_cell_formula_units_Z 56
_cell_length_a 18.266107
_cell_length_b 22.700824
_cell_length_c 9.096405
_cell_angle_alpha 90.000000
_cell_angle_beta 90.000000
_cell_angle_gamma 90.000000
_cell_volume 3771.876002
_symmetry_space_group_name_H-M "P B A M"
_symmetry_group_IT_number 55
_symmetry_cell_setting 'orthorhombic'
loop_
_space_group_symop_operation_xyz
x,y,z
-x,-y,z
1/2+x,1/2-y,-z
1/2-x,1/2+y,-z
-x,-y,-z
x,y,-z
1/2-x,1/2+y,z
1/2+x,1/2-y,z
loop_
_atom_site_type_symbol
_atom_site_label
_atom_site_fract_x
_atom_site_fract_y
_atom_site_fract_z
Si Si1 0.007135 0.931728 0.675834
Si Si2 0.414093 0.781134 0.823040
Si Si3 0.874221 0.150400 0.176173
Si Si4 0.271110 0.817849 0.670778
Si Si5 0.921366 0.283780 0.175577
Si Si6 0.623309 0.343288 0.677022
Si Si7 0.219557 0.680621 0.330950
O O1 0.020639 0.928145 0.500000
O O2 0.932011 0.896381 0.705615
O O3 0.072143 0.898617 0.759424
O O4 0.000000 0.000000 0.716374
O O5 0.349106 0.819063 0.751615
O O6 0.496208 0.800503 0.781013
O O7 0.403828 0.714733 0.761848
O O8 0.092320 0.280718 0.000000
O O9 0.793571 0.147933 0.246766
O O10 0.907200 0.215073 0.216287
O O11 0.870086 0.147240 0.000000
O O12 0.276672 0.834606 0.500000
O O13 0.246375 0.748922 0.675585
O O14 0.855436 0.321580 0.242166
O O15 0.916790 0.286759 0.000000
O O16 0.623103 0.331190 0.500000
O O17 0.708080 0.354348 0.719359
O O18 0.204568 0.665896 0.500000
#
# Coordination Sequence:
#
# PCOD9424764 Si02
#       7
#     8   8   8   8   8   8   8
#     4  10  20  32  46  63  84 114 152 191 226 259
#     4  10  17  26  40  61  86 112 141 172 209 253
#     4  10  18  30  44  60  83 113 145 181 221 257
#     4   9  17  28  41  60  82 110 143 173 209 255
#     4   9  17  26  38  59  85 111 139 169 207 253
#     4   9  17  29  42  57  80 111 146 181 217 256
#     4   8  15  25  38  56  77 105 139 171 205 248
#
# _framework density 14.846724
#
# number of rings (size 3 to 8) (size 9 to 14) (size 15 to 20)
#    0.000    2.714    1.429    2.143    0.000    5.429 
#    0.000    0.000    0.000    0.000    0.000    0.000 
#    0.000    1.143    0.000   13.143    0.000    3.286 
#
# Total GULP energy -311841.880295 kJ/mol
# GULP energy per Si atom -5568.605005 kJ/mol
# Density = 1.481293 g / cm^3
# Si number density = 14.846724 Si / 1000 Ang^3
#
#
#
# Elastic Constant Matrix: (Units=GPa)
#
#
# Indices 1 2 3 4 5 6 
#
# 1 172.4991 42.5243 60.0187 0.0000 0.0000 0.0000
# 2 42.5243 43.9229 22.9385 0.0000 0.0000 0.0000
# 3 60.0187 22.9385 46.7197 0.0000 0.0000 0.0000
# 4 0.0000 0.0000 0.0000 11.4949 0.0000 0.0000
# 5 0.0000 0.0000 0.0000 0.0000 28.7498 0.0000
# 6 0.0000 0.0000 0.0000 0.0000 0.0000 11.8343
#
#
#
# Elastic Compliance Matrix: (Units=1/GPa)
#
#
# Indices 1 2 3 4 5 6 
#
# 1 0.011089 -0.004433 -0.012069 0.000000 0.000000 0.000000
# 2 -0.004433 0.032390 -0.010208 0.000000 0.000000 0.000000
# 3 -0.012069 -0.010208 0.041921 0.000000 0.000000 0.000000
# 4 0.000000 0.000000 0.000000 0.086995 0.000000 0.000000
# 5 0.000000 0.000000 0.000000 0.000000 0.034783 0.000000
# 6 0.000000 0.000000 0.000000 0.000000 0.000000 0.084500
#
#
# Mechanical properties :
#
#
# Convention : Reuss Voigt Hill
#
# Bulk Modulus (GPa) = 31.26980 57.12275 44.19627
# Shear Modulus (GPa) = 14.05445 19.59317 16.82381
#
# Velocity S-wave (km/s) = 3.08008 3.63670 3.36991
# Velocity P-wave (km/s) = 5.81005 7.49618 6.70632
#
# Compressibility (1/GPa) = 0.03197974
#
# Stress axis : x y z
#
# Youngs Moduli (GPa) = 90.17644 30.87367 23.85426
#
# Poissons Ratio (x) = 0.13686 0.28791
# Poissons Ratio (y) = 0.39976 0.24350
# Poissons Ratio (z) = 1.08838 0.31516
#
# Static dielectric constant tensor:
#      x y z
#    x 1.518170 0.000000 0.000000 
#    y 0.000000 1.455380 0.000000 
#    z 0.000000 0.000000 1.498290 
# 
# From -- ./inp_files/7842.got.cif
#   From: 2010.05.17/outbox.cif.g08.bks.cpg/sg55_4_cif.got.tgz:7842.got - 2010.06.03 13:27:54.
