data_PCOD9424919
_publ_section_title
;
Structure prediction by ZEFSAII (Michael W. Deem and Ramdas Pophale) SiO2 
 PCOD9424919
Probable space group: P B A M
;
_chemical_formula_sum "Si O2"
_cell_formula_units_Z 52
_cell_length_a 22.415784
_cell_length_b 5.609143
_cell_length_c 18.300591
_cell_angle_alpha 90.000000
_cell_angle_beta 90.000000
_cell_angle_gamma 90.000000
_cell_volume 2300.994392
_symmetry_space_group_name_H-M "P B A M"
_symmetry_group_IT_number 55
_symmetry_cell_setting 'orthorhombic'
loop_
_space_group_symop_operation_xyz
x,y,z
-x,-y,z
1/2+x,1/2-y,-z
1/2-x,1/2+y,-z
-x,-y,-z
x,y,-z
1/2-x,1/2+y,z
1/2+x,1/2-y,z
loop_
_atom_site_type_symbol
_atom_site_label
_atom_site_fract_x
_atom_site_fract_y
_atom_site_fract_z
Si Si1 0.366107 0.638678 0.854925
Si Si2 0.871573 0.477866 0.635947
Si Si3 0.212554 0.101764 0.000000
Si Si4 0.744966 0.327173 0.750072
Si Si5 0.877125 0.981663 0.585503
Si Si6 0.500000 0.000000 0.331782
Si Si7 0.371297 0.135273 0.808585
Si Si8 0.500000 0.500000 0.322911
O O1 0.317812 0.665606 0.789949
O O2 0.397570 0.388694 0.834513
O O3 0.394158 0.903580 0.851935
O O4 0.329916 0.605373 0.929263
O O5 0.847405 0.739870 0.616939
O O6 0.876335 0.415884 0.722123
O O7 0.942047 0.498710 0.616882
O O8 0.846698 0.239898 0.598676
O O9 0.250246 0.351591 0.000000
O O10 0.749505 0.577301 0.709679
O O11 0.798028 0.335372 0.811803
O O12 0.886466 0.948378 0.500000
O O13 0.939948 0.003596 0.628883
O O14 0.502649 0.242898 0.285199
#
# Coordination Sequence:
#
# PCOD9424919 Si02
#       8
#     8   8   4   8   8   4   8   4
#     4  10  19  30  45  67  95 121 148 178 208 263
#     4  10  19  30  45  64  89 121 150 188 230 264
#     4  12  20  30  48  72 102 135 152 165 216 270
#     4   8  14  25  39  57  82 108 134 169 198 237
#     4  10  18  29  43  63  88 115 149 184 228 281
#     4   8  16  28  41  62  88 113 150 184 218 272
#     4  10  18  30  44  62  91 121 153 184 215 255
#     4   8  15  26  42  60  84 116 142 173 218 277
#
# _framework density 22.598925999999999
#
# number of rings (size 3 to 8) (size 9 to 14) (size 15 to 20)
#    0.000    2.462    0.000    5.308    0.000    0.000 
#    0.000    4.615    0.000    0.000    0.000    0.000 
#    0.000  114.462    0.000    0.000    0.000    0.000 
#
# Total GULP energy -289520.140252 kJ/mol
# GULP energy per Si atom -5567.695005 kJ/mol
# Density = 2.254749 g / cm^3
# Si number density = 22.598926 Si / 1000 Ang^3
#
#
#
# Elastic Constant Matrix: (Units=GPa)
#
#
# Indices 1 2 3 4 5 6 
#
# 1 7.2990 0.0945 2.9630 0.0000 0.0000 0.0000
# 2 0.0945 310.8665 39.2509 0.0000 0.0000 0.0000
# 3 2.9630 39.2509 81.8081 0.0000 0.0000 0.0000
# 4 0.0000 0.0000 0.0000 28.3282 0.0000 0.0000
# 5 0.0000 0.0000 0.0000 0.0000 12.2499 0.0000
# 6 0.0000 0.0000 0.0000 0.0000 0.0000 9.1846
#
#
#
# Elastic Compliance Matrix: (Units=1/GPa)
#
#
# Indices 1 2 3 4 5 6 
#
# 1 0.139166 0.000632 -0.005344 0.000000 0.000000 0.000000
# 2 0.000632 0.003427 -0.001667 0.000000 0.000000 0.000000
# 3 -0.005344 -0.001667 0.013217 0.000000 0.000000 0.000000
# 4 0.000000 0.000000 0.000000 0.035300 0.000000 0.000000
# 5 0.000000 0.000000 0.000000 0.000000 0.081633 0.000000
# 6 0.000000 0.000000 0.000000 0.000000 0.000000 0.108878
#
#
# Mechanical properties :
#
#
# Convention : Reuss Voigt Hill
#
# Bulk Modulus (GPa) = 6.99040 53.84337 30.41688
# Shear Modulus (GPa) = 11.31058 33.79690 22.55374
#
# Velocity S-wave (km/s) = 2.23959 3.87138 3.16254
# Velocity P-wave (km/s) = 3.12853 6.62275 5.17921
#
# Compressibility (1/GPa) = 0.14305331
#
# Stress axis : x y z
#
# Youngs Moduli (GPa) = 7.18565 291.78934 75.65899
#
# Poissons Ratio (x) = -0.18453 0.40431
# Poissons Ratio (y) = -0.00454 0.12614
# Poissons Ratio (z) = 0.03840 0.48648
#
# Static dielectric constant tensor:
#      x y z
#    x 1.956240 0.000000 0.000000 
#    y 0.000000 2.042380 0.000000 
#    z 0.000000 0.000000 1.780500 
# 
# From -- ./inp_files/22087.got.cif
#   From: 2010.05.17/outbox.cif.g08.bks.cpg/sg55_12_cif.got.tgz:22087.got - 2010.06.03 13:27:54.
