data_PCOD9424500
_publ_section_title
;
Structure prediction by ZEFSAII (Michael W. Deem and Ramdas Pophale) SiO2 
 PCOD9424500
Probable space group: P C C A
;
_chemical_formula_sum "Si O2"
_cell_formula_units_Z 36
_cell_length_a 12.815436
_cell_length_b 11.318469
_cell_length_c 11.043226
_cell_angle_alpha 90.000000
_cell_angle_beta 90.000000
_cell_angle_gamma 90.000000
_cell_volume 1601.832245
_symmetry_space_group_name_H-M "P C C A"
_symmetry_group_IT_number 54
_symmetry_cell_setting 'orthorhombic'
loop_
_space_group_symop_operation_xyz
x,y,z
1/2-x,-y,z
1/2+x,-y,1/2-z
-x,y,1/2-z
-x,-y,-z
1/2+x,y,-z
1/2-x,y,1/2+z
x,-y,1/2+z
loop_
_atom_site_type_symbol
_atom_site_label
_atom_site_fract_x
_atom_site_fract_y
_atom_site_fract_z
Si Si1 0.461436 0.425205 0.384017
Si Si2 0.561366 0.175033 0.034704
Si Si3 0.250000 0.500000 0.299812
Si Si4 0.409598 0.055991 0.851440
Si Si5 0.624491 0.725271 0.286970
O O1 0.500000 0.460990 0.250000
O O2 0.500000 0.500000 0.500000
O O3 0.484041 0.287074 0.395997
O O4 0.338166 0.441733 0.380790
O O5 0.622980 0.075002 0.108812
O O6 0.463557 0.112201 0.969555
O O7 0.626666 0.230755 0.924442
O O8 0.192934 0.391961 0.230233
O O9 0.500000 0.036180 0.750000
O O10 0.341755 0.161752 0.794235
O O11 0.500000 0.708138 0.250000
#
# Coordination Sequence:
#
# PCOD9424500 Si02
#       5
#     8   8   4   8   8
#     4  12  26  43  65  95 132 174 227 283 345 421
#     4   9  17  33  61  91 122 168 218 270 333 399
#     4  12  24  42  66  92 134 180 222 278 352 408
#     4   8  15  32  60  91 125 166 214 272 338 398
#     4   9  19  38  63  94 131 171 221 280 335 404
#
# _framework density 22.474263000000001
#
# number of rings (size 3 to 8) (size 9 to 14) (size 15 to 20)
#    0.000    2.667    0.000    5.333    0.000    4.444 
#    0.000    1.111    0.000    8.000    0.000    0.000 
#    0.000    0.000    0.000    0.000    0.000    0.000 
#
# Total GULP energy -200608.276291 kJ/mol
# GULP energy per Si atom -5572.452119 kJ/mol
# Density = 2.242311 g / cm^3
# Si number density = 22.474263 Si / 1000 Ang^3
#
#
#
# Elastic Constant Matrix: (Units=GPa)
#
#
# Indices 1 2 3 4 5 6 
#
# 1 75.4948 35.2188 30.8049 0.0000 0.0000 0.0000
# 2 35.2188 219.4294 88.0320 0.0000 0.0000 0.0000
# 3 30.8049 88.0320 114.8997 0.0000 0.0000 0.0000
# 4 0.0000 0.0000 0.0000 31.9604 0.0000 0.0000
# 5 0.0000 0.0000 0.0000 0.0000 16.5876 0.0000
# 6 0.0000 0.0000 0.0000 0.0000 0.0000 30.8312
#
#
#
# Elastic Compliance Matrix: (Units=1/GPa)
#
#
# Indices 1 2 3 4 5 6 
#
# 1 0.015072 -0.001152 -0.003158 0.000000 0.000000 0.000000
# 2 -0.001152 0.006668 -0.004800 0.000000 0.000000 0.000000
# 3 -0.003158 -0.004800 0.013227 0.000000 0.000000 0.000000
# 4 0.000000 0.000000 0.000000 0.031289 0.000000 0.000000
# 5 0.000000 0.000000 0.000000 0.000000 0.060286 0.000000
# 6 0.000000 0.000000 0.000000 0.000000 0.000000 0.032435
#
#
# Mechanical properties :
#
#
# Convention : Reuss Voigt Hill
#
# Bulk Modulus (GPa) = 59.71148 79.77060 69.74104
# Shear Modulus (GPa) = 27.35546 32.92705 30.14126
#
# Velocity S-wave (km/s) = 3.49261 3.83182 3.66614
# Velocity P-wave (km/s) = 6.54912 7.42619 7.00140
#
# Compressibility (1/GPa) = 0.01674720
#
# Stress axis : x y z
#
# Youngs Moduli (GPa) = 66.34797 149.97518 75.60095
#
# Poissons Ratio (x) = 0.17278 0.23876
# Poissons Ratio (y) = 0.07644 0.36286
# Poissons Ratio (z) = 0.20954 0.71984
#
# Static dielectric constant tensor:
#      x y z
#    x 1.878570 0.000000 0.000000 
#    y 0.000000 1.934190 0.000000 
#    z 0.000000 0.000000 1.413980 
# 
# From -- ./inp_files/7396.got.cif
#   From: 2010.05.17/outbox.cif.g08.bks.cpg/sg54_4_cif.got.tgz:7396.got - 2010.06.03 13:09:01.
