data_PCOD9424176
_publ_section_title
;
Structure prediction by ZEFSAII (Michael W. Deem and Ramdas Pophale) SiO2 
 PCOD9424176
Probable space group: P C C A
;
_chemical_formula_sum "Si O2"
_cell_formula_units_Z 60
_cell_length_a 9.611486
_cell_length_b 18.196734
_cell_length_c 17.054621
_cell_angle_alpha 90.000000
_cell_angle_beta 90.000000
_cell_angle_gamma 90.000000
_cell_volume 2982.813204
_symmetry_space_group_name_H-M "P C C A"
_symmetry_group_IT_number 54
_symmetry_cell_setting 'orthorhombic'
loop_
_space_group_symop_operation_xyz
x,y,z
1/2-x,-y,z
1/2+x,-y,1/2-z
-x,y,1/2-z
-x,-y,-z
1/2+x,y,-z
1/2-x,y,1/2+z
x,-y,1/2+z
loop_
_atom_site_type_symbol
_atom_site_label
_atom_site_fract_x
_atom_site_fract_y
_atom_site_fract_z
Si Si1 0.854263 0.933981 0.705887
Si Si2 0.969762 0.920346 0.532991
Si Si3 0.018145 0.348337 0.336056
Si Si4 0.500000 0.701694 0.750000
Si Si5 0.298565 0.328314 0.109952
Si Si6 0.376169 0.446108 0.976238
Si Si7 0.253327 0.219848 0.836213
Si Si8 0.741348 0.821825 0.479267
O O1 0.892886 0.935093 0.614445
O O2 0.786786 0.853401 0.713580
O O3 0.000000 0.940025 0.750000
O O4 0.750000 0.000000 0.726301
O O5 0.862655 0.881376 0.475104
O O6 0.098794 0.863730 0.543848
O O7 0.000000 0.000000 0.500000
O O8 0.089093 0.400626 0.398885
O O9 0.115387 0.275629 0.329826
O O10 0.000000 0.381444 0.250000
O O11 0.861488 0.335799 0.364713
O O12 0.596731 0.663319 0.816366
O O13 0.386082 0.746038 0.800445
O O14 0.293927 0.247482 0.070664
O O15 0.340055 0.388199 0.044837
O O16 0.250000 0.500000 0.961324
O O17 0.500000 0.500000 0.000000
O O18 0.231573 0.202487 0.928797
#
# Coordination Sequence:
#
# PCOD9424176 Si02
#       8
#     8   8   8   4   8   8   8   8
#     4  11  26  44  64  95 139 187 235 295 366 428
#     4  11  23  42  65  98 134 176 235 294 350 418
#     4  12  25  50  74 106 151 191 237 297 362 430
#     4  12  28  40  74 110 148 178 248 304 352 430
#     4  12  26  46  74 110 142 194 243 293 363 432
#     4  12  28  50  77 108 148 190 238 293 360 442
#     4  11  24  45  69 105 142 187 242 300 355 430
#     4  11  23  41  72  97 134 189 236 290 353 426
#
# _framework density 20.115238000000002
#
# number of rings (size 3 to 8) (size 9 to 14) (size 15 to 20)
#    0.000    0.533    4.000    4.800    6.533    1.067 
#    3.600    0.000    0.000    0.000    0.000    0.000 
#    0.000    0.000    0.000    0.000    0.000    0.000 
#
# Total GULP energy -335249.293275 kJ/mol
# GULP energy per Si atom -5587.488221 kJ/mol
# Density = 2.006946 g / cm^3
# Si number density = 20.115238 Si / 1000 Ang^3
#
#
#
# Elastic Constant Matrix: (Units=GPa)
#
#
# Indices 1 2 3 4 5 6 
#
# 1 131.0127 58.1160 31.1322 0.0000 0.0000 0.0000
# 2 58.1160 109.9564 49.8568 0.0000 0.0000 0.0000
# 3 31.1322 49.8568 94.0284 0.0000 0.0000 0.0000
# 4 0.0000 0.0000 0.0000 -10.9095 0.0000 0.0000
# 5 0.0000 0.0000 0.0000 0.0000 41.4865 0.0000
# 6 0.0000 0.0000 0.0000 0.0000 0.0000 -14.9236
#
#
#
# Elastic Compliance Matrix: (Units=1/GPa)
#
#
# Indices 1 2 3 4 5 6 
#
# 1 0.010002 -0.004983 -0.000670 0.000000 0.000000 0.000000
# 2 -0.004983 0.014456 -0.006015 0.000000 0.000000 0.000000
# 3 -0.000670 -0.006015 0.014046 0.000000 0.000000 0.000000
# 4 0.000000 0.000000 0.000000 -0.091664 0.000000 0.000000
# 5 0.000000 0.000000 0.000000 0.000000 0.024104 0.000000
# 6 0.000000 0.000000 0.000000 0.000000 0.000000 -0.067008
#
#
# Mechanical properties :
#
#
# Convention : Reuss Voigt Hill
#
# Bulk Modulus (GPa) = 65.92418 68.13419 67.02918
# Shear Modulus (GPa) = -73.88565 16.19019 -28.84773
#
# Velocity S-wave (km/s) = -6.06720 2.84010 -3.79109
# Velocity P-wave (km/s) = 4.02950 6.68583 3.77250
#
# Compressibility (1/GPa) = 0.01516894
#
# Stress axis : x y z
#
# Youngs Moduli (GPa) = 99.97616 69.17764 71.19419
#
# Poissons Ratio (x) = 0.34471 0.04767
# Poissons Ratio (y) = 0.49818 0.42823
# Poissons Ratio (z) = 0.06694 0.41610
#
# Static dielectric constant tensor:
#      x y z
#    x 1.708260 0.000000 0.000000 
#    y 0.000000 1.773070 0.000000 
#    z 0.000000 0.000000 1.731990 
# 
# From -- ./inp_files/16822.got.cif
#   From: 2010.05.17/outbox.cif.g08.bks.cpg/sg54_9_cif.got.tgz:16822.got - 2010.06.03 13:09:01.
