data_PCOD9424112
_publ_section_title
;
Structure prediction by ZEFSAII (Michael W. Deem and Ramdas Pophale) SiO2 
 PCOD9424112
Probable space group: P C C A
;
_chemical_formula_sum "Si O2"
_cell_formula_units_Z 40
_cell_length_a 13.499929
_cell_length_b 9.866313
_cell_length_c 13.552012
_cell_angle_alpha 90.000000
_cell_angle_beta 90.000000
_cell_angle_gamma 90.000000
_cell_volume 1805.053801
_symmetry_space_group_name_H-M "P C C A"
_symmetry_group_IT_number 54
_symmetry_cell_setting 'orthorhombic'
loop_
_space_group_symop_operation_xyz
x,y,z
1/2-x,-y,z
1/2+x,-y,1/2-z
-x,y,1/2-z
-x,-y,-z
1/2+x,y,-z
1/2-x,y,1/2+z
x,-y,1/2+z
loop_
_atom_site_type_symbol
_atom_site_label
_atom_site_fract_x
_atom_site_fract_y
_atom_site_fract_z
Si Si1 0.463069 0.259808 0.859653
Si Si2 0.788055 0.852577 0.356307
Si Si3 0.743649 0.351841 0.180553
Si Si4 0.501866 0.062981 0.133741
Si Si5 0.125244 0.264374 0.993530
O O1 0.500000 0.296677 0.750000
O O2 0.348534 0.298442 0.860927
O O3 0.535261 0.322465 0.941644
O O4 0.481814 0.097980 0.871467
O O5 0.792108 0.753469 0.263042
O O6 0.895077 0.883584 0.402709
O O7 0.709761 0.790256 0.432827
O O8 0.750000 0.000000 0.321696
O O9 0.750000 0.500000 0.227395
O O10 0.670573 0.363219 0.087625
O O11 0.500000 0.096592 0.250000
O O12 0.584388 0.139473 0.071699
#
# Coordination Sequence:
#
# PCOD9424112 Si02
#       5
#     8   8   8   8   8
#     4  11  23  45  70 105 144 187 237 305 362 421
#     4  12  24  46  76 108 142 189 242 308 359 422
#     4  12  29  49  70 106 153 198 236 296 366 446
#     4  11  22  41  71 110 143 177 241 304 363 421
#     4  12  25  42  76 107 140 189 236 302 366 426
#
# _framework density 22.160003
#
# number of rings (size 3 to 8) (size 9 to 14) (size 15 to 20)
#    0.000    0.400    6.000    3.000    2.800    1.600 
#    3.600    0.000    0.000    0.000    0.000    0.000 
#    0.000    0.000    0.000    0.000    0.000    0.000 
#
# Total GULP energy -223852.860533 kJ/mol
# GULP energy per Si atom -5596.321513 kJ/mol
# Density = 2.210957 g / cm^3
# Si number density = 22.160003 Si / 1000 Ang^3
#
#
#
# Elastic Constant Matrix: (Units=GPa)
#
#
# Indices 1 2 3 4 5 6 
#
# 1 99.6371 5.0088 14.8239 0.0000 0.0000 0.0000
# 2 5.0088 66.5432 9.9004 0.0000 0.0000 0.0000
# 3 14.8239 9.9004 116.1745 0.0000 0.0000 0.0000
# 4 0.0000 0.0000 0.0000 11.0847 0.0000 0.0000
# 5 0.0000 0.0000 0.0000 0.0000 47.3638 0.0000
# 6 0.0000 0.0000 0.0000 0.0000 0.0000 -1.8045
#
#
#
# Elastic Compliance Matrix: (Units=1/GPa)
#
#
# Indices 1 2 3 4 5 6 
#
# 1 0.010253 -0.000585 -0.001258 0.000000 0.000000 0.000000
# 2 -0.000585 0.015254 -0.001225 0.000000 0.000000 0.000000
# 3 -0.001258 -0.001225 0.008873 0.000000 0.000000 0.000000
# 4 0.000000 0.000000 0.000000 0.090214 0.000000 0.000000
# 5 0.000000 0.000000 0.000000 0.000000 0.021113 0.000000
# 6 0.000000 0.000000 0.000000 0.000000 0.000000 -0.554170
#
#
# Mechanical properties :
#
#
# Convention : Reuss Voigt Hill
#
# Bulk Modulus (GPa) = 35.40677 37.98010 36.69344
# Shear Modulus (GPa) = -12.72552 28.17026 7.72237
#
# Velocity S-wave (km/s) = -2.39896 3.56929 1.86879
# Velocity P-wave (km/s) = 2.88775 5.84488 4.60987
#
# Compressibility (1/GPa) = 0.02824319
#
# Stress axis : x y z
#
# Youngs Moduli (GPa) = 97.53204 65.55599 112.70463
#
# Poissons Ratio (x) = 0.03832 0.14184
# Poissons Ratio (y) = 0.05701 0.13810
# Poissons Ratio (z) = 0.12274 0.08033
#
# Static dielectric constant tensor:
#      x y z
#    x 1.855180 0.000000 0.000000 
#    y 0.000000 1.770200 0.000000 
#    z 0.000000 0.000000 1.823930 
# 
# From -- ./inp_files/13208.got.cif
#   From: 2010.05.17/outbox.cif.g08.bks.cpg/sg54_7_cif.got.tgz:13208.got - 2010.06.03 13:09:01.
