data_PCOD9424502
_publ_section_title
;
Structure prediction by ZEFSAII (Michael W. Deem and Ramdas Pophale) SiO2 
 PCOD9424502
Probable space group: P C C A
;
_chemical_formula_sum "Si O2"
_cell_formula_units_Z 36
_cell_length_a 24.174052
_cell_length_b 6.798168
_cell_length_c 10.166264
_cell_angle_alpha 90.000000
_cell_angle_beta 90.000000
_cell_angle_gamma 90.000000
_cell_volume 1670.716371
_symmetry_space_group_name_H-M "P C C A"
_symmetry_group_IT_number 54
_symmetry_cell_setting 'orthorhombic'
loop_
_space_group_symop_operation_xyz
x,y,z
1/2-x,-y,z
1/2+x,-y,1/2-z
-x,y,1/2-z
-x,-y,-z
1/2+x,y,-z
1/2-x,y,1/2+z
x,-y,1/2+z
loop_
_atom_site_type_symbol
_atom_site_label
_atom_site_fract_x
_atom_site_fract_y
_atom_site_fract_z
Si Si1 0.707552 0.145397 0.890541
Si Si2 0.935270 0.216423 0.746588
Si Si3 0.639613 0.589659 0.195373
Si Si4 0.250000 0.500000 0.452530
Si Si5 0.608712 0.060512 0.517558
O O1 0.663019 0.262457 0.804963
O O2 0.750000 0.000000 0.816520
O O3 0.670772 0.020455 0.992480
O O4 0.745726 0.308020 0.958292
O O5 0.899267 0.415930 0.745535
O O6 0.919093 0.090485 0.875565
O O7 0.000000 0.261809 0.750000
O O8 0.920728 0.091635 0.615855
O O9 0.694853 0.498598 0.132913
O O10 0.610593 0.727272 0.087429
#
# Coordination Sequence:
#
# PCOD9424502 Si02
#       5
#     8   8   8   4   8
#     4  12  26  43  70 110 150 197 240 302 379 452
#     4  12  29  52  78 107 150 203 257 318 375 442
#     4  12  27  44  74 111 153 190 254 306 380 446
#     4  12  24  42  70 106 152 200 238 310 374 456
#     4  12  26  50  76 111 149 195 256 312 373 456
#
# _framework density 21.547642
#
# number of rings (size 3 to 8) (size 9 to 14) (size 15 to 20)
#    0.000    0.000    6.667    2.667    6.222    1.778 
#    0.000    0.000    0.000    0.000    0.000    0.000 
#    0.000    0.000    0.000    0.000    0.000    0.000 
#
# Total GULP energy -201494.795335 kJ/mol
# GULP energy per Si atom -5597.077648 kJ/mol
# Density = 2.149860 g / cm^3
# Si number density = 21.547642 Si / 1000 Ang^3
#
#
#
# Elastic Constant Matrix: (Units=GPa)
#
#
# Indices 1 2 3 4 5 6 
#
# 1 141.3374 72.1021 44.1446 0.0000 0.0000 0.0000
# 2 72.1021 122.0634 64.0279 0.0000 0.0000 0.0000
# 3 44.1446 64.0279 102.9331 0.0000 0.0000 0.0000
# 4 0.0000 0.0000 0.0000 61.3588 0.0000 0.0000
# 5 0.0000 0.0000 0.0000 0.0000 16.9743 0.0000
# 6 0.0000 0.0000 0.0000 0.0000 0.0000 33.8405
#
#
#
# Elastic Compliance Matrix: (Units=1/GPa)
#
#
# Indices 1 2 3 4 5 6 
#
# 1 0.010186 -0.005530 -0.000929 0.000000 0.000000 0.000000
# 2 -0.005530 0.015162 -0.007060 0.000000 0.000000 0.000000
# 3 -0.000929 -0.007060 0.014505 0.000000 0.000000 0.000000
# 4 0.000000 0.000000 0.000000 0.016298 0.000000 0.000000
# 5 0.000000 0.000000 0.000000 0.000000 0.058913 0.000000
# 6 0.000000 0.000000 0.000000 0.000000 0.000000 0.029550
#
#
# Mechanical properties :
#
#
# Convention : Reuss Voigt Hill
#
# Bulk Modulus (GPa) = 78.02519 80.76481 79.39500
# Shear Modulus (GPa) = 28.42157 34.83867 31.63012
#
# Velocity S-wave (km/s) = 3.63576 4.02533 3.83550
# Velocity P-wave (km/s) = 7.34263 7.69206 7.51937
#
# Compressibility (1/GPa) = 0.01281637
#
# Stress axis : x y z
#
# Youngs Moduli (GPa) = 98.17053 65.95419 68.94249
#
# Poissons Ratio (x) = 0.36471 0.06404
# Poissons Ratio (y) = 0.54286 0.48672
# Poissons Ratio (z) = 0.09119 0.46562
#
# Static dielectric constant tensor:
#      x y z
#    x 1.761460 0.000000 0.000000 
#    y 0.000000 1.880020 0.000000 
#    z 0.000000 0.000000 1.837630 
# 
# From -- ./inp_files/9723.got.cif
#   From: 2010.05.17/outbox.cif.g08.bks.cpg/sg54_5_cif.got.tgz:9723.got - 2010.06.03 13:09:01.
