data_PCOD9424577
_publ_section_title
;
Structure prediction by ZEFSAII (Michael W. Deem and Ramdas Pophale) SiO2 
 PCOD9424577
Probable space group: P C C A
;
_chemical_formula_sum "Si O2"
_cell_formula_units_Z 20
_cell_length_a 5.052279
_cell_length_b 5.200311
_cell_length_c 32.154083
_cell_angle_alpha 90.000000
_cell_angle_beta 90.000000
_cell_angle_gamma 90.000000
_cell_volume 844.797794
_symmetry_space_group_name_H-M "P C C A"
_symmetry_group_IT_number 54
_symmetry_cell_setting 'orthorhombic'
loop_
_space_group_symop_operation_xyz
x,y,z
1/2-x,-y,z
1/2+x,-y,1/2-z
-x,y,1/2-z
-x,-y,-z
1/2+x,y,-z
1/2-x,y,1/2+z
x,-y,1/2+z
loop_
_atom_site_type_symbol
_atom_site_label
_atom_site_fract_x
_atom_site_fract_y
_atom_site_fract_z
Si Si1 0.250000 0.000000 0.834075
Si Si2 0.524252 0.336277 0.896888
Si Si3 0.750000 0.000000 0.469512
Si Si4 0.250000 0.500000 0.778688
O O1 0.035674 0.898890 0.866740
O O2 0.313188 0.751514 0.806305
O O3 0.250000 0.500000 0.903890
O O4 0.750000 0.500000 0.874929
O O5 0.666239 0.230093 0.938405
O O6 0.500000 0.000000 0.500000
O O7 0.500000 0.437664 0.750000
#
# Coordination Sequence:
#
# PCOD9424577 Si02
#       4
#     4   8   4   4
#     4  12  27  54  81 118 162 210 270 326 383 502
#     4  12  27  48  80 115 155 218 266 324 399 469
#     4  12  27  46  73 116 164 204 268 336 395 466
#     4  12  30  50  82 120 162 206 258 332 410 464
#
# _framework density 23.674299999999999
#
# number of rings (size 3 to 8) (size 9 to 14) (size 15 to 20)
#    0.000    0.000    2.000    7.200    2.800    8.000 
#    0.000    0.000    0.000    0.000    0.000    0.000 
#    0.000    0.000    0.000    0.000    0.000    0.000 
#
# Total GULP energy -111817.346525 kJ/mol
# GULP energy per Si atom -5590.867326 kJ/mol
# Density = 2.362042 g / cm^3
# Si number density = 23.674300 Si / 1000 Ang^3
#
#
#
# Elastic Constant Matrix: (Units=GPa)
#
#
# Indices 1 2 3 4 5 6 
#
# 1 212.1037 77.7970 66.5233 0.0000 0.0000 0.0000
# 2 77.7970 190.6781 80.3711 0.0000 0.0000 0.0000
# 3 66.5233 80.3711 134.5098 0.0000 0.0000 0.0000
# 4 0.0000 0.0000 0.0000 -16.6388 0.0000 0.0000
# 5 0.0000 0.0000 0.0000 0.0000 141.1188 0.0000
# 6 0.0000 0.0000 0.0000 0.0000 0.0000 62.0884
#
#
#
# Elastic Compliance Matrix: (Units=1/GPa)
#
#
# Indices 1 2 3 4 5 6 
#
# 1 0.005915 -0.001578 -0.001983 0.000000 0.000000 0.000000
# 2 -0.001578 0.007431 -0.003660 0.000000 0.000000 0.000000
# 3 -0.001983 -0.003660 0.010602 0.000000 0.000000 0.000000
# 4 0.000000 0.000000 0.000000 -0.060100 0.000000 0.000000
# 5 0.000000 0.000000 0.000000 0.000000 0.007086 0.000000
# 6 0.000000 0.000000 0.000000 0.000000 0.000000 0.016106
#
#
# Mechanical properties :
#
#
# Convention : Reuss Voigt Hill
#
# Bulk Modulus (GPa) = 105.18127 109.63049 107.40588
# Shear Modulus (GPa) = 1075.56972 58.15370 566.86171
#
# Velocity S-wave (km/s) = 21.33790 4.96159 15.49069
# Velocity P-wave (km/s) = 25.52644 8.90121 19.11584
#
# Compressibility (1/GPa) = 0.00950740
#
# Stress axis : x y z
#
# Youngs Moduli (GPa) = 169.05573 134.57696 94.32471
#
# Poissons Ratio (x) = 0.21232 0.18702
# Poissons Ratio (y) = 0.26672 0.34520
# Poissons Ratio (z) = 0.33519 0.49251
#
# Static dielectric constant tensor:
#      x y z
#    x 1.881250 0.000000 0.000000 
#    y 0.000000 1.936430 0.000000 
#    z 0.000000 0.000000 1.938950 
# 
# From -- ./inp_files/26750.got.cif
#   From: 2010.05.17/outbox.cif.g08.bks.cpg/sg54_14_cif.got.tgz:26750.got - 2010.06.03 13:09:01.
