data_PCOD9424070
_publ_section_title
;
Structure prediction by ZEFSAII (Michael W. Deem and Ramdas Pophale) SiO2 
 PCOD9424070
Probable space group: P C C A
;
_chemical_formula_sum "Si O2"
_cell_formula_units_Z 36
_cell_length_a 24.670055
_cell_length_b 6.607702
_cell_length_c 10.141694
_cell_angle_alpha 90.000000
_cell_angle_beta 90.000000
_cell_angle_gamma 90.000000
_cell_volume 1653.221593
_symmetry_space_group_name_H-M "P C C A"
_symmetry_group_IT_number 54
_symmetry_cell_setting 'orthorhombic'
loop_
_space_group_symop_operation_xyz
x,y,z
1/2-x,-y,z
1/2+x,-y,1/2-z
-x,y,1/2-z
-x,-y,-z
1/2+x,y,-z
1/2-x,y,1/2+z
x,-y,1/2+z
loop_
_atom_site_type_symbol
_atom_site_label
_atom_site_fract_x
_atom_site_fract_y
_atom_site_fract_z
Si Si1 0.649939 0.981496 0.704644
Si Si2 0.785662 0.666468 0.555553
Si Si3 0.063048 0.702779 0.723093
Si Si4 0.886988 0.583882 0.048293
Si Si5 0.750000 0.000000 0.388860
O O1 0.682552 0.157176 0.628725
O O2 0.597288 0.089959 0.764305
O O3 0.632002 0.793318 0.616129
O O4 0.695813 0.935568 0.812220
O O5 0.750000 0.500000 0.633974
O O6 0.834652 0.538362 0.493625
O O7 0.742550 0.794986 0.471374
O O8 0.074302 0.620427 0.576191
O O9 0.086094 0.549733 0.835095
O O10 0.000000 0.734868 0.750000
#
# Coordination Sequence:
#
# PCOD9424070 Si02
#       5
#     8   8   8   8   4
#     4  11  24  40  64  96 133 175 222 276 340 407
#     4  11  22  37  59  89 127 168 214 268 330 399
#     4  11  25  44  69  99 133 180 234 289 348 409
#     4  11  24  44  67  97 135 177 229 285 345 412
#     4  12  22  38  62  92 130 172 220 268 328 404
#
# _framework density 21.775663999999999
#
# number of rings (size 3 to 8) (size 9 to 14) (size 15 to 20)
#    0.000    0.889    0.000    8.000    0.000    8.000 
#    0.000    0.000    0.000    0.000    0.000    0.000 
#    0.000    0.000    0.000    0.000    0.000    0.000 
#
# Total GULP energy -200918.967659 kJ/mol
# GULP energy per Si atom -5581.082435 kJ/mol
# Density = 2.172610 g / cm^3
# Si number density = 21.775664 Si / 1000 Ang^3
#
#
#
# Elastic Constant Matrix: (Units=GPa)
#
#
# Indices 1 2 3 4 5 6 
#
# 1 132.3721 47.8322 31.6541 0.0000 0.0000 0.0000
# 2 47.8322 111.5514 38.6004 0.0000 0.0000 0.0000
# 3 31.6541 38.6004 83.5033 0.0000 0.0000 0.0000
# 4 0.0000 0.0000 0.0000 53.5412 0.0000 0.0000
# 5 0.0000 0.0000 0.0000 0.0000 -29.2229 0.0000
# 6 0.0000 0.0000 0.0000 0.0000 0.0000 29.4872
#
#
#
# Elastic Compliance Matrix: (Units=1/GPa)
#
#
# Indices 1 2 3 4 5 6 
#
# 1 0.009207 -0.003262 -0.001982 0.000000 0.000000 0.000000
# 2 -0.003262 0.011827 -0.004231 0.000000 0.000000 0.000000
# 3 -0.001982 -0.004231 0.014683 0.000000 0.000000 0.000000
# 4 0.000000 0.000000 0.000000 0.018677 0.000000 0.000000
# 5 0.000000 0.000000 0.000000 0.000000 -0.034220 0.000000
# 6 0.000000 0.000000 0.000000 0.000000 0.000000 0.033913
#
#
# Mechanical properties :
#
#
# Convention : Reuss Voigt Hill
#
# Bulk Modulus (GPa) = 59.64090 62.62223 61.13156
# Shear Modulus (GPa) = 63.59172 24.71712 44.15442
#
# Velocity S-wave (km/s) = 5.40985 3.37275 4.50788
# Velocity P-wave (km/s) = 8.15293 6.63231 7.43162
#
# Compressibility (1/GPa) = 0.01676702
#
# Stress axis : x y z
#
# Youngs Moduli (GPa) = 108.61051 84.55121 68.10728
#
# Poissons Ratio (x) = 0.27581 0.13501
# Poissons Ratio (y) = 0.35429 0.28814
# Poissons Ratio (z) = 0.21530 0.35771
#
# Static dielectric constant tensor:
#      x y z
#    x 1.835630 0.000000 0.000000 
#    y 0.000000 1.858950 0.000000 
#    z 0.000000 0.000000 1.924840 
# 
# From -- ./inp_files/9729.got.cif
#   From: 2010.05.17/outbox.cif.g08.bks.cpg/sg54_5_cif.got.tgz:9729.got - 2010.06.03 13:09:01.
