data_PCOD9424082
_publ_section_title
;
Structure prediction by ZEFSAII (Michael W. Deem and Ramdas Pophale) SiO2 
 PCOD9424082
Probable space group: P C C A
;
_chemical_formula_sum "Si O2"
_cell_formula_units_Z 48
_cell_length_a 13.696186
_cell_length_b 14.793596
_cell_length_c 10.809938
_cell_angle_alpha 90.000000
_cell_angle_beta 90.000000
_cell_angle_gamma 90.000000
_cell_volume 2190.264694
_symmetry_space_group_name_H-M "P C C A"
_symmetry_group_IT_number 54
_symmetry_cell_setting 'orthorhombic'
loop_
_space_group_symop_operation_xyz
x,y,z
1/2-x,-y,z
1/2+x,-y,1/2-z
-x,y,1/2-z
-x,-y,-z
1/2+x,y,-z
1/2-x,y,1/2+z
x,-y,1/2+z
loop_
_atom_site_type_symbol
_atom_site_label
_atom_site_fract_x
_atom_site_fract_y
_atom_site_fract_z
Si Si1 0.069598 0.102929 0.127671
Si Si2 0.579553 0.288611 0.362448
Si Si3 0.938017 0.094164 0.878004
Si Si4 0.778947 0.397278 0.710456
Si Si5 0.559700 0.406826 0.997952
Si Si6 0.386692 0.708251 0.214657
O O1 0.131590 0.194443 0.149415
O O2 0.000000 0.098701 0.250000
O O3 0.116087 0.002361 0.118962
O O4 0.006966 0.105704 0.999981
O O5 0.500000 0.287500 0.250000
O O6 0.619876 0.187873 0.376822
O O7 0.663916 0.357186 0.327681
O O8 0.517887 0.327025 0.475651
O O9 0.000000 0.093668 0.750000
O O10 0.750000 0.500000 0.728891
O O11 0.858638 0.402387 0.602279
O O12 0.692758 0.324146 0.685247
O O13 0.500000 0.500000 0.000000
O O14 0.613566 0.379466 0.873601
O O15 0.500000 0.713757 0.250000
#
# Coordination Sequence:
#
# PCOD9424082 Si02
#       6
#     8   8   8   8   8   8
#     4   9  18  33  59  96 127 165 209 265 333 401
#     4   9  19  37  61  88 118 160 215 271 329 392
#     4   9  16  33  63  92 124 165 216 262 328 407
#     4  11  24  40  59  90 123 170 222 277 340 406
#     4  11  22  39  63  88 121 170 222 279 341 407
#     4  11  23  40  60  90 131 166 213 276 344 408
#
# _framework density 21.915158000000002
#
# number of rings (size 3 to 8) (size 9 to 14) (size 15 to 20)
#    0.000    2.000    1.667    2.000    0.000    4.667 
#    0.000    0.833    0.000    0.000    0.000    0.000 
#    0.000    0.000    0.000    0.000    0.000    0.000 
#
# Total GULP energy -267381.253392 kJ/mol
# GULP energy per Si atom -5570.442779 kJ/mol
# Density = 2.186528 g / cm^3
# Si number density = 21.915158 Si / 1000 Ang^3
#
#
#
# Elastic Constant Matrix: (Units=GPa)
#
#
# Indices 1 2 3 4 5 6 
#
# 1 91.4686 54.0187 15.9616 0.0000 0.0000 0.0000
# 2 54.0187 194.8418 15.2541 0.0000 0.0000 0.0000
# 3 15.9616 15.2541 83.4922 0.0000 0.0000 0.0000
# 4 0.0000 0.0000 0.0000 22.2515 0.0000 0.0000
# 5 0.0000 0.0000 0.0000 0.0000 24.8561 0.0000
# 6 0.0000 0.0000 0.0000 0.0000 0.0000 11.8018
#
#
#
# Elastic Compliance Matrix: (Units=1/GPa)
#
#
# Indices 1 2 3 4 5 6 
#
# 1 0.013365 -0.003556 -0.001905 0.000000 0.000000 0.000000
# 2 -0.003556 0.006153 -0.000444 0.000000 0.000000 0.000000
# 3 -0.001905 -0.000444 0.012423 0.000000 0.000000 0.000000
# 4 0.000000 0.000000 0.000000 0.044941 0.000000 0.000000
# 5 0.000000 0.000000 0.000000 0.000000 0.040232 0.000000
# 6 0.000000 0.000000 0.000000 0.000000 0.000000 0.084733
#
#
# Mechanical properties :
#
#
# Convention : Reuss Voigt Hill
#
# Bulk Modulus (GPa) = 49.67916 60.03014 54.85465
# Shear Modulus (GPa) = 22.68931 30.75310 26.72120
#
# Velocity S-wave (km/s) = 3.22114 3.75010 3.49564
# Velocity P-wave (km/s) = 6.04586 6.79725 6.43253
#
# Compressibility (1/GPa) = 0.02012917
#
# Stress axis : x y z
#
# Youngs Moduli (GPa) = 74.81969 162.51915 80.49837
#
# Poissons Ratio (x) = 0.57797 0.15338
# Poissons Ratio (y) = 0.26608 0.03577
# Poissons Ratio (z) = 0.14256 0.07221
#
# Static dielectric constant tensor:
#      x y z
#    x 1.904430 0.000000 0.000000 
#    y 0.000000 1.854510 0.000000 
#    z 0.000000 0.000000 2.001870 
# 
# From -- ./inp_files/8343.got.cif
#   From: 2010.05.17/outbox.cif.g08.bks.cpg/sg54_5_cif.got.tgz:8343.got - 2010.06.03 13:09:01.
