data_PCOD9424858
_publ_section_title
;
Structure prediction by ZEFSAII (Michael W. Deem and Ramdas Pophale) SiO2 
 PCOD9424858
Probable space group: P B A M
;
_chemical_formula_sum "Si O2"
_cell_formula_units_Z 44
_cell_length_a 13.719538
_cell_length_b 9.119193
_cell_length_c 16.493232
_cell_angle_alpha 90.000000
_cell_angle_beta 90.000000
_cell_angle_gamma 90.000000
_cell_volume 2063.486644
_symmetry_space_group_name_H-M "P B A M"
_symmetry_group_IT_number 55
_symmetry_cell_setting 'orthorhombic'
loop_
_space_group_symop_operation_xyz
x,y,z
-x,-y,z
1/2+x,1/2-y,-z
1/2-x,1/2+y,-z
-x,-y,-z
x,y,-z
1/2-x,1/2+y,z
1/2+x,1/2-y,z
loop_
_atom_site_type_symbol
_atom_site_label
_atom_site_fract_x
_atom_site_fract_y
_atom_site_fract_z
Si Si1 0.635204 0.396800 0.908921
Si Si2 0.319018 0.899843 0.695692
Si Si3 0.795486 0.882454 0.592324
Si Si4 0.996337 0.739127 0.226787
Si Si5 0.689217 0.712390 0.845558
Si Si6 0.000000 0.000000 0.352988
O O1 0.565353 0.326632 0.841458
O O2 0.651263 0.568822 0.892441
O O3 0.737638 0.312828 0.896090
O O4 0.598984 0.373193 0.000000
O O5 0.280795 0.047827 0.655605
O O6 0.312586 0.781534 0.623336
O O7 0.425738 0.880672 0.733746
O O8 0.246663 0.851778 0.767802
O O9 0.761371 0.888319 0.500000
O O10 0.899775 0.965715 0.600187
O O11 0.097284 0.694855 0.185861
O O12 0.018515 0.859631 0.295839
#
# Coordination Sequence:
#
# PCOD9424858 Si02
#       6
#     8   8   8   8   8   4
#     4  11  23  36  59  92 120 150 200 256 305 354
#     4  10  21  37  61  86 117 157 206 238 289 368
#     4  11  21  36  60  89 123 154 193 256 303 338
#     4  10  19  36  63  83 112 160 207 237 289 363
#     4  11  20  40  60  82 116 160 199 246 299 361
#     4  10  17  36  59  88 108 156 210 232 273 376
#
# _framework density 21.323131
#
# number of rings (size 3 to 8) (size 9 to 14) (size 15 to 20)
#    0.000    1.455    3.636    3.545    0.000    2.182 
#    0.000    8.182    0.000    6.545    0.000    0.000 
#    0.000    0.000    0.000    0.000    0.000    0.000 
#
# Total GULP energy -246070.838485 kJ/mol
# GULP energy per Si atom -5592.519056 kJ/mol
# Density = 2.127460 g / cm^3
# Si number density = 21.323131 Si / 1000 Ang^3
#
#
#
# Elastic Constant Matrix: (Units=GPa)
#
#
# Indices 1 2 3 4 5 6 
#
# 1 61.1971 11.9992 1.5275 0.0000 0.0000 0.0000
# 2 11.9992 58.6800 15.1317 0.0000 0.0000 0.0000
# 3 1.5275 15.1317 90.6604 0.0000 0.0000 0.0000
# 4 0.0000 0.0000 0.0000 24.3109 0.0000 0.0000
# 5 0.0000 0.0000 0.0000 0.0000 7.6772 0.0000
# 6 0.0000 0.0000 0.0000 0.0000 0.0000 29.2203
#
#
#
# Elastic Compliance Matrix: (Units=1/GPa)
#
#
# Indices 1 2 3 4 5 6 
#
# 1 0.017031 -0.003562 0.000308 0.000000 0.000000 0.000000
# 2 -0.003562 0.018553 -0.003037 0.000000 0.000000 0.000000
# 3 0.000308 -0.003037 0.011532 0.000000 0.000000 0.000000
# 4 0.000000 0.000000 0.000000 0.041134 0.000000 0.000000
# 5 0.000000 0.000000 0.000000 0.000000 0.130256 0.000000
# 6 0.000000 0.000000 0.000000 0.000000 0.000000 0.034223
#
#
# Mechanical properties :
#
#
# Convention : Reuss Voigt Hill
#
# Bulk Modulus (GPa) = 28.95683 29.76160 29.35921
# Shear Modulus (GPa) = 18.06212 24.36696 21.21454
#
# Velocity S-wave (km/s) = 2.91360 3.38412 3.15764
# Velocity P-wave (km/s) = 4.99282 5.40901 5.20508
#
# Compressibility (1/GPa) = 0.03453417
#
# Stress axis : x y z
#
# Youngs Moduli (GPa) = 58.71515 53.89964 86.71663
#
# Poissons Ratio (x) = 0.19199 -0.02667
# Poissons Ratio (y) = 0.20914 0.26332
# Poissons Ratio (z) = -0.01806 0.16367
#
# Static dielectric constant tensor:
#      x y z
#    x 1.783890 0.000000 0.000000 
#    y 0.000000 1.764840 0.000000 
#    z 0.000000 0.000000 1.724100 
# 
# From -- ./inp_files/21460.got.cif
#   From: 2010.05.17/outbox.cif.g08.bks.cpg/sg55_11_cif.got.tgz:21460.got - 2010.06.03 13:27:54.
