data_PCOD9424758
_publ_section_title
;
Structure prediction by ZEFSAII (Michael W. Deem and Ramdas Pophale) SiO2 
 PCOD9424758
Probable space group: P B A M
;
_chemical_formula_sum "Si O2"
_cell_formula_units_Z 64
_cell_length_a 14.948365
_cell_length_b 22.475880
_cell_length_c 8.390322
_cell_angle_alpha 90.000000
_cell_angle_beta 90.000000
_cell_angle_gamma 90.000000
_cell_volume 2818.960735
_symmetry_space_group_name_H-M "P B A M"
_symmetry_group_IT_number 55
_symmetry_cell_setting 'orthorhombic'
loop_
_space_group_symop_operation_xyz
x,y,z
-x,-y,z
1/2+x,1/2-y,-z
1/2-x,1/2+y,-z
-x,-y,-z
x,y,-z
1/2-x,1/2+y,z
1/2+x,1/2-y,z
loop_
_atom_site_type_symbol
_atom_site_label
_atom_site_fract_x
_atom_site_fract_y
_atom_site_fract_z
Si Si1 0.516583 0.436157 0.319666
Si Si2 0.977463 0.563806 0.314987
Si Si3 0.242084 0.303840 0.813048
Si Si4 0.524198 0.311848 0.815060
Si Si5 0.273214 0.681086 0.309674
Si Si6 0.270638 0.553646 0.679516
Si Si7 0.538297 0.189751 0.309619
Si Si8 0.782380 0.569363 0.812160
O O1 0.500000 0.500000 0.239599
O O2 0.478806 0.438292 0.500000
O O3 0.486537 0.375450 0.238422
O O4 0.623838 0.433764 0.330923
O O5 0.005362 0.560777 0.500000
O O6 0.009086 0.628602 0.255039
O O7 0.870992 0.568448 0.295147
O O8 0.000000 0.500000 0.238377
O O9 0.273994 0.243714 0.727548
O O10 0.135051 0.307629 0.776561
O O11 0.272545 0.370828 0.768164
O O12 0.257668 0.295558 0.000000
O O13 0.630977 0.315589 0.779025
O O14 0.492336 0.252605 0.725618
O O15 0.508629 0.303304 0.000000
O O16 0.289241 0.678715 0.500000
O O17 0.230600 0.617161 0.265426
O O18 0.237098 0.540986 0.500000
O O19 0.259760 0.495041 0.783809
O O20 0.553263 0.185532 0.500000
O O21 0.805256 0.575586 0.000000
#
# Coordination Sequence:
#
# PCOD9424758 Si02
#       8
#     8   8   8   8   8   8   8   8
#     4   9  18  33  51  70  93 121 155 194 233 274
#     4   9  18  32  50  71  94 122 157 196 234 272
#     4   9  16  26  41  64  91 117 149 188 228 269
#     4  10  17  25  41  66  94 120 149 187 228 272
#     4   9  16  27  44  66  89 116 153 193 231 268
#     4   9  18  31  48  70  94 121 154 192 231 273
#     4   9  15  25  43  65  89 117 150 189 230 269
#     4  10  20  31  46  70  98 127 155 186 229 280
#
# _framework density 22.703403000000002
#
# number of rings (size 3 to 8) (size 9 to 14) (size 15 to 20)
#    0.000    2.750    0.000    4.875    0.000    5.000 
#    0.000    0.000    0.000    1.500    0.000    3.500 
#    0.000    0.000    0.000    0.000    0.000    0.000 
#
# Total GULP energy -356511.350464 kJ/mol
# GULP energy per Si atom -5570.489851 kJ/mol
# Density = 2.265173 g / cm^3
# Si number density = 22.703403 Si / 1000 Ang^3
#
#
#
# Elastic Constant Matrix: (Units=GPa)
#
#
# Indices 1 2 3 4 5 6 
#
# 1 42.0253 6.5131 -4.3612 0.0000 0.0000 0.0000
# 2 6.5131 266.4624 33.6718 0.0000 0.0000 0.0000
# 3 -4.3612 33.6718 42.4798 0.0000 0.0000 0.0000
# 4 0.0000 0.0000 0.0000 36.6071 0.0000 0.0000
# 5 0.0000 0.0000 0.0000 0.0000 5.3681 0.0000
# 6 0.0000 0.0000 0.0000 0.0000 0.0000 15.3676
#
#
#
# Elastic Compliance Matrix: (Units=1/GPa)
#
#
# Indices 1 2 3 4 5 6 
#
# 1 0.024294 -0.001010 0.003295 0.000000 0.000000 0.000000
# 2 -0.001010 0.004213 -0.003443 0.000000 0.000000 0.000000
# 3 0.003295 -0.003443 0.026608 0.000000 0.000000 0.000000
# 4 0.000000 0.000000 0.000000 0.027317 0.000000 0.000000
# 5 0.000000 0.000000 0.000000 0.000000 0.186287 0.000000
# 6 0.000000 0.000000 0.000000 0.000000 0.000000 0.065072
#
#
# Mechanical properties :
#
#
# Convention : Reuss Voigt Hill
#
# Bulk Modulus (GPa) = 18.94023 46.95724 32.94873
# Shear Modulus (GPa) = 14.13605 32.47813 23.30709
#
# Velocity S-wave (km/s) = 2.49798 3.78635 3.20752
# Velocity P-wave (km/s) = 4.08417 6.31214 5.31618
#
# Compressibility (1/GPa) = 0.05279768
#
# Stress axis : x y z
#
# Youngs Moduli (GPa) = 41.16299 237.38153 37.58291
#
# Poissons Ratio (x) = 0.23979 -0.12383
# Poissons Ratio (y) = 0.04158 0.12939
# Poissons Ratio (z) = -0.13562 0.81727
#
# Static dielectric constant tensor:
#      x y z
#    x 1.896810 0.000000 0.000000 
#    y 0.000000 1.985480 0.000000 
#    z 0.000000 0.000000 1.790170 
# 
# From -- ./inp_files/9133.got.cif
#   From: 2010.05.17/outbox.cif.g08.bks.cpg/sg55_5_cif.got.tgz:9133.got - 2010.06.03 13:27:54.
