data_PCOD9424481
_publ_section_title
;
Structure prediction by ZEFSAII (Michael W. Deem and Ramdas Pophale) SiO2 
 PCOD9424481
Probable space group: P C C A
;
_chemical_formula_sum "Si O2"
_cell_formula_units_Z 48
_cell_length_a 15.742826
_cell_length_b 7.750944
_cell_length_c 14.324283
_cell_angle_alpha 90.000000
_cell_angle_beta 90.000000
_cell_angle_gamma 90.000000
_cell_volume 1747.874261
_symmetry_space_group_name_H-M "P C C A"
_symmetry_group_IT_number 54
_symmetry_cell_setting 'orthorhombic'
loop_
_space_group_symop_operation_xyz
x,y,z
1/2-x,-y,z
1/2+x,-y,1/2-z
-x,y,1/2-z
-x,-y,-z
1/2+x,y,-z
1/2-x,y,1/2+z
x,-y,1/2+z
loop_
_atom_site_type_symbol
_atom_site_label
_atom_site_fract_x
_atom_site_fract_y
_atom_site_fract_z
Si Si1 0.697826 0.230743 0.788109
Si Si2 0.695639 0.762523 0.064771
Si Si3 0.102709 0.874522 0.215847
Si Si4 0.031216 0.343823 0.519113
Si Si5 0.872039 0.148174 0.564665
Si Si6 0.434133 0.500296 0.669222
O O1 0.696349 0.257428 0.675721
O O2 0.792695 0.192791 0.818057
O O3 0.651990 0.403939 0.824415
O O4 0.631572 0.075688 0.808584
O O5 0.625026 0.645512 0.019665
O O6 0.790674 0.746139 0.027798
O O7 0.655491 0.952371 0.049700
O O8 0.122989 0.810736 0.325674
O O9 0.065944 0.705636 0.142526
O O10 0.000000 0.923382 0.250000
O O11 0.960725 0.198133 0.518703
O O12 0.984999 0.462144 0.427539
O O13 0.500000 0.467149 0.750000
#
# Coordination Sequence:
#
# PCOD9424481 Si02
#       6
#     8   8   8   8   8   8
#     4   9  20  41  68  92 122 161 221 261 317 386
#     4   9  20  41  70  93 119 176 219 269 324 382
#     4   9  19  41  68  92 118 166 210 266 318 381
#     4  12  25  41  58  94 136 168 212 264 328 386
#     4   9  19  42  68  91 124 167 224 262 323 392
#     4  12  23  39  61  93 131 164 209 264 326 382
#
# _framework density 27.461929999999999
#
# number of rings (size 3 to 8) (size 9 to 14) (size 15 to 20)
#    0.000    2.000    1.667    4.000    0.000    1.333 
#   12.000    1.667    0.000    0.000    0.000    0.000 
#    0.000    0.000    0.000    0.000    0.000    0.000 
#
# Total GULP energy -267453.255122 kJ/mol
# GULP energy per Si atom -5571.942815 kJ/mol
# Density = 2.739943 g / cm^3
# Si number density = 27.461930 Si / 1000 Ang^3
#
#
#
# Elastic Constant Matrix: (Units=GPa)
#
#
# Indices 1 2 3 4 5 6 
#
# 1 246.3512 68.6343 33.4224 0.0000 0.0000 0.0000
# 2 68.6343 100.0556 26.3449 0.0000 0.0000 0.0000
# 3 33.4224 26.3449 88.4312 0.0000 0.0000 0.0000
# 4 0.0000 0.0000 0.0000 30.9226 0.0000 0.0000
# 5 0.0000 0.0000 0.0000 0.0000 35.6496 0.0000
# 6 0.0000 0.0000 0.0000 0.0000 0.0000 50.3565
#
#
#
# Elastic Compliance Matrix: (Units=1/GPa)
#
#
# Indices 1 2 3 4 5 6 
#
# 1 0.005092 -0.003240 -0.000959 0.000000 0.000000 0.000000
# 2 -0.003240 0.012907 -0.002621 0.000000 0.000000 0.000000
# 3 -0.000959 -0.002621 0.012451 0.000000 0.000000 0.000000
# 4 0.000000 0.000000 0.000000 0.032339 0.000000 0.000000
# 5 0.000000 0.000000 0.000000 0.000000 0.028051 0.000000
# 6 0.000000 0.000000 0.000000 0.000000 0.000000 0.019858
#
#
# Mechanical properties :
#
#
# Convention : Reuss Voigt Hill
#
# Bulk Modulus (GPa) = 59.48661 76.84901 68.16781
# Shear Modulus (GPa) = 38.47845 43.81484 41.14664
#
# Velocity S-wave (km/s) = 3.74726 3.99867 3.87501
# Velocity P-wave (km/s) = 6.35855 7.02594 6.70056
#
# Compressibility (1/GPa) = 0.01681051
#
# Stress axis : x y z
#
# Youngs Moduli (GPa) = 196.37905 77.47559 80.31195
#
# Poissons Ratio (x) = 0.25106 0.07703
# Poissons Ratio (y) = 0.63636 0.21046
# Poissons Ratio (z) = 0.18837 0.20303
#
# Static dielectric constant tensor:
#      x y z
#    x 2.256960 0.000000 0.000000 
#    y 0.000000 2.157200 0.000000 
#    z 0.000000 0.000000 2.668430 
# 
# From -- ./inp_files/14105.got.cif
#   From: 2010.05.17/outbox.cif.g08.bks.cpg/sg54_8_cif.got.tgz:14105.got - 2010.06.03 13:09:01.
