data_PCOD9424419
_publ_section_title
;
Structure prediction by ZEFSAII (Michael W. Deem and Ramdas Pophale) SiO2 
 PCOD9424419
Probable space group: P C C A
;
_chemical_formula_sum "Si O2"
_cell_formula_units_Z 56
_cell_length_a 13.543671
_cell_length_b 11.972850
_cell_length_c 15.422984
_cell_angle_alpha 90.000000
_cell_angle_beta 90.000000
_cell_angle_gamma 90.000000
_cell_volume 2500.934658
_symmetry_space_group_name_H-M "P C C A"
_symmetry_group_IT_number 54
_symmetry_cell_setting 'orthorhombic'
loop_
_space_group_symop_operation_xyz
x,y,z
1/2-x,-y,z
1/2+x,-y,1/2-z
-x,y,1/2-z
-x,-y,-z
1/2+x,y,-z
1/2-x,y,1/2+z
x,-y,1/2+z
loop_
_atom_site_type_symbol
_atom_site_label
_atom_site_fract_x
_atom_site_fract_y
_atom_site_fract_z
Si Si1 0.000000 0.500000 0.000000
Si Si2 0.141788 0.447041 0.836130
Si Si3 0.750000 0.000000 0.145565
Si Si4 0.402883 0.914633 0.214266
Si Si5 0.247220 0.205881 0.589195
Si Si6 0.358712 0.782116 0.922605
Si Si7 0.049159 0.084658 0.569154
Si Si8 0.653182 0.425722 0.356988
O O1 0.914477 0.445411 0.939460
O O2 0.074574 0.495622 0.912702
O O3 0.250000 0.500000 0.841923
O O4 0.151701 0.314168 0.853124
O O5 0.108875 0.459511 0.736129
O O6 0.834990 0.050758 0.206142
O O7 0.697231 0.101966 0.096858
O O8 0.500000 0.851760 0.250000
O O9 0.329479 0.854192 0.147584
O O10 0.444906 0.020753 0.160844
O O11 0.309575 0.260287 0.511387
O O12 0.161470 0.123612 0.552942
O O13 0.189098 0.297810 0.643587
O O14 0.474022 0.811949 0.931342
O O15 0.000000 0.000000 0.500000
O O16 0.750000 0.500000 0.368154
#
# Coordination Sequence:
#
# PCOD9424419 Si02
#       8
#     4   8   4   8   8   8   8   8
#     4  12  22  46  78 104 144 188 246 308 382 450
#     4  11  26  48  74 112 150 192 257 317 386 466
#     4  12  24  42  66 104 148 198 250 318 382 460
#     4  12  25  43  67 100 149 196 251 315 377 465
#     4  12  25  44  72 102 151 199 248 321 397 460
#     4  12  25  42  72 105 146 199 253 311 388 472
#     4  12  24  42  65 105 144 191 253 304 381 465
#     4  11  26  49  75 108 146 191 251 315 387 464
#
# _framework density 22.391628000000001
#
# number of rings (size 3 to 8) (size 9 to 14) (size 15 to 20)
#    0.000    0.286    4.286    5.143    0.000    0.000 
#    0.000    7.143    0.000    0.000    0.000    0.000 
#    0.000    0.000    0.000    0.000    0.000    0.000 
#
# Total GULP energy -312123.540277 kJ/mol
# GULP energy per Si atom -5573.634648 kJ/mol
# Density = 2.234066 g / cm^3
# Si number density = 22.391628 Si / 1000 Ang^3
#
#
#
# Elastic Constant Matrix: (Units=GPa)
#
#
# Indices 1 2 3 4 5 6 
#
# 1 154.9400 25.0769 41.2235 0.0000 0.0000 0.0000
# 2 25.0769 48.7191 16.6980 0.0000 0.0000 0.0000
# 3 41.2235 16.6980 119.2134 0.0000 0.0000 0.0000
# 4 0.0000 0.0000 0.0000 14.3833 0.0000 0.0000
# 5 0.0000 0.0000 0.0000 0.0000 9.6442 0.0000
# 6 0.0000 0.0000 0.0000 0.0000 0.0000 10.9835
#
#
#
# Elastic Compliance Matrix: (Units=1/GPa)
#
#
# Indices 1 2 3 4 5 6 
#
# 1 0.007539 -0.003137 -0.002167 0.000000 0.000000 0.000000
# 2 -0.003137 0.022867 -0.002118 0.000000 0.000000 0.000000
# 3 -0.002167 -0.002118 0.009434 0.000000 0.000000 0.000000
# 4 0.000000 0.000000 0.000000 0.069525 0.000000 0.000000
# 5 0.000000 0.000000 0.000000 0.000000 0.103689 0.000000
# 6 0.000000 0.000000 0.000000 0.000000 0.000000 0.091046
#
#
# Mechanical properties :
#
#
# Convention : Reuss Voigt Hill
#
# Bulk Modulus (GPa) = 40.00939 54.31881 47.16410
# Shear Modulus (GPa) = 15.27759 22.99379 19.13569
#
# Velocity S-wave (km/s) = 2.61490 3.20799 2.92651
# Velocity P-wave (km/s) = 5.19844 6.16708 5.70336
#
# Compressibility (1/GPa) = 0.02499413
#
# Stress axis : x y z
#
# Youngs Moduli (GPa) = 132.65154 43.73180 105.99462
#
# Poissons Ratio (x) = 0.13721 0.22973
# Poissons Ratio (y) = 0.41618 0.22449
# Poissons Ratio (z) = 0.28750 0.09262
#
# Static dielectric constant tensor:
#      x y z
#    x 1.834260 0.000000 0.000000 
#    y 0.000000 1.873870 0.000000 
#    z 0.000000 0.000000 1.833760 
# 
# From -- ./inp_files/13544.got.cif
#   From: 2010.05.17/outbox.cif.g08.bks.cpg/sg54_7_cif.got.tgz:13544.got - 2010.06.03 13:09:01.
