data_PCOD9424817
_publ_section_title
;
Structure prediction by ZEFSAII (Michael W. Deem and Ramdas Pophale) SiO2 
 PCOD9424817
Probable space group: P B A M
;
_chemical_formula_sum "Si O2"
_cell_formula_units_Z 58
_cell_length_a 18.582707
_cell_length_b 5.507026
_cell_length_c 25.676424
_cell_angle_alpha 90.000000
_cell_angle_beta 90.000000
_cell_angle_gamma 90.000000
_cell_volume 2627.608420
_symmetry_space_group_name_H-M "P B A M"
_symmetry_group_IT_number 55
_symmetry_cell_setting 'orthorhombic'
loop_
_space_group_symop_operation_xyz
x,y,z
-x,-y,z
1/2+x,1/2-y,-z
1/2-x,1/2+y,-z
-x,-y,-z
x,y,-z
1/2-x,1/2+y,z
1/2+x,1/2-y,z
loop_
_atom_site_type_symbol
_atom_site_label
_atom_site_fract_x
_atom_site_fract_y
_atom_site_fract_z
Si Si1 0.221884 0.912539 0.439757
Si Si2 0.607855 0.637304 0.156968
Si Si3 0.401135 0.860074 0.806719
Si Si4 0.746342 0.612360 0.231893
Si Si5 0.794522 0.202220 0.060892
Si Si6 0.544537 0.247665 0.692848
Si Si7 0.000000 0.500000 0.500000
Si Si8 0.926433 0.843820 0.580175
O O1 0.246710 0.886569 0.500000
O O2 0.263537 0.146237 0.416392
O O3 0.138849 0.991970 0.439508
O O4 0.574574 0.369489 0.159374
O O5 0.674150 0.610249 0.198039
O O6 0.639458 0.693735 0.100539
O O7 0.568720 0.876799 0.178079
O O8 0.313614 0.886171 0.808403
O O9 0.415445 0.798127 0.746738
O O10 0.751854 0.362798 0.262662
O O11 0.750586 0.452928 0.070051
O O12 0.815299 0.201820 0.000000
O O13 0.500000 0.500000 0.699136
O O14 0.588989 0.281261 0.640098
O O15 0.500000 0.000000 0.684324
O O16 0.054690 0.387567 0.545183
O O17 0.000000 0.000000 0.577388
#
# Coordination Sequence:
#
# PCOD9424817 Si02
#       8
#     8   8   8   8   8   8   2   8
#     4  10  23  39  61  90 129 164 198 250 315 371
#     4  10  17  30  50  75 105 146 191 225 268 347
#     4  10  19  32  52  72 100 143 182 225 280 342
#     4   8  14  24  42  67  94 129 175 212 247 311
#     4  10  18  27  43  72 114 157 193 237 287 334
#     4  11  24  42  59  85 117 145 185 258 321 355
#     4  12  22  40  72 102 120 164 232 262 308 398
#     4  11  25  41  69  99 129 166 222 270 316 392
#
# _framework density 22.073302000000002
#
# number of rings (size 3 to 8) (size 9 to 14) (size 15 to 20)
#    0.000    1.931    1.379    4.345    1.931    0.000 
#    0.000    4.138    0.000    0.000    0.000    0.000 
#    0.000   11.034    0.000    0.000    0.000    0.000 
#
# Total GULP energy -323089.510759 kJ/mol
# GULP energy per Si atom -5570.508806 kJ/mol
# Density = 2.202306 g / cm^3
# Si number density = 22.073302 Si / 1000 Ang^3
#
#
#
# Elastic Constant Matrix: (Units=GPa)
#
#
# Indices 1 2 3 4 5 6 
#
# 1 47.6068 9.0567 1.8620 0.0000 0.0000 0.0000
# 2 9.0567 174.0204 22.9607 0.0000 0.0000 0.0000
# 3 1.8620 22.9607 107.0157 0.0000 0.0000 0.0000
# 4 0.0000 0.0000 0.0000 271.5596 0.0000 0.0000
# 5 0.0000 0.0000 0.0000 0.0000 4.2225 0.0000
# 6 0.0000 0.0000 0.0000 0.0000 0.0000 36.1377
#
#
#
# Elastic Compliance Matrix: (Units=1/GPa)
#
#
# Indices 1 2 3 4 5 6 
#
# 1 0.021217 -0.001086 -0.000136 0.000000 0.000000 0.000000
# 2 -0.001086 0.005969 -0.001262 0.000000 0.000000 0.000000
# 3 -0.000136 -0.001262 0.009618 0.000000 0.000000 0.000000
# 4 0.000000 0.000000 0.000000 0.003682 0.000000 0.000000
# 5 0.000000 0.000000 0.000000 0.000000 0.236824 0.000000
# 6 0.000000 0.000000 0.000000 0.000000 0.000000 0.027672
#
#
# Mechanical properties :
#
#
# Convention : Reuss Voigt Hill
#
# Bulk Modulus (GPa) = 31.41111 44.04464 37.72787
# Shear Modulus (GPa) = 15.59755 82.03486 48.81621
#
# Velocity S-wave (km/s) = 2.66113 6.10290 4.70781
# Velocity P-wave (km/s) = 4.86861 8.34612 6.83232
#
# Compressibility (1/GPa) = 0.03183587
#
# Stress axis : x y z
#
# Youngs Moduli (GPa) = 47.13120 167.51870 103.97671
#
# Poissons Ratio (x) = 0.18197 0.01415
# Poissons Ratio (y) = 0.05120 0.13121
# Poissons Ratio (z) = 0.00641 0.21139
#
# Static dielectric constant tensor:
#      x y z
#    x 1.847100 0.000000 0.000000 
#    y 0.000000 1.895320 0.000000 
#    z 0.000000 0.000000 1.756650 
# 
# From -- ./inp_files/24010.got.cif
#   From: 2010.05.17/outbox.cif.g08.bks.cpg/sg55_13_cif.got.tgz:24010.got - 2010.06.03 13:27:54.
