data_PCOD9424128
_publ_section_title
;
Structure prediction by ZEFSAII (Michael W. Deem and Ramdas Pophale) SiO2 
 PCOD9424128
Probable space group: P C C A
;
_chemical_formula_sum "Si O2"
_cell_formula_units_Z 48
_cell_length_a 14.319604
_cell_length_b 10.911101
_cell_length_c 14.374385
_cell_angle_alpha 90.000000
_cell_angle_beta 90.000000
_cell_angle_gamma 90.000000
_cell_volume 2245.891940
_symmetry_space_group_name_H-M "P C C A"
_symmetry_group_IT_number 54
_symmetry_cell_setting 'orthorhombic'
loop_
_space_group_symop_operation_xyz
x,y,z
1/2-x,-y,z
1/2+x,-y,1/2-z
-x,y,1/2-z
-x,-y,-z
1/2+x,y,-z
1/2-x,y,1/2+z
x,-y,1/2+z
loop_
_atom_site_type_symbol
_atom_site_label
_atom_site_fract_x
_atom_site_fract_y
_atom_site_fract_z
Si Si1 0.534938 0.947675 0.351005
Si Si2 0.724753 0.137200 0.792327
Si Si3 0.882579 0.798514 0.415835
Si Si4 0.641216 0.468299 0.734412
Si Si5 0.855441 0.785357 0.619610
Si Si6 0.007301 0.555951 0.103492
O O1 0.500000 0.995350 0.250000
O O2 0.620378 0.853553 0.332497
O O3 0.449078 0.867114 0.386184
O O4 0.571151 0.066188 0.406911
O O5 0.804818 0.218218 0.836053
O O6 0.720135 0.145388 0.681824
O O7 0.750000 0.000000 0.820011
O O8 0.830063 0.771593 0.512794
O O9 0.959028 0.694600 0.405430
O O10 0.750000 0.500000 0.747265
O O11 0.630846 0.337283 0.681144
O O12 0.581824 0.483131 0.829939
O O13 0.589642 0.554770 0.659606
O O14 0.000000 0.500000 0.000000
#
# Coordination Sequence:
#
# PCOD9424128 Si02
#       6
#     8   8   8   8   8   8
#     4   9  21  38  68  98 137 178 216 282 349 409
#     4   9  21  39  63  98 136 172 219 280 341 410
#     4  11  22  43  66 103 135 175 233 279 341 413
#     4  11  26  47  69  96 140 183 229 282 348 410
#     4  11  22  43  67  96 132 179 227 277 352 410
#     4  11  25  45  70 102 136 179 237 287 340 410
#
# _framework density 21.372354999999999
#
# number of rings (size 3 to 8) (size 9 to 14) (size 15 to 20)
#    0.000    1.667    1.667    1.500    9.333    2.667 
#    9.000    0.000    0.000    0.000    0.000    0.000 
#    0.000    0.000    0.000    0.000    0.000    0.000 
#
# Total GULP energy -267709.475331 kJ/mol
# GULP energy per Si atom -5577.280736 kJ/mol
# Density = 2.132371 g / cm^3
# Si number density = 21.372355 Si / 1000 Ang^3
#
#
#
# Elastic Constant Matrix: (Units=GPa)
#
#
# Indices 1 2 3 4 5 6 
#
# 1 100.6444 20.8253 49.3369 0.0000 0.0000 0.0000
# 2 20.8253 84.1618 17.3944 0.0000 0.0000 0.0000
# 3 49.3369 17.3944 110.4024 0.0000 0.0000 0.0000
# 4 0.0000 0.0000 0.0000 25.3568 0.0000 0.0000
# 5 0.0000 0.0000 0.0000 0.0000 24.0012 0.0000
# 6 0.0000 0.0000 0.0000 0.0000 0.0000 10.5512
#
#
#
# Elastic Compliance Matrix: (Units=1/GPa)
#
#
# Indices 1 2 3 4 5 6 
#
# 1 0.013071 -0.002095 -0.005511 0.000000 0.000000 0.000000
# 2 -0.002095 0.012618 -0.001052 0.000000 0.000000 0.000000
# 3 -0.005511 -0.001052 0.011686 0.000000 0.000000 0.000000
# 4 0.000000 0.000000 0.000000 0.039437 0.000000 0.000000
# 5 0.000000 0.000000 0.000000 0.000000 0.041665 0.000000
# 6 0.000000 0.000000 0.000000 0.000000 0.000000 0.094776
#
#
# Mechanical properties :
#
#
# Convention : Reuss Voigt Hill
#
# Bulk Modulus (GPa) = 49.85299 52.25797 51.05548
# Shear Modulus (GPa) = 21.07433 25.82530 23.44981
#
# Velocity S-wave (km/s) = 3.14356 3.47990 3.31600
# Velocity P-wave (km/s) = 6.04587 6.37578 6.21301
#
# Compressibility (1/GPa) = 0.02005898
#
# Stress axis : x y z
#
# Youngs Moduli (GPa) = 76.50429 79.25373 85.57033
#
# Poissons Ratio (x) = 0.16606 0.47159
# Poissons Ratio (y) = 0.16030 0.08999
# Poissons Ratio (z) = 0.42163 0.08334
#
# Static dielectric constant tensor:
#      x y z
#    x 1.828860 0.000000 0.000000 
#    y 0.000000 1.852970 0.000000 
#    z 0.000000 0.000000 1.809740 
# 
# From -- ./inp_files/13405.got.cif
#   From: 2010.05.17/outbox.cif.g08.bks.cpg/sg54_7_cif.got.tgz:13405.got - 2010.06.03 13:09:01.
