data_PCOD9424697
_publ_section_title
;
Structure prediction by ZEFSAII (Michael W. Deem and Ramdas Pophale) SiO2 
 PCOD9424697
Probable space group: P B A M
;
_chemical_formula_sum "Si O2"
_cell_formula_units_Z 48
_cell_length_a 5.248943
_cell_length_b 22.041943
_cell_length_c 24.555113
_cell_angle_alpha 90.000000
_cell_angle_beta 90.000000
_cell_angle_gamma 90.000000
_cell_volume 2840.950513
_symmetry_space_group_name_H-M "P B A M"
_symmetry_group_IT_number 55
_symmetry_cell_setting 'orthorhombic'
loop_
_space_group_symop_operation_xyz
x,y,z
-x,-y,z
1/2+x,1/2-y,-z
1/2-x,1/2+y,-z
-x,-y,-z
x,y,-z
1/2-x,1/2+y,z
1/2+x,1/2-y,z
loop_
_atom_site_type_symbol
_atom_site_label
_atom_site_fract_x
_atom_site_fract_y
_atom_site_fract_z
Si Si1 0.533226 0.318940 0.719779
Si Si2 0.008030 0.290851 0.000000
Si Si3 0.400771 0.717503 0.500000
Si Si4 0.076766 0.569921 0.565501
Si Si5 0.564496 0.636597 0.399119
Si Si6 0.104389 0.710385 0.114956
Si Si7 0.966632 0.679718 0.765014
O O1 0.451467 0.327653 0.657778
O O2 0.310036 0.347494 0.755952
O O3 0.562902 0.249381 0.741786
O O4 0.807754 0.348015 0.729633
O O5 0.954158 0.322804 0.942238
O O6 0.793201 0.236817 0.000000
O O7 0.596981 0.774062 0.500000
O O8 0.487239 0.682369 0.446627
O O9 0.105955 0.580123 0.500000
O O10 0.843247 0.609902 0.588656
O O11 0.000000 0.500000 0.572607
O O12 0.342085 0.586085 0.595122
O O13 0.392904 0.735296 0.114766
O O14 0.050034 0.679292 0.172417
#
# Coordination Sequence:
#
# PCOD9424697 Si02
#       7
#     8   4   4   8   8   8   8
#     4  10  20  28  45  59  88 115 153 181 218 255
#     4   8  16  20  34  52  72 106 144 218 246 242
#     4  12  26  36  49  70 103 134 146 178 224 272
#     4  11  22  41  62  77  90 111 145 201 255 292
#     4  12  23  39  52  76  98 119 159 188 231 300
#     4  10  14  25  36  53  79 108 162 203 233 253
#     4  10  17  30  40  61  83 131 159 189 208 258
#
# _framework density 16.895754
#
# number of rings (size 3 to 8) (size 9 to 14) (size 15 to 20)
#    0.000    1.500    5.000    2.500    4.667    1.333 
#    0.000    0.000    0.000    0.000    0.000    0.000 
#    0.000    0.000    0.000    0.000    0.000    0.000 
#
# Total GULP energy -267227.239968 kJ/mol
# GULP energy per Si atom -5567.234166 kJ/mol
# Density = 1.685730 g / cm^3
# Si number density = 16.895754 Si / 1000 Ang^3
#
#
#
# Elastic Constant Matrix: (Units=GPa)
#
#
# Indices 1 2 3 4 5 6 
#
# 1 82.5158 -9.0891 -23.6518 0.0000 0.0000 0.0000
# 2 -9.0891 17.7207 5.5591 0.0000 0.0000 0.0000
# 3 -23.6518 5.5591 92.1312 0.0000 0.0000 0.0000
# 4 0.0000 0.0000 0.0000 0.1879 0.0000 0.0000
# 5 0.0000 0.0000 0.0000 0.0000 28.0670 0.0000
# 6 0.0000 0.0000 0.0000 0.0000 0.0000 16.9803
#
#
#
# Elastic Compliance Matrix: (Units=1/GPa)
#
#
# Indices 1 2 3 4 5 6 
#
# 1 0.013686 0.006032 0.003150 0.000000 0.000000 0.000000
# 2 0.006032 0.060178 -0.002083 0.000000 0.000000 0.000000
# 3 0.003150 -0.002083 0.011788 0.000000 0.000000 0.000000
# 4 0.000000 0.000000 0.000000 5.320567 0.000000 0.000000
# 5 0.000000 0.000000 0.000000 0.000000 0.035629 0.000000
# 6 0.000000 0.000000 0.000000 0.000000 0.000000 0.058892
#
#
# Mechanical properties :
#
#
# Convention : Reuss Voigt Hill
#
# Bulk Modulus (GPa) = 10.01507 15.33380 12.67443
# Shear Modulus (GPa) = 0.90583 23.68369 12.29476
#
# Velocity S-wave (km/s) = 0.73300 3.74806 2.70049
# Velocity P-wave (km/s) = 2.58008 5.27502 4.15227
#
# Compressibility (1/GPa) = 0.09984953
#
# Stress axis : x y z
#
# Youngs Moduli (GPa) = 73.06722 16.61732 84.82998
#
# Poissons Ratio (x) = -0.10023 -0.26717
# Poissons Ratio (y) = -0.44072 0.17667
# Poissons Ratio (z) = -0.23013 0.03461
#
# Static dielectric constant tensor:
#      x y z
#    x 1.662400 0.000000 0.000000 
#    y 0.000000 1.703130 0.000000 
#    z 0.000000 0.000000 1.632270 
# 
# From -- ./inp_files/23332.got.cif
#   From: 2010.05.17/outbox.cif.g08.bks.cpg/sg55_12_cif.got.tgz:23332.got - 2010.06.03 13:27:54.
