data_PCOD9424981
_publ_section_title
;
Structure prediction by ZEFSAII (Michael W. Deem and Ramdas Pophale) SiO2 
 PCOD9424981
Probable space group: P B A M
;
_chemical_formula_sum "Si O2"
_cell_formula_units_Z 64
_cell_length_a 19.188331
_cell_length_b 21.217365
_cell_length_c 8.832954
_cell_angle_alpha 90.000000
_cell_angle_beta 90.000000
_cell_angle_gamma 90.000000
_cell_volume 3596.123663
_symmetry_space_group_name_H-M "P B A M"
_symmetry_group_IT_number 55
_symmetry_cell_setting 'orthorhombic'
loop_
_space_group_symop_operation_xyz
x,y,z
-x,-y,z
1/2+x,1/2-y,-z
1/2-x,1/2+y,-z
-x,-y,-z
x,y,-z
1/2-x,1/2+y,z
1/2+x,1/2-y,z
loop_
_atom_site_type_symbol
_atom_site_label
_atom_site_fract_x
_atom_site_fract_y
_atom_site_fract_z
Si Si1 0.736484 0.868573 0.680410
Si Si2 0.618519 0.331898 0.817807
Si Si3 0.218236 0.989426 0.683016
Si Si4 0.077951 0.524486 0.334553
Si Si5 0.573622 0.470896 0.817314
Si Si6 0.558931 0.198179 0.182758
Si Si7 0.907720 0.350601 0.176295
Si Si8 0.668176 0.101758 0.324833
O O1 0.739399 0.865564 0.500000
O O2 0.804347 0.835259 0.748992
O O3 0.665156 0.837720 0.740032
O O4 0.744105 0.943499 0.724235
O O5 0.580448 0.397114 0.775608
O O6 0.577614 0.269301 0.771257
O O7 0.624588 0.330898 0.000000
O O8 0.218101 0.987570 0.500000
O O9 0.258479 0.926113 0.735697
O O10 0.140427 0.994930 0.745855
O O11 0.093309 0.555178 0.500000
O O12 0.085027 0.574543 0.202818
O O13 0.124459 0.463031 0.323600
O O14 0.000000 0.500000 0.336634
O O15 0.500000 0.500000 0.769893
O O16 0.578527 0.475499 0.000000
O O17 0.481093 0.178053 0.234798
O O18 0.620813 0.152748 0.240621
O O19 0.557929 0.194153 0.000000
O O20 0.900824 0.334754 0.000000
O O21 0.676622 0.122090 0.500000
#
# Coordination Sequence:
#
# PCOD9424981 Si02
#       8
#     8   8   8   8   8   8   8   8
#     4  10  19  34  55  77 101 131 173 219 264 315
#     4   9  19  38  57  74 102 137 172 217 269 318
#     4   9  18  32  51  77 106 134 164 208 264 312
#     4  10  18  30  47  70 103 141 175 215 260 295
#     4   9  18  34  58  83 101 124 168 222 272 320
#     4  10  22  36  50  73 108 147 180 211 257 318
#     4  11  21  31  48  76 106 139 179 218 256 309
#     4  10  19  32  50  73 106 143 176 212 256 306
#
# _framework density 17.796942000000001
#
# number of rings (size 3 to 8) (size 9 to 14) (size 15 to 20)
#    0.000    2.250    2.500    0.750    0.000    3.000 
#    0.000    1.250    0.000    3.000    0.000    0.000 
#    0.000    0.000    0.000    0.000    0.000    0.000 
#
# Total GULP energy -356551.795096 kJ/mol
# GULP energy per Si atom -5571.121798 kJ/mol
# Density = 1.775644 g / cm^3
# Si number density = 17.796942 Si / 1000 Ang^3
#
#
#
# Elastic Constant Matrix: (Units=GPa)
#
#
# Indices 1 2 3 4 5 6 
#
# 1 153.6229 71.2460 30.8915 0.0000 0.0000 0.0000
# 2 71.2460 71.6577 21.0760 0.0000 0.0000 0.0000
# 3 30.8915 21.0760 17.0029 0.0000 0.0000 0.0000
# 4 0.0000 0.0000 0.0000 40.6010 0.0000 0.0000
# 5 0.0000 0.0000 0.0000 0.0000 17.7699 0.0000
# 6 0.0000 0.0000 0.0000 0.0000 0.0000 21.1638
#
#
#
# Elastic Compliance Matrix: (Units=1/GPa)
#
#
# Indices 1 2 3 4 5 6 
#
# 1 0.013578 -0.009827 -0.012488 0.000000 0.000000 0.000000
# 2 -0.009827 0.029075 -0.018185 0.000000 0.000000 0.000000
# 3 -0.012488 -0.018185 0.104043 0.000000 0.000000 0.000000
# 4 0.000000 0.000000 0.000000 0.024630 0.000000 0.000000
# 5 0.000000 0.000000 0.000000 0.000000 0.056275 0.000000
# 6 0.000000 0.000000 0.000000 0.000000 0.000000 0.047250
#
#
# Mechanical properties :
#
#
# Convention : Reuss Voigt Hill
#
# Bulk Modulus (GPa) = 15.22174 54.30116 34.76145
# Shear Modulus (GPa) = 13.23626 23.84495 18.54060
#
# Velocity S-wave (km/s) = 2.73011 3.66435 3.23117
# Velocity P-wave (km/s) = 4.30228 6.96283 5.78751
#
# Compressibility (1/GPa) = 0.06569550
#
# Stress axis : x y z
#
# Youngs Moduli (GPa) = 73.64746 34.39428 9.61140
#
# Poissons Ratio (x) = 0.33800 0.12003
# Poissons Ratio (y) = 0.72375 0.17478
# Poissons Ratio (z) = 0.91971 0.62546
#
# Static dielectric constant tensor:
#      x y z
#    x 1.676630 0.000000 0.000000 
#    y 0.000000 1.601160 0.000000 
#    z 0.000000 0.000000 1.621680 
# 
# From -- ./inp_files/9125.got.cif
#   From: 2010.05.17/outbox.cif.g08.bks.cpg/sg55_5_cif.got.tgz:9125.got - 2010.06.03 13:27:54.
