data_PCOD9424154
_publ_section_title
;
Structure prediction by ZEFSAII (Michael W. Deem and Ramdas Pophale) SiO2 
 PCOD9424154
Probable space group: P C C A
;
_chemical_formula_sum "Si O2"
_cell_formula_units_Z 64
_cell_length_a 9.250293
_cell_length_b 20.123506
_cell_length_c 16.861235
_cell_angle_alpha 90.000000
_cell_angle_beta 90.000000
_cell_angle_gamma 90.000000
_cell_volume 3138.690681
_symmetry_space_group_name_H-M "P C C A"
_symmetry_group_IT_number 54
_symmetry_cell_setting 'orthorhombic'
loop_
_space_group_symop_operation_xyz
x,y,z
1/2-x,-y,z
1/2+x,-y,1/2-z
-x,y,1/2-z
-x,-y,-z
1/2+x,y,-z
1/2-x,y,1/2+z
x,-y,1/2+z
loop_
_atom_site_type_symbol
_atom_site_label
_atom_site_fract_x
_atom_site_fract_y
_atom_site_fract_z
Si Si1 0.158335 0.366222 0.665424
Si Si2 0.410712 0.221890 0.167908
Si Si3 0.063010 0.207558 0.161718
Si Si4 0.249709 0.423203 0.824221
Si Si5 0.476810 0.431589 0.454959
Si Si6 0.077663 0.078242 0.663945
Si Si7 0.424848 0.935404 0.163704
Si Si8 0.485060 0.651710 0.108184
O O1 0.075738 0.298234 0.640316
O O2 0.163455 0.380349 0.759160
O O3 0.323777 0.361551 0.638447
O O4 0.088028 0.425787 0.617162
O O5 0.500000 0.220761 0.250000
O O6 0.235969 0.216091 0.173040
O O7 0.453715 0.151218 0.126982
O O8 0.030733 0.134863 0.125554
O O9 0.000000 0.210215 0.250000
O O10 0.996101 0.269192 0.114876
O O11 0.250000 0.500000 0.797169
O O12 0.175417 0.424463 0.910600
O O13 0.403653 0.388913 0.837338
O O14 0.500000 0.500000 0.500000
O O15 0.498846 0.374639 0.519440
O O16 0.251333 0.071520 0.674457
O O17 0.000000 0.078917 0.750000
O O18 0.037596 0.006882 0.625321
O O19 0.500000 0.936214 0.250000
#
# Coordination Sequence:
#
# PCOD9424154 Si02
#       8
#     8   8   8   8   8   8   8   8
#     4  11  25  40  62  84 112 146 189 237 280 339
#     4   9  16  30  48  74 106 140 182 229 278 328
#     4   9  17  30  49  77 109 146 187 231 276 334
#     4  12  25  42  63  87 110 147 194 234 287 344
#     4  12  26  44  60  84 114 145 185 236 287 340
#     4   8  13  21  39  65 100 140 174 218 273 324
#     4   8  13  22  38  66 103 139 178 220 269 324
#     4  11  23  40  62  84 115 149 186 232 288 333
#
# _framework density 20.390668000000002
#
# number of rings (size 3 to 8) (size 9 to 14) (size 15 to 20)
#    0.000    2.000    1.250    3.750    1.750    1.000 
#    0.000    0.000    0.000    0.000    0.000    0.875 
#    0.000    2.000    0.000    1.375    0.000    2.625 
#
# Total GULP energy -356395.817356 kJ/mol
# GULP energy per Si atom -5568.684646 kJ/mol
# Density = 2.034426 g / cm^3
# Si number density = 20.390668 Si / 1000 Ang^3
#
#
#
# Elastic Constant Matrix: (Units=GPa)
#
#
# Indices 1 2 3 4 5 6 
#
# 1 38.7305 32.9976 4.5411 0.0000 0.0000 0.0000
# 2 32.9976 164.2082 30.6449 0.0000 0.0000 0.0000
# 3 4.5411 30.6449 54.3507 0.0000 0.0000 0.0000
# 4 0.0000 0.0000 0.0000 -6.8615 0.0000 0.0000
# 5 0.0000 0.0000 0.0000 0.0000 16.4199 0.0000
# 6 0.0000 0.0000 0.0000 0.0000 0.0000 22.1726
#
#
#
# Elastic Compliance Matrix: (Units=1/GPa)
#
#
# Indices 1 2 3 4 5 6 
#
# 1 0.031205 -0.006464 0.001038 0.000000 0.000000 0.000000
# 2 -0.006464 0.008145 -0.004052 0.000000 0.000000 0.000000
# 3 0.001038 -0.004052 0.020597 0.000000 0.000000 0.000000
# 4 0.000000 0.000000 0.000000 -0.145740 0.000000 0.000000
# 5 0.000000 0.000000 0.000000 0.000000 0.060902 0.000000
# 6 0.000000 0.000000 0.000000 0.000000 0.000000 0.045101
#
#
# Mechanical properties :
#
#
# Convention : Reuss Voigt Hill
#
# Bulk Modulus (GPa) = 24.39663 43.73962 34.06812
# Shear Modulus (GPa) = 94.64073 18.95325 56.79699
#
# Velocity S-wave (km/s) = 6.82015 3.05209 5.28345
# Velocity P-wave (km/s) = 8.60290 5.82389 7.34601
#
# Compressibility (1/GPa) = 0.04098927
#
# Stress axis : x y z
#
# Youngs Moduli (GPa) = 32.04589 122.77321 48.55024
#
# Poissons Ratio (x) = 0.79365 -0.05037
# Poissons Ratio (y) = 0.20715 0.19674
# Poissons Ratio (z) = -0.03325 0.49753
#
# Static dielectric constant tensor:
#      x y z
#    x 2.166850 0.000000 0.000000 
#    y 0.000000 1.844550 0.000000 
#    z 0.000000 0.000000 1.761810 
# 
# From -- ./inp_files/16873.got.cif
#   From: 2010.05.17/outbox.cif.g08.bks.cpg/sg54_9_cif.got.tgz:16873.got - 2010.06.03 13:09:01.
