data_PCOD9424920
_publ_section_title
;
Structure prediction by ZEFSAII (Michael W. Deem and Ramdas Pophale) SiO2 
 PCOD9424920
Probable space group: P B A M
;
_chemical_formula_sum "Si O2"
_cell_formula_units_Z 64
_cell_length_a 13.117928
_cell_length_b 23.154777
_cell_length_c 9.315540
_cell_angle_alpha 90.000000
_cell_angle_beta 90.000000
_cell_angle_gamma 90.000000
_cell_volume 2829.527249
_symmetry_space_group_name_H-M "P B A M"
_symmetry_group_IT_number 55
_symmetry_cell_setting 'orthorhombic'
loop_
_space_group_symop_operation_xyz
x,y,z
-x,-y,z
1/2+x,1/2-y,-z
1/2-x,1/2+y,-z
-x,-y,-z
x,y,-z
1/2-x,1/2+y,z
1/2+x,1/2-y,z
loop_
_atom_site_type_symbol
_atom_site_label
_atom_site_fract_x
_atom_site_fract_y
_atom_site_fract_z
Si Si1 0.098669 0.271328 0.335873
Si Si2 0.350647 0.191257 0.846972
Si Si3 0.314340 0.409051 0.172329
Si Si4 0.907544 0.441113 0.164206
Si Si5 0.889262 0.840513 0.837648
Si Si6 0.177823 0.036848 0.825601
Si Si7 0.656573 0.704164 0.335125
Si Si8 0.095677 0.402620 0.327737
O O1 0.076132 0.257946 0.500000
O O2 0.069079 0.214460 0.247399
O O3 0.221238 0.283538 0.325577
O O4 0.062454 0.336046 0.303546
O O5 0.394571 0.127787 0.847646
O O6 0.230187 0.177524 0.844489
O O7 0.382119 0.234394 0.722074
O O8 0.374498 0.220476 0.000000
O O9 0.362110 0.472288 0.204265
O O10 0.366554 0.352374 0.239823
O O11 0.202180 0.410316 0.244762
O O12 0.306146 0.403347 0.000000
O O13 0.796883 0.460743 0.224181
O O14 0.010331 0.443322 0.257625
O O15 0.915611 0.463233 0.000000
O O16 0.884188 0.906170 0.776527
O O17 0.930451 0.842759 0.000000
O O18 0.182065 0.042907 0.000000
O O19 0.632057 0.692422 0.500000
O O20 0.106817 0.411042 0.500000
#
# Coordination Sequence:
#
# PCOD9424920 Si02
#       8
#     8   8   8   8   8   8   8   8
#     4   8  15  26  38  54  77 102 127 161 204 244
#     4   8  14  25  42  61  78  99 130 167 205 247
#     4  10  18  29  44  58  78 111 145 171 201 239
#     4   9  17  30  45  60  80 108 144 177 204 240
#     4   8  13  24  42  60  76  95 125 165 206 244
#     4   8  16  29  43  60  81 106 137 174 207 236
#     4   9  16  26  40  59  82 103 128 166 208 245
#     4  10  20  31  40  56  84 112 141 175 207 239
#
# _framework density 22.618618999999999
#
# number of rings (size 3 to 8) (size 9 to 14) (size 15 to 20)
#    0.000    3.250    0.000    3.375    0.000    4.500 
#    0.000    6.875    0.000    0.000    0.000    0.000 
#    0.000    1.000    0.000   11.250    0.000    6.375 
#
# Total GULP energy -356742.239822 kJ/mol
# GULP energy per Si atom -5574.097497 kJ/mol
# Density = 2.256714 g / cm^3
# Si number density = 22.618619 Si / 1000 Ang^3
#
#
#
# Elastic Constant Matrix: (Units=GPa)
#
#
# Indices 1 2 3 4 5 6 
#
# 1 33.4913 10.9224 -5.6490 0.0000 0.0000 0.0000
# 2 10.9224 181.9121 68.4711 0.0000 0.0000 0.0000
# 3 -5.6490 68.4711 50.7515 0.0000 0.0000 0.0000
# 4 0.0000 0.0000 0.0000 82.4847 0.0000 0.0000
# 5 0.0000 0.0000 0.0000 0.0000 5.3354 0.0000
# 6 0.0000 0.0000 0.0000 0.0000 0.0000 27.8873
#
#
#
# Elastic Compliance Matrix: (Units=1/GPa)
#
#
# Indices 1 2 3 4 5 6 
#
# 1 0.034457 -0.007136 0.013463 0.000000 0.000000 0.000000
# 2 -0.007136 0.012647 -0.017857 0.000000 0.000000 0.000000
# 3 0.013463 -0.017857 0.045294 0.000000 0.000000 0.000000
# 4 0.000000 0.000000 0.000000 0.012123 0.000000 0.000000
# 5 0.000000 0.000000 0.000000 0.000000 0.187429 0.000000
# 6 0.000000 0.000000 0.000000 0.000000 0.000000 0.035859
#
#
# Mechanical properties :
#
#
# Convention : Reuss Voigt Hill
#
# Bulk Modulus (GPa) = 14.42220 45.96044 30.19132
# Shear Modulus (GPa) = 13.36968 35.96883 24.66925
#
# Velocity S-wave (km/s) = 2.43388 3.99210 3.30610
# Velocity P-wave (km/s) = 3.78000 6.45081 5.28684
#
# Compressibility (1/GPa) = 0.06933753
#
# Stress axis : x y z
#
# Youngs Moduli (GPa) = 29.02193 79.07092 22.07811
#
# Poissons Ratio (x) = 0.56428 -0.29724
# Poissons Ratio (y) = 0.20711 0.39424
# Poissons Ratio (z) = -0.39073 1.41195
#
# Static dielectric constant tensor:
#      x y z
#    x 2.054330 0.000000 0.000000 
#    y 0.000000 1.856900 0.000000 
#    z 0.000000 0.000000 1.805170 
# 
# From -- ./inp_files/8179.got.cif
#   From: 2010.05.17/outbox.cif.g08.bks.cpg/sg55_5_cif.got.tgz:8179.got - 2010.06.03 13:27:54.
