data_PCOD9424875
_publ_section_title
;
Structure prediction by ZEFSAII (Michael W. Deem and Ramdas Pophale) SiO2 
 PCOD9424875
Probable space group: P B A M
;
_chemical_formula_sum "Si O2"
_cell_formula_units_Z 56
_cell_length_a 30.113293
_cell_length_b 13.814464
_cell_length_c 9.124385
_cell_angle_alpha 90.000000
_cell_angle_beta 90.000000
_cell_angle_gamma 90.000000
_cell_volume 3795.735055
_symmetry_space_group_name_H-M "P B A M"
_symmetry_group_IT_number 55
_symmetry_cell_setting 'orthorhombic'
loop_
_space_group_symop_operation_xyz
x,y,z
-x,-y,z
1/2+x,1/2-y,-z
1/2-x,1/2+y,-z
-x,-y,-z
x,y,-z
1/2-x,1/2+y,z
1/2+x,1/2-y,z
loop_
_atom_site_type_symbol
_atom_site_label
_atom_site_fract_x
_atom_site_fract_y
_atom_site_fract_z
Si Si1 0.003685 0.117537 0.831056
Si Si2 0.731685 0.904653 0.825531
Si Si3 0.407294 0.601656 0.674708
Si Si4 0.685851 0.305009 0.674787
Si Si5 0.768331 0.604109 0.325578
Si Si6 0.906403 0.107764 0.176665
Si Si7 0.685904 0.703869 0.174859
O O1 0.046393 0.143233 0.735910
O O2 0.954702 0.150307 0.781363
O O3 0.010939 0.145970 0.000000
O O4 0.000000 0.000000 0.827619
O O5 0.779286 0.871369 0.761607
O O6 0.698677 0.815025 0.793643
O O7 0.718155 0.004389 0.750023
O O8 0.734643 0.916865 0.000000
O O9 0.410115 0.591056 0.500000
O O10 0.364424 0.666424 0.710547
O O11 0.400678 0.496148 0.747151
O O12 0.692508 0.320534 0.500000
O O13 0.698696 0.193807 0.706024
O O14 0.765293 0.591801 0.500000
O O15 0.720773 0.637402 0.261328
O O16 0.864326 0.174498 0.210598
O O17 0.908052 0.092909 0.000000
O O18 0.692494 0.688685 0.000000
#
# Coordination Sequence:
#
# PCOD9424875 Si02
#       7
#     8   8   8   8   8   8   8
#     4   8  15  27  41  58  82 111 138 164 203 253
#     4  10  19  30  45  65  87 110 140 178 213 245
#     4  10  18  27  41  62  86 110 139 174 206 239
#     4   9  19  32  44  61  85 115 146 172 206 250
#     4  10  19  31  45  61  86 116 143 173 208 249
#     4   9  17  29  43  60  85 114 139 165 204 252
#     4   9  18  31  46  64  85 111 143 176 209 246
#
# _framework density 14.753399999999999
#
# number of rings (size 3 to 8) (size 9 to 14) (size 15 to 20)
#    0.000    2.714    0.000    3.000    0.000    7.714 
#    0.000    0.000    0.000    0.000    0.000    1.000 
#    0.000    8.000    0.000    0.000    0.000    0.000 
#
# Total GULP energy -312039.646472 kJ/mol
# GULP energy per Si atom -5572.136544 kJ/mol
# Density = 1.471982 g / cm^3
# Si number density = 14.753400 Si / 1000 Ang^3
#
#
#
# Elastic Constant Matrix: (Units=GPa)
#
#
# Indices 1 2 3 4 5 6 
#
# 1 144.3380 50.0798 48.5648 0.0000 0.0000 0.0000
# 2 50.0798 69.0031 37.8332 0.0000 0.0000 0.0000
# 3 48.5648 37.8332 39.9661 0.0000 0.0000 0.0000
# 4 0.0000 0.0000 0.0000 22.3573 0.0000 0.0000
# 5 0.0000 0.0000 0.0000 0.0000 22.4265 0.0000
# 6 0.0000 0.0000 0.0000 0.0000 0.0000 18.9096
#
#
#
# Elastic Compliance Matrix: (Units=1/GPa)
#
#
# Indices 1 2 3 4 5 6 
#
# 1 0.011790 -0.001459 -0.012946 0.000000 0.000000 0.000000
# 2 -0.001459 0.030311 -0.026921 0.000000 0.000000 0.000000
# 3 -0.012946 -0.026921 0.066236 0.000000 0.000000 0.000000
# 4 0.000000 0.000000 0.000000 0.044728 0.000000 0.000000
# 5 0.000000 0.000000 0.000000 0.000000 0.044590 0.000000
# 6 0.000000 0.000000 0.000000 0.000000 0.000000 0.052883
#
#
# Mechanical properties :
#
#
# Convention : Reuss Voigt Hill
#
# Bulk Modulus (GPa) = 38.93055 58.47365 48.70210
# Shear Modulus (GPa) = 14.63050 20.52730 17.57890
#
# Velocity S-wave (km/s) = 3.15249 3.73414 3.45558
# Velocity P-wave (km/s) = 6.30046 7.63622 7.00027
#
# Compressibility (1/GPa) = 0.02568677
#
# Stress axis : x y z
#
# Youngs Moduli (GPa) = 84.81632 32.99125 15.09748
#
# Poissons Ratio (x) = 0.04813 0.19545
# Poissons Ratio (y) = 0.12374 0.40643
# Poissons Ratio (z) = 1.09801 0.88815
#
# Static dielectric constant tensor:
#      x y z
#    x 1.499270 0.000000 0.000000 
#    y 0.000000 1.471020 0.000000 
#    z 0.000000 0.000000 1.492600 
# 
# From -- ./inp_files/10884.got.cif
#   From: 2010.05.17/outbox.cif.g08.bks.cpg/sg55_6_cif.got.tgz:10884.got - 2010.06.03 13:27:54.
