data_PCOD9424646
_publ_section_title
;
Structure prediction by ZEFSAII (Michael W. Deem and Ramdas Pophale) SiO2 
 PCOD9424646
Probable space group: P C C A
;
_chemical_formula_sum "Si O2"
_cell_formula_units_Z 56
_cell_length_a 15.000000
_cell_length_b 21.000000
_cell_length_c 9.000000
_cell_angle_alpha 90.000000
_cell_angle_beta 90.000000
_cell_angle_gamma 90.000000
_cell_volume 2835.000000
_symmetry_space_group_name_H-M "P C C A"
_symmetry_group_IT_number 54
_symmetry_cell_setting 'orthorhombic'
loop_
_space_group_symop_operation_xyz
x,y,z
1/2-x,-y,z
1/2+x,-y,1/2-z
-x,y,1/2-z
-x,-y,-z
1/2+x,y,-z
1/2-x,y,1/2+z
x,-y,1/2+z
loop_
_atom_site_type_symbol
_atom_site_label
_atom_site_fract_x
_atom_site_fract_y
_atom_site_fract_z
Si Si1 0.663119 0.260252 0.632003
Si Si2 0.000000 0.022955 0.250000
Si Si3 0.796712 0.673001 0.340389
Si Si4 0.815775 0.054448 0.826173
Si Si5 0.359874 0.425543 0.581017
Si Si6 0.895327 0.447409 0.753644
Si Si7 0.500000 0.345585 0.750000
Si Si8 0.158071 0.887475 0.874682
O O1 0.674736 0.274763 0.459056
O O2 0.753046 0.289520 0.703695
O O3 0.578429 0.301220 0.686553
O O4 0.651258 0.186166 0.670649
O O5 0.066731 0.072275 0.339120
O O6 0.084184 0.976084 0.200620
O O7 0.717549 0.625193 0.390082
O O8 0.875677 0.622497 0.318277
O O9 0.748680 0.081650 0.698263
O O10 0.750000 0.000000 0.892682
O O11 0.828960 0.107785 0.949329
O O12 0.352627 0.491758 0.667683
O O13 0.358758 0.443639 0.411040
O O14 0.452032 0.391073 0.629614
O O15 0.000000 0.458963 0.750000
#
# Coordination Sequence:
#
# PCOD9424646 Si02
#       8
#     8   4   8   8   8   8   4   8
#     4  11  23  43  63  87 125 169 215 249 305 376
#     4  10  21  38  66 102 127 164 206 260 312 368
#     4  11  24  41  63  86 125 163 209 257 312 372
#     4  10  21  39  64  97 132 163 203 260 314 361
#     4  11  24  40  61  93 119 159 204 265 325 370
#     4  12  24  39  64  91 121 155 206 266 324 373
#     4  10  23  42  64  88 123 166 212 266 316 378
#     4  11  22  39  66  93 129 171 211 254 309 374
#
# _framework density 19.753086
#
# number of rings (size 3 to 8) (size 9 to 14) (size 15 to 20)
#    0.000    1.143    2.143    4.714    4.000    2.286 
#    0.000    2.857    3.143    0.000    0.000    0.000 
#    0.000    0.000    0.000    0.000    0.000    0.000 
#
# Total GULP energy -311901.003204 kJ/mol
# GULP energy per Si atom -5569.660771 kJ/mol
# Density = 1.970813 g / cm^3
# Si number density = 19.753086 Si / 1000 Ang^3
#
#
#
# Elastic Constant Matrix: (Units=GPa)
#
#
# Indices 1 2 3 4 5 6 
#
# 1 101.4177 10.9298 -0.2622 0.0000 0.0000 0.0000
# 2 10.9298 106.3379 23.4249 0.0000 0.0000 0.0000
# 3 -0.2622 23.4249 50.6319 0.0000 0.0000 0.0000
# 4 0.0000 0.0000 0.0000 33.9343 0.0000 0.0000
# 5 0.0000 0.0000 0.0000 0.0000 15.2898 0.0000
# 6 0.0000 0.0000 0.0000 0.0000 0.0000 54.0276
#
#
#
# Elastic Compliance Matrix: (Units=1/GPa)
#
#
# Indices 1 2 3 4 5 6 
#
# 1 0.009986 -0.001156 0.000586 0.000000 0.000000 0.000000
# 2 -0.001156 0.010605 -0.004912 0.000000 0.000000 0.000000
# 3 0.000586 -0.004912 0.022026 0.000000 0.000000 0.000000
# 4 0.000000 0.000000 0.000000 0.029469 0.000000 0.000000
# 5 0.000000 0.000000 0.000000 0.000000 0.065403 0.000000
# 6 0.000000 0.000000 0.000000 0.000000 0.000000 0.018509
#
#
# Mechanical properties :
#
#
# Convention : Reuss Voigt Hill
#
# Bulk Modulus (GPa) = 31.59144 36.28580 33.93862
# Shear Modulus (GPa) = 28.16704 35.60336 31.88520
#
# Velocity S-wave (km/s) = 3.78028 4.25010 4.02205
# Velocity P-wave (km/s) = 5.92300 6.51874 6.22800
#
# Compressibility (1/GPa) = 0.03165414
#
# Stress axis : x y z
#
# Youngs Moduli (GPa) = 100.13749 94.29619 45.40060
#
# Poissons Ratio (x) = 0.10897 -0.02662
# Poissons Ratio (y) = 0.11572 0.22302
# Poissons Ratio (z) = -0.05872 0.46321
#
# Static dielectric constant tensor:
#      x y z
#    x 1.680930 0.000000 0.000000 
#    y 0.000000 1.713560 0.000000 
#    z 0.000000 0.000000 1.734170 
# 
# From -- ./inp_files/3718.got.cif
#   From: 2010.05.17/outbox.ucp.g08.bks.cvg/sg54_2_cif.got.tgz:3718.got - 2010.06.11 16:34:40.
