data_PCOD9424831
_publ_section_title
;
Structure prediction by ZEFSAII (Michael W. Deem and Ramdas Pophale) SiO2 
 PCOD9424831
Probable space group: P B A M
;
_chemical_formula_sum "Si O2"
_cell_formula_units_Z 56
_cell_length_a 17.466990
_cell_length_b 13.016596
_cell_length_c 13.958162
_cell_angle_alpha 90.000000
_cell_angle_beta 90.000000
_cell_angle_gamma 90.000000
_cell_volume 3173.538211
_symmetry_space_group_name_H-M "P B A M"
_symmetry_group_IT_number 55
_symmetry_cell_setting 'orthorhombic'
loop_
_space_group_symop_operation_xyz
x,y,z
-x,-y,z
1/2+x,1/2-y,-z
1/2-x,1/2+y,-z
-x,-y,-z
x,y,-z
1/2-x,1/2+y,z
1/2+x,1/2-y,z
loop_
_atom_site_type_symbol
_atom_site_label
_atom_site_fract_x
_atom_site_fract_y
_atom_site_fract_z
Si Si1 0.156248 0.113651 0.268122
Si Si2 0.702711 0.152095 0.277024
Si Si3 0.509908 0.686676 0.301212
Si Si4 0.340572 0.422264 0.387636
Si Si5 0.707457 0.538894 0.110094
Si Si6 0.450943 0.896728 0.613641
Si Si7 0.963120 0.113207 0.106231
O O1 0.185184 0.228688 0.261969
O O2 0.177497 0.061882 0.166658
O O3 0.068628 0.122854 0.304114
O O4 0.186430 0.032186 0.345578
O O5 0.771622 0.149157 0.353222
O O6 0.626766 0.102884 0.323919
O O7 0.732329 0.095588 0.180296
O O8 0.581762 0.621562 0.339662
O O9 0.497631 0.794512 0.354249
O O10 0.518394 0.695959 0.186612
O O11 0.351086 0.426033 0.500000
O O12 0.628467 0.602997 0.105744
O O13 0.732703 0.521886 0.000000
O O14 0.433311 0.888457 0.500000
O O15 0.500000 0.000000 0.628492
O O16 0.990970 0.139146 0.000000
O O17 0.000000 0.000000 0.128883
#
# Coordination Sequence:
#
# PCOD9424831 Si02
#       7
#     8   8   8   8   8   8   8
#     4  10  21  35  55  82 115 147 182 237 289 346
#     4  10  22  39  57  81 116 152 194 238 286 345
#     4  11  19  35  58  88 115 143 191 240 295 347
#     4  11  22  35  55  84 116 148 189 243 295 344
#     4  10  20  36  58  85 116 150 187 229 284 345
#     4  10  23  42  62  81 111 160 205 238 282 346
#     4  10  17  31  58  89 118 146 182 229 289 355
#
# _framework density 17.645918999999999
#
# number of rings (size 3 to 8) (size 9 to 14) (size 15 to 20)
#    0.000    1.714    4.286    1.286    0.000    6.857 
#    0.000    2.143    0.000    0.857    0.000    0.000 
#    0.000    0.000    0.000    0.000    0.000    0.000 
#
# Total GULP energy -311787.399528 kJ/mol
# GULP energy per Si atom -5567.632134 kJ/mol
# Density = 1.760576 g / cm^3
# Si number density = 17.645919 Si / 1000 Ang^3
#
#
#
# Elastic Constant Matrix: (Units=GPa)
#
#
# Indices 1 2 3 4 5 6 
#
# 1 72.0932 36.6156 26.0564 0.0000 0.0000 0.0000
# 2 36.6156 59.2381 35.9485 0.0000 0.0000 0.0000
# 3 26.0564 35.9485 119.5555 0.0000 0.0000 0.0000
# 4 0.0000 0.0000 0.0000 18.6862 0.0000 0.0000
# 5 0.0000 0.0000 0.0000 0.0000 24.7752 0.0000
# 6 0.0000 0.0000 0.0000 0.0000 0.0000 16.2409
#
#
#
# Elastic Compliance Matrix: (Units=1/GPa)
#
#
# Indices 1 2 3 4 5 6 
#
# 1 0.020280 -0.012052 -0.000796 0.000000 0.000000 0.000000
# 2 -0.012052 0.027811 -0.005736 0.000000 0.000000 0.000000
# 3 -0.000796 -0.005736 0.010262 0.000000 0.000000 0.000000
# 4 0.000000 0.000000 0.000000 0.053515 0.000000 0.000000
# 5 0.000000 0.000000 0.000000 0.000000 0.040363 0.000000
# 6 0.000000 0.000000 0.000000 0.000000 0.000000 0.061573
#
#
# Mechanical properties :
#
#
# Convention : Reuss Voigt Hill
#
# Bulk Modulus (GPa) = 47.20125 49.79198 48.49661
# Shear Modulus (GPa) = 19.37727 22.09155 20.73441
#
# Velocity S-wave (km/s) = 3.31738 3.54211 3.43158
# Velocity P-wave (km/s) = 6.44054 6.70874 6.57601
#
# Compressibility (1/GPa) = 0.02118588
#
# Stress axis : x y z
#
# Youngs Moduli (GPa) = 49.31018 35.95665 97.44269
#
# Poissons Ratio (x) = 0.43335 0.07756
# Poissons Ratio (y) = 0.59429 0.55891
# Poissons Ratio (z) = 0.03925 0.20624
#
# Static dielectric constant tensor:
#      x y z
#    x 1.540690 0.000000 0.000000 
#    y 0.000000 1.614250 0.000000 
#    z 0.000000 0.000000 1.628430 
# 
# From -- ./inp_files/18374.got.cif
#   From: 2010.05.17/outbox.cif.g08.bks.cpg/sg55_10_cif.got.tgz:18374.got - 2010.06.03 13:27:54.
