data_PCOD9424584
_publ_section_title
;
Structure prediction by ZEFSAII (Michael W. Deem and Ramdas Pophale) SiO2 
 PCOD9424584
Probable space group: P C C A
;
_chemical_formula_sum "Si O2"
_cell_formula_units_Z 32
_cell_length_a 12.948590
_cell_length_b 9.554382
_cell_length_c 11.344535
_cell_angle_alpha 90.000000
_cell_angle_beta 90.000000
_cell_angle_gamma 90.000000
_cell_volume 1403.497942
_symmetry_space_group_name_H-M "P C C A"
_symmetry_group_IT_number 54
_symmetry_cell_setting 'orthorhombic'
loop_
_space_group_symop_operation_xyz
x,y,z
1/2-x,-y,z
1/2+x,-y,1/2-z
-x,y,1/2-z
-x,-y,-z
1/2+x,y,-z
1/2-x,y,1/2+z
x,-y,1/2+z
loop_
_atom_site_type_symbol
_atom_site_label
_atom_site_fract_x
_atom_site_fract_y
_atom_site_fract_z
Si Si1 0.250000 0.500000 0.690664
Si Si2 0.119847 0.243621 0.713699
Si Si3 0.962502 0.409533 0.384764
Si Si4 0.567369 0.861971 0.033622
Si Si5 0.750000 0.000000 0.175644
O O1 0.186801 0.376798 0.755786
O O2 0.160766 0.575657 0.617178
O O3 0.110800 0.229681 0.574172
O O4 0.179786 0.106458 0.752651
O O5 0.000000 0.243387 0.750000
O O6 0.000000 0.450238 0.250000
O O7 0.000000 0.500000 0.500000
O O8 0.996660 0.249130 0.398555
O O9 0.667557 0.913126 0.101534
O O10 0.500000 0.000000 0.000000
#
# Coordination Sequence:
#
# PCOD9424584 Si02
#       5
#     4   8   8   8   4
#     4  12  28  48  82 108 162 212 268 322 414 466
#     4  12  27  50  76 117 155 208 269 334 398 493
#     4  12  29  53  79 119 162 213 274 336 401 494
#     4  12  28  49  79 116 159 203 272 338 404 485
#     4  12  28  48  82 110 160 208 268 334 420 470
#
# _framework density 22.800176
#
# number of rings (size 3 to 8) (size 9 to 14) (size 15 to 20)
#    0.000    0.000    5.000    3.000   10.500    1.000 
#    0.000    0.000    0.000    0.000    0.000    0.000 
#    0.000    0.000    0.000    0.000    0.000    0.000 
#
# Total GULP energy -178751.844450 kJ/mol
# GULP energy per Si atom -5585.995139 kJ/mol
# Density = 2.274828 g / cm^3
# Si number density = 22.800176 Si / 1000 Ang^3
#
#
#
# Elastic Constant Matrix: (Units=GPa)
#
#
# Indices 1 2 3 4 5 6 
#
# 1 212.8159 81.5749 42.5764 0.0000 0.0000 0.0000
# 2 81.5749 158.2934 35.2750 0.0000 0.0000 0.0000
# 3 42.5764 35.2750 83.6425 0.0000 0.0000 0.0000
# 4 0.0000 0.0000 0.0000 57.3259 0.0000 0.0000
# 5 0.0000 0.0000 0.0000 0.0000 22.4742 0.0000
# 6 0.0000 0.0000 0.0000 0.0000 0.0000 70.2952
#
#
#
# Elastic Compliance Matrix: (Units=1/GPa)
#
#
# Indices 1 2 3 4 5 6 
#
# 1 0.006138 -0.002723 -0.001976 0.000000 0.000000 0.000000
# 2 -0.002723 0.008180 -0.002064 0.000000 0.000000 0.000000
# 3 -0.001976 -0.002064 0.013832 0.000000 0.000000 0.000000
# 4 0.000000 0.000000 0.000000 0.017444 0.000000 0.000000
# 5 0.000000 0.000000 0.000000 0.000000 0.044496 0.000000
# 6 0.000000 0.000000 0.000000 0.000000 0.000000 0.014226
#
#
# Mechanical properties :
#
#
# Convention : Reuss Voigt Hill
#
# Bulk Modulus (GPa) = 68.37776 85.95605 77.16690
# Shear Modulus (GPa) = 40.74436 49.70743 45.22590
#
# Velocity S-wave (km/s) = 4.23190 4.67426 4.45857
# Velocity P-wave (km/s) = 7.34396 8.18004 7.77325
#
# Compressibility (1/GPa) = 0.01462464
#
# Stress axis : x y z
#
# Youngs Moduli (GPa) = 162.92220 122.24211 72.29612
#
# Poissons Ratio (x) = 0.33283 0.14286
# Poissons Ratio (y) = 0.44360 0.14922
# Poissons Ratio (z) = 0.32195 0.25231
#
# Static dielectric constant tensor:
#      x y z
#    x 1.752280 0.000000 0.000000 
#    y 0.000000 1.604540 0.000000 
#    z 0.000000 0.000000 1.787830 
# 
# From -- ./inp_files/8019.got.cif
#   From: 2010.05.17/outbox.cif.g08.bks.cpg/sg54_5_cif.got.tgz:8019.got - 2010.06.03 13:09:01.
