data_PCOD9424074
_publ_section_title
;
Structure prediction by ZEFSAII (Michael W. Deem and Ramdas Pophale) SiO2 
 PCOD9424074
Probable space group: P C C A
;
_chemical_formula_sum "Si O2"
_cell_formula_units_Z 32
_cell_length_a 5.262210
_cell_length_b 9.340288
_cell_length_c 28.264090
_cell_angle_alpha 90.000000
_cell_angle_beta 90.000000
_cell_angle_gamma 90.000000
_cell_volume 1389.195764
_symmetry_space_group_name_H-M "P C C A"
_symmetry_group_IT_number 54
_symmetry_cell_setting 'orthorhombic'
loop_
_space_group_symop_operation_xyz
x,y,z
1/2-x,-y,z
1/2+x,-y,1/2-z
-x,y,1/2-z
-x,-y,-z
1/2+x,y,-z
1/2-x,y,1/2+z
x,-y,1/2+z
loop_
_atom_site_type_symbol
_atom_site_label
_atom_site_fract_x
_atom_site_fract_y
_atom_site_fract_z
Si Si1 0.250000 0.000000 0.048761
Si Si2 0.301926 0.279124 0.987454
Si Si3 0.250000 0.000000 0.718763
Si Si4 0.382553 0.345648 0.384260
Si Si5 0.100710 0.799485 0.634888
O O1 0.404964 0.905595 0.088359
O O2 0.150397 0.876030 0.012568
O O3 0.171351 0.288476 0.936892
O O4 0.577785 0.348908 0.981783
O O5 0.299431 0.127383 0.682042
O O6 0.500000 0.977530 0.750000
O O7 0.250000 0.500000 0.380899
O O8 0.680373 0.320095 0.375231
O O9 0.186736 0.248137 0.354803
#
# Coordination Sequence:
#
# PCOD9424074 Si02
#       5
#     4   8   4   8   8
#     4  11  22  38  59  90 126 162 229 258 338 369
#     4  12  23  36  58  86 131 173 228 279 304 361
#     4  11  24  46  77 112 130 144 195 274 346 407
#     4  12  25  42  60  92 135 184 228 256 300 370
#     4  11  25  41  70  93 128 172 203 273 333 390
#
# _framework density 23.03491
#
# number of rings (size 3 to 8) (size 9 to 14) (size 15 to 20)
#    0.000    0.500    5.000    3.000    0.000    4.000 
#    0.000    0.000    0.000   15.000    0.000    0.000 
#    0.000    0.000    0.000    0.000    0.000    0.000 
#
# Total GULP energy -178203.159378 kJ/mol
# GULP energy per Si atom -5568.848731 kJ/mol
# Density = 2.298248 g / cm^3
# Si number density = 23.034910 Si / 1000 Ang^3
#
#
#
# Elastic Constant Matrix: (Units=GPa)
#
#
# Indices 1 2 3 4 5 6 
#
# 1 110.9116 -25.3278 2.6707 0.0000 0.0000 0.0000
# 2 -25.3278 51.8159 11.4152 0.0000 0.0000 0.0000
# 3 2.6707 11.4152 106.8177 0.0000 0.0000 0.0000
# 4 0.0000 0.0000 0.0000 -10.5453 0.0000 0.0000
# 5 0.0000 0.0000 0.0000 0.0000 149.4087 0.0000
# 6 0.0000 0.0000 0.0000 0.0000 0.0000 25.4080
#
#
#
# Elastic Compliance Matrix: (Units=1/GPa)
#
#
# Indices 1 2 3 4 5 6 
#
# 1 0.010217 0.005172 -0.000808 0.000000 0.000000 0.000000
# 2 0.005172 0.022383 -0.002521 0.000000 0.000000 0.000000
# 3 -0.000808 -0.002521 0.009651 0.000000 0.000000 0.000000
# 4 0.000000 0.000000 0.000000 -0.094829 0.000000 0.000000
# 5 0.000000 0.000000 0.000000 0.000000 0.006693 0.000000
# 6 0.000000 0.000000 0.000000 0.000000 0.000000 0.039358
#
#
# Mechanical properties :
#
#
# Convention : Reuss Voigt Hill
#
# Bulk Modulus (GPa) = 21.76943 27.45125 24.61034
# Shear Modulus (GPa) = 980.45950 51.57341 516.01645
#
# Velocity S-wave (km/s) = 20.65344 4.73686 14.98337
# Velocity P-wave (km/s) = 24.04629 6.46995 17.60801
#
# Compressibility (1/GPa) = 0.04593598
#
# Stress axis : x y z
#
# Youngs Moduli (GPa) = 97.87862 44.67749 103.61206
#
# Poissons Ratio (x) = -0.23107 0.08373
# Poissons Ratio (y) = -0.50623 0.26123
# Poissons Ratio (z) = 0.07910 0.11264
#
# Static dielectric constant tensor:
#      x y z
#    x 2.164360 0.000000 0.000000 
#    y 0.000000 2.001100 0.000000 
#    z 0.000000 0.000000 1.850830 
# 
# From -- ./inp_files/26877.got.cif
#   From: 2010.05.17/outbox.cif.g08.bks.cpg/sg54_14_cif.got.tgz:26877.got - 2010.06.03 13:09:01.
