data_PCOD9424392
_publ_section_title
;
Structure prediction by ZEFSAII (Michael W. Deem and Ramdas Pophale) SiO2 
 PCOD9424392
Probable space group: P C C A
;
_chemical_formula_sum "Si O2"
_cell_formula_units_Z 32
_cell_length_a 8.843479
_cell_length_b 5.207249
_cell_length_c 29.518852
_cell_angle_alpha 90.000000
_cell_angle_beta 90.000000
_cell_angle_gamma 90.000000
_cell_volume 1359.348955
_symmetry_space_group_name_H-M "P C C A"
_symmetry_group_IT_number 54
_symmetry_cell_setting 'orthorhombic'
loop_
_space_group_symop_operation_xyz
x,y,z
1/2-x,-y,z
1/2+x,-y,1/2-z
-x,y,1/2-z
-x,-y,-z
1/2+x,y,-z
1/2-x,y,1/2+z
x,-y,1/2+z
loop_
_atom_site_type_symbol
_atom_site_label
_atom_site_fract_x
_atom_site_fract_y
_atom_site_fract_z
Si Si1 0.848427 0.261291 0.278134
Si Si2 0.851588 0.752770 0.117551
Si Si3 0.932680 0.478617 0.449923
Si Si4 0.584102 0.894382 0.370299
O O1 0.750000 0.500000 0.261328
O O2 0.896830 0.312459 0.330489
O O3 0.000000 0.231815 0.250000
O O4 0.750000 0.000000 0.277203
O O5 0.750000 0.500000 0.128465
O O6 0.967706 0.684028 0.077534
O O7 0.750000 0.000000 0.105936
O O8 0.971262 0.891709 0.150845
O O9 0.750000 0.500000 0.451262
O O10 0.962896 0.232699 0.417818
O O11 0.000000 0.500000 0.500000
O O12 0.750000 0.000000 0.378491
#
# Coordination Sequence:
#
# PCOD9424392 Si02
#       4
#     8   8   8   8
#     4  11  26  50  79 114 152 195 249 307 382 456
#     4  12  26  46  71 109 146 190 248 311 368 439
#     4  12  26  46  74 110 149 202 256 314 376 450
#     4  11  25  48  79 104 153 205 251 301 390 459
#
# _framework density 23.540682
#
# number of rings (size 3 to 8) (size 9 to 14) (size 15 to 20)
#    0.000    0.500    5.000    2.250    3.500    3.000 
#    4.500    0.000    0.000    0.000    0.000    0.000 
#    0.000    0.000    0.000    0.000    0.000    0.000 
#
# Total GULP energy -178458.639061 kJ/mol
# GULP energy per Si atom -5576.832471 kJ/mol
# Density = 2.348710 g / cm^3
# Si number density = 23.540682 Si / 1000 Ang^3
#
#
#
# Elastic Constant Matrix: (Units=GPa)
#
#
# Indices 1 2 3 4 5 6 
#
# 1 177.5994 93.6196 16.3792 0.0000 0.0000 0.0000
# 2 93.6196 169.9828 24.9953 0.0000 0.0000 0.0000
# 3 16.3792 24.9953 65.6711 0.0000 0.0000 0.0000
# 4 0.0000 0.0000 0.0000 16.3374 0.0000 0.0000
# 5 0.0000 0.0000 0.0000 0.0000 20.0639 0.0000
# 6 0.0000 0.0000 0.0000 0.0000 0.0000 49.2689
#
#
#
# Elastic Compliance Matrix: (Units=1/GPa)
#
#
# Indices 1 2 3 4 5 6 
#
# 1 0.007941 -0.004324 -0.000335 0.000000 0.000000 0.000000
# 2 -0.004324 0.008587 -0.002190 0.000000 0.000000 0.000000
# 3 -0.000335 -0.002190 0.016144 0.000000 0.000000 0.000000
# 4 0.000000 0.000000 0.000000 0.061209 0.000000 0.000000
# 5 0.000000 0.000000 0.000000 0.000000 0.049841 0.000000
# 6 0.000000 0.000000 0.000000 0.000000 0.000000 0.020297
#
#
# Mechanical properties :
#
#
# Convention : Reuss Voigt Hill
#
# Bulk Modulus (GPa) = 52.70213 75.91572 64.30893
# Shear Modulus (GPa) = 27.16783 35.68465 31.42624
#
# Velocity S-wave (km/s) = 3.40086 3.89764 3.65770
# Velocity P-wave (km/s) = 6.15284 7.25081 6.72427
#
# Compressibility (1/GPa) = 0.01897456
#
# Stress axis : x y z
#
# Youngs Moduli (GPa) = 125.92745 116.46000 61.94145
#
# Poissons Ratio (x) = 0.50362 0.02073
# Poissons Ratio (y) = 0.54456 0.13563
# Poissons Ratio (z) = 0.04214 0.25500
#
# Static dielectric constant tensor:
#      x y z
#    x 2.022680 0.000000 0.000000 
#    y 0.000000 2.307340 0.000000 
#    z 0.000000 0.000000 1.899400 
# 
# From -- ./inp_files/27390.got.cif
#   From: 2010.05.17/outbox.cif.g08.bks.cpg/sg54_14_cif.got.tgz:27390.got - 2010.06.03 13:09:01.
