data_PCOD9424994
_publ_section_title
;
Structure prediction by ZEFSAII (Michael W. Deem and Ramdas Pophale) SiO2 
 PCOD9424994
Probable space group: P B A M
;
_chemical_formula_sum "Si O2"
_cell_formula_units_Z 64
_cell_length_a 30.508833
_cell_length_b 9.784452
_cell_length_c 13.015582
_cell_angle_alpha 90.000000
_cell_angle_beta 90.000000
_cell_angle_gamma 90.000000
_cell_volume 3885.310174
_symmetry_space_group_name_H-M "P B A M"
_symmetry_group_IT_number 55
_symmetry_cell_setting 'orthorhombic'
loop_
_space_group_symop_operation_xyz
x,y,z
-x,-y,z
1/2+x,1/2-y,-z
1/2-x,1/2+y,-z
-x,-y,-z
x,y,-z
1/2-x,1/2+y,z
1/2+x,1/2-y,z
loop_
_atom_site_type_symbol
_atom_site_label
_atom_site_fract_x
_atom_site_fract_y
_atom_site_fract_z
Si Si1 0.634303 0.463927 0.711810
Si Si2 0.502412 0.155559 0.375146
Si Si3 0.703001 0.411163 0.877997
Si Si4 0.334837 0.016536 0.381939
Si Si5 0.598791 0.204414 0.619884
Si Si6 0.231300 0.372407 0.775645
Si Si7 0.546348 0.580748 0.377612
Si Si8 0.305256 0.314966 0.384066
O O1 0.658522 0.462905 0.821435
O O2 0.630689 0.307829 0.676246
O O3 0.585681 0.523231 0.691555
O O4 0.666179 0.551982 0.639486
O O5 0.503683 0.152265 0.500000
O O6 0.549464 0.212935 0.340967
O O7 0.464556 0.262381 0.349570
O O8 0.500000 0.000000 0.339085
O O9 0.741873 0.513925 0.840913
O O10 0.712938 0.255683 0.840481
O O11 0.699265 0.415094 0.000000
O O12 0.319720 0.985424 0.500000
O O13 0.382331 0.947736 0.372498
O O14 0.304101 0.949834 0.295651
O O15 0.334342 0.179125 0.371946
O O16 0.598352 0.243413 0.500000
O O17 0.266067 0.308563 0.695961
O O18 0.500000 0.500000 0.367278
O O19 0.558179 0.571769 0.500000
O O20 0.288408 0.318494 0.500000
#
# Coordination Sequence:
#
# PCOD9424994 Si02
#       8
#     8   8   8   8   8   8   8   8
#     4  11  21  34  53  76 105 139 180 225 266 314
#     4   9  18  29  44  70 108 148 179 204 237 296
#     4  11  24  40  59  76  99 135 184 240 277 314
#     4  10  20  32  49  77 111 140 170 207 254 325
#     4  10  18  30  48  75 109 145 174 204 251 310
#     4  11  20  39  56  76 102 135 177 219 270 321
#     4  10  18  30  49  76 108 139 173 207 250 317
#     4  10  21  33  49  76 111 145 173 204 256 324
#
# _framework density 16.472300000000001
#
# number of rings (size 3 to 8) (size 9 to 14) (size 15 to 20)
#    0.000    1.750    3.750    1.875    1.750    0.000 
#    0.000    0.000    0.000    0.375    0.000    0.000 
#    0.000    1.000    0.000    0.000    0.000    0.000 
#
# Total GULP energy -356712.265688 kJ/mol
# GULP energy per Si atom -5573.629151 kJ/mol
# Density = 1.643481 g / cm^3
# Si number density = 16.472300 Si / 1000 Ang^3
#
#
#
# Elastic Constant Matrix: (Units=GPa)
#
#
# Indices 1 2 3 4 5 6 
#
# 1 53.5864 5.4553 29.9956 0.0000 0.0000 0.0000
# 2 5.4553 73.8306 24.2370 0.0000 0.0000 0.0000
# 3 29.9956 24.2370 84.7972 0.0000 0.0000 0.0000
# 4 0.0000 0.0000 0.0000 16.5725 0.0000 0.0000
# 5 0.0000 0.0000 0.0000 0.0000 12.2200 0.0000
# 6 0.0000 0.0000 0.0000 0.0000 0.0000 25.4024
#
#
#
# Elastic Compliance Matrix: (Units=1/GPa)
#
#
# Indices 1 2 3 4 5 6 
#
# 1 0.023348 0.001088 -0.008570 0.000000 0.000000 0.000000
# 2 0.001088 0.014998 -0.004672 0.000000 0.000000 0.000000
# 3 -0.008570 -0.004672 0.016160 0.000000 0.000000 0.000000
# 4 0.000000 0.000000 0.000000 0.060341 0.000000 0.000000
# 5 0.000000 0.000000 0.000000 0.000000 0.081833 0.000000
# 6 0.000000 0.000000 0.000000 0.000000 0.000000 0.039366
#
#
# Mechanical properties :
#
#
# Convention : Reuss Voigt Hill
#
# Bulk Modulus (GPa) = 33.11441 36.84332 34.97887
# Shear Modulus (GPa) = 18.48990 21.00742 19.74866
#
# Velocity S-wave (km/s) = 3.35398 3.57503 3.46627
# Velocity P-wave (km/s) = 5.92838 6.28144 6.10746
#
# Compressibility (1/GPa) = 0.03019833
#
# Stress axis : x y z
#
# Youngs Moduli (GPa) = 42.83067 66.67689 61.88289
#
# Poissons Ratio (x) = -0.07256 0.53033
# Poissons Ratio (y) = -0.04661 0.28909
# Poissons Ratio (z) = 0.36705 0.31149
#
# Static dielectric constant tensor:
#      x y z
#    x 1.572680 0.000000 0.000000 
#    y 0.000000 1.596950 0.000000 
#    z 0.000000 0.000000 1.512720 
# 
# From -- ./inp_files/16229.got.cif
#   From: 2010.05.17/outbox.cif.g08.bks.cpg/sg55_9_cif.got.tgz:16229.got - 2010.06.03 13:27:54.
