data_PCOD9424848
_publ_section_title
;
Structure prediction by ZEFSAII (Michael W. Deem and Ramdas Pophale) SiO2 
 PCOD9424848
Probable space group: P B A M
;
_chemical_formula_sum "Si O2"
_cell_formula_units_Z 56
_cell_length_a 11.583622
_cell_length_b 14.160956
_cell_length_c 15.585808
_cell_angle_alpha 90.000000
_cell_angle_beta 90.000000
_cell_angle_gamma 90.000000
_cell_volume 2556.620532
_symmetry_space_group_name_H-M "P B A M"
_symmetry_group_IT_number 55
_symmetry_cell_setting 'orthorhombic'
loop_
_space_group_symop_operation_xyz
x,y,z
-x,-y,z
1/2+x,1/2-y,-z
1/2-x,1/2+y,-z
-x,-y,-z
x,y,-z
1/2-x,1/2+y,z
1/2+x,1/2-y,z
loop_
_atom_site_type_symbol
_atom_site_label
_atom_site_fract_x
_atom_site_fract_y
_atom_site_fract_z
Si Si1 0.614662 0.226943 0.905348
Si Si2 0.094480 0.639208 0.820911
Si Si3 0.130121 0.983256 0.280091
Si Si4 0.040186 0.373162 0.655482
Si Si5 0.318036 0.055598 0.595920
Si Si6 0.305900 0.554870 0.902944
Si Si7 0.744948 0.206036 0.260409
O O1 0.482752 0.204692 0.882023
O O2 0.640577 0.338799 0.902089
O O3 0.692113 0.179036 0.832578
O O4 0.642688 0.192442 0.000000
O O5 0.171289 0.568880 0.876883
O O6 0.180836 0.703754 0.764789
O O7 0.008473 0.598663 0.749559
O O8 0.172761 0.876438 0.293809
O O9 0.217923 0.049883 0.333092
O O10 0.139477 0.002297 0.178050
O O11 0.000000 0.000000 0.307837
O O12 0.112874 0.457040 0.612159
O O13 0.132627 0.290419 0.676972
O O14 0.919708 0.365754 0.604432
O O15 0.270619 0.058455 0.500000
O O16 0.320250 0.517792 0.000000
#
# Coordination Sequence:
#
# PCOD9424848 Si02
#       7
#     8   8   8   8   8   8   8
#     4   9  18  32  51  76 109 154 198 235 276 331
#     4  10  17  33  54  81 110 150 188 227 280 338
#     4  11  22  37  55  84 114 150 189 235 289 339
#     4   9  17  33  58  84 108 136 182 225 279 331
#     4  10  20  37  63  86 107 141 186 235 286 342
#     4  10  20  33  51  78 114 151 192 235 274 327
#     4   9  20  32  52  80 112 149 184 230 282 339
#
# _framework density 21.903915999999999
#
# number of rings (size 3 to 8) (size 9 to 14) (size 15 to 20)
#    0.000    2.286    1.429    2.143    0.000    1.714 
#    0.000    0.000    0.000   12.000    0.000    0.000 
#    0.000    0.000    0.000    0.000    0.000    0.000 
#
# Total GULP energy -312078.405060 kJ/mol
# GULP energy per Si atom -5572.828662 kJ/mol
# Density = 2.185406 g / cm^3
# Si number density = 21.903916 Si / 1000 Ang^3
#
#
#
# Elastic Constant Matrix: (Units=GPa)
#
#
# Indices 1 2 3 4 5 6 
#
# 1 102.1319 19.3171 21.5326 0.0000 0.0000 0.0000
# 2 19.3171 28.0230 12.9198 0.0000 0.0000 0.0000
# 3 21.5326 12.9198 98.5462 0.0000 0.0000 0.0000
# 4 0.0000 0.0000 0.0000 17.2021 0.0000 0.0000
# 5 0.0000 0.0000 0.0000 0.0000 9.8050 0.0000
# 6 0.0000 0.0000 0.0000 0.0000 0.0000 9.1094
#
#
#
# Elastic Compliance Matrix: (Units=1/GPa)
#
#
# Indices 1 2 3 4 5 6 
#
# 1 0.011482 -0.007193 -0.001566 0.000000 0.000000 0.000000
# 2 -0.007193 0.042487 -0.003999 0.000000 0.000000 0.000000
# 3 -0.001566 -0.003999 0.011014 0.000000 0.000000 0.000000
# 4 0.000000 0.000000 0.000000 0.058132 0.000000 0.000000
# 5 0.000000 0.000000 0.000000 0.000000 0.101989 0.000000
# 6 0.000000 0.000000 0.000000 0.000000 0.000000 0.109776
#
#
# Mechanical properties :
#
#
# Convention : Reuss Voigt Hill
#
# Bulk Modulus (GPa) = 25.33691 37.36000 31.34846
# Shear Modulus (GPa) = 13.38508 18.88542 16.13525
#
# Velocity S-wave (km/s) = 2.47469 2.93950 2.71705
# Velocity P-wave (km/s) = 4.44498 5.34923 4.91793
#
# Compressibility (1/GPa) = 0.03946810
#
# Stress axis : x y z
#
# Youngs Moduli (GPa) = 87.09418 23.53672 90.79449
#
# Poissons Ratio (x) = 0.16930 0.14217
# Poissons Ratio (y) = 0.62646 0.36305
# Poissons Ratio (z) = 0.13637 0.09411
#
# Static dielectric constant tensor:
#      x y z
#    x 1.835160 0.000000 0.000000 
#    y 0.000000 1.832830 0.000000 
#    z 0.000000 0.000000 1.817120 
# 
# From -- ./inp_files/18411.got.cif
#   From: 2010.05.17/outbox.cif.g08.bks.cpg/sg55_10_cif.got.tgz:18411.got - 2010.06.03 13:27:54.
