data_PCOD9424608
_publ_section_title
;
Structure prediction by ZEFSAII (Michael W. Deem and Ramdas Pophale) SiO2 
 PCOD9424608
Probable space group: P C C A
;
_chemical_formula_sum "Si O2"
_cell_formula_units_Z 40
_cell_length_a 9.000000
_cell_length_b 9.000000
_cell_length_c 27.000000
_cell_angle_alpha 90.000000
_cell_angle_beta 90.000000
_cell_angle_gamma 90.000000
_cell_volume 2187.000000
_symmetry_space_group_name_H-M "P C C A"
_symmetry_group_IT_number 54
_symmetry_cell_setting 'orthorhombic'
loop_
_space_group_symop_operation_xyz
x,y,z
1/2-x,-y,z
1/2+x,-y,1/2-z
-x,y,1/2-z
-x,-y,-z
1/2+x,y,-z
1/2-x,y,1/2+z
x,-y,1/2+z
loop_
_atom_site_type_symbol
_atom_site_label
_atom_site_fract_x
_atom_site_fract_y
_atom_site_fract_z
Si Si1 0.890166 0.900331 0.897774
Si Si2 0.175801 0.341888 0.650189
Si Si3 0.956331 0.638188 0.059629
Si Si4 0.088520 0.931826 0.201046
Si Si5 0.384347 0.292021 0.961312
O O1 0.805833 0.758620 0.874203
O O2 0.016024 0.833351 0.933871
O O3 0.750000 0.000000 0.918202
O O4 0.959887 0.996976 0.852171
O O5 0.250000 0.500000 0.661268
O O6 0.111434 0.244354 0.694913
O O7 0.039523 0.348924 0.611641
O O8 0.792660 0.711311 0.050805
O O9 0.934473 0.460369 0.052977
O O10 0.070146 0.707194 0.019201
O O11 0.000000 0.969816 0.250000
O O12 0.250000 0.000000 0.207655
#
# Coordination Sequence:
#
# PCOD9424608 Si02
#       5
#     8   8   8   8   8
#     4   9  19  36  57  80 113 151 191 236 288 343
#     4  10  18  35  58  81 111 147 187 236 281 342
#     4  10  20  30  55  80 115 152 187 239 279 336
#     4   9  21  39  60  82 107 150 184 233 301 346
#     4  10  19  33  50  84 114 154 195 224 287 340
#
# _framework density 18.289895000000001
#
# number of rings (size 3 to 8) (size 9 to 14) (size 15 to 20)
#    0.000    2.800    2.000    1.200    2.800    1.600 
#    0.000   16.000    4.400    0.000    0.000    0.000 
#    0.000    0.000    0.000    0.000    0.000    0.000 
#
# Total GULP energy -222683.457060 kJ/mol
# GULP energy per Si atom -5567.086427 kJ/mol
# Density = 1.824827 g / cm^3
# Si number density = 18.289895 Si / 1000 Ang^3
#
#
#
# Elastic Constant Matrix: (Units=GPa)
#
#
# Indices 1 2 3 4 5 6 
#
# 1 66.0989 23.0808 39.0477 0.0000 0.0000 0.0000
# 2 23.0808 95.4587 22.7664 0.0000 0.0000 0.0000
# 3 39.0477 22.7664 71.8021 0.0000 0.0000 0.0000
# 4 0.0000 0.0000 0.0000 11.9446 0.0000 0.0000
# 5 0.0000 0.0000 0.0000 0.0000 30.8082 0.0000
# 6 0.0000 0.0000 0.0000 0.0000 0.0000 31.8342
#
#
#
# Elastic Compliance Matrix: (Units=1/GPa)
#
#
# Indices 1 2 3 4 5 6 
#
# 1 0.022953 -0.002783 -0.011600 0.000000 0.000000 0.000000
# 2 -0.002783 0.011670 -0.002187 0.000000 0.000000 0.000000
# 3 -0.011600 -0.002187 0.020929 0.000000 0.000000 0.000000
# 4 0.000000 0.000000 0.000000 0.083720 0.000000 0.000000
# 5 0.000000 0.000000 0.000000 0.000000 0.032459 0.000000
# 6 0.000000 0.000000 0.000000 0.000000 0.000000 0.031413
#
#
# Mechanical properties :
#
#
# Convention : Reuss Voigt Hill
#
# Bulk Modulus (GPa) = 44.61816 44.79438 44.70627
# Shear Modulus (GPa) = 20.51241 24.81506 22.66373
#
# Velocity S-wave (km/s) = 3.35254 3.68742 3.52396
# Velocity P-wave (km/s) = 6.27965 6.53253 6.40734
#
# Compressibility (1/GPa) = 0.02241240
#
# Stress axis : x y z
#
# Youngs Moduli (GPa) = 43.56640 85.68829 47.78078
#
# Poissons Ratio (x) = 0.23850 0.55426
# Poissons Ratio (y) = 0.12126 0.10448
# Poissons Ratio (z) = 0.50538 0.18737
#
# Static dielectric constant tensor:
#      x y z
#    x 1.624700 0.000000 0.000000 
#    y 0.000000 1.660810 0.000000 
#    z 0.000000 0.000000 1.653610 
# 
# From -- ./inp_files/25717.got.cif
#   From: 2010.05.17/outbox.ucp.g08.bks.cvg/sg54_13_cif.got.tgz:25717.got - 2010.06.11 16:34:40.
