data_PCOD9424884
_publ_section_title
;
Structure prediction by ZEFSAII (Michael W. Deem and Ramdas Pophale) SiO2 
 PCOD9424884
Probable space group: P B A M
;
_chemical_formula_sum "Si O2"
_cell_formula_units_Z 48
_cell_length_a 12.560631
_cell_length_b 16.721052
_cell_length_c 9.677079
_cell_angle_alpha 90.000000
_cell_angle_beta 90.000000
_cell_angle_gamma 90.000000
_cell_volume 2032.447524
_symmetry_space_group_name_H-M "P B A M"
_symmetry_group_IT_number 55
_symmetry_cell_setting 'orthorhombic'
loop_
_space_group_symop_operation_xyz
x,y,z
-x,-y,z
1/2+x,1/2-y,-z
1/2-x,1/2+y,-z
-x,-y,-z
x,y,-z
1/2-x,1/2+y,z
1/2+x,1/2-y,z
loop_
_atom_site_type_symbol
_atom_site_label
_atom_site_fract_x
_atom_site_fract_y
_atom_site_fract_z
Si Si1 0.332102 0.221097 0.847998
Si Si2 0.037109 0.618642 0.659095
Si Si3 0.594367 0.566241 0.845515
Si Si4 0.554123 0.337508 0.657465
Si Si5 0.368946 0.813425 0.836534
Si Si6 0.248378 0.062372 0.250841
O O1 0.402224 0.198815 0.715059
O O2 0.266376 0.136831 0.853759
O O3 0.257485 0.297622 0.825095
O O4 0.383564 0.226616 0.000000
O O5 0.006793 0.620660 0.500000
O O6 0.934801 0.617255 0.759233
O O7 0.134656 0.556201 0.679906
O O8 0.500000 0.500000 0.851118
O O9 0.549340 0.623123 0.726393
O O10 0.702543 0.518238 0.813631
O O11 0.597137 0.600781 0.000000
O O12 0.538302 0.311555 0.500000
O O13 0.591513 0.266517 0.757823
O O14 0.651756 0.402133 0.657243
O O15 0.389381 0.815896 0.000000
#
# Coordination Sequence:
#
# PCOD9424884 Si02
#       6
#     8   8   8   8   8   8
#     4   8  16  29  43  59  81 111 143 176 210 248
#     4  10  19  28  43  63  85 113 143 180 220 257
#     4   9  16  26  40  58  81 112 146 173 205 252
#     4  10  18  28  41  59  86 114 143 178 214 253
#     4  10  19  30  44  60  83 115 149 179 213 257
#     4   8  17  26  43  59  83 113 144 173 211 253
#
# _framework density 23.616847
#
# number of rings (size 3 to 8) (size 9 to 14) (size 15 to 20)
#    1.000    1.833    0.000    2.500    0.000    8.333 
#    0.000    0.000    0.000    0.000    0.000    0.000 
#    0.000    1.333    0.000   11.667    0.000    4.833 
#
# Total GULP energy -267217.931472 kJ/mol
# GULP energy per Si atom -5567.040239 kJ/mol
# Density = 2.356309 g / cm^3
# Si number density = 23.616847 Si / 1000 Ang^3
#
#
#
# Elastic Constant Matrix: (Units=GPa)
#
#
# Indices 1 2 3 4 5 6 
#
# 1 75.9484 5.2741 29.0415 0.0000 0.0000 0.0000
# 2 5.2741 77.9838 21.6310 0.0000 0.0000 0.0000
# 3 29.0415 21.6310 184.6436 0.0000 0.0000 0.0000
# 4 0.0000 0.0000 0.0000 106.4576 0.0000 0.0000
# 5 0.0000 0.0000 0.0000 0.0000 43.4426 0.0000
# 6 0.0000 0.0000 0.0000 0.0000 0.0000 39.6540
#
#
#
# Elastic Compliance Matrix: (Units=1/GPa)
#
#
# Indices 1 2 3 4 5 6 
#
# 1 0.014019 -0.000348 -0.002164 0.000000 0.000000 0.000000
# 2 -0.000348 0.013262 -0.001499 0.000000 0.000000 0.000000
# 3 -0.002164 -0.001499 0.005932 0.000000 0.000000 0.000000
# 4 0.000000 0.000000 0.000000 0.009393 0.000000 0.000000
# 5 0.000000 0.000000 0.000000 0.000000 0.023019 0.000000
# 6 0.000000 0.000000 0.000000 0.000000 0.000000 0.025218
#
#
# Mechanical properties :
#
#
# Convention : Reuss Voigt Hill
#
# Bulk Modulus (GPa) = 39.69676 50.05210 44.87443
# Shear Modulus (GPa) = 46.61478 56.75278 51.68378
#
# Velocity S-wave (km/s) = 4.44756 4.90742 4.68314
# Velocity P-wave (km/s) = 6.57416 7.30409 6.94872
#
# Compressibility (1/GPa) = 0.02519097
#
# Stress axis : x y z
#
# Youngs Moduli (GPa) = 71.33416 75.40059 168.58193
#
# Poissons Ratio (x) = 0.02622 0.36484
# Poissons Ratio (y) = 0.02481 0.25270
# Poissons Ratio (z) = 0.15438 0.11303
#
# Static dielectric constant tensor:
#      x y z
#    x 2.027370 0.000000 0.000000 
#    y 0.000000 1.964600 0.000000 
#    z 0.000000 0.000000 1.811530 
# 
# From -- ./inp_files/6287.got.cif
#   From: 2010.05.17/outbox.cif.g08.bks.cpg/sg55_4_cif.got.tgz:6287.got - 2010.06.03 13:27:54.
