data_PCOD9424449
_publ_section_title
;
Structure prediction by ZEFSAII (Michael W. Deem and Ramdas Pophale) SiO2 
 PCOD9424449
Probable space group: P C C A
;
_chemical_formula_sum "Si O2"
_cell_formula_units_Z 40
_cell_length_a 13.719002
_cell_length_b 9.416652
_cell_length_c 14.232114
_cell_angle_alpha 90.000000
_cell_angle_beta 90.000000
_cell_angle_gamma 90.000000
_cell_volume 1838.605074
_symmetry_space_group_name_H-M "P C C A"
_symmetry_group_IT_number 54
_symmetry_cell_setting 'orthorhombic'
loop_
_space_group_symop_operation_xyz
x,y,z
1/2-x,-y,z
1/2+x,-y,1/2-z
-x,y,1/2-z
-x,-y,-z
1/2+x,y,-z
1/2-x,y,1/2+z
x,-y,1/2+z
loop_
_atom_site_type_symbol
_atom_site_label
_atom_site_fract_x
_atom_site_fract_y
_atom_site_fract_z
Si Si1 0.063053 0.662353 0.668057
Si Si2 0.109995 0.612392 0.062395
Si Si3 0.750000 0.000000 0.645910
Si Si4 0.250000 0.500000 0.403919
Si Si5 0.555204 0.873336 0.049818
Si Si6 0.779272 0.718188 0.252806
O O1 0.069393 0.542707 0.587840
O O2 0.167814 0.700126 0.711131
O O3 0.000000 0.593545 0.750000
O O4 0.005990 0.802428 0.634378
O O5 0.160853 0.665950 0.157698
O O6 0.180282 0.584620 0.973678
O O7 0.052167 0.747631 0.026905
O O8 0.837685 0.927306 0.584786
O O9 0.707278 0.876023 0.712773
O O10 0.298904 0.387599 0.333921
O O11 0.500000 0.000000 0.000000
#
# Coordination Sequence:
#
# PCOD9424449 Si02
#       6
#     8   8   4   4   8   8
#     4  12  24  49  72 111 145 187 254 315 361 444
#     4  12  26  47  80 106 147 197 244 316 374 441
#     4  12  28  50  74 106 162 200 238 314 378 450
#     4  12  20  48  76 112 138 192 252 298 372 438
#     4  12  31  46  73 111 151 199 252 306 375 456
#     4  12  26  46  78 109 146 198 243 304 382 446
#
# _framework density 21.755624000000001
#
# number of rings (size 3 to 8) (size 9 to 14) (size 15 to 20)
#    0.000    0.000    8.000    0.600    8.400    1.600 
#    0.000    0.000    0.000    0.000    0.000    0.000 
#    0.000    0.000    0.000    0.000    0.000    0.000 
#
# Total GULP energy -223548.136391 kJ/mol
# GULP energy per Si atom -5588.703410 kJ/mol
# Density = 2.170611 g / cm^3
# Si number density = 21.755624 Si / 1000 Ang^3
#
#
#
# Elastic Constant Matrix: (Units=GPa)
#
#
# Indices 1 2 3 4 5 6 
#
# 1 55.4929 24.5768 21.2461 0.0000 0.0000 0.0000
# 2 24.5768 138.1690 45.3094 0.0000 0.0000 0.0000
# 3 21.2461 45.3094 137.3528 0.0000 0.0000 0.0000
# 4 0.0000 0.0000 0.0000 27.6786 0.0000 0.0000
# 5 0.0000 0.0000 0.0000 0.0000 6.6194 0.0000
# 6 0.0000 0.0000 0.0000 0.0000 0.0000 44.3251
#
#
#
# Elastic Compliance Matrix: (Units=1/GPa)
#
#
# Indices 1 2 3 4 5 6 
#
# 1 0.020120 -0.002869 -0.002166 0.000000 0.000000 0.000000
# 2 -0.002869 0.008524 -0.002368 0.000000 0.000000 0.000000
# 3 -0.002166 -0.002368 0.008397 0.000000 0.000000 0.000000
# 4 0.000000 0.000000 0.000000 0.036129 0.000000 0.000000
# 5 0.000000 0.000000 0.000000 0.000000 0.151070 0.000000
# 6 0.000000 0.000000 0.000000 0.000000 0.000000 0.022561
#
#
# Mechanical properties :
#
#
# Convention : Reuss Voigt Hill
#
# Bulk Modulus (GPa) = 44.97289 57.03104 51.00197
# Shear Modulus (GPa) = 18.58609 31.71677 25.15143
#
# Velocity S-wave (km/s) = 2.92603 3.82234 3.40382
# Velocity P-wave (km/s) = 5.66853 6.76400 6.24035
#
# Compressibility (1/GPa) = 0.02223562
#
# Stress axis : x y z
#
# Youngs Moduli (GPa) = 49.70172 117.31053 119.09308
#
# Poissons Ratio (x) = 0.33651 0.25795
# Poissons Ratio (y) = 0.14257 0.28205
# Poissons Ratio (z) = 0.10765 0.27782
#
# Static dielectric constant tensor:
#      x y z
#    x 1.846370 0.000000 0.000000 
#    y 0.000000 1.287870 0.000000 
#    z 0.000000 0.000000 1.896580 
# 
# From -- ./inp_files/13259.got.cif
#   From: 2010.05.17/outbox.cif.g08.bks.cpg/sg54_7_cif.got.tgz:13259.got - 2010.06.03 13:09:01.
