data_PCOD9424552
_publ_section_title
;
Structure prediction by ZEFSAII (Michael W. Deem and Ramdas Pophale) SiO2 
 PCOD9424552
Probable space group: P C C A
;
_chemical_formula_sum "Si O2"
_cell_formula_units_Z 40
_cell_length_a 8.812122
_cell_length_b 20.185467
_cell_length_c 9.578000
_cell_angle_alpha 90.000000
_cell_angle_beta 90.000000
_cell_angle_gamma 90.000000
_cell_volume 1703.703970
_symmetry_space_group_name_H-M "P C C A"
_symmetry_group_IT_number 54
_symmetry_cell_setting 'orthorhombic'
loop_
_space_group_symop_operation_xyz
x,y,z
1/2-x,-y,z
1/2+x,-y,1/2-z
-x,y,1/2-z
-x,-y,-z
1/2+x,y,-z
1/2-x,y,1/2+z
x,-y,1/2+z
loop_
_atom_site_type_symbol
_atom_site_label
_atom_site_fract_x
_atom_site_fract_y
_atom_site_fract_z
Si Si1 0.703215 0.346487 0.504474
Si Si2 0.057163 0.742718 0.594453
Si Si3 0.571297 0.869985 0.598325
Si Si4 0.123172 0.940669 0.877640
Si Si5 0.177798 0.569299 0.252002
O O1 0.536261 0.321290 0.541510
O O2 0.773290 0.283460 0.424779
O O3 0.720896 0.408507 0.403074
O O4 0.776567 0.370158 0.648320
O O5 0.043749 0.806127 0.496727
O O6 0.000000 0.757560 0.750000
O O7 0.500000 0.863501 0.750000
O O8 0.751757 0.881450 0.619009
O O9 0.480468 0.928648 0.515546
O O10 0.000000 0.942344 0.750000
O O11 0.250000 0.000000 0.871126
O O12 0.250000 0.500000 0.294099
O O13 0.000000 0.560791 0.250000
#
# Coordination Sequence:
#
# PCOD9424552 Si02
#       5
#     8   8   8   8   8
#     4  12  26  46  73 106 145 195 251 313 388 461
#     4  12  27  48  75 106 149 198 252 317 380 462
#     4  12  28  47  78 119 158 205 265 326 391 461
#     4  12  27  53  82 118 163 213 261 319 386 462
#     4  12  28  46  73 108 147 193 251 316 387 466
#
# _framework density 23.478255000000001
#
# number of rings (size 3 to 8) (size 9 to 14) (size 15 to 20)
#    0.000    0.000    4.000    4.800    5.600    6.400 
#    0.000    1.000    0.000    0.000    0.000    0.000 
#    0.000    0.000    0.000    0.000    0.000    0.000 
#
# Total GULP energy -223642.698731 kJ/mol
# GULP energy per Si atom -5591.067468 kJ/mol
# Density = 2.342482 g / cm^3
# Si number density = 23.478255 Si / 1000 Ang^3
#
#
#
# Elastic Constant Matrix: (Units=GPa)
#
#
# Indices 1 2 3 4 5 6 
#
# 1 108.1675 9.7221 18.7620 0.0000 0.0000 0.0000
# 2 9.7221 98.0407 30.5079 0.0000 0.0000 0.0000
# 3 18.7620 30.5079 150.5531 0.0000 0.0000 0.0000
# 4 0.0000 0.0000 0.0000 29.3046 0.0000 0.0000
# 5 0.0000 0.0000 0.0000 0.0000 -65.0363 0.0000
# 6 0.0000 0.0000 0.0000 0.0000 0.0000 41.1666
#
#
#
# Elastic Compliance Matrix: (Units=1/GPa)
#
#
# Indices 1 2 3 4 5 6 
#
# 1 0.009483 -0.000611 -0.001058 0.000000 0.000000 0.000000
# 2 -0.000611 0.010926 -0.002138 0.000000 0.000000 0.000000
# 3 -0.001058 -0.002138 0.007207 0.000000 0.000000 0.000000
# 4 0.000000 0.000000 0.000000 0.034124 0.000000 0.000000
# 5 0.000000 0.000000 0.000000 0.000000 -0.015376 0.000000
# 6 0.000000 0.000000 0.000000 0.000000 0.000000 0.024292
#
#
# Mechanical properties :
#
#
# Convention : Reuss Voigt Hill
#
# Bulk Modulus (GPa) = 49.99414 52.74948 51.37181
# Shear Modulus (GPa) = 58.86681 20.93826 39.90253
#
# Velocity S-wave (km/s) = 5.01272 2.98957 4.12704
# Velocity P-wave (km/s) = 7.40562 5.86795 6.68117
#
# Compressibility (1/GPa) = 0.02000234
#
# Stress axis : x y z
#
# Youngs Moduli (GPa) = 105.44782 91.52742 138.74969
#
# Poissons Ratio (x) = 0.05594 0.14679
# Poissons Ratio (y) = 0.06445 0.29662
# Poissons Ratio (z) = 0.11156 0.19567
#
# Static dielectric constant tensor:
#      x y z
#    x 1.844830 0.000000 0.000000 
#    y 0.000000 1.885130 0.000000 
#    z 0.000000 0.000000 1.718810 
# 
# From -- ./inp_files/2540.got.cif
#   From: 2010.05.17/outbox.cif.g08.bks.cpg/sg54_2_cif.got.tgz:2540.got - 2010.06.03 13:09:01.
