data_PCOD9424723
_publ_section_title
;
Structure prediction by ZEFSAII (Michael W. Deem and Ramdas Pophale) SiO2 
 PCOD9424723
Probable space group: P B A M
;
_chemical_formula_sum "Si O2"
_cell_formula_units_Z 64
_cell_length_a 18.595260
_cell_length_b 10.007057
_cell_length_c 16.181254
_cell_angle_alpha 90.000000
_cell_angle_beta 90.000000
_cell_angle_gamma 90.000000
_cell_volume 3011.069666
_symmetry_space_group_name_H-M "P B A M"
_symmetry_group_IT_number 55
_symmetry_cell_setting 'orthorhombic'
loop_
_space_group_symop_operation_xyz
x,y,z
-x,-y,z
1/2+x,1/2-y,-z
1/2-x,1/2+y,-z
-x,-y,-z
x,y,-z
1/2-x,1/2+y,z
1/2+x,1/2-y,z
loop_
_atom_site_type_symbol
_atom_site_label
_atom_site_fract_x
_atom_site_fract_y
_atom_site_fract_z
Si Si1 0.613410 0.269721 0.325264
Si Si2 0.633836 0.991374 0.296165
Si Si3 0.265627 0.359734 0.094297
Si Si4 0.399539 0.927700 0.883749
Si Si5 0.086048 0.977454 0.411236
Si Si6 0.958213 0.278619 0.088478
Si Si7 0.554475 0.722382 0.276413
Si Si8 0.729252 0.388734 0.797961
O O1 0.631685 0.119598 0.354587
O O2 0.622416 0.380399 0.395923
O O3 0.530133 0.282809 0.297256
O O4 0.666141 0.314333 0.250794
O O5 0.598151 0.055860 0.214388
O O6 0.586621 0.861170 0.311054
O O7 0.712950 0.946497 0.267359
O O8 0.180133 0.389696 0.091183
O O9 0.270148 0.221443 0.145125
O O10 0.295496 0.487477 0.144626
O O11 0.291020 0.348222 0.000000
O O12 0.457747 0.818314 0.907903
O O13 0.420638 0.075443 0.913552
O O14 0.107985 0.918041 0.500000
O O15 0.095769 0.890095 0.328751
O O16 0.000000 0.000000 0.415459
O O17 0.937619 0.214358 0.176694
O O18 0.945067 0.209835 0.000000
#
# Coordination Sequence:
#
# PCOD9424723 Si02
#       8
#     8   8   8   8   8   8   8   8
#     4  11  20  39  63  87 119 157 206 252 312 375
#     4  10  20  35  58  90 116 159 209 253 310 375
#     4  11  21  35  51  76 114 161 215 267 311 363
#     4   9  16  29  47  76 115 154 208 259 304 355
#     4   9  21  40  65  94 122 155 193 240 312 385
#     4  10  16  25  49  85 117 156 203 255 305 355
#     4  10  20  36  64  92 122 160 206 257 309 373
#     4  11  22  36  56  85 118 163 210 258 314 370
#
# _framework density 21.254905000000001
#
# number of rings (size 3 to 8) (size 9 to 14) (size 15 to 20)
#    0.000    1.875    3.750    2.250    1.750    0.000 
#    0.000    1.875    0.000    9.375    0.000    0.000 
#    0.000    0.000    0.000    0.000    0.000    0.000 
#
# Total GULP energy -357067.295273 kJ/mol
# GULP energy per Si atom -5579.176489 kJ/mol
# Density = 2.120653 g / cm^3
# Si number density = 21.254905 Si / 1000 Ang^3
#
#
#
# Elastic Constant Matrix: (Units=GPa)
#
#
# Indices 1 2 3 4 5 6 
#
# 1 73.8325 16.6718 3.1812 0.0000 0.0000 0.0000
# 2 16.6718 103.1401 44.0465 0.0000 0.0000 0.0000
# 3 3.1812 44.0465 94.3298 0.0000 0.0000 0.0000
# 4 0.0000 0.0000 0.0000 5.5451 0.0000 0.0000
# 5 0.0000 0.0000 0.0000 0.0000 0.1084 0.0000
# 6 0.0000 0.0000 0.0000 0.0000 0.0000 34.7425
#
#
#
# Elastic Compliance Matrix: (Units=1/GPa)
#
#
# Indices 1 2 3 4 5 6 
#
# 1 0.014098 -0.002593 0.000735 0.000000 0.000000 0.000000
# 2 -0.002593 0.012587 -0.005790 0.000000 0.000000 0.000000
# 3 0.000735 -0.005790 0.013280 0.000000 0.000000 0.000000
# 4 0.000000 0.000000 0.000000 0.180339 0.000000 0.000000
# 5 0.000000 0.000000 0.000000 0.000000 9.222361 0.000000
# 6 0.000000 0.000000 0.000000 0.000000 0.000000 0.028783
#
#
# Mechanical properties :
#
#
# Convention : Reuss Voigt Hill
#
# Bulk Modulus (GPa) = 40.53522 44.34460 42.43991
# Shear Modulus (GPa) = 0.52659 21.90608 11.21634
#
# Velocity S-wave (km/s) = 0.49829 3.21384 2.29968
# Velocity P-wave (km/s) = 4.40947 5.88899 5.20210
#
# Compressibility (1/GPa) = 0.02466990
#
# Stress axis : x y z
#
# Youngs Moduli (GPa) = 70.93224 79.44482 75.30150
#
# Poissons Ratio (x) = 0.20599 -0.05537
# Poissons Ratio (y) = 0.18391 0.43600
# Poissons Ratio (z) = -0.05215 0.45999
#
# Static dielectric constant tensor:
#      x y z
#    x 1.775210 0.000000 0.000000 
#    y 0.000000 1.826280 0.000000 
#    z 0.000000 0.000000 1.813190 
# 
# From -- ./inp_files/21943.got.cif
#   From: 2010.05.17/outbox.cif.g08.bks.cpg/sg55_11_cif.got.tgz:21943.got - 2010.06.03 13:27:54.
