data_PCOD9424181
_publ_section_title
;
Structure prediction by ZEFSAII (Michael W. Deem and Ramdas Pophale) SiO2 
 PCOD9424181
Probable space group: P C C A
;
_chemical_formula_sum "Si O2"
_cell_formula_units_Z 40
_cell_length_a 9.679501
_cell_length_b 13.438075
_cell_length_c 13.419301
_cell_angle_alpha 90.000000
_cell_angle_beta 90.000000
_cell_angle_gamma 90.000000
_cell_volume 1745.500285
_symmetry_space_group_name_H-M "P C C A"
_symmetry_group_IT_number 54
_symmetry_cell_setting 'orthorhombic'
loop_
_space_group_symop_operation_xyz
x,y,z
1/2-x,-y,z
1/2+x,-y,1/2-z
-x,y,1/2-z
-x,-y,-z
1/2+x,y,-z
1/2-x,y,1/2+z
x,-y,1/2+z
loop_
_atom_site_type_symbol
_atom_site_label
_atom_site_fract_x
_atom_site_fract_y
_atom_site_fract_z
Si Si1 0.160593 0.899410 0.231086
Si Si2 0.594269 0.499022 0.344464
Si Si3 0.995181 0.656628 0.501426
Si Si4 0.871375 0.928346 0.494977
Si Si5 0.250717 0.755331 0.900177
O O1 0.165882 0.883905 0.112618
O O2 0.202733 0.800893 0.293540
O O3 0.000000 0.922611 0.250000
O O4 0.250000 0.000000 0.250878
O O5 0.750000 0.500000 0.308122
O O6 0.500000 0.519352 0.250000
O O7 0.549182 0.396962 0.398724
O O8 0.582257 0.582231 0.429794
O O9 0.107049 0.741523 0.464567
O O10 0.852488 0.666698 0.567352
O O11 0.862389 0.838860 0.569443
O O12 0.750000 0.000000 0.525545
O O13 0.000000 0.000000 0.500000
#
# Coordination Sequence:
#
# PCOD9424181 Si02
#       5
#     8   8   8   8   8
#     4  11  24  42  68  99 138 190 243 292 353 427
#     4  11  26  48  76 103 140 191 235 293 375 456
#     4  11  26  46  71 103 148 181 239 303 368 442
#     4  11  23  42  66  94 138 186 233 286 348 413
#     4  12  24  43  70 103 142 187 236 304 361 422
#
# _framework density 22.916063999999999
#
# number of rings (size 3 to 8) (size 9 to 14) (size 15 to 20)
#    0.000    0.800    2.000    5.400    2.800    5.600 
#    0.000    0.000    0.000    0.000    0.000    0.000 
#    0.000    0.000    0.000    0.000    0.000    0.000 
#
# Total GULP energy -222863.015227 kJ/mol
# GULP energy per Si atom -5571.575381 kJ/mol
# Density = 2.286391 g / cm^3
# Si number density = 22.916064 Si / 1000 Ang^3
#
#
#
# Elastic Constant Matrix: (Units=GPa)
#
#
# Indices 1 2 3 4 5 6 
#
# 1 107.6315 4.3743 -9.3695 0.0000 0.0000 0.0000
# 2 4.3743 29.6637 13.8424 0.0000 0.0000 0.0000
# 3 -9.3695 13.8424 78.3070 0.0000 0.0000 0.0000
# 4 0.0000 0.0000 0.0000 32.8396 0.0000 0.0000
# 5 0.0000 0.0000 0.0000 0.0000 47.0746 0.0000
# 6 0.0000 0.0000 0.0000 0.0000 0.0000 27.8440
#
#
#
# Elastic Compliance Matrix: (Units=1/GPa)
#
#
# Indices 1 2 3 4 5 6 
#
# 1 0.009508 -0.002107 0.001510 0.000000 0.000000 0.000000
# 2 -0.002107 0.037209 -0.006830 0.000000 0.000000 0.000000
# 3 0.001510 -0.006830 0.014158 0.000000 0.000000 0.000000
# 4 0.000000 0.000000 0.000000 0.030451 0.000000 0.000000
# 5 0.000000 0.000000 0.000000 0.000000 0.021243 0.000000
# 6 0.000000 0.000000 0.000000 0.000000 0.000000 0.035914
#
#
# Mechanical properties :
#
#
# Convention : Reuss Voigt Hill
#
# Bulk Modulus (GPa) = 21.72841 25.92184 23.82513
# Shear Modulus (GPa) = 27.98351 35.33532 31.65941
#
# Velocity S-wave (km/s) = 3.49826 3.93102 3.72094
# Velocity P-wave (km/s) = 5.08128 5.65156 5.37399
#
# Compressibility (1/GPa) = 0.04602269
#
# Stress axis : x y z
#
# Youngs Moduli (GPa) = 105.17419 26.87531 70.63054
#
# Poissons Ratio (x) = 0.05662 -0.10666
# Poissons Ratio (y) = 0.22158 0.48237
# Poissons Ratio (z) = -0.15882 0.18355
#
# Static dielectric constant tensor:
#      x y z
#    x 1.996380 0.000000 0.000000 
#    y 0.000000 2.308400 0.000000 
#    z 0.000000 0.000000 1.965810 
# 
# From -- ./inp_files/11458.got.cif
#   From: 2010.05.17/outbox.cif.g08.bks.cpg/sg54_6_cif.got.tgz:11458.got - 2010.06.03 13:09:01.
