data_PCOD9424700
_publ_section_title
;
Structure prediction by ZEFSAII (Michael W. Deem and Ramdas Pophale) SiO2 
 PCOD9424700
Probable space group: P B A M
;
_chemical_formula_sum "Si O2"
_cell_formula_units_Z 56
_cell_length_a 12.346922
_cell_length_b 14.488709
_cell_length_c 15.198521
_cell_angle_alpha 90.000000
_cell_angle_beta 90.000000
_cell_angle_gamma 90.000000
_cell_volume 2718.878011
_symmetry_space_group_name_H-M "P B A M"
_symmetry_group_IT_number 55
_symmetry_cell_setting 'orthorhombic'
loop_
_space_group_symop_operation_xyz
x,y,z
-x,-y,z
1/2+x,1/2-y,-z
1/2-x,1/2+y,-z
-x,-y,-z
x,y,-z
1/2-x,1/2+y,z
1/2+x,1/2-y,z
loop_
_atom_site_type_symbol
_atom_site_label
_atom_site_fract_x
_atom_site_fract_y
_atom_site_fract_z
Si Si1 0.436943 0.596237 0.285160
Si Si2 0.389468 0.556880 0.093268
Si Si3 0.531636 0.848880 0.903694
Si Si4 0.608892 0.057219 0.681068
Si Si5 0.672201 0.033808 0.871127
Si Si6 0.777906 0.395940 0.399068
Si Si7 0.457022 0.217363 0.706511
O O1 0.500000 0.500000 0.286536
O O2 0.390468 0.611383 0.185444
O O3 0.337330 0.598052 0.352085
O O4 0.520811 0.676369 0.309288
O O5 0.500000 0.500000 0.092212
O O6 0.291632 0.483627 0.095172
O O7 0.380595 0.609895 0.000000
O O8 0.407307 0.885119 0.902233
O O9 0.550973 0.795987 0.812366
O O10 0.606955 0.939986 0.894082
O O11 0.553834 0.806381 0.000000
O O12 0.682434 0.048649 0.766781
O O13 0.562354 0.159533 0.671580
O O14 0.500000 0.000000 0.705624
O O15 0.665635 0.997562 0.606396
O O16 0.771162 0.366641 0.500000
O O17 0.855116 0.327781 0.342671
#
# Coordination Sequence:
#
# PCOD9424700 Si02
#       7
#     8   8   8   8   8   8   8
#     4  11  25  44  63  89 129 173 210 258 314 375
#     4  10  20  34  55  81 119 173 217 244 293 367
#     4  10  17  28  57  95 125 157 202 261 315 362
#     4   9  16  35  62  92 121 153 197 254 321 369
#     4  10  14  30  55  87 124 159 200 254 312 368
#     4  11  23  43  69  94 123 159 206 260 324 388
#     4  10  22  40  62  95 128 161 207 265 311 374
#
# _framework density 20.596731999999999
#
# number of rings (size 3 to 8) (size 9 to 14) (size 15 to 20)
#    0.000    1.857    5.714    1.714    0.000    5.143 
#    2.571    1.429    0.000    0.000    0.000    0.000 
#    0.000    0.000    0.000    0.000    0.000    0.000 
#
# Total GULP energy -312256.740843 kJ/mol
# GULP energy per Si atom -5576.013229 kJ/mol
# Density = 2.054985 g / cm^3
# Si number density = 20.596732 Si / 1000 Ang^3
#
#
#
# Elastic Constant Matrix: (Units=GPa)
#
#
# Indices 1 2 3 4 5 6 
#
# 1 112.2049 21.1199 50.6325 0.0000 0.0000 0.0000
# 2 21.1199 89.6666 29.7709 0.0000 0.0000 0.0000
# 3 50.6325 29.7709 148.7882 0.0000 0.0000 0.0000
# 4 0.0000 0.0000 0.0000 -0.5434 0.0000 0.0000
# 5 0.0000 0.0000 0.0000 0.0000 22.8651 0.0000
# 6 0.0000 0.0000 0.0000 0.0000 0.0000 9.5729
#
#
#
# Elastic Compliance Matrix: (Units=1/GPa)
#
#
# Indices 1 2 3 4 5 6 
#
# 1 0.010692 -0.001404 -0.003357 0.000000 0.000000 0.000000
# 2 -0.001404 0.012130 -0.001950 0.000000 0.000000 0.000000
# 3 -0.003357 -0.001950 0.008254 0.000000 0.000000 0.000000
# 4 0.000000 0.000000 0.000000 -1.840261 0.000000 0.000000
# 5 0.000000 0.000000 0.000000 0.000000 0.043735 0.000000
# 6 0.000000 0.000000 0.000000 0.000000 0.000000 0.104462
#
#
# Mechanical properties :
#
#
# Convention : Reuss Voigt Hill
#
# Bulk Modulus (GPa) = 56.64329 61.52290 59.08309
# Shear Modulus (GPa) = -3.04565 22.98802 9.97118
#
# Velocity S-wave (km/s) = -1.21734 3.34443 2.20265
# Velocity P-wave (km/s) = 5.05815 6.69692 5.93438
#
# Compressibility (1/GPa) = 0.01765434
#
# Stress axis : x y z
#
# Youngs Moduli (GPa) = 93.53221 82.43836 121.15940
#
# Poissons Ratio (x) = 0.11570 0.40679
# Poissons Ratio (y) = 0.13127 0.23620
# Poissons Ratio (z) = 0.31403 0.16072
#
# Static dielectric constant tensor:
#      x y z
#    x 1.740460 0.000000 0.000000 
#    y 0.000000 1.736300 0.000000 
#    z 0.000000 0.000000 1.768440 
# 
# From -- ./inp_files/18367.got.cif
#   From: 2010.05.17/outbox.cif.g08.bks.cpg/sg55_10_cif.got.tgz:18367.got - 2010.06.03 13:27:54.
