data_PCOD9424732
_publ_section_title
;
Structure prediction by ZEFSAII (Michael W. Deem and Ramdas Pophale) SiO2 
 PCOD9424732
Probable space group: P B A M
;
_chemical_formula_sum "Si O2"
_cell_formula_units_Z 32
_cell_length_a 20.412943
_cell_length_b 11.839103
_cell_length_c 5.496541
_cell_angle_alpha 90.000000
_cell_angle_beta 90.000000
_cell_angle_gamma 90.000000
_cell_volume 1328.354201
_symmetry_space_group_name_H-M "P B A M"
_symmetry_group_IT_number 55
_symmetry_cell_setting 'orthorhombic'
loop_
_space_group_symop_operation_xyz
x,y,z
-x,-y,z
1/2+x,1/2-y,-z
1/2-x,1/2+y,-z
-x,-y,-z
x,y,-z
1/2-x,1/2+y,z
1/2+x,1/2-y,z
loop_
_atom_site_type_symbol
_atom_site_label
_atom_site_fract_x
_atom_site_fract_y
_atom_site_fract_z
Si Si1 0.618349 0.838133 0.000000
Si Si2 0.655930 0.823795 0.500000
Si Si3 0.700881 0.266475 0.500000
Si Si4 0.538461 0.134528 0.000000
Si Si5 0.919289 0.626921 0.500000
Si Si6 0.574878 0.592948 0.000000
Si Si7 0.475507 0.325417 0.500000
Si Si8 0.361016 0.652510 0.000000
O O1 0.651964 0.885359 0.758058
O O2 0.539077 0.845431 0.000000
O O3 0.625803 0.699687 0.000000
O O4 0.721665 0.751034 0.500000
O O5 0.587599 0.756363 0.500000
O O6 0.656936 0.154069 0.500000
O O7 0.679533 0.329046 0.249921
O O8 0.558391 0.073563 0.751684
O O9 0.583042 0.248689 0.000000
O O10 0.960355 0.746884 0.500000
O O11 0.533207 0.608119 0.248244
O O12 0.609225 0.472323 0.000000
#
# Coordination Sequence:
#
# PCOD9424732 Si02
#       8
#     4   4   4   4   4   4   4   4
#     4  10  17  29  45  64  78 107 158 182 211 230
#     4  10  18  30  47  58  80 114 155 186 205 255
#     4  10  21  32  41  61  87 123 147 171 225 257
#     4  10  16  29  40  61  84 112 146 176 209 240
#     4  10  16  30  41  60  87 108 145 181 213 245
#     4  10  18  29  43  64  86 116 151 184 197 246
#     4  10  17  30  46  64  81 114 157 181 212 233
#     4  10  21  31  42  61  96 121 143 174 214 259
#
# _framework density 24.089963000000001
#
# number of rings (size 3 to 8) (size 9 to 14) (size 15 to 20)
#    0.000    2.000    5.000    1.500    0.000    0.500 
#    0.000    2.500    0.000    0.000    0.000    0.000 
#    0.000    0.000    0.000   27.000    0.000    0.000 
#
# Total GULP energy -178802.839156 kJ/mol
# GULP energy per Si atom -5587.588724 kJ/mol
# Density = 2.403513 g / cm^3
# Si number density = 24.089963 Si / 1000 Ang^3
#
#
#
# Elastic Constant Matrix: (Units=GPa)
#
#
# Indices 1 2 3 4 5 6 
#
# 1 118.5324 1.9883 28.6282 0.0000 0.0000 0.0000
# 2 1.9883 84.6182 4.4705 0.0000 0.0000 0.0000
# 3 28.6282 4.4705 263.5943 0.0000 0.0000 0.0000
# 4 0.0000 0.0000 0.0000 3.8851 0.0000 0.0000
# 5 0.0000 0.0000 0.0000 0.0000 39.2873 0.0000
# 6 0.0000 0.0000 0.0000 0.0000 0.0000 26.6780
#
#
#
# Elastic Compliance Matrix: (Units=1/GPa)
#
#
# Indices 1 2 3 4 5 6 
#
# 1 0.008666 -0.000154 -0.000939 0.000000 0.000000 0.000000
# 2 -0.000154 0.011831 -0.000184 0.000000 0.000000 0.000000
# 3 -0.000939 -0.000184 0.003899 0.000000 0.000000 0.000000
# 4 0.000000 0.000000 0.000000 0.257395 0.000000 0.000000
# 5 0.000000 0.000000 0.000000 0.000000 0.025453 0.000000
# 6 0.000000 0.000000 0.000000 0.000000 0.000000 0.037484
#
#
# Mechanical properties :
#
#
# Convention : Reuss Voigt Hill
#
# Bulk Modulus (GPa) = 45.78204 59.65768 52.71986
# Shear Modulus (GPa) = 14.10190 42.74728 28.42459
#
# Velocity S-wave (km/s) = 2.42210 4.21703 3.43874
# Velocity P-wave (km/s) = 5.18343 6.96631 6.13993
#
# Compressibility (1/GPa) = 0.02184263
#
# Stress axis : x y z
#
# Youngs Moduli (GPa) = 115.39644 84.52286 256.49173
#
# Poissons Ratio (x) = 0.01302 0.24073
# Poissons Ratio (y) = 0.01778 0.04718
# Poissons Ratio (z) = 0.10831 0.01555
#
# Static dielectric constant tensor:
#      x y z
#    x 1.852170 0.000000 0.000000 
#    y 0.000000 1.927260 0.000000 
#    z 0.000000 0.000000 2.080760 
# 
# From -- ./inp_files/768.got.cif
#   From: 2010.05.17/outbox.cif.g08.bks.cpg/sg55_1_cif.got.tgz:768.got - 2010.06.03 13:27:54.
