data_PCOD9424364
_publ_section_title
;
Structure prediction by ZEFSAII (Michael W. Deem and Ramdas Pophale) SiO2 
 PCOD9424364
Probable space group: P C C A
;
_chemical_formula_sum "Si O2"
_cell_formula_units_Z 40
_cell_length_a 27.478554
_cell_length_b 5.096443
_cell_length_c 10.990140
_cell_angle_alpha 90.000000
_cell_angle_beta 90.000000
_cell_angle_gamma 90.000000
_cell_volume 1539.090903
_symmetry_space_group_name_H-M "P C C A"
_symmetry_group_IT_number 54
_symmetry_cell_setting 'orthorhombic'
loop_
_space_group_symop_operation_xyz
x,y,z
1/2-x,-y,z
1/2+x,-y,1/2-z
-x,y,1/2-z
-x,-y,-z
1/2+x,y,-z
1/2-x,y,1/2+z
x,-y,1/2+z
loop_
_atom_site_type_symbol
_atom_site_label
_atom_site_fract_x
_atom_site_fract_y
_atom_site_fract_z
Si Si1 0.068042 0.536028 0.063059
Si Si2 0.168652 0.653826 0.137700
Si Si3 0.085126 0.964687 0.405392
Si Si4 0.500000 0.241272 0.250000
Si Si5 0.315591 0.657600 0.892506
Si Si6 0.250000 0.000000 0.539579
O O1 0.111004 0.624056 0.155574
O O2 0.019040 0.587401 0.136956
O O3 0.072529 0.241188 0.014277
O O4 0.076685 0.742972 0.954070
O O5 0.189676 0.528655 0.260703
O O6 0.203049 0.908938 0.117675
O O7 0.170485 0.520916 0.005869
O O8 0.045253 0.923952 0.300916
O O9 0.141330 0.880669 0.376855
O O10 0.267258 0.781183 0.946188
#
# Coordination Sequence:
#
# PCOD9424364 Si02
#       6
#     8   8   8   4   8   4
#     4  11  25  46  70 107 148 190 245 304 366 443
#     4  11  25  47  71 107 146 195 244 311 371 447
#     4  11  25  46  70 107 148 190 245 304 366 443
#     4  12  24  46  76 106 142 198 244 298 374 440
#     4  11  25  47  71 107 146 195 244 311 371 447
#     4  12  24  44  76 102 146 188 254 302 384 438
#
# _framework density 25.989367999999999
#
# number of rings (size 3 to 8) (size 9 to 14) (size 15 to 20)
#    0.000    0.800    4.000    2.400    0.000    8.000 
#    3.600    0.000    0.000    0.000    0.000    0.000 
#    0.000    0.000    0.000    0.000    0.000    0.000 
#
# Total GULP energy -223445.043067 kJ/mol
# GULP energy per Si atom -5586.126077 kJ/mol
# Density = 2.593022 g / cm^3
# Si number density = 25.989368 Si / 1000 Ang^3
#
#
#
# Elastic Constant Matrix: (Units=GPa)
#
#
# Indices 1 2 3 4 5 6 
#
# 1 97.5061 13.8862 4.7193 0.0000 0.0000 0.0000
# 2 13.8862 62.4139 20.5523 0.0000 0.0000 0.0000
# 3 4.7193 20.5523 132.2008 0.0000 0.0000 0.0000
# 4 0.0000 0.0000 0.0000 8.5374 0.0000 0.0000
# 5 0.0000 0.0000 0.0000 0.0000 20.5565 0.0000
# 6 0.0000 0.0000 0.0000 0.0000 0.0000 31.6144
#
#
#
# Elastic Compliance Matrix: (Units=1/GPa)
#
#
# Indices 1 2 3 4 5 6 
#
# 1 0.010591 -0.002352 -0.000012 0.000000 0.000000 0.000000
# 2 -0.002352 0.017409 -0.002622 0.000000 0.000000 0.000000
# 3 -0.000012 -0.002622 0.007972 0.000000 0.000000 0.000000
# 4 0.000000 0.000000 0.000000 0.117132 0.000000 0.000000
# 5 0.000000 0.000000 0.000000 0.000000 0.048646 0.000000
# 6 0.000000 0.000000 0.000000 0.000000 0.000000 0.031631
#
#
# Mechanical properties :
#
#
# Convention : Reuss Voigt Hill
#
# Bulk Modulus (GPa) = 38.46401 41.15960 39.81180
# Shear Modulus (GPa) = 19.83951 29.00587 24.42269
#
# Velocity S-wave (km/s) = 2.76591 3.34438 3.06881
# Velocity P-wave (km/s) = 5.00324 5.54839 5.28285
#
# Compressibility (1/GPa) = 0.02599833
#
# Stress axis : x y z
#
# Youngs Moduli (GPa) = 94.41646 57.44153 125.43287
#
# Poissons Ratio (x) = 0.13512 0.00155
# Poissons Ratio (y) = 0.22210 0.32895
# Poissons Ratio (z) = 0.00117 0.15064
#
# Static dielectric constant tensor:
#      x y z
#    x 2.226330 0.000000 0.000000 
#    y 0.000000 2.137860 0.000000 
#    z 0.000000 0.000000 2.006860 
# 
# From -- ./inp_files/10441.got.cif
#   From: 2010.05.17/outbox.cif.g08.bks.cpg/sg54_6_cif.got.tgz:10441.got - 2010.06.03 13:09:01.
