data_PCOD9424960
_publ_section_title
;
Structure prediction by ZEFSAII (Michael W. Deem and Ramdas Pophale) SiO2 
 PCOD9424960
Probable space group: P B A M
;
_chemical_formula_sum "Si O2"
_cell_formula_units_Z 64
_cell_length_a 13.937499
_cell_length_b 21.103236
_cell_length_c 11.063444
_cell_angle_alpha 90.000000
_cell_angle_beta 90.000000
_cell_angle_gamma 90.000000
_cell_volume 3254.050188
_symmetry_space_group_name_H-M "P B A M"
_symmetry_group_IT_number 55
_symmetry_cell_setting 'orthorhombic'
loop_
_space_group_symop_operation_xyz
x,y,z
-x,-y,z
1/2+x,1/2-y,-z
1/2-x,1/2+y,-z
-x,-y,-z
x,y,-z
1/2-x,1/2+y,z
1/2+x,1/2-y,z
loop_
_atom_site_type_symbol
_atom_site_label
_atom_site_fract_x
_atom_site_fract_y
_atom_site_fract_z
Si Si1 0.915350 0.045593 0.645443
Si Si2 0.280380 0.238494 0.870753
Si Si3 0.516567 0.803418 0.207757
Si Si4 0.789132 0.828761 0.631811
Si Si5 0.823355 0.638162 0.867438
Si Si6 0.507952 0.675604 0.638204
Si Si7 0.603001 0.913865 0.364340
Si Si8 0.695247 0.044379 0.643923
O O1 0.928497 0.049273 0.500000
O O2 0.806351 0.023630 0.664275
O O3 0.929023 0.118065 0.689323
O O4 0.000000 0.000000 0.692236
O O5 0.389469 0.214998 0.867368
O O6 0.232310 0.212671 0.749018
O O7 0.265953 0.313686 0.865845
O O8 0.237598 0.217012 0.000000
O O9 0.418299 0.817830 0.140020
O O10 0.506503 0.742696 0.295246
O O11 0.543007 0.868123 0.278750
O O12 0.777808 0.795468 0.500000
O O13 0.898798 0.850361 0.637079
O O14 0.709971 0.883518 0.633300
O O15 0.822727 0.596395 0.746747
O O16 0.824252 0.605274 0.000000
O O17 0.538188 0.688079 0.500000
O O18 0.562857 0.909909 0.500000
O O19 0.378707 0.013101 0.334449
O O20 0.688305 0.062667 0.500000
#
# Coordination Sequence:
#
# PCOD9424960 Si02
#       8
#     8   8   8   8   8   8   8   8
#     4   9  17  31  56  88 123 157 193 239 294 356
#     4  10  21  38  57  80 112 149 189 236 290 351
#     4  11  21  36  58  84 113 153 200 239 297 354
#     4   9  17  32  55  83 113 144 180 230 289 345
#     4  11  24  41  59  84 119 155 194 247 303 352
#     4  10  18  29  51  86 118 146 187 238 294 350
#     4   9  19  35  56  83 117 151 192 244 291 342
#     4  10  21  38  59  84 115 159 203 241 293 348
#
# _framework density 19.667795999999999
#
# number of rings (size 3 to 8) (size 9 to 14) (size 15 to 20)
#    0.000    2.125    1.250    2.250    0.000    5.500 
#    0.000    5.000    0.000    0.375    0.000    0.000 
#    0.000    0.000    0.000    0.000    0.000    0.000 
#
# Total GULP energy -356582.299427 kJ/mol
# GULP energy per Si atom -5571.598429 kJ/mol
# Density = 1.962303 g / cm^3
# Si number density = 19.667796 Si / 1000 Ang^3
#
#
#
# Elastic Constant Matrix: (Units=GPa)
#
#
# Indices 1 2 3 4 5 6 
#
# 1 73.2417 16.7791 24.1952 0.0000 0.0000 0.0000
# 2 16.7791 68.1614 50.6256 0.0000 0.0000 0.0000
# 3 24.1952 50.6256 109.8523 0.0000 0.0000 0.0000
# 4 0.0000 0.0000 0.0000 -28.8748 0.0000 0.0000
# 5 0.0000 0.0000 0.0000 0.0000 -4.5256 0.0000
# 6 0.0000 0.0000 0.0000 0.0000 0.0000 23.4496
#
#
#
# Elastic Compliance Matrix: (Units=1/GPa)
#
#
# Indices 1 2 3 4 5 6 
#
# 1 0.014880 -0.001868 -0.002416 0.000000 0.000000 0.000000
# 2 -0.001868 0.022541 -0.009976 0.000000 0.000000 0.000000
# 3 -0.002416 -0.009976 0.014233 0.000000 0.000000 0.000000
# 4 0.000000 0.000000 0.000000 -0.034632 0.000000 0.000000
# 5 0.000000 0.000000 0.000000 0.000000 -0.220966 0.000000
# 6 0.000000 0.000000 0.000000 0.000000 0.000000 0.042645
#
#
# Mechanical properties :
#
#
# Convention : Reuss Voigt Hill
#
# Bulk Modulus (GPa) = 43.23119 48.27279 45.75199
# Shear Modulus (GPa) = -39.97814 8.65356 -15.66229
#
# Velocity S-wave (km/s) = -4.51341 2.09986 -2.82501
# Velocity P-wave (km/s) = 2.26554 5.52056 3.55977
#
# Compressibility (1/GPa) = 0.02313145
#
# Stress axis : x y z
#
# Youngs Moduli (GPa) = 67.20597 44.36407 70.25933
#
# Poissons Ratio (x) = 0.08288 0.16977
# Poissons Ratio (y) = 0.12555 0.70094
# Poissons Ratio (z) = 0.16239 0.44260
#
# Static dielectric constant tensor:
#      x y z
#    x 1.703430 0.000000 0.000000 
#    y 0.000000 1.701310 0.000000 
#    z 0.000000 0.000000 1.700530 
# 
# From -- ./inp_files/13554.got.cif
#   From: 2010.05.17/outbox.cif.g08.bks.cpg/sg55_7_cif.got.tgz:13554.got - 2010.06.03 13:27:54.
