data_PCOD9424272
_publ_section_title
;
Structure prediction by ZEFSAII (Michael W. Deem and Ramdas Pophale) SiO2 
 PCOD9424272
Probable space group: P C C A
;
_chemical_formula_sum "Si O2"
_cell_formula_units_Z 56
_cell_length_a 17.937868
_cell_length_b 7.891091
_cell_length_c 18.732676
_cell_angle_alpha 90.000000
_cell_angle_beta 90.000000
_cell_angle_gamma 90.000000
_cell_volume 2651.598088
_symmetry_space_group_name_H-M "P C C A"
_symmetry_group_IT_number 54
_symmetry_cell_setting 'orthorhombic'
loop_
_space_group_symop_operation_xyz
x,y,z
1/2-x,-y,z
1/2+x,-y,1/2-z
-x,y,1/2-z
-x,-y,-z
1/2+x,y,-z
1/2-x,y,1/2+z
x,-y,1/2+z
loop_
_atom_site_type_symbol
_atom_site_label
_atom_site_fract_x
_atom_site_fract_y
_atom_site_fract_z
Si Si1 0.374276 0.056639 0.430068
Si Si2 0.463206 0.705263 0.447651
Si Si3 0.250000 0.000000 0.685622
Si Si4 0.721219 0.775890 0.685174
Si Si5 0.867731 0.427070 0.170477
Si Si6 0.385560 0.897475 0.090870
Si Si7 0.023452 0.753851 0.108633
Si Si8 0.500000 0.467482 0.250000
O O1 0.310149 0.101605 0.375426
O O2 0.441914 0.170124 0.401833
O O3 0.411885 0.872926 0.437478
O O4 0.353737 0.104578 0.510559
O O5 0.417081 0.572330 0.401186
O O6 0.462484 0.662753 0.531953
O O7 0.544626 0.762263 0.415532
O O8 0.211640 0.133832 0.739077
O O9 0.186760 0.896966 0.641844
O O10 0.674934 0.602626 0.680687
O O11 0.806753 0.720048 0.673935
O O12 0.929851 0.415888 0.231270
O O13 0.423266 0.080320 0.108444
O O14 0.023178 0.647584 0.181680
#
# Coordination Sequence:
#
# PCOD9424272 Si02
#       8
#     8   8   4   8   8   8   8   4
#     4   9  18  42  67  89 123 162 209 267 317 384
#     4   9  20  41  66  96 121 160 219 269 308 389
#     4  12  24  38  62  92 130 172 204 282 312 382
#     4  11  24  43  59  92 129 172 212 260 329 383
#     4  11  25  40  61  89 133 171 217 257 316 395
#     4   9  21  38  66  97 123 154 222 265 321 375
#     4   9  19  39  67  94 122 164 209 269 317 384
#     4  12  22  38  62  94 132 176 202 264 332 374
#
# _framework density 21.119340000000001
#
# number of rings (size 3 to 8) (size 9 to 14) (size 15 to 20)
#    0.000    2.000    1.429    3.429    2.000    3.429 
#    0.000    0.000    0.000    3.429    0.000    0.000 
#    0.000    0.000    0.000    0.000    0.000    0.000 
#
# Total GULP energy -312336.925760 kJ/mol
# GULP energy per Si atom -5577.445103 kJ/mol
# Density = 2.107127 g / cm^3
# Si number density = 21.119340 Si / 1000 Ang^3
#
#
#
# Elastic Constant Matrix: (Units=GPa)
#
#
# Indices 1 2 3 4 5 6 
#
# 1 117.3702 30.9064 84.9897 0.0000 0.0000 0.0000
# 2 30.9064 48.0236 26.4196 0.0000 0.0000 0.0000
# 3 84.9897 26.4196 133.2943 0.0000 0.0000 0.0000
# 4 0.0000 0.0000 0.0000 106.7980 0.0000 0.0000
# 5 0.0000 0.0000 0.0000 0.0000 41.1148 0.0000
# 6 0.0000 0.0000 0.0000 0.0000 0.0000 35.6444
#
#
#
# Elastic Compliance Matrix: (Units=1/GPa)
#
#
# Indices 1 2 3 4 5 6 
#
# 1 0.017077 -0.005612 -0.009776 0.000000 0.000000 0.000000
# 2 -0.005612 0.025216 -0.001420 0.000000 0.000000 0.000000
# 3 -0.009776 -0.001420 0.014017 0.000000 0.000000 0.000000
# 4 0.000000 0.000000 0.000000 0.009363 0.000000 0.000000
# 5 0.000000 0.000000 0.000000 0.000000 0.024322 0.000000
# 6 0.000000 0.000000 0.000000 0.000000 0.000000 0.028055
#
#
# Mechanical properties :
#
#
# Convention : Reuss Voigt Hill
#
# Bulk Modulus (GPa) = 44.06412 64.81326 54.43869
# Shear Modulus (GPa) = 31.40117 47.13627 39.26872
#
# Velocity S-wave (km/s) = 3.86015 4.72942 4.31672
# Velocity P-wave (km/s) = 6.38571 7.78325 7.11886
#
# Compressibility (1/GPa) = 0.02269420
#
# Stress axis : x y z
#
# Youngs Moduli (GPa) = 58.55916 39.65777 71.34265
#
# Poissons Ratio (x) = 0.22255 0.69745
# Poissons Ratio (y) = 0.32863 0.10129
# Poissons Ratio (z) = 0.57247 0.05630
#
# Static dielectric constant tensor:
#      x y z
#    x 1.803840 0.000000 0.000000 
#    y 0.000000 1.812430 0.000000 
#    z 0.000000 0.000000 1.786180 
# 
# From -- ./inp_files/18916.got.cif
#   From: 2010.05.17/outbox.cif.g08.bks.cpg/sg54_10_cif.got.tgz:18916.got - 2010.06.03 13:09:01.
