data_PCOD9424346
_publ_section_title
;
Structure prediction by ZEFSAII (Michael W. Deem and Ramdas Pophale) SiO2 
 PCOD9424346
Probable space group: P C C A
;
_chemical_formula_sum "Si O2"
_cell_formula_units_Z 40
_cell_length_a 17.706132
_cell_length_b 12.403059
_cell_length_c 7.251991
_cell_angle_alpha 90.000000
_cell_angle_beta 90.000000
_cell_angle_gamma 90.000000
_cell_volume 1592.611193
_symmetry_space_group_name_H-M "P C C A"
_symmetry_group_IT_number 54
_symmetry_cell_setting 'orthorhombic'
loop_
_space_group_symop_operation_xyz
x,y,z
1/2-x,-y,z
1/2+x,-y,1/2-z
-x,y,1/2-z
-x,-y,-z
1/2+x,y,-z
1/2-x,y,1/2+z
x,-y,1/2+z
loop_
_atom_site_type_symbol
_atom_site_label
_atom_site_fract_x
_atom_site_fract_y
_atom_site_fract_z
Si Si1 0.145192 0.344988 0.410020
Si Si2 0.816060 0.291898 0.665261
Si Si3 0.438031 0.438003 0.381209
Si Si4 0.057169 0.861857 0.961868
Si Si5 0.400561 0.904159 0.884649
O O1 0.155782 0.335863 0.634111
O O2 0.229544 0.323431 0.342309
O O3 0.114708 0.458597 0.335631
O O4 0.087080 0.247854 0.375656
O O5 0.878647 0.352903 0.541103
O O6 0.825548 0.167798 0.600043
O O7 0.500000 0.379572 0.250000
O O8 0.500000 0.500000 0.500000
O O9 0.075457 0.866685 0.180169
O O10 0.966658 0.877247 0.967301
O O11 0.100816 0.966823 0.885074
#
# Coordination Sequence:
#
# PCOD9424346 Si02
#       5
#     8   8   8   8   8
#     4  11  25  43  62  94 130 166 208 259 319 375
#     4  11  25  42  64  91 132 167 205 263 318 375
#     4  12  25  44  69  92 120 164 212 261 318 379
#     4   9  19  39  62  91 124 162 210 256 305 365
#     4   9  19  38  64  89 123 165 207 257 306 364
#
# _framework density 25.115984999999998
#
# number of rings (size 3 to 8) (size 9 to 14) (size 15 to 20)
#    0.000    1.600    2.000    1.800    5.600    4.000 
#    7.200    4.000    0.000    0.000    0.000    0.000 
#    0.000    0.000    0.000    0.000    0.000    0.000 
#
# Total GULP energy -223105.876605 kJ/mol
# GULP energy per Si atom -5577.646915 kJ/mol
# Density = 2.505882 g / cm^3
# Si number density = 25.115985 Si / 1000 Ang^3
#
#
#
# Elastic Constant Matrix: (Units=GPa)
#
#
# Indices 1 2 3 4 5 6 
#
# 1 139.1139 44.5166 3.0874 0.0000 0.0000 0.0000
# 2 44.5166 162.4609 12.9360 0.0000 0.0000 0.0000
# 3 3.0874 12.9360 38.8990 0.0000 0.0000 0.0000
# 4 0.0000 0.0000 0.0000 20.5220 0.0000 0.0000
# 5 0.0000 0.0000 0.0000 0.0000 30.3390 0.0000
# 6 0.0000 0.0000 0.0000 0.0000 0.0000 47.5693
#
#
#
# Elastic Compliance Matrix: (Units=1/GPa)
#
#
# Indices 1 2 3 4 5 6 
#
# 1 0.007880 -0.002167 0.000095 0.000000 0.000000 0.000000
# 2 -0.002167 0.006919 -0.002129 0.000000 0.000000 0.000000
# 3 0.000095 -0.002129 0.026408 0.000000 0.000000 0.000000
# 4 0.000000 0.000000 0.000000 0.048728 0.000000 0.000000
# 5 0.000000 0.000000 0.000000 0.000000 0.032961 0.000000
# 6 0.000000 0.000000 0.000000 0.000000 0.000000 0.021022
#
#
# Mechanical properties :
#
#
# Convention : Reuss Voigt Hill
#
# Bulk Modulus (GPa) = 30.48282 51.28376 40.88329
# Shear Modulus (GPa) = 30.62731 38.34832 34.48781
#
# Velocity S-wave (km/s) = 3.49583 3.91173 3.70961
# Velocity P-wave (km/s) = 5.33457 6.39260 5.88740
#
# Compressibility (1/GPa) = 0.03280537
#
# Stress axis : x y z
#
# Youngs Moduli (GPa) = 126.91025 144.53915 37.86735
#
# Poissons Ratio (x) = 0.31317 -0.00360
# Poissons Ratio (y) = 0.27498 0.08061
# Poissons Ratio (z) = -0.01207 0.30770
#
# Static dielectric constant tensor:
#      x y z
#    x 1.954050 0.000000 0.000000 
#    y 0.000000 2.014950 0.000000 
#    z 0.000000 0.000000 2.282550 
# 
# From -- ./inp_files/3954.got.cif
#   From: 2010.05.17/outbox.cif.g08.bks.cpg/sg54_2_cif.got.tgz:3954.got - 2010.06.03 13:09:01.
