data_PCOD9424396
_publ_section_title
;
Structure prediction by ZEFSAII (Michael W. Deem and Ramdas Pophale) SiO2 
 PCOD9424396
Probable space group: P C C A
;
_chemical_formula_sum "Si O2"
_cell_formula_units_Z 32
_cell_length_a 14.757515
_cell_length_b 7.561812
_cell_length_c 11.376041
_cell_angle_alpha 90.000000
_cell_angle_beta 90.000000
_cell_angle_gamma 90.000000
_cell_volume 1269.492846
_symmetry_space_group_name_H-M "P C C A"
_symmetry_group_IT_number 54
_symmetry_cell_setting 'orthorhombic'
loop_
_space_group_symop_operation_xyz
x,y,z
1/2-x,-y,z
1/2+x,-y,1/2-z
-x,y,1/2-z
-x,-y,-z
1/2+x,y,-z
1/2-x,y,1/2+z
x,-y,1/2+z
loop_
_atom_site_type_symbol
_atom_site_label
_atom_site_fract_x
_atom_site_fract_y
_atom_site_fract_z
Si Si1 0.287657 0.686870 0.608828
Si Si2 0.097134 0.461671 0.811603
Si Si3 0.887778 0.185071 0.493790
Si Si4 0.086965 0.169577 0.410876
O O1 0.250000 0.500000 0.559935
O O2 0.326894 0.635910 0.735045
O O3 0.200899 0.809586 0.586575
O O4 0.370494 0.763921 0.534101
O O5 0.094921 0.367133 0.937199
O O6 0.113727 0.671986 0.824273
O O7 0.000000 0.440063 0.750000
O O8 0.978406 0.155644 0.418412
O O9 0.878921 0.031562 0.592755
#
# Coordination Sequence:
#
# PCOD9424396 Si02
#       4
#     8   8   8   8
#     4  12  25  46  76 106 147 198 247 310 378 452
#     4  12  25  47  76 108 148 198 252 313 377 454
#     4  11  25  50  76 109 151 198 253 312 384 447
#     4  11  25  51  75 105 151 197 248 317 379 453
#
# _framework density 25.206918000000002
#
# number of rings (size 3 to 8) (size 9 to 14) (size 15 to 20)
#    0.000    0.500    5.000    3.000    3.500    1.000 
#    9.000    0.000    0.000    0.000    0.000    0.000 
#    0.000    0.000    0.000    0.000    0.000    0.000 
#
# Total GULP energy -179043.088635 kJ/mol
# GULP energy per Si atom -5595.096520 kJ/mol
# Density = 2.514955 g / cm^3
# Si number density = 25.206918 Si / 1000 Ang^3
#
#
#
# Elastic Constant Matrix: (Units=GPa)
#
#
# Indices 1 2 3 4 5 6 
#
# 1 158.6443 42.5233 38.4268 0.0000 0.0000 0.0000
# 2 42.5233 134.7684 19.4050 0.0000 0.0000 0.0000
# 3 38.4268 19.4050 40.5025 0.0000 0.0000 0.0000
# 4 0.0000 0.0000 0.0000 39.9983 0.0000 0.0000
# 5 0.0000 0.0000 0.0000 0.0000 37.8109 0.0000
# 6 0.0000 0.0000 0.0000 0.0000 0.0000 27.8708
#
#
#
# Elastic Compliance Matrix: (Units=1/GPa)
#
#
# Indices 1 2 3 4 5 6 
#
# 1 0.008507 -0.001635 -0.007288 0.000000 0.000000 0.000000
# 2 -0.001635 0.008284 -0.002418 0.000000 0.000000 0.000000
# 3 -0.007288 -0.002418 0.032762 0.000000 0.000000 0.000000
# 4 0.000000 0.000000 0.000000 0.025001 0.000000 0.000000
# 5 0.000000 0.000000 0.000000 0.000000 0.026447 0.000000
# 6 0.000000 0.000000 0.000000 0.000000 0.000000 0.035880
#
#
# Mechanical properties :
#
#
# Convention : Reuss Voigt Hill
#
# Bulk Modulus (GPa) = 37.21263 59.40283 48.30773
# Shear Modulus (GPa) = 29.67012 36.70668 33.18840
#
# Velocity S-wave (km/s) = 3.43456 3.82018 3.63249
# Velocity P-wave (km/s) = 5.52478 6.56320 6.06625
#
# Compressibility (1/GPa) = 0.02687260
#
# Stress axis : x y z
#
# Youngs Moduli (GPa) = 117.55300 120.71281 30.52286
#
# Poissons Ratio (x) = 0.19734 0.22244
# Poissons Ratio (y) = 0.19218 0.07380
# Poissons Ratio (z) = 0.85668 0.29188
#
# Static dielectric constant tensor:
#      x y z
#    x 1.968830 0.000000 0.000000 
#    y 0.000000 2.034320 0.000000 
#    z 0.000000 0.000000 1.973680 
# 
# From -- ./inp_files/8076.got.cif
#   From: 2010.05.17/outbox.cif.g08.bks.cpg/sg54_5_cif.got.tgz:8076.got - 2010.06.03 13:09:01.
