data_PCOD9424536
_publ_section_title
;
Structure prediction by ZEFSAII (Michael W. Deem and Ramdas Pophale) SiO2 
 PCOD9424536
Probable space group: P C C A
;
_chemical_formula_sum "Si O2"
_cell_formula_units_Z 60
_cell_length_a 9.676196
_cell_length_b 17.028060
_cell_length_c 17.133312
_cell_angle_alpha 90.000000
_cell_angle_beta 90.000000
_cell_angle_gamma 90.000000
_cell_volume 2823.001781
_symmetry_space_group_name_H-M "P C C A"
_symmetry_group_IT_number 54
_symmetry_cell_setting 'orthorhombic'
loop_
_space_group_symop_operation_xyz
x,y,z
1/2-x,-y,z
1/2+x,-y,1/2-z
-x,y,1/2-z
-x,-y,-z
1/2+x,y,-z
1/2-x,y,1/2+z
x,-y,1/2+z
loop_
_atom_site_type_symbol
_atom_site_label
_atom_site_fract_x
_atom_site_fract_y
_atom_site_fract_z
Si Si1 0.874161 0.940905 0.791376
Si Si2 0.924802 0.077195 0.467692
Si Si3 0.007247 0.348461 0.330537
Si Si4 0.500000 0.725037 0.750000
Si Si5 0.302577 0.319177 0.109995
Si Si6 0.375814 0.443684 0.975774
Si Si7 0.282022 0.205210 0.816667
Si Si8 0.826183 0.829727 0.502137
O O1 0.932377 0.916309 0.874778
O O2 0.829539 0.867861 0.737325
O O3 0.000000 0.984940 0.750000
O O4 0.750000 0.000000 0.803397
O O5 0.765425 0.093189 0.485182
O O6 0.012981 0.149064 0.501748
O O7 0.000000 0.000000 0.500000
O O8 0.851547 0.327881 0.355968
O O9 0.000000 0.397282 0.250000
O O10 0.077973 0.391698 0.402704
O O11 0.106463 0.275239 0.308756
O O12 0.582341 0.681684 0.820983
O O13 0.372751 0.772236 0.789591
O O14 0.334462 0.387642 0.047914
O O15 0.301168 0.238010 0.060732
O O16 0.250000 0.500000 0.954376
O O17 0.500000 0.500000 0.000000
O O18 0.286511 0.190111 0.909228
#
# Coordination Sequence:
#
# PCOD9424536 Si02
#       8
#     8   8   8   4   8   8   8   8
#     4  12  28  47  70  99 146 195 250 321 392 458
#     4  12  27  46  69 106 143 194 250 316 381 450
#     4  12  26  52  78 110 160 200 255 312 382 462
#     4  12  28  42  76 114 154 186 266 312 376 452
#     4  12  27  48  77 116 149 208 254 316 379 467
#     4  12  28  51  80 115 158 200 250 305 384 463
#     4  12  26  46  73 108 147 198 251 319 378 450
#     4  12  25  44  75 101 146 197 257 306 378 453
#
# _framework density 21.253972000000001
#
# number of rings (size 3 to 8) (size 9 to 14) (size 15 to 20)
#    0.000    0.000    5.333    4.000    6.533    0.000 
#    3.600    0.000    0.000    0.000    0.000    0.000 
#    0.000    0.000    0.000    0.000    0.000    0.000 
#
# Total GULP energy -335449.517418 kJ/mol
# GULP energy per Si atom -5590.825290 kJ/mol
# Density = 2.120560 g / cm^3
# Si number density = 21.253972 Si / 1000 Ang^3
#
#
#
# Elastic Constant Matrix: (Units=GPa)
#
#
# Indices 1 2 3 4 5 6 
#
# 1 161.4595 51.1567 50.5704 0.0000 0.0000 0.0000
# 2 51.1567 92.2326 50.7688 0.0000 0.0000 0.0000
# 3 50.5704 50.7688 157.7957 0.0000 0.0000 0.0000
# 4 0.0000 0.0000 0.0000 -480.9877 0.0000 0.0000
# 5 0.0000 0.0000 0.0000 0.0000 44.9640 0.0000
# 6 0.0000 0.0000 0.0000 0.0000 0.0000 34.0236
#
#
#
# Elastic Compliance Matrix: (Units=1/GPa)
#
#
# Indices 1 2 3 4 5 6 
#
# 1 0.007739 -0.003557 -0.001336 0.000000 0.000000 0.000000
# 2 -0.003557 0.014811 -0.003625 0.000000 0.000000 0.000000
# 3 -0.001336 -0.003625 0.007932 0.000000 0.000000 0.000000
# 4 0.000000 0.000000 0.000000 -0.002079 0.000000 0.000000
# 5 0.000000 0.000000 0.000000 0.000000 0.022240 0.000000
# 6 0.000000 0.000000 0.000000 0.000000 0.000000 0.029391
#
#
# Mechanical properties :
#
#
# Convention : Reuss Voigt Hill
#
# Bulk Modulus (GPa) = 74.37579 79.60885 76.99232
# Shear Modulus (GPa) = 49.23628 -63.13389 -6.94880
#
# Velocity S-wave (km/s) = 4.81830 -5.45610 -1.81011
# Velocity P-wave (km/s) = 8.12554 1.46789 5.65109
#
# Compressibility (1/GPa) = 0.01344524
#
# Stress axis : x y z
#
# Youngs Moduli (GPa) = 129.21741 67.51950 126.07630
#
# Poissons Ratio (x) = 0.24018 0.16840
# Poissons Ratio (y) = 0.45965 0.45704
# Poissons Ratio (z) = 0.17260 0.24477
#
# Static dielectric constant tensor:
#      x y z
#    x 1.722900 0.000000 0.000000 
#    y 0.000000 1.765960 0.000000 
#    z 0.000000 0.000000 1.196190 
# 
# From -- ./inp_files/16821.got.cif
#   From: 2010.05.17/outbox.cif.g08.bks.cpg/sg54_9_cif.got.tgz:16821.got - 2010.06.03 13:09:01.
