data_PCOD9424636
_publ_section_title
;
Structure prediction by ZEFSAII (Michael W. Deem and Ramdas Pophale) SiO2 
 PCOD9424636
Probable space group: P C C A
;
_chemical_formula_sum "Si O2"
_cell_formula_units_Z 48
_cell_length_a 9.000000
_cell_length_b 9.000000
_cell_length_c 30.000000
_cell_angle_alpha 90.000000
_cell_angle_beta 90.000000
_cell_angle_gamma 90.000000
_cell_volume 2430.000000
_symmetry_space_group_name_H-M "P C C A"
_symmetry_group_IT_number 54
_symmetry_cell_setting 'orthorhombic'
loop_
_space_group_symop_operation_xyz
x,y,z
1/2-x,-y,z
1/2+x,-y,1/2-z
-x,y,1/2-z
-x,-y,-z
1/2+x,y,-z
1/2-x,y,1/2+z
x,-y,1/2+z
loop_
_atom_site_type_symbol
_atom_site_label
_atom_site_fract_x
_atom_site_fract_y
_atom_site_fract_z
Si Si1 0.319124 0.833621 0.955755
Si Si2 0.784021 0.174442 0.644097
Si Si3 0.723262 0.330772 0.862992
Si Si4 0.483784 0.308748 0.199814
Si Si5 0.545804 0.656676 0.198792
Si Si6 0.820360 0.164420 0.952863
O O1 0.272659 0.768836 0.907112
O O2 0.499553 0.838283 0.957201
O O3 0.250000 0.000000 0.954770
O O4 0.250781 0.766092 0.001477
O O5 0.948171 0.203789 0.662077
O O6 0.693094 0.262179 0.682101
O O7 0.750000 0.000000 0.644647
O O8 0.750000 0.500000 0.877571
O O9 0.561736 0.301173 0.842790
O O10 0.770728 0.237552 0.906105
O O11 0.816518 0.319920 0.817003
O O12 0.500000 0.252518 0.250000
O O13 0.549973 0.476531 0.198543
O O14 0.500000 0.697138 0.250000
O O15 0.750000 0.000000 0.951289
#
# Coordination Sequence:
#
# PCOD9424636 Si02
#       6
#     8   8   8   8   8   8
#     4  10  22  38  61  91 117 154 198 239 296 362
#     4  11  23  37  59  92 124 148 198 249 297 347
#     4  10  22  38  59  89 120 150 200 250 295 345
#     4  10  20  41  63  84 117 162 201 242 287 362
#     4  10  22  39  63  86 116 164 207 235 292 352
#     4  11  22  39  65  86 116 159 198 241 297 359
#
# _framework density 19.753086
#
# number of rings (size 3 to 8) (size 9 to 14) (size 15 to 20)
#    0.000    1.667    1.667    3.500    7.000    3.333 
#    0.000    4.167    0.000    0.000    0.000    0.000 
#    0.000    0.000    0.000    0.000    0.000    0.000 
#
# Total GULP energy -267294.415177 kJ/mol
# GULP energy per Si atom -5568.633650 kJ/mol
# Density = 1.970813 g / cm^3
# Si number density = 19.753086 Si / 1000 Ang^3
#
#
#
# Elastic Constant Matrix: (Units=GPa)
#
#
# Indices 1 2 3 4 5 6 
#
# 1 69.3477 4.2809 22.2587 0.0000 0.0000 0.0000
# 2 4.2809 5.8548 23.0061 0.0000 0.0000 0.0000
# 3 22.2587 23.0061 183.1410 0.0000 0.0000 0.0000
# 4 0.0000 0.0000 0.0000 43.4857 0.0000 0.0000
# 5 0.0000 0.0000 0.0000 0.0000 82.6691 0.0000
# 6 0.0000 0.0000 0.0000 0.0000 0.0000 15.7327
#
#
#
# Elastic Compliance Matrix: (Units=1/GPa)
#
#
# Indices 1 2 3 4 5 6 
#
# 1 0.015175 -0.007599 -0.000890 0.000000 0.000000 0.000000
# 2 -0.007599 0.341095 -0.041925 0.000000 0.000000 0.000000
# 3 -0.000890 -0.041925 0.010835 0.000000 0.000000 0.000000
# 4 0.000000 0.000000 0.000000 0.022996 0.000000 0.000000
# 5 0.000000 0.000000 0.000000 0.000000 0.012096 0.000000
# 6 0.000000 0.000000 0.000000 0.000000 0.000000 0.063562
#
#
# Mechanical properties :
#
#
# Convention : Reuss Voigt Hill
#
# Bulk Modulus (GPa) = 3.75548 39.71499 21.73523
# Shear Modulus (GPa) = 7.62956 42.29736 24.96346
#
# Velocity S-wave (km/s) = 1.96745 4.63244 3.55882
# Velocity P-wave (km/s) = 2.65828 6.98298 5.28340
#
# Compressibility (1/GPa) = 0.26627775
#
# Stress axis : x y z
#
# Youngs Moduli (GPa) = 65.89887 2.93173 92.29377
#
# Poissons Ratio (x) = 0.02228 0.08211
# Poissons Ratio (y) = 0.50078 3.86938
# Poissons Ratio (z) = 0.05863 0.12291
#
# Static dielectric constant tensor:
#      x y z
#    x 1.734270 0.000000 0.000000 
#    y 0.000000 1.666750 0.000000 
#    z 0.000000 0.000000 1.686210 
# 
# From -- ./inp_files/27706.got.cif
#   From: 2010.05.17/outbox.ucp.g08.bks.cvg/sg54_14_cif.got.tgz:27706.got - 2010.06.11 16:34:40.
