data_PCOD9424730
_publ_section_title
;
Structure prediction by ZEFSAII (Michael W. Deem and Ramdas Pophale) SiO2 
 PCOD9424730
Probable space group: P B A M
;
_chemical_formula_sum "Si O2"
_cell_formula_units_Z 64
_cell_length_a 20.047760
_cell_length_b 23.469114
_cell_length_c 7.656833
_cell_angle_alpha 90.000000
_cell_angle_beta 90.000000
_cell_angle_gamma 90.000000
_cell_volume 3602.564159
_symmetry_space_group_name_H-M "P B A M"
_symmetry_group_IT_number 55
_symmetry_cell_setting 'orthorhombic'
loop_
_space_group_symop_operation_xyz
x,y,z
-x,-y,z
1/2+x,1/2-y,-z
1/2-x,1/2+y,-z
-x,-y,-z
x,y,-z
1/2-x,1/2+y,z
1/2+x,1/2-y,z
loop_
_atom_site_type_symbol
_atom_site_label
_atom_site_fract_x
_atom_site_fract_y
_atom_site_fract_z
Si Si1 0.004335 0.631256 0.201441
Si Si2 0.628006 0.941577 0.796625
Si Si3 0.370528 0.928913 0.297071
Si Si4 0.004121 0.239185 0.702341
Si Si5 0.649558 0.277630 0.286631
Si Si6 0.642728 0.727999 0.286062
Si Si7 0.278568 0.157921 0.288959
Si Si8 0.270961 0.836063 0.712272
O O1 0.065298 0.594256 0.277041
O O2 0.937392 0.594125 0.208111
O O3 0.994315 0.691928 0.292066
O O4 0.020492 0.644614 0.000000
O O5 0.691754 0.900931 0.777585
O O6 0.636408 0.003594 0.716475
O O7 0.613477 0.951577 0.000000
O O8 0.378859 0.913361 0.500000
O O9 0.306092 0.894178 0.230423
O O10 0.003639 0.221148 0.500000
O O11 0.074071 0.217514 0.778902
O O12 0.932667 0.221153 0.778121
O O13 0.647842 0.277808 0.500000
O O14 0.704035 0.324513 0.233143
O O15 0.680616 0.216335 0.237322
O O16 0.641169 0.728266 0.500000
O O17 0.672955 0.789692 0.235675
O O18 0.696779 0.681025 0.229121
O O19 0.279274 0.156193 0.500000
O O20 0.267715 0.836413 0.500000
#
# Coordination Sequence:
#
# PCOD9424730 Si02
#       8
#     8   8   8   8   8   8   8   8
#     4  11  22  33  43  62  96 128 152 187 227 261
#     4  11  23  35  45  62  94 126 155 193 232 264
#     4  11  21  33  51  67  86 121 164 195 222 270
#     4  10  16  27  49  72  92 122 156 182 216 273
#     4   8  14  25  45  71  95 113 143 192 229 256
#     4   8  14  24  45  71  93 115 145 185 228 270
#     4   9  16  29  48  68  89 118 154 188 224 268
#     4   8  14  26  43  68  94 113 141 191 234 259
#
# _framework density 17.765122999999999
#
# number of rings (size 3 to 8) (size 9 to 14) (size 15 to 20)
#    0.000    2.500    2.500    3.000    0.000    3.000 
#    0.000    0.625    0.000    1.500    0.000    0.875 
#    0.000    7.000    0.000    0.000    0.000    0.000 
#
# Total GULP energy -356899.454598 kJ/mol
# GULP energy per Si atom -5576.553978 kJ/mol
# Density = 1.772469 g / cm^3
# Si number density = 17.765123 Si / 1000 Ang^3
#
#
#
# Elastic Constant Matrix: (Units=GPa)
#
#
# Indices 1 2 3 4 5 6 
#
# 1 170.5791 51.4007 -1.3382 0.0000 0.0000 0.0000
# 2 51.4007 62.1452 -7.2831 0.0000 0.0000 0.0000
# 3 -1.3382 -7.2831 33.7331 0.0000 0.0000 0.0000
# 4 0.0000 0.0000 0.0000 -24.0453 0.0000 0.0000
# 5 0.0000 0.0000 0.0000 0.0000 8.6963 0.0000
# 6 0.0000 0.0000 0.0000 0.0000 0.0000 19.7286
#
#
#
# Elastic Compliance Matrix: (Units=1/GPa)
#
#
# Indices 1 2 3 4 5 6 
#
# 1 0.007849 -0.006623 -0.001119 0.000000 0.000000 0.000000
# 2 -0.006623 0.022098 0.004508 0.000000 0.000000 0.000000
# 3 -0.001119 0.004508 0.030573 0.000000 0.000000 0.000000
# 4 0.000000 0.000000 0.000000 -0.041588 0.000000 0.000000
# 5 0.000000 0.000000 0.000000 0.000000 0.114991 0.000000
# 6 0.000000 0.000000 0.000000 0.000000 0.000000 0.050688
#
#
# Mechanical properties :
#
#
# Convention : Reuss Voigt Hill
#
# Bulk Modulus (GPa) = 18.50023 39.11290 28.80656
# Shear Modulus (GPa) = 23.91230 15.78779 19.85004
#
# Velocity S-wave (km/s) = 3.67280 2.98433 3.34632
# Velocity P-wave (km/s) = 5.33126 5.82576 5.58399
#
# Compressibility (1/GPa) = 0.05405339
#
# Stress axis : x y z
#
# Youngs Moduli (GPa) = 127.39745 45.25297 32.70807
#
# Poissons Ratio (x) = 0.29973 0.03659
# Poissons Ratio (y) = 0.84381 -0.14746
# Poissons Ratio (z) = 0.14251 -0.20401
#
# Static dielectric constant tensor:
#      x y z
#    x 1.643940 0.000000 0.000000 
#    y 0.000000 1.569360 0.000000 
#    z 0.000000 0.000000 1.658010 
# 
# From -- ./inp_files/8197.got.cif
#   From: 2010.05.17/outbox.cif.g08.bks.cpg/sg55_5_cif.got.tgz:8197.got - 2010.06.03 13:27:54.
