data_PCOD9424065
_publ_section_title
;
Structure prediction by ZEFSAII (Michael W. Deem and Ramdas Pophale) SiO2 
 PCOD9424065
Probable space group: P C C A
;
_chemical_formula_sum "Si O2"
_cell_formula_units_Z 32
_cell_length_a 18.574237
_cell_length_b 14.919034
_cell_length_c 5.002579
_cell_angle_alpha 90.000000
_cell_angle_beta 90.000000
_cell_angle_gamma 90.000000
_cell_volume 1386.263032
_symmetry_space_group_name_H-M "P C C A"
_symmetry_group_IT_number 54
_symmetry_cell_setting 'orthorhombic'
loop_
_space_group_symop_operation_xyz
x,y,z
1/2-x,-y,z
1/2+x,-y,1/2-z
-x,y,1/2-z
-x,-y,-z
1/2+x,y,-z
1/2-x,y,1/2+z
x,-y,1/2+z
loop_
_atom_site_type_symbol
_atom_site_label
_atom_site_fract_x
_atom_site_fract_y
_atom_site_fract_z
Si Si1 0.000000 0.370855 0.750000
Si Si2 0.067801 0.800097 0.073380
Si Si3 0.000000 0.933535 0.750000
Si Si4 0.353333 0.443208 0.447366
Si Si5 0.706390 0.245827 0.115117
O O1 0.955414 0.304666 0.952863
O O2 0.938595 0.423875 0.594268
O O3 0.139162 0.803242 0.248444
O O4 0.000000 0.831910 0.250000
O O5 0.064591 0.862538 0.814324
O O6 0.000000 0.000000 0.500000
O O7 0.336081 0.477835 0.740779
O O8 0.313447 0.351181 0.378486
O O9 0.773669 0.226643 0.309790
#
# Coordination Sequence:
#
# PCOD9424065 Si02
#       5
#     4   8   4   8   8
#     4   8  19  38  57  90 118 168 216 272 319 380
#     4   9  22  42  68  95 127 168 218 264 312 395
#     4  12  23  40  71 108 130 154 200 268 329 382
#     4  11  22  36  57  85 124 166 219 278 330 373
#     4  11  25  41  62  91 128 176 222 266 326 385
#
# _framework density 23.083644
#
# number of rings (size 3 to 8) (size 9 to 14) (size 15 to 20)
#    0.750    1.000    1.250    2.250    3.500    7.000 
#    0.000    0.000    0.000    4.500    0.000    0.000 
#    0.000    0.000    0.000    0.000    0.000    0.000 
#
# Total GULP energy -178608.488057 kJ/mol
# GULP energy per Si atom -5581.515252 kJ/mol
# Density = 2.303110 g / cm^3
# Si number density = 23.083644 Si / 1000 Ang^3
#
#
#
# Elastic Constant Matrix: (Units=GPa)
#
#
# Indices 1 2 3 4 5 6 
#
# 1 78.0802 12.9910 2.3547 0.0000 0.0000 0.0000
# 2 12.9910 57.6855 22.5932 0.0000 0.0000 0.0000
# 3 2.3547 22.5932 94.5447 0.0000 0.0000 0.0000
# 4 0.0000 0.0000 0.0000 40.5736 0.0000 0.0000
# 5 0.0000 0.0000 0.0000 0.0000 30.2163 0.0000
# 6 0.0000 0.0000 0.0000 0.0000 0.0000 10.4054
#
#
#
# Elastic Compliance Matrix: (Units=1/GPa)
#
#
# Indices 1 2 3 4 5 6 
#
# 1 0.013321 -0.003166 0.000425 0.000000 0.000000 0.000000
# 2 -0.003166 0.019878 -0.004671 0.000000 0.000000 0.000000
# 3 0.000425 -0.004671 0.011683 0.000000 0.000000 0.000000
# 4 0.000000 0.000000 0.000000 0.024647 0.000000 0.000000
# 5 0.000000 0.000000 0.000000 0.000000 0.033095 0.000000
# 6 0.000000 0.000000 0.000000 0.000000 0.000000 0.096104
#
#
# Mechanical properties :
#
#
# Convention : Reuss Voigt Hill
#
# Bulk Modulus (GPa) = 33.27084 34.02091 33.64588
# Shear Modulus (GPa) = 22.36417 29.06382 25.71400
#
# Velocity S-wave (km/s) = 3.11598 3.55218 3.34121
# Velocity P-wave (km/s) = 5.23357 5.62086 5.43067
#
# Compressibility (1/GPa) = 0.03005635
#
# Stress axis : x y z
#
# Youngs Moduli (GPa) = 75.06738 50.30661 85.59633
#
# Poissons Ratio (x) = 0.15929 -0.03637
# Poissons Ratio (y) = 0.23770 0.39985
# Poissons Ratio (z) = -0.03190 0.23500
#
# Static dielectric constant tensor:
#      x y z
#    x 1.882920 0.000000 0.000000 
#    y 0.000000 1.881240 0.000000 
#    z 0.000000 0.000000 1.773560 
# 
# From -- ./inp_files/893.got.cif
#   From: 2010.05.17/outbox.cif.g08.bks.cpg/sg54_1_cif.got.tgz:893.got - 2010.06.03 13:09:01.
