data_PCOD9424519
_publ_section_title
;
Structure prediction by ZEFSAII (Michael W. Deem and Ramdas Pophale) SiO2 
 PCOD9424519
Probable space group: P C C A
;
_chemical_formula_sum "Si O2"
_cell_formula_units_Z 32
_cell_length_a 14.728035
_cell_length_b 6.287935
_cell_length_c 14.137509
_cell_angle_alpha 90.000000
_cell_angle_beta 90.000000
_cell_angle_gamma 90.000000
_cell_volume 1309.259536
_symmetry_space_group_name_H-M "P C C A"
_symmetry_group_IT_number 54
_symmetry_cell_setting 'orthorhombic'
loop_
_space_group_symop_operation_xyz
x,y,z
1/2-x,-y,z
1/2+x,-y,1/2-z
-x,y,1/2-z
-x,-y,-z
1/2+x,y,-z
1/2-x,y,1/2+z
x,-y,1/2+z
loop_
_atom_site_type_symbol
_atom_site_label
_atom_site_fract_x
_atom_site_fract_y
_atom_site_fract_z
Si Si1 0.874816 0.483511 0.845810
Si Si2 0.019145 0.164850 0.415210
Si Si3 0.750000 0.500000 0.674270
Si Si4 0.000000 0.136922 0.750000
Si Si5 0.712594 0.766659 0.011696
O O1 0.827909 0.563780 0.748912
O O2 0.936460 0.669936 0.893807
O O3 0.938544 0.293107 0.810645
O O4 0.805121 0.355093 0.913735
O O5 0.112900 0.270839 0.444441
O O6 0.000000 0.000000 0.500000
O O7 0.043100 0.023256 0.324617
O O8 0.723958 0.680181 0.597191
O O9 0.750000 0.000000 0.990581
#
# Coordination Sequence:
#
# PCOD9424519 Si02
#       5
#     8   8   4   4   8
#     4  12  28  47  77 115 156 214 275 340 414 512
#     4  12  27  48  78 112 158 212 271 338 420 513
#     4  12  28  46  74 106 162 200 268 342 408 480
#     4  12  24  46  78 106 154 200 268 330 408 494
#     4  12  28  48  78 113 157 207 272 339 420 487
#
# _framework density 24.441296999999999
#
# number of rings (size 3 to 8) (size 9 to 14) (size 15 to 20)
#    0.000    0.000    2.500    6.750   10.500    3.000 
#    0.000    0.000    0.000    0.000    0.000    0.000 
#    0.000    0.000    0.000    0.000    0.000    0.000 
#
# Total GULP energy -178585.386876 kJ/mol
# GULP energy per Si atom -5580.793340 kJ/mol
# Density = 2.438567 g / cm^3
# Si number density = 24.441297 Si / 1000 Ang^3
#
#
#
# Elastic Constant Matrix: (Units=GPa)
#
#
# Indices 1 2 3 4 5 6 
#
# 1 58.0356 67.4519 35.1175 0.0000 0.0000 0.0000
# 2 67.4519 171.7198 93.2389 0.0000 0.0000 0.0000
# 3 35.1175 93.2389 181.7166 0.0000 0.0000 0.0000
# 4 0.0000 0.0000 0.0000 67.4351 0.0000 0.0000
# 5 0.0000 0.0000 0.0000 0.0000 16.6165 0.0000
# 6 0.0000 0.0000 0.0000 0.0000 0.0000 44.4928
#
#
#
# Elastic Compliance Matrix: (Units=1/GPa)
#
#
# Indices 1 2 3 4 5 6 
#
# 1 0.031723 -0.012659 0.000365 0.000000 0.000000 0.000000
# 2 -0.012659 0.013124 -0.004287 0.000000 0.000000 0.000000
# 3 0.000365 -0.004287 0.007633 0.000000 0.000000 0.000000
# 4 0.000000 0.000000 0.000000 0.014829 0.000000 0.000000
# 5 0.000000 0.000000 0.000000 0.000000 0.060181 0.000000
# 6 0.000000 0.000000 0.000000 0.000000 0.000000 0.022476
#
#
# Mechanical properties :
#
#
# Convention : Reuss Voigt Hill
#
# Bulk Modulus (GPa) = 51.77064 89.23207 70.50136
# Shear Modulus (GPa) = 26.37589 40.08645 33.23117
#
# Velocity S-wave (km/s) = 3.28861 4.05422 3.69132
# Velocity P-wave (km/s) = 5.97056 7.64877 6.86116
#
# Compressibility (1/GPa) = 0.01931597
#
# Stress axis : x y z
#
# Youngs Moduli (GPa) = 31.52295 76.19722 131.01858
#
# Poissons Ratio (x) = 0.96457 -0.04778
# Poissons Ratio (y) = 0.39904 0.56174
# Poissons Ratio (z) = -0.01150 0.32669
#
# Static dielectric constant tensor:
#      x y z
#    x 2.161900 0.000000 0.000000 
#    y 0.000000 2.034910 0.000000 
#    z 0.000000 0.000000 2.062640 
# 
# From -- ./inp_files/13754.got.cif
#   From: 2010.05.17/outbox.cif.g08.bks.cpg/sg54_7_cif.got.tgz:13754.got - 2010.06.03 13:09:01.
