data_PCOD9424926
_publ_section_title
;
Structure prediction by ZEFSAII (Michael W. Deem and Ramdas Pophale) SiO2 
 PCOD9424926
Probable space group: P B A M
;
_chemical_formula_sum "Si O2"
_cell_formula_units_Z 64
_cell_length_a 19.760247
_cell_length_b 24.100763
_cell_length_c 7.919944
_cell_angle_alpha 90.000000
_cell_angle_beta 90.000000
_cell_angle_gamma 90.000000
_cell_volume 3771.770606
_symmetry_space_group_name_H-M "P B A M"
_symmetry_group_IT_number 55
_symmetry_cell_setting 'orthorhombic'
loop_
_space_group_symop_operation_xyz
x,y,z
-x,-y,z
1/2+x,1/2-y,-z
1/2-x,1/2+y,-z
-x,-y,-z
x,y,-z
1/2-x,1/2+y,z
1/2+x,1/2-y,z
loop_
_atom_site_type_symbol
_atom_site_label
_atom_site_fract_x
_atom_site_fract_y
_atom_site_fract_z
Si Si1 0.370756 0.937848 0.801049
Si Si2 0.493634 0.252206 0.699225
Si Si3 0.344258 0.267853 0.294731
Si Si4 0.644941 0.937783 0.793157
Si Si5 0.994401 0.376744 0.205086
Si Si6 0.762374 0.341298 0.798439
Si Si7 0.641328 0.268929 0.199015
Si Si8 0.719477 0.160962 0.697171
O O1 0.439467 0.909851 0.732639
O O2 0.311002 0.893520 0.780689
O O3 0.354395 0.998844 0.732592
O O4 0.383514 0.945642 0.000000
O O5 0.496343 0.262119 0.500000
O O6 0.421348 0.274359 0.763498
O O7 0.494212 0.186087 0.730885
O O8 0.561998 0.276943 0.775526
O O9 0.343404 0.267425 0.500000
O O10 0.315128 0.208531 0.236514
O O11 0.290475 0.314209 0.237103
O O12 0.573994 0.908735 0.747363
O O13 0.705700 0.898212 0.731864
O O14 0.647606 0.937977 0.000000
O O15 0.996891 0.373809 0.000000
O O16 0.690279 0.317951 0.735803
O O17 0.756242 0.347748 0.000000
O O18 0.666254 0.211588 0.282257
O O19 0.654441 0.261885 0.000000
O O20 0.727360 0.148958 0.500000
#
# Coordination Sequence:
#
# PCOD9424926 Si02
#       8
#     8   8   8   8   8   8   8   8
#     4  10  19  30  46  68  94 124 159 189 220 268
#     4  11  20  30  46  68  94 124 153 186 230 275
#     4   9  19  32  46  65  91 120 151 188 232 275
#     4   9  17  30  47  67  92 125 158 189 224 263
#     4  10  18  29  45  65  93 126 159 187 214 259
#     4   9  17  30  48  68  89 118 155 190 225 268
#     4  10  19  30  46  68  92 118 152 191 229 272
#     4  10  19  32  47  65  91 121 152 190 231 269
#
# _framework density 16.968157999999999
#
# number of rings (size 3 to 8) (size 9 to 14) (size 15 to 20)
#    0.000    2.250    2.500    1.500    0.000    3.000 
#    0.000    1.250    0.000    1.500    0.000    0.875 
#    0.000    7.000    0.000    0.000    0.000    0.000 
#
# Total GULP energy -356896.043475 kJ/mol
# GULP energy per Si atom -5576.500679 kJ/mol
# Density = 1.692954 g / cm^3
# Si number density = 16.968158 Si / 1000 Ang^3
#
#
#
# Elastic Constant Matrix: (Units=GPa)
#
#
# Indices 1 2 3 4 5 6 
#
# 1 118.5632 44.3307 -10.3403 0.0000 0.0000 0.0000
# 2 44.3307 70.5511 -6.4359 0.0000 0.0000 0.0000
# 3 -10.3403 -6.4359 8.8622 0.0000 0.0000 0.0000
# 4 0.0000 0.0000 0.0000 78.9740 0.0000 0.0000
# 5 0.0000 0.0000 0.0000 0.0000 14.4436 0.0000
# 6 0.0000 0.0000 0.0000 0.0000 0.0000 18.6721
#
#
#
# Elastic Compliance Matrix: (Units=1/GPa)
#
#
# Indices 1 2 3 4 5 6 
#
# 1 0.011639 -0.006506 0.008856 0.000000 0.000000 0.000000
# 2 -0.006506 0.018816 0.006074 0.000000 0.000000 0.000000
# 3 0.008856 0.006074 0.127582 0.000000 0.000000 0.000000
# 4 0.000000 0.000000 0.000000 0.012662 0.000000 0.000000
# 5 0.000000 0.000000 0.000000 0.000000 0.069235 0.000000
# 6 0.000000 0.000000 0.000000 0.000000 0.000000 0.053556
#
#
# Mechanical properties :
#
#
# Convention : Reuss Voigt Hill
#
# Bulk Modulus (GPa) = 5.71802 28.12061 16.91931
# Shear Modulus (GPa) = 14.92817 33.77940 24.35378
#
# Velocity S-wave (km/s) = 2.96932 4.46662 3.79260
# Velocity P-wave (km/s) = 3.89011 6.57340 5.40104
#
# Compressibility (1/GPa) = 0.17488582
#
# Stress axis : x y z
#
# Youngs Moduli (GPa) = 85.91738 53.14631 7.83808
#
# Poissons Ratio (x) = 0.34575 -0.06941
# Poissons Ratio (y) = 0.55894 -0.04761
# Poissons Ratio (z) = -0.76087 -0.32281
#
# Static dielectric constant tensor:
#      x y z
#    x 1.599740 0.000000 0.000000 
#    y 0.000000 1.555810 0.000000 
#    z 0.000000 0.000000 1.609450 
# 
# From -- ./inp_files/8140.got.cif
#   From: 2010.05.17/outbox.cif.g08.bks.cpg/sg55_5_cif.got.tgz:8140.got - 2010.06.03 13:27:54.
