data_PCOD9424850
_publ_section_title
;
Structure prediction by ZEFSAII (Michael W. Deem and Ramdas Pophale) SiO2 
 PCOD9424850
Probable space group: P B A M
;
_chemical_formula_sum "Si O2"
_cell_formula_units_Z 64
_cell_length_a 24.264279
_cell_length_b 15.877135
_cell_length_c 7.664644
_cell_angle_alpha 90.000000
_cell_angle_beta 90.000000
_cell_angle_gamma 90.000000
_cell_volume 2952.782896
_symmetry_space_group_name_H-M "P B A M"
_symmetry_group_IT_number 55
_symmetry_cell_setting 'orthorhombic'
loop_
_space_group_symop_operation_xyz
x,y,z
-x,-y,z
1/2+x,1/2-y,-z
1/2-x,1/2+y,-z
-x,-y,-z
x,y,-z
1/2-x,1/2+y,z
1/2+x,1/2-y,z
loop_
_atom_site_type_symbol
_atom_site_label
_atom_site_fract_x
_atom_site_fract_y
_atom_site_fract_z
Si Si1 0.744184 0.845898 0.789665
Si Si2 0.379651 0.106032 0.787087
Si Si3 0.371059 0.398374 0.796132
Si Si4 0.361618 0.923703 0.795184
Si Si5 0.141531 0.084678 0.295971
Si Si6 0.749391 0.652532 0.214229
Si Si7 0.456025 0.259432 0.787616
Si Si8 0.416932 0.751332 0.702982
O O1 0.682467 0.868848 0.733898
O O2 0.792794 0.906354 0.727371
O O3 0.757343 0.750073 0.736372
O O4 0.744602 0.849330 0.000000
O O5 0.423747 0.175216 0.729854
O O6 0.388153 0.009931 0.727172
O O7 0.381391 0.109986 0.000000
O O8 0.380043 0.497692 0.781707
O O9 0.310439 0.377330 0.723082
O O10 0.419531 0.339132 0.726886
O O11 0.367409 0.375716 0.000000
O O12 0.300993 0.902175 0.722571
O O13 0.397928 0.840118 0.780352
O O14 0.352897 0.939883 0.000000
O O15 0.128424 0.081380 0.500000
O O16 0.114462 0.169841 0.220791
O O17 0.749683 0.649462 0.000000
O O18 0.518109 0.261181 0.722102
O O19 0.458913 0.259800 0.000000
O O20 0.401712 0.756252 0.500000
#
# Coordination Sequence:
#
# PCOD9424850 Si02
#       8
#     8   8   8   8   8   8   8   8
#     4  10  17  33  62  89 116 146 180 226 281 339
#     4   9  18  34  60  91 118 142 177 232 288 337
#     4  10  20  37  62  90 116 144 184 234 287 340
#     4  10  19  34  59  88 114 146 185 224 275 335
#     4  11  24  39  55  81 117 155 192 230 278 333
#     4   9  16  30  58  92 117 141 176 224 281 337
#     4  10  21  39  62  86 111 143 189 240 286 337
#     4  11  25  42  56  75 111 155 195 237 281 327
#
# _framework density 21.674468999999998
#
# number of rings (size 3 to 8) (size 9 to 14) (size 15 to 20)
#    0.000    2.000    2.500    1.500    0.000    5.000 
#    0.000    9.375    0.000    0.000    0.000    0.000 
#    0.000    0.000    0.000    0.000    0.000    0.000 
#
# Total GULP energy -357526.336002 kJ/mol
# GULP energy per Si atom -5586.349000 kJ/mol
# Density = 2.162514 g / cm^3
# Si number density = 21.674469 Si / 1000 Ang^3
#
#
#
# Elastic Constant Matrix: (Units=GPa)
#
#
# Indices 1 2 3 4 5 6 
#
# 1 98.9074 24.3202 -14.7166 0.0000 0.0000 0.0000
# 2 24.3202 100.3181 -13.1638 0.0000 0.0000 0.0000
# 3 -14.7166 -13.1638 32.1783 0.0000 0.0000 0.0000
# 4 0.0000 0.0000 0.0000 -26.1046 0.0000 0.0000
# 5 0.0000 0.0000 0.0000 0.0000 23.4416 0.0000
# 6 0.0000 0.0000 0.0000 0.0000 0.0000 8.4572
#
#
#
# Elastic Compliance Matrix: (Units=1/GPa)
#
#
# Indices 1 2 3 4 5 6 
#
# 1 0.011280 -0.002174 0.004269 0.000000 0.000000 0.000000
# 2 -0.002174 0.010953 0.003486 0.000000 0.000000 0.000000
# 3 0.004269 0.003486 0.034456 0.000000 0.000000 0.000000
# 4 0.000000 0.000000 0.000000 -0.038307 0.000000 0.000000
# 5 0.000000 0.000000 0.000000 0.000000 0.042659 0.000000
# 6 0.000000 0.000000 0.000000 0.000000 0.000000 0.118242
#
#
# Mechanical properties :
#
#
# Convention : Reuss Voigt Hill
#
# Bulk Modulus (GPa) = 14.73809 24.92038 19.82923
# Shear Modulus (GPa) = 26.21406 16.82312 21.51859
#
# Velocity S-wave (km/s) = 3.48148 2.78901 3.15430
# Velocity P-wave (km/s) = 4.79327 4.67910 4.73653
#
# Compressibility (1/GPa) = 0.06785141
#
# Stress axis : x y z
#
# Youngs Moduli (GPa) = 88.64927 91.29982 29.02286
#
# Poissons Ratio (x) = 0.19853 -0.12391
# Poissons Ratio (y) = 0.19277 -0.10118
# Poissons Ratio (z) = -0.37848 -0.31829
#
# Static dielectric constant tensor:
#      x y z
#    x 1.749270 0.000000 0.000000 
#    y 0.000000 1.798500 0.000000 
#    z 0.000000 0.000000 1.837140 
# 
# From -- ./inp_files/6556.got.cif
#   From: 2010.05.17/outbox.cif.g08.bks.cpg/sg55_4_cif.got.tgz:6556.got - 2010.06.03 13:27:54.
