data_PCOD9424459
_publ_section_title
;
Structure prediction by ZEFSAII (Michael W. Deem and Ramdas Pophale) SiO2 
 PCOD9424459
Probable space group: P C C A
;
_chemical_formula_sum "Si O2"
_cell_formula_units_Z 40
_cell_length_a 16.648161
_cell_length_b 7.170631
_cell_length_c 12.485184
_cell_angle_alpha 90.000000
_cell_angle_beta 90.000000
_cell_angle_gamma 90.000000
_cell_volume 1490.454040
_symmetry_space_group_name_H-M "P C C A"
_symmetry_group_IT_number 54
_symmetry_cell_setting 'orthorhombic'
loop_
_space_group_symop_operation_xyz
x,y,z
1/2-x,-y,z
1/2+x,-y,1/2-z
-x,y,1/2-z
-x,-y,-z
1/2+x,y,-z
1/2-x,y,1/2+z
x,-y,1/2+z
loop_
_atom_site_type_symbol
_atom_site_label
_atom_site_fract_x
_atom_site_fract_y
_atom_site_fract_z
Si Si1 0.250000 0.000000 0.906817
Si Si2 0.250000 0.500000 0.177086
Si Si3 0.475945 0.220170 0.493960
Si Si4 0.639810 0.766685 0.944867
Si Si5 0.412035 0.307547 0.721604
Si Si6 0.387124 0.114549 0.290207
O O1 0.294806 0.860641 0.826577
O O2 0.179692 0.922885 0.981346
O O3 0.285025 0.349358 0.094697
O O4 0.169789 0.424794 0.237704
O O5 0.562343 0.323914 0.501351
O O6 0.419712 0.268142 0.593857
O O7 0.434990 0.229857 0.378321
O O8 0.500000 0.000000 0.500000
O O9 0.603129 0.829666 0.831696
O O10 0.500000 0.389299 0.750000
O O11 0.406004 0.108232 0.783078
#
# Coordination Sequence:
#
# PCOD9424459 Si02
#       6
#     4   4   8   8   8   8
#     4  12  22  40  70 102 134 182 248 302 358 414
#     4  12  30  46  64 106 160 200 238 284 382 464
#     4  12  22  43  77 109 128 180 254 313 368 417
#     4  12  25  43  67 103 143 189 236 303 365 441
#     4  12  24  48  75 105 150 192 247 309 366 438
#     4  12  22  42  77 103 133 177 249 316 354 418
#
# _framework density 26.837457000000001
#
# number of rings (size 3 to 8) (size 9 to 14) (size 15 to 20)
#    0.000    0.000    6.000    4.800    0.000    2.400 
#    0.000   14.000    0.000    0.000    0.000    0.000 
#    0.000    0.000    0.000    0.000    0.000    0.000 
#
# Total GULP energy -223851.045370 kJ/mol
# GULP energy per Si atom -5596.276134 kJ/mol
# Density = 2.677637 g / cm^3
# Si number density = 26.837457 Si / 1000 Ang^3
#
#
#
# Elastic Constant Matrix: (Units=GPa)
#
#
# Indices 1 2 3 4 5 6 
#
# 1 222.7945 26.2136 58.3321 0.0000 0.0000 0.0000
# 2 26.2136 53.0340 19.1941 0.0000 0.0000 0.0000
# 3 58.3321 19.1941 156.9495 0.0000 0.0000 0.0000
# 4 0.0000 0.0000 0.0000 15.2540 0.0000 0.0000
# 5 0.0000 0.0000 0.0000 0.0000 55.2041 0.0000
# 6 0.0000 0.0000 0.0000 0.0000 0.0000 39.7740
#
#
#
# Elastic Compliance Matrix: (Units=1/GPa)
#
#
# Indices 1 2 3 4 5 6 
#
# 1 0.005156 -0.001941 -0.001679 0.000000 0.000000 0.000000
# 2 -0.001941 0.020460 -0.001781 0.000000 0.000000 0.000000
# 3 -0.001679 -0.001781 0.007213 0.000000 0.000000 0.000000
# 4 0.000000 0.000000 0.000000 0.065557 0.000000 0.000000
# 5 0.000000 0.000000 0.000000 0.000000 0.018115 0.000000
# 6 0.000000 0.000000 0.000000 0.000000 0.000000 0.025142
#
#
# Mechanical properties :
#
#
# Convention : Reuss Voigt Hill
#
# Bulk Modulus (GPa) = 45.39714 71.13973 58.26844
# Shear Modulus (GPa) = 31.29167 43.98231 37.63699
#
# Velocity S-wave (km/s) = 3.41833 4.05265 3.74893
# Velocity P-wave (km/s) = 5.70371 6.96160 6.36381
#
# Compressibility (1/GPa) = 0.02202782
#
# Stress axis : x y z
#
# Youngs Moduli (GPa) = 193.93244 48.87658 138.63291
#
# Poissons Ratio (x) = 0.09487 0.23277
# Poissons Ratio (y) = 0.37643 0.24686
# Poissons Ratio (z) = 0.32563 0.08703
#
# Static dielectric constant tensor:
#      x y z
#    x 2.167720 0.000000 0.000000 
#    y 0.000000 2.229170 0.000000 
#    z 0.000000 0.000000 2.010330 
# 
# From -- ./inp_files/8813.got.cif
#   From: 2010.05.17/outbox.cif.g08.bks.cpg/sg54_5_cif.got.tgz:8813.got - 2010.06.03 13:09:01.
