data_PCOD9424566
_publ_section_title
;
Structure prediction by ZEFSAII (Michael W. Deem and Ramdas Pophale) SiO2 
 PCOD9424566
Probable space group: P C C A
;
_chemical_formula_sum "Si O2"
_cell_formula_units_Z 32
_cell_length_a 18.121226
_cell_length_b 7.052835
_cell_length_c 9.313366
_cell_angle_alpha 90.000000
_cell_angle_beta 90.000000
_cell_angle_gamma 90.000000
_cell_volume 1190.304213
_symmetry_space_group_name_H-M "P C C A"
_symmetry_group_IT_number 54
_symmetry_cell_setting 'orthorhombic'
loop_
_space_group_symop_operation_xyz
x,y,z
1/2-x,-y,z
1/2+x,-y,1/2-z
-x,y,1/2-z
-x,-y,-z
1/2+x,y,-z
1/2-x,y,1/2+z
x,-y,1/2+z
loop_
_atom_site_type_symbol
_atom_site_label
_atom_site_fract_x
_atom_site_fract_y
_atom_site_fract_z
Si Si1 0.194071 0.853767 0.689562
Si Si2 0.806902 0.342543 0.026181
Si Si3 0.966842 0.621939 0.409724
Si Si4 0.966534 0.121767 0.409129
O O1 0.252529 0.766766 0.579838
O O2 0.162977 0.743240 0.826483
O O3 0.122402 0.897602 0.595702
O O4 0.250000 0.000000 0.766012
O O5 0.750000 0.500000 0.081749
O O6 0.878558 0.386702 0.932135
O O7 0.976749 0.372599 0.444864
O O8 0.000000 0.621016 0.250000
O O9 0.980048 0.872993 0.442260
O O10 0.000000 0.123905 0.250000
#
# Coordination Sequence:
#
# PCOD9424566 Si02
#       4
#     8   8   8   8
#     4  12  28  49  76 113 155 201 256 321 391 469
#     4  12  28  48  77 112 155 202 257 319 397 467
#     4  12  28  49  77 110 151 202 260 323 386 463
#     4  12  26  49  76 108 152 201 258 311 384 467
#
# _framework density 26.883880999999999
#
# number of rings (size 3 to 8) (size 9 to 14) (size 15 to 20)
#    0.000    0.000    2.500    6.000   14.000    0.000 
#    0.000    0.000    0.000    0.000    0.000    0.000 
#    0.000    0.000    0.000    0.000    0.000    0.000 
#
# Total GULP energy -178703.441010 kJ/mol
# GULP energy per Si atom -5584.482532 kJ/mol
# Density = 2.682269 g / cm^3
# Si number density = 26.883881 Si / 1000 Ang^3
#
#
#
# Elastic Constant Matrix: (Units=GPa)
#
#
# Indices 1 2 3 4 5 6 
#
# 1 289.0437 69.9191 117.0620 0.0000 0.0000 0.0000
# 2 69.9191 138.8422 59.3852 0.0000 0.0000 0.0000
# 3 117.0620 59.3852 180.5005 0.0000 0.0000 0.0000
# 4 0.0000 0.0000 0.0000 62.9061 0.0000 0.0000
# 5 0.0000 0.0000 0.0000 0.0000 44.4133 0.0000
# 6 0.0000 0.0000 0.0000 0.0000 0.0000 54.5230
#
#
#
# Elastic Compliance Matrix: (Units=1/GPa)
#
#
# Indices 1 2 3 4 5 6 
#
# 1 0.004881 -0.001285 -0.002743 0.000000 0.000000 0.000000
# 2 -0.001285 0.008720 -0.002036 0.000000 0.000000 0.000000
# 3 -0.002743 -0.002036 0.007989 0.000000 0.000000 0.000000
# 4 0.000000 0.000000 0.000000 0.015897 0.000000 0.000000
# 5 0.000000 0.000000 0.000000 0.000000 0.022516 0.000000
# 6 0.000000 0.000000 0.000000 0.000000 0.000000 0.018341
#
#
# Mechanical properties :
#
#
# Convention : Reuss Voigt Hill
#
# Bulk Modulus (GPa) = 105.67244 122.34656 114.00950
# Shear Modulus (GPa) = 53.40424 56.50317 54.95370
#
# Velocity S-wave (km/s) = 4.46183 4.58946 4.52609
# Velocity P-wave (km/s) = 8.12011 8.58442 8.35549
#
# Compressibility (1/GPa) = 0.00946321
#
# Stress axis : x y z
#
# Youngs Moduli (GPa) = 204.85716 114.67645 125.17436
#
# Poissons Ratio (x) = 0.14736 0.34336
# Poissons Ratio (y) = 0.26324 0.25481
# Poissons Ratio (z) = 0.56194 0.23344
#
# Static dielectric constant tensor:
#      x y z
#    x 1.731340 0.000000 0.000000 
#    y 0.000000 3.016110 0.000000 
#    z 0.000000 0.000000 2.099250 
# 
# From -- ./inp_files/9214.got.cif
#   From: 2010.05.17/outbox.cif.g08.bks.cpg/sg54_5_cif.got.tgz:9214.got - 2010.06.03 13:09:01.
