data_PCOD9424106
_publ_section_title
;
Structure prediction by ZEFSAII (Michael W. Deem and Ramdas Pophale) SiO2 
 PCOD9424106
Probable space group: P C C A
;
_chemical_formula_sum "Si O2"
_cell_formula_units_Z 32
_cell_length_a 5.364798
_cell_length_b 16.791625
_cell_length_c 17.435158
_cell_angle_alpha 90.000000
_cell_angle_beta 90.000000
_cell_angle_gamma 90.000000
_cell_volume 1570.623128
_symmetry_space_group_name_H-M "P C C A"
_symmetry_group_IT_number 54
_symmetry_cell_setting 'orthorhombic'
loop_
_space_group_symop_operation_xyz
x,y,z
1/2-x,-y,z
1/2+x,-y,1/2-z
-x,y,1/2-z
-x,-y,-z
1/2+x,y,-z
1/2-x,y,1/2+z
x,-y,1/2+z
loop_
_atom_site_type_symbol
_atom_site_label
_atom_site_fract_x
_atom_site_fract_y
_atom_site_fract_z
Si Si1 0.250000 0.500000 0.154784
Si Si2 0.359706 0.257794 0.332527
Si Si3 0.000000 0.366702 0.250000
Si Si4 0.994129 0.615263 0.450241
Si Si5 0.249166 0.087133 0.802250
O O1 0.186821 0.426231 0.208543
O O2 0.466493 0.464496 0.101191
O O3 0.500000 0.256051 0.250000
O O4 0.119745 0.311255 0.314129
O O5 0.507761 0.306282 0.396364
O O6 0.282853 0.167409 0.351231
O O7 0.749405 0.615989 0.502928
O O8 0.500000 0.095805 0.750000
O O9 0.000000 0.084085 0.750000
O O10 0.250000 0.000000 0.841326
#
# Coordination Sequence:
#
# PCOD9424106 Si02
#       5
#     4   8   4   8   8
#     4  12  24  42  62  88 124 168 218 270 312 368
#     4  11  22  41  65  91 124 161 210 259 311 374
#     4  12  22  40  64  94 122 154 222 268 316 356
#     4  12  27  44  62  89 127 170 212 260 316 372
#     4   9  18  33  60  95 125 152 193 255 314 365
#
# _framework density 20.374079999999999
#
# number of rings (size 3 to 8) (size 9 to 14) (size 15 to 20)
#    0.000    1.000    3.750    3.750    0.000    2.000 
#    0.000    0.000    0.000    1.500    0.000    0.000 
#    0.000    0.000    0.000    0.000    0.000    0.000 
#
# Total GULP energy -178715.907910 kJ/mol
# GULP energy per Si atom -5584.872122 kJ/mol
# Density = 2.032771 g / cm^3
# Si number density = 20.374080 Si / 1000 Ang^3
#
#
#
# Elastic Constant Matrix: (Units=GPa)
#
#
# Indices 1 2 3 4 5 6 
#
# 1 105.4411 22.8537 25.9471 0.0000 0.0000 0.0000
# 2 22.8537 190.5507 29.5656 0.0000 0.0000 0.0000
# 3 25.9471 29.5656 54.9018 0.0000 0.0000 0.0000
# 4 0.0000 0.0000 0.0000 -6.8333 0.0000 0.0000
# 5 0.0000 0.0000 0.0000 0.0000 16.6559 0.0000
# 6 0.0000 0.0000 0.0000 0.0000 0.0000 31.2065
#
#
#
# Elastic Compliance Matrix: (Units=1/GPa)
#
#
# Indices 1 2 3 4 5 6 
#
# 1 0.010784 -0.000548 -0.004801 0.000000 0.000000 0.000000
# 2 -0.000548 0.005754 -0.002840 0.000000 0.000000 0.000000
# 3 -0.004801 -0.002840 0.022013 0.000000 0.000000 0.000000
# 4 0.000000 0.000000 0.000000 -0.146343 0.000000 0.000000
# 5 0.000000 0.000000 0.000000 0.000000 0.060039 0.000000
# 6 0.000000 0.000000 0.000000 0.000000 0.000000 0.032045
#
#
# Mechanical properties :
#
#
# Convention : Reuss Voigt Hill
#
# Bulk Modulus (GPa) = 45.10105 56.40293 50.75199
# Shear Modulus (GPa) = 620.24825 26.37433 323.31129
#
# Velocity S-wave (km/s) = 17.46685 3.60182 12.61079
# Velocity P-wave (km/s) = 20.71165 6.71128 15.39503
#
# Compressibility (1/GPa) = 0.02217244
#
# Stress axis : x y z
#
# Youngs Moduli (GPa) = 92.72664 173.78273 45.42822
#
# Poissons Ratio (x) = 0.09531 0.21812
# Poissons Ratio (y) = 0.05085 0.12900
# Poissons Ratio (z) = 0.44522 0.49347
#
# Static dielectric constant tensor:
#      x y z
#    x 1.786630 0.000000 0.000000 
#    y 0.000000 1.752240 0.000000 
#    z 0.000000 0.000000 1.736710 
# 
# From -- ./inp_files/10739.got.cif
#   From: 2010.05.17/outbox.cif.g08.bks.cpg/sg54_6_cif.got.tgz:10739.got - 2010.06.03 13:09:01.
