data_PCOD9424081
_publ_section_title
;
Structure prediction by ZEFSAII (Michael W. Deem and Ramdas Pophale) SiO2 
 PCOD9424081
Probable space group: P C C A
;
_chemical_formula_sum "Si O2"
_cell_formula_units_Z 36
_cell_length_a 14.774297
_cell_length_b 7.778402
_cell_length_c 17.353967
_cell_angle_alpha 90.000000
_cell_angle_beta 90.000000
_cell_angle_gamma 90.000000
_cell_volume 1994.325199
_symmetry_space_group_name_H-M "P C C A"
_symmetry_group_IT_number 54
_symmetry_cell_setting 'orthorhombic'
loop_
_space_group_symop_operation_xyz
x,y,z
1/2-x,-y,z
1/2+x,-y,1/2-z
-x,y,1/2-z
-x,-y,-z
1/2+x,y,-z
1/2-x,y,1/2+z
x,-y,1/2+z
loop_
_atom_site_type_symbol
_atom_site_label
_atom_site_fract_x
_atom_site_fract_y
_atom_site_fract_z
Si Si1 0.183588 0.836789 0.941401
Si Si2 0.340117 0.111649 0.119524
Si Si3 0.400871 0.321599 0.263526
Si Si4 0.026767 0.961874 0.833077
Si Si5 0.250000 0.500000 0.360445
O O1 0.094652 0.865535 0.889340
O O2 0.229646 0.664930 0.911691
O O3 0.250000 0.000000 0.930280
O O4 0.164732 0.823359 0.032231
O O5 0.354475 0.257299 0.184359
O O6 0.250000 0.000000 0.135964
O O7 0.431281 0.998963 0.126442
O O8 0.500000 0.400218 0.250000
O O9 0.334978 0.447104 0.308126
O O10 0.424628 0.144351 0.310294
O O11 0.000000 0.881825 0.750000
#
# Coordination Sequence:
#
# PCOD9424081 Si02
#       5
#     8   8   8   8   4
#     4  11  22  39  61  90 122 153 200 247 301 349
#     4   9  20  37  64  88 116 158 199 245 301 347
#     4   9  21  40  58  88 122 149 203 249 284 352
#     4   9  19  36  64  87 118 154 201 243 291 351
#     4  12  24  36  66  86 124 162 196 240 300 358
#
# _framework density 18.051219
#
# number of rings (size 3 to 8) (size 9 to 14) (size 15 to 20)
#    0.000    2.667    2.222    0.667    6.222    1.778 
#    0.000    4.444    0.000    0.000    0.000    0.000 
#    0.000    0.000    0.000    0.000    0.000    0.000 
#
# Total GULP energy -200725.803945 kJ/mol
# GULP energy per Si atom -5575.716776 kJ/mol
# Density = 1.801013 g / cm^3
# Si number density = 18.051219 Si / 1000 Ang^3
#
#
#
# Elastic Constant Matrix: (Units=GPa)
#
#
# Indices 1 2 3 4 5 6 
#
# 1 123.4815 51.2890 87.8289 0.0000 0.0000 0.0000
# 2 51.2890 83.9238 58.8696 0.0000 0.0000 0.0000
# 3 87.8289 58.8696 133.3406 0.0000 0.0000 0.0000
# 4 0.0000 0.0000 0.0000 -2.1511 0.0000 0.0000
# 5 0.0000 0.0000 0.0000 0.0000 14.7380 0.0000
# 6 0.0000 0.0000 0.0000 0.0000 0.0000 -9.3857
#
#
#
# Elastic Compliance Matrix: (Units=1/GPa)
#
#
# Indices 1 2 3 4 5 6 
#
# 1 0.015891 -0.003432 -0.008952 0.000000 0.000000 0.000000
# 2 -0.003432 0.018003 -0.005687 0.000000 0.000000 0.000000
# 3 -0.008952 -0.005687 0.015907 0.000000 0.000000 0.000000
# 4 0.000000 0.000000 0.000000 -0.464875 0.000000 0.000000
# 5 0.000000 0.000000 0.000000 0.000000 0.067852 0.000000
# 6 0.000000 0.000000 0.000000 0.000000 0.000000 -0.106545
#
#
# Mechanical properties :
#
#
# Convention : Reuss Voigt Hill
#
# Bulk Modulus (GPa) = 73.21826 81.85788 77.53807
# Shear Modulus (GPa) = -12.10441 10.15747 -0.97347
#
# Velocity S-wave (km/s) = -2.59232 2.37471 -0.73516
# Velocity P-wave (km/s) = 5.62932 7.27771 6.50593
#
# Compressibility (1/GPa) = 0.01365779
#
# Stress axis : x y z
#
# Youngs Moduli (GPa) = 62.92764 55.54731 62.86536
#
# Poissons Ratio (x) = 0.19065 0.56277
# Poissons Ratio (y) = 0.21599 0.35754
# Poissons Ratio (z) = 0.56332 0.31592
#
# Static dielectric constant tensor:
#      x y z
#    x 1.624220 0.000000 0.000000 
#    y 0.000000 1.617080 0.000000 
#    z 0.000000 0.000000 1.617540 
# 
# From -- ./inp_files/13866.got.cif
#   From: 2010.05.17/outbox.cif.g08.bks.cpg/sg54_7_cif.got.tgz:13866.got - 2010.06.03 13:09:01.
