data_PCOD9424041
_publ_section_title
;
Structure prediction by ZEFSAII (Michael W. Deem and Ramdas Pophale) SiO2 
 PCOD9424041
Probable space group: P C C A
;
_chemical_formula_sum "Si O2"
_cell_formula_units_Z 48
_cell_length_a 9.662754
_cell_length_b 8.441481
_cell_length_c 29.311170
_cell_angle_alpha 90.000000
_cell_angle_beta 90.000000
_cell_angle_gamma 90.000000
_cell_volume 2390.852175
_symmetry_space_group_name_H-M "P C C A"
_symmetry_group_IT_number 54
_symmetry_cell_setting 'orthorhombic'
loop_
_space_group_symop_operation_xyz
x,y,z
1/2-x,-y,z
1/2+x,-y,1/2-z
-x,y,1/2-z
-x,-y,-z
1/2+x,y,-z
1/2-x,y,1/2+z
x,-y,1/2+z
loop_
_atom_site_type_symbol
_atom_site_label
_atom_site_fract_x
_atom_site_fract_y
_atom_site_fract_z
Si Si1 0.116460 0.585418 0.886637
Si Si2 0.377319 0.114297 0.062299
Si Si3 0.400214 0.089556 0.206169
Si Si4 0.911473 0.947246 0.625627
Si Si5 0.863111 0.634405 0.359217
Si Si6 0.870629 0.390018 0.006435
O O1 0.250000 0.500000 0.865963
O O2 0.081929 0.758399 0.868461
O O3 0.150674 0.625121 0.939571
O O4 0.996601 0.457986 0.878674
O O5 0.330174 0.232471 0.102972
O O6 0.250000 0.000000 0.053004
O O7 0.511293 0.018241 0.080571
O O8 0.397578 0.226024 0.018784
O O9 0.500000 0.084386 0.250000
O O10 0.377983 0.268739 0.187804
O O11 0.250000 0.000000 0.211063
O O12 0.493876 0.013966 0.166201
O O13 0.750000 0.000000 0.626770
O O14 0.750000 0.500000 0.354803
O O15 0.750000 0.500000 0.985870
O O16 0.000000 0.500000 0.000000
#
# Coordination Sequence:
#
# PCOD9424041 Si02
#       6
#     8   8   8   8   8   8
#     4  11  23  40  64  90 130 170 219 270 324 380
#     4  11  23  40  63  92 128 173 224 271 325 384
#     4  11  24  45  70 100 134 168 208 261 325 389
#     4  11  24  42  67  97 129 171 219 270 322 390
#     4  11  21  41  68  94 127 167 213 260 320 389
#     4  11  25  41  61  90 129 178 218 276 328 373
#
# _framework density 20.076523999999999
#
# number of rings (size 3 to 8) (size 9 to 14) (size 15 to 20)
#    0.000    1.000    1.667    7.000    4.667    1.333 
#    0.000    5.833    0.000    0.000    0.000    0.000 
#    0.000    0.000    0.000    0.000    0.000    0.000 
#
# Total GULP energy -267967.083795 kJ/mol
# GULP energy per Si atom -5582.647579 kJ/mol
# Density = 2.003083 g / cm^3
# Si number density = 20.076524 Si / 1000 Ang^3
#
#
#
# Elastic Constant Matrix: (Units=GPa)
#
#
# Indices 1 2 3 4 5 6 
#
# 1 136.0422 59.3926 36.7677 0.0000 0.0000 0.0000
# 2 59.3926 145.2217 31.2301 0.0000 0.0000 0.0000
# 3 36.7677 31.2301 63.3518 0.0000 0.0000 0.0000
# 4 0.0000 0.0000 0.0000 20.2023 0.0000 0.0000
# 5 0.0000 0.0000 0.0000 0.0000 21.8291 0.0000
# 6 0.0000 0.0000 0.0000 0.0000 0.0000 45.1054
#
#
#
# Elastic Compliance Matrix: (Units=1/GPa)
#
#
# Indices 1 2 3 4 5 6 
#
# 1 0.009844 -0.003129 -0.004171 0.000000 0.000000 0.000000
# 2 -0.003129 0.008697 -0.002471 0.000000 0.000000 0.000000
# 3 -0.004171 -0.002471 0.019424 0.000000 0.000000 0.000000
# 4 0.000000 0.000000 0.000000 0.049499 0.000000 0.000000
# 5 0.000000 0.000000 0.000000 0.000000 0.045810 0.000000
# 6 0.000000 0.000000 0.000000 0.000000 0.000000 0.022170
#
#
# Mechanical properties :
#
#
# Convention : Reuss Voigt Hill
#
# Bulk Modulus (GPa) = 54.28095 66.59960 60.44028
# Shear Modulus (GPa) = 27.60481 31.90904 29.75693
#
# Velocity S-wave (km/s) = 3.71209 3.99102 3.85408
# Velocity P-wave (km/s) = 6.74304 7.38123 7.06934
#
# Compressibility (1/GPa) = 0.01842267
#
# Stress axis : x y z
#
# Youngs Moduli (GPa) = 101.58569 114.97938 51.48352
#
# Poissons Ratio (x) = 0.35978 0.21472
# Poissons Ratio (y) = 0.31787 0.12724
# Poissons Ratio (z) = 0.42368 0.28416
#
# Static dielectric constant tensor:
#      x y z
#    x 1.639420 0.000000 0.000000 
#    y 0.000000 1.698640 0.000000 
#    z 0.000000 0.000000 1.702720 
# 
# From -- ./inp_files/27741.got.cif
#   From: 2010.05.17/outbox.cif.g08.bks.cpg/sg54_14_cif.got.tgz:27741.got - 2010.06.03 13:09:01.
