data_PCOD9424036
_publ_section_title
;
Structure prediction by ZEFSAII (Michael W. Deem and Ramdas Pophale) SiO2 
 PCOD9424036
Probable space group: P C C A
;
_chemical_formula_sum "Si O2"
_cell_formula_units_Z 40
_cell_length_a 7.045372
_cell_length_b 13.930385
_cell_length_c 18.370957
_cell_angle_alpha 90.000000
_cell_angle_beta 90.000000
_cell_angle_gamma 90.000000
_cell_volume 1803.012880
_symmetry_space_group_name_H-M "P C C A"
_symmetry_group_IT_number 54
_symmetry_cell_setting 'orthorhombic'
loop_
_space_group_symop_operation_xyz
x,y,z
1/2-x,-y,z
1/2+x,-y,1/2-z
-x,y,1/2-z
-x,-y,-z
1/2+x,y,-z
1/2-x,y,1/2+z
x,-y,1/2+z
loop_
_atom_site_type_symbol
_atom_site_label
_atom_site_fract_x
_atom_site_fract_y
_atom_site_fract_z
Si Si1 0.771725 0.671368 0.431245
Si Si2 0.350212 0.397950 0.408478
Si Si3 0.105813 0.882632 0.070275
Si Si4 0.920730 0.732956 0.669508
Si Si5 0.040442 0.072758 0.401631
O O1 0.707979 0.647521 0.513090
O O2 0.901222 0.768303 0.425581
O O3 0.584527 0.691989 0.384511
O O4 0.922408 0.592271 0.405590
O O5 0.250000 0.500000 0.403565
O O6 0.264081 0.329771 0.346505
O O7 0.314278 0.906430 0.099659
O O8 0.955571 0.956714 0.106701
O O9 0.103258 0.905557 0.984228
O O10 0.881973 0.844656 0.650466
O O11 0.000000 0.725058 0.750000
#
# Coordination Sequence:
#
# PCOD9424036 Si02
#       5
#     8   8   8   8   8
#     4  11  21  40  70  94 129 162 219 275 321 388
#     4  12  24  41  68 100 123 169 230 279 326 384
#     4   9  16  30  58  91 114 156 204 261 306 378
#     4  11  25  43  62  94 136 175 209 271 335 388
#     4   9  17  31  58  87 123 154 206 258 313 379
#
# _framework density 22.185089000000001
#
# number of rings (size 3 to 8) (size 9 to 14) (size 15 to 20)
#    0.000    1.600    4.000    1.800    0.000    0.800 
#    3.600    0.000   17.600    0.000    0.000    0.000 
#    0.000    0.000    0.000    0.000    0.000    0.000 
#
# Total GULP energy -223370.292063 kJ/mol
# GULP energy per Si atom -5584.257302 kJ/mol
# Density = 2.213459 g / cm^3
# Si number density = 22.185089 Si / 1000 Ang^3
#
#
#
# Elastic Constant Matrix: (Units=GPa)
#
#
# Indices 1 2 3 4 5 6 
#
# 1 70.9600 14.6447 -0.0182 0.0000 0.0000 0.0000
# 2 14.6447 60.2188 4.7210 0.0000 0.0000 0.0000
# 3 -0.0182 4.7210 68.2729 0.0000 0.0000 0.0000
# 4 0.0000 0.0000 0.0000 9.2107 0.0000 0.0000
# 5 0.0000 0.0000 0.0000 0.0000 17.1255 0.0000
# 6 0.0000 0.0000 0.0000 0.0000 0.0000 33.5469
#
#
#
# Elastic Compliance Matrix: (Units=1/GPa)
#
#
# Indices 1 2 3 4 5 6 
#
# 1 0.014842 -0.003629 0.000255 0.000000 0.000000 0.000000
# 2 -0.003629 0.017584 -0.001217 0.000000 0.000000 0.000000
# 3 0.000255 -0.001217 0.014731 0.000000 0.000000 0.000000
# 4 0.000000 0.000000 0.000000 0.108569 0.000000 0.000000
# 5 0.000000 0.000000 0.000000 0.000000 0.058392 0.000000
# 6 0.000000 0.000000 0.000000 0.000000 0.000000 0.029809
#
#
# Mechanical properties :
#
#
# Convention : Reuss Voigt Hill
#
# Bulk Modulus (GPa) = 26.33353 26.46074 26.39713
# Shear Modulus (GPa) = 18.81336 23.98356 21.39846
#
# Velocity S-wave (km/s) = 2.91523 3.29153 3.10908
# Velocity P-wave (km/s) = 4.81946 5.13796 4.98126
#
# Compressibility (1/GPa) = 0.03797440
#
# Stress axis : x y z
#
# Youngs Moduli (GPa) = 67.37851 56.86941 67.88255
#
# Poissons Ratio (x) = 0.20640 -0.01731
# Poissons Ratio (y) = 0.24454 0.08261
# Poissons Ratio (z) = -0.01718 0.06920
#
# Static dielectric constant tensor:
#      x y z
#    x 1.866690 0.000000 0.000000 
#    y 0.000000 1.931700 0.000000 
#    z 0.000000 0.000000 1.737520 
# 
# From -- ./inp_files/16482.got.cif
#   From: 2010.05.17/outbox.cif.g08.bks.cpg/sg54_9_cif.got.tgz:16482.got - 2010.06.03 13:09:01.
