data_PCOD9424701
_publ_section_title
;
Structure prediction by ZEFSAII (Michael W. Deem and Ramdas Pophale) SiO2 
 PCOD9424701
Probable space group: P B A M
;
_chemical_formula_sum "Si O2"
_cell_formula_units_Z 40
_cell_length_a 30.185282
_cell_length_b 7.230874
_cell_length_c 8.070386
_cell_angle_alpha 90.000000
_cell_angle_beta 90.000000
_cell_angle_gamma 90.000000
_cell_volume 1761.490635
_symmetry_space_group_name_H-M "P B A M"
_symmetry_group_IT_number 55
_symmetry_cell_setting 'orthorhombic'
loop_
_space_group_symop_operation_xyz
x,y,z
-x,-y,z
1/2+x,1/2-y,-z
1/2-x,1/2+y,-z
-x,-y,-z
x,y,-z
1/2-x,1/2+y,z
1/2+x,1/2-y,z
loop_
_atom_site_type_symbol
_atom_site_label
_atom_site_fract_x
_atom_site_fract_y
_atom_site_fract_z
Si Si1 0.642604 0.784091 0.818498
Si Si2 0.303420 0.213524 0.500000
Si Si3 0.045697 0.311393 0.803591
Si Si4 0.642797 0.235816 0.188118
Si Si5 0.698932 0.225800 0.500000
Si Si6 0.951812 0.270298 0.309513
O O1 0.672539 0.719488 0.666351
O O2 0.592039 0.720197 0.791778
O O3 0.642311 0.009726 0.815149
O O4 0.658769 0.728864 0.000000
O O5 0.251339 0.248325 0.500000
O O6 0.309600 0.993095 0.500000
O O7 0.092042 0.210862 0.770456
O O8 0.047206 0.504830 0.705076
O O9 0.999828 0.213478 0.758414
O O10 0.045116 0.355595 0.000000
O O11 0.675915 0.296520 0.332037
O O12 0.653663 0.294036 0.000000
O O13 0.946680 0.216046 0.500000
#
# Coordination Sequence:
#
# PCOD9424701 Si02
#       6
#     8   4   8   8   4   8
#     4   9  16  28  42  59  88 117 148 181 220 268
#     4  10  20  34  47  71  83 121 148 192 227 270
#     4   9  15  21  31  52  83 118 149 172 211 262
#     4   8  16  27  41  61  85 118 148 179 219 266
#     4  10  20  32  51  63  93 111 154 188 231 262
#     4  10  15  19  32  55  83 116 149 173 211 262
#
# _framework density 22.708041000000001
#
# number of rings (size 3 to 8) (size 9 to 14) (size 15 to 20)
#    0.000    2.800    1.000    4.800    5.600    0.800 
#    0.000    0.000    0.000    0.000    0.000    0.000 
#    0.000    3.200    0.000    6.400    0.000    4.000 
#
# Total GULP energy -223409.187549 kJ/mol
# GULP energy per Si atom -5585.229689 kJ/mol
# Density = 2.265636 g / cm^3
# Si number density = 22.708041 Si / 1000 Ang^3
#
#
#
# Elastic Constant Matrix: (Units=GPa)
#
#
# Indices 1 2 3 4 5 6 
#
# 1 186.5982 -2.9433 112.1140 0.0000 0.0000 0.0000
# 2 -2.9433 91.4637 -1.1057 0.0000 0.0000 0.0000
# 3 112.1140 -1.1057 189.2656 0.0000 0.0000 0.0000
# 4 0.0000 0.0000 0.0000 -15.1514 0.0000 0.0000
# 5 0.0000 0.0000 0.0000 0.0000 38.2829 0.0000
# 6 0.0000 0.0000 0.0000 0.0000 0.0000 -1.2904
#
#
#
# Elastic Compliance Matrix: (Units=1/GPa)
#
#
# Indices 1 2 3 4 5 6 
#
# 1 0.008324 0.000208 -0.004930 0.000000 0.000000 0.000000
# 2 0.000208 0.010939 -0.000059 0.000000 0.000000 0.000000
# 3 -0.004930 -0.000059 0.008203 0.000000 0.000000 0.000000
# 4 0.000000 0.000000 0.000000 -0.066000 0.000000 0.000000
# 5 0.000000 0.000000 0.000000 0.000000 0.026121 0.000000
# 6 0.000000 0.000000 0.000000 0.000000 0.000000 -0.774956
#
#
# Mechanical properties :
#
#
# Convention : Reuss Voigt Hill
#
# Bulk Modulus (GPa) = 55.85003 75.93973 65.89488
# Shear Modulus (GPa) = -6.47805 28.31905 10.92050
#
# Velocity S-wave (km/s) = -1.69084 3.53525 2.19534
# Velocity P-wave (km/s) = 4.56468 7.08367 5.95880
#
# Compressibility (1/GPa) = 0.01790509
#
# Stress axis : x y z
#
# Youngs Moduli (GPa) = 120.12879 91.41369 121.89924
#
# Poissons Ratio (x) = -0.01904 0.60095
# Poissons Ratio (y) = -0.02502 0.00725
# Poissons Ratio (z) = 0.59222 0.00544
#
# Static dielectric constant tensor:
#      x y z
#    x 1.821520 0.000000 0.000000 
#    y 0.000000 1.990590 0.000000 
#    z 0.000000 0.000000 1.801790 
# 
# From -- ./inp_files/3658.got.cif
#   From: 2010.05.17/outbox.cif.g08.bks.cpg/sg55_2_cif.got.tgz:3658.got - 2010.06.03 13:27:54.
