data_PCOD9424524
_publ_section_title
;
Structure prediction by ZEFSAII (Michael W. Deem and Ramdas Pophale) SiO2 
 PCOD9424524
Probable space group: P C C A
;
_chemical_formula_sum "Si O2"
_cell_formula_units_Z 28
_cell_length_a 19.340560
_cell_length_b 6.058975
_cell_length_c 9.928849
_cell_angle_alpha 90.000000
_cell_angle_beta 90.000000
_cell_angle_gamma 90.000000
_cell_volume 1163.501939
_symmetry_space_group_name_H-M "P C C A"
_symmetry_group_IT_number 54
_symmetry_cell_setting 'orthorhombic'
loop_
_space_group_symop_operation_xyz
x,y,z
1/2-x,-y,z
1/2+x,-y,1/2-z
-x,y,1/2-z
-x,-y,-z
1/2+x,y,-z
1/2-x,y,1/2+z
x,-y,1/2+z
loop_
_atom_site_type_symbol
_atom_site_label
_atom_site_fract_x
_atom_site_fract_y
_atom_site_fract_z
Si Si1 0.609941 0.421235 0.455676
Si Si2 0.750000 0.500000 0.108416
Si Si3 0.073938 0.766188 0.776947
Si Si4 0.182512 0.894555 0.217580
O O1 0.686969 0.450443 0.511080
O O2 0.565712 0.386732 0.590153
O O3 0.591503 0.614702 0.352328
O O4 0.620032 0.197714 0.371955
O O5 0.717756 0.303421 0.198733
O O6 0.000000 0.877098 0.750000
O O7 0.140092 0.923022 0.802383
O O8 0.250000 0.000000 0.145972
#
# Coordination Sequence:
#
# PCOD9424524 Si02
#       4
#     8   4   8   8
#     4  12  26  48  75 108 155 195 254 314 376 444
#     4  12  24  48  74 116 146 198 250 324 374 440
#     4  12  29  49  77 111 154 204 250 309 382 454
#     4  12  25  46  75 113 148 195 258 310 378 448
#
# _framework density 24.065280999999999
#
# number of rings (size 3 to 8) (size 9 to 14) (size 15 to 20)
#    0.000    0.000    5.714    3.429    8.000    2.286 
#    0.000    0.000    0.000    0.000    0.000    0.000 
#    0.000    0.000    0.000    0.000    0.000    0.000 
#
# Total GULP energy -156378.833758 kJ/mol
# GULP energy per Si atom -5584.958349 kJ/mol
# Density = 2.401051 g / cm^3
# Si number density = 24.065281 Si / 1000 Ang^3
#
#
#
# Elastic Constant Matrix: (Units=GPa)
#
#
# Indices 1 2 3 4 5 6 
#
# 1 134.7638 46.5610 29.7413 0.0000 0.0000 0.0000
# 2 46.5610 74.0844 40.3744 0.0000 0.0000 0.0000
# 3 29.7413 40.3744 109.0102 0.0000 0.0000 0.0000
# 4 0.0000 0.0000 0.0000 28.8775 0.0000 0.0000
# 5 0.0000 0.0000 0.0000 0.0000 -2.3429 0.0000
# 6 0.0000 0.0000 0.0000 0.0000 0.0000 34.9688
#
#
#
# Elastic Compliance Matrix: (Units=1/GPa)
#
#
# Indices 1 2 3 4 5 6 
#
# 1 0.009498 -0.005710 -0.000477 0.000000 0.000000 0.000000
# 2 -0.005710 0.020344 -0.005977 0.000000 0.000000 0.000000
# 3 -0.000477 -0.005977 0.011517 0.000000 0.000000 0.000000
# 4 0.000000 0.000000 0.000000 0.034629 0.000000 0.000000
# 5 0.000000 0.000000 0.000000 0.000000 -0.426819 0.000000
# 6 0.000000 0.000000 0.000000 0.000000 0.000000 0.028597
#
#
# Mechanical properties :
#
#
# Convention : Reuss Voigt Hill
#
# Bulk Modulus (GPa) = 58.71120 61.24575 59.97847
# Shear Modulus (GPa) = -17.10991 25.71277 4.30143
#
# Velocity S-wave (km/s) = -2.66931 3.27228 1.33839
# Velocity P-wave (km/s) = 3.86643 6.30731 5.23123
#
# Compressibility (1/GPa) = 0.01703253
#
# Stress axis : x y z
#
# Youngs Moduli (GPa) = 105.28171 49.15454 86.82632
#
# Poissons Ratio (x) = 0.28066 0.04139
# Poissons Ratio (y) = 0.60114 0.51897
# Poissons Ratio (z) = 0.05019 0.29380
#
# Static dielectric constant tensor:
#      x y z
#    x 2.603300 0.000000 0.000000 
#    y 0.000000 2.042570 0.000000 
#    z 0.000000 0.000000 2.049330 
# 
# From -- ./inp_files/9144.got.cif
#   From: 2010.05.17/outbox.cif.g08.bks.cpg/sg54_5_cif.got.tgz:9144.got - 2010.06.03 13:09:01.
