data_PCOD9424099
_publ_section_title
;
Structure prediction by ZEFSAII (Michael W. Deem and Ramdas Pophale) SiO2 
 PCOD9424099
Probable space group: P C C A
;
_chemical_formula_sum "Si O2"
_cell_formula_units_Z 64
_cell_length_a 29.194925
_cell_length_b 9.192878
_cell_length_c 10.498707
_cell_angle_alpha 90.000000
_cell_angle_beta 90.000000
_cell_angle_gamma 90.000000
_cell_volume 2817.699507
_symmetry_space_group_name_H-M "P C C A"
_symmetry_group_IT_number 54
_symmetry_cell_setting 'orthorhombic'
loop_
_space_group_symop_operation_xyz
x,y,z
1/2-x,-y,z
1/2+x,-y,1/2-z
-x,y,1/2-z
-x,-y,-z
1/2+x,y,-z
1/2-x,y,1/2+z
x,-y,1/2+z
loop_
_atom_site_type_symbol
_atom_site_label
_atom_site_fract_x
_atom_site_fract_y
_atom_site_fract_z
Si Si1 0.438094 0.356033 0.955829
Si Si2 0.777565 0.215275 0.889596
Si Si3 0.607585 0.133035 0.168821
Si Si4 0.024927 0.673470 0.385651
Si Si5 0.764920 0.670052 0.639975
Si Si6 0.636169 0.382744 0.326649
Si Si7 0.635722 0.705108 0.236261
Si Si8 0.146050 0.023690 0.090747
O O1 0.447155 0.525342 0.918212
O O2 0.411151 0.273249 0.843417
O O3 0.487319 0.302283 0.004374
O O4 0.404128 0.344735 0.075797
O O5 0.752262 0.234008 0.757624
O O6 0.814959 0.345156 0.883961
O O7 0.806721 0.067555 0.903453
O O8 0.747362 0.254865 0.011070
O O9 0.557688 0.188237 0.129775
O O10 0.633643 0.285018 0.199046
O O11 0.612723 0.056425 0.306423
O O12 0.629347 0.040204 0.054439
O O13 0.000000 0.648002 0.250000
O O14 0.750000 0.500000 0.649479
O O15 0.819894 0.690164 0.646523
O O16 0.630699 0.549130 0.298538
O O17 0.647096 0.819226 0.345346
#
# Coordination Sequence:
#
# PCOD9424099 Si02
#       8
#     8   8   8   8   8   8   8   8
#     4  11  22  40  73 109 149 192 244 316 373 442
#     4  11  26  48  73 106 152 186 246 313 375 458
#     4  11  24  47  72 104 145 203 244 306 365 442
#     4  11  22  40  71 114 154 188 254 314 371 437
#     4  12  25  43  77 112 142 187 251 321 374 437
#     4  11  22  43  76 103 144 193 245 305 372 441
#     4  12  24  43  75 107 146 196 245 298 378 451
#     4  11  28  48  75 104 151 204 250 293 383 465
#
# _framework density 22.713564999999999
#
# number of rings (size 3 to 8) (size 9 to 14) (size 15 to 20)
#    0.000    0.750    5.000    1.875    1.750    3.500 
#    0.000    3.750    0.000    0.000    0.000    0.000 
#    0.000    0.000    0.000    0.000    0.000    0.000 
#
# Total GULP energy -357754.006968 kJ/mol
# GULP energy per Si atom -5589.906359 kJ/mol
# Density = 2.266187 g / cm^3
# Si number density = 22.713565 Si / 1000 Ang^3
#
#
#
# Elastic Constant Matrix: (Units=GPa)
#
#
# Indices 1 2 3 4 5 6 
#
# 1 63.0177 1.2326 37.6415 0.0000 0.0000 0.0000
# 2 1.2326 97.2576 55.8911 0.0000 0.0000 0.0000
# 3 37.6415 55.8911 148.1307 0.0000 0.0000 0.0000
# 4 0.0000 0.0000 0.0000 78.6423 0.0000 0.0000
# 5 0.0000 0.0000 0.0000 0.0000 38.7273 0.0000
# 6 0.0000 0.0000 0.0000 0.0000 0.0000 -15.6153
#
#
#
# Elastic Compliance Matrix: (Units=1/GPa)
#
#
# Indices 1 2 3 4 5 6 
#
# 1 0.019514 0.003323 -0.006213 0.000000 0.000000 0.000000
# 2 0.003323 0.013694 -0.006011 0.000000 0.000000 0.000000
# 3 -0.006213 -0.006011 0.010598 0.000000 0.000000 0.000000
# 4 0.000000 0.000000 0.000000 0.012716 0.000000 0.000000
# 5 0.000000 0.000000 0.000000 0.000000 0.025822 0.000000
# 6 0.000000 0.000000 0.000000 0.000000 0.000000 -0.064040
#
#
# Mechanical properties :
#
#
# Convention : Reuss Voigt Hill
#
# Bulk Modulus (GPa) = 38.45522 55.32629 46.89075
# Shear Modulus (GPa) = 111.67082 34.59356 73.13219
#
# Velocity S-wave (km/s) = 7.01937 3.90684 5.68045
# Velocity P-wave (km/s) = 9.09190 6.69047 7.98201
#
# Compressibility (1/GPa) = 0.02600427
#
# Stress axis : x y z
#
# Youngs Moduli (GPa) = 51.24415 73.02224 94.36059
#
# Poissons Ratio (x) = -0.24264 0.58622
# Poissons Ratio (y) = -0.17028 0.56724
# Poissons Ratio (z) = 0.31836 0.43897
#
# Static dielectric constant tensor:
#      x y z
#    x 1.915010 0.000000 0.000000 
#    y 0.000000 0.960780 0.000000 
#    z 0.000000 0.000000 1.941600 
# 
# From -- ./inp_files/10543.got.cif
#   From: 2010.05.17/outbox.cif.g08.bks.cpg/sg54_6_cif.got.tgz:10543.got - 2010.06.03 13:09:01.
