data_PCOD9424906
_publ_section_title
;
Structure prediction by ZEFSAII (Michael W. Deem and Ramdas Pophale) SiO2 
 PCOD9424906
Probable space group: P B A M
;
_chemical_formula_sum "Si O2"
_cell_formula_units_Z 64
_cell_length_a 31.932604
_cell_length_b 9.066585
_cell_length_c 13.177312
_cell_angle_alpha 90.000000
_cell_angle_beta 90.000000
_cell_angle_gamma 90.000000
_cell_volume 3815.091001
_symmetry_space_group_name_H-M "P B A M"
_symmetry_group_IT_number 55
_symmetry_cell_setting 'orthorhombic'
loop_
_space_group_symop_operation_xyz
x,y,z
-x,-y,z
1/2+x,1/2-y,-z
1/2-x,1/2+y,-z
-x,-y,-z
x,y,-z
1/2-x,1/2+y,z
1/2+x,1/2-y,z
loop_
_atom_site_type_symbol
_atom_site_label
_atom_site_fract_x
_atom_site_fract_y
_atom_site_fract_z
Si Si1 0.936179 0.906637 0.877279
Si Si2 0.268131 0.131026 0.724032
Si Si3 0.408153 0.058725 0.882188
Si Si4 0.830210 0.230291 0.113183
Si Si5 0.200167 0.086752 0.112788
Si Si6 0.025144 0.775809 0.878044
Si Si7 0.864136 0.722227 0.788063
Si Si8 0.799769 0.660760 0.379892
O O1 0.898415 0.847168 0.810012
O O2 0.976471 0.802161 0.856025
O O3 0.950652 0.072596 0.851619
O O4 0.927333 0.899702 0.000000
O O5 0.301808 0.212150 0.795205
O O6 0.235718 0.060993 0.804576
O O7 0.239584 0.239612 0.656731
O O8 0.289665 0.004395 0.658128
O O9 0.375216 0.193755 0.881899
O O10 0.451222 0.129340 0.841342
O O11 0.386706 0.928417 0.819892
O O12 0.413396 0.008993 0.000000
O O13 0.830516 0.053738 0.117344
O O14 0.813044 0.267997 0.000000
O O15 0.174733 0.234814 0.138442
O O16 0.217635 0.094504 0.000000
O O17 0.028042 0.767318 0.000000
O O18 0.841527 0.713601 0.679502
O O19 0.804373 0.668395 0.500000
#
# Coordination Sequence:
#
# PCOD9424906 Si02
#       8
#     8   8   8   8   8   8   8   8
#     4   9  16  30  49  75 109 147 176 199 239 300
#     4  11  20  38  54  73  96 127 173 209 260 312
#     4  10  18  28  45  74 107 137 167 204 244 294
#     4  10  19  31  48  73 106 137 162 193 245 311
#     4  10  20  32  48  72 104 138 165 197 244 313
#     4   8  16  29  48  73 109 148 177 197 230 297
#     4  11  21  32  50  74 103 133 173 214 260 302
#     4  11  24  40  57  72  94 129 175 230 273 302
#
# _framework density 16.775483999999999
#
# number of rings (size 3 to 8) (size 9 to 14) (size 15 to 20)
#    0.000    2.000    2.500    3.375    0.000    2.500 
#    0.000    1.875    0.000    0.000    0.000    3.500 
#    0.000    0.000    0.000    0.000    0.000    0.000 
#
# Total GULP energy -356809.722412 kJ/mol
# GULP energy per Si atom -5575.151913 kJ/mol
# Density = 1.673730 g / cm^3
# Si number density = 16.775484 Si / 1000 Ang^3
#
#
#
# Elastic Constant Matrix: (Units=GPa)
#
#
# Indices 1 2 3 4 5 6 
#
# 1 70.8157 19.0790 39.2369 0.0000 0.0000 0.0000
# 2 19.0790 36.4718 29.5869 0.0000 0.0000 0.0000
# 3 39.2369 29.5869 105.1319 0.0000 0.0000 0.0000
# 4 0.0000 0.0000 0.0000 12.9688 0.0000 0.0000
# 5 0.0000 0.0000 0.0000 0.0000 13.7308 0.0000
# 6 0.0000 0.0000 0.0000 0.0000 0.0000 36.6248
#
#
#
# Elastic Compliance Matrix: (Units=1/GPa)
#
#
# Indices 1 2 3 4 5 6 
#
# 1 0.018561 -0.005300 -0.005436 0.000000 0.000000 0.000000
# 2 -0.005300 0.037043 -0.008447 0.000000 0.000000 0.000000
# 3 -0.005436 -0.008447 0.013918 0.000000 0.000000 0.000000
# 4 0.000000 0.000000 0.000000 0.077108 0.000000 0.000000
# 5 0.000000 0.000000 0.000000 0.000000 0.072829 0.000000
# 6 0.000000 0.000000 0.000000 0.000000 0.000000 0.027304
#
#
# Mechanical properties :
#
#
# Convention : Reuss Voigt Hill
#
# Bulk Modulus (GPa) = 32.09573 43.13612 37.61592
# Shear Modulus (GPa) = 16.91970 20.96599 18.94284
#
# Velocity S-wave (km/s) = 3.17929 3.53909 3.36400
# Velocity P-wave (km/s) = 5.71412 6.51688 6.12866
#
# Compressibility (1/GPa) = 0.03115679
#
# Stress axis : x y z
#
# Youngs Moduli (GPa) = 53.87700 26.99542 71.85071
#
# Poissons Ratio (x) = 0.14307 0.39056
# Poissons Ratio (y) = 0.28554 0.60692
# Poissons Ratio (z) = 0.29286 0.22803
#
# Static dielectric constant tensor:
#      x y z
#    x 1.606390 0.000000 0.000000 
#    y 0.000000 1.608350 0.000000 
#    z 0.000000 0.000000 1.522500 
# 
# From -- ./inp_files/20201.got.cif
#   From: 2010.05.17/outbox.cif.g08.bks.cpg/sg55_11_cif.got.tgz:20201.got - 2010.06.03 13:27:54.
