data_PCOD9424062
_publ_section_title
;
Structure prediction by ZEFSAII (Michael W. Deem and Ramdas Pophale) SiO2 
 PCOD9424062
Probable space group: P C C A
;
_chemical_formula_sum "Si O2"
_cell_formula_units_Z 24
_cell_length_a 17.091468
_cell_length_b 7.283079
_cell_length_c 7.042012
_cell_angle_alpha 90.000000
_cell_angle_beta 90.000000
_cell_angle_gamma 90.000000
_cell_volume 876.579173
_symmetry_space_group_name_H-M "P C C A"
_symmetry_group_IT_number 54
_symmetry_cell_setting 'orthorhombic'
loop_
_space_group_symop_operation_xyz
x,y,z
1/2-x,-y,z
1/2+x,-y,1/2-z
-x,y,1/2-z
-x,-y,-z
1/2+x,y,-z
1/2-x,y,1/2+z
x,-y,1/2+z
loop_
_atom_site_type_symbol
_atom_site_label
_atom_site_fract_x
_atom_site_fract_y
_atom_site_fract_z
Si Si1 0.850739 0.676652 0.741690
Si Si2 0.177042 0.253214 0.833488
Si Si3 0.949744 0.167392 0.920075
O O1 0.770347 0.765338 0.660240
O O2 0.836802 0.457726 0.750552
O O3 0.921359 0.718107 0.600413
O O4 0.857856 0.742218 0.956710
O O5 0.129587 0.118570 0.696669
O O6 0.000000 0.259885 0.750000
O O7 0.000000 0.000000 0.000000
#
# Coordination Sequence:
#
# PCOD9424062 Si02
#       3
#     8   8   8
#     4  11  21  46  85 119 146 196 272 330 391 456
#     4  11  21  46  85 119 145 197 268 337 380 467
#     4  12  30  49  68 113 167 202 251 323 399 475
#
# _framework density 27.379159000000001
#
# number of rings (size 3 to 8) (size 9 to 14) (size 15 to 20)
#    0.000    0.667    6.667    2.000    4.667    1.333 
#    0.000    5.000    0.000    0.000    0.000    0.000 
#    0.000    0.000    0.000    0.000    0.000    0.000 
#
# Total GULP energy -134703.040130 kJ/mol
# GULP energy per Si atom -5612.626672 kJ/mol
# Density = 2.731684 g / cm^3
# Si number density = 27.379159 Si / 1000 Ang^3
#
#
#
# Elastic Constant Matrix: (Units=GPa)
#
#
# Indices 1 2 3 4 5 6 
#
# 1 138.0079 58.9098 59.5901 0.0000 0.0000 0.0000
# 2 58.9098 92.2458 51.5835 0.0000 0.0000 0.0000
# 3 59.5901 51.5835 217.3633 0.0000 0.0000 0.0000
# 4 0.0000 0.0000 0.0000 29.3879 0.0000 0.0000
# 5 0.0000 0.0000 0.0000 0.0000 78.2213 0.0000
# 6 0.0000 0.0000 0.0000 0.0000 0.0000 58.2084
#
#
#
# Elastic Compliance Matrix: (Units=1/GPa)
#
#
# Indices 1 2 3 4 5 6 
#
# 1 0.010350 -0.005791 -0.001463 0.000000 0.000000 0.000000
# 2 -0.005791 0.015740 -0.002148 0.000000 0.000000 0.000000
# 3 -0.001463 -0.002148 0.005511 0.000000 0.000000 0.000000
# 4 0.000000 0.000000 0.000000 0.034028 0.000000 0.000000
# 5 0.000000 0.000000 0.000000 0.000000 0.012784 0.000000
# 6 0.000000 0.000000 0.000000 0.000000 0.000000 0.017180
#
#
# Mechanical properties :
#
#
# Convention : Reuss Voigt Hill
#
# Bulk Modulus (GPa) = 78.14307 87.53156 82.83731
# Shear Modulus (GPa) = 42.13626 51.66574 46.90100
#
# Velocity S-wave (km/s) = 3.92725 4.34873 4.14335
# Velocity P-wave (km/s) = 7.01195 7.56669 7.29460
#
# Compressibility (1/GPa) = 0.01279704
#
# Stress axis : x y z
#
# Youngs Moduli (GPa) = 96.62018 63.53209 181.44419
#
# Poissons Ratio (x) = 0.36794 0.26545
# Poissons Ratio (y) = 0.55957 0.38967
# Poissons Ratio (z) = 0.14135 0.13644
#
# Static dielectric constant tensor:
#      x y z
#    x 2.181220 0.000000 0.000000 
#    y 0.000000 2.147660 0.000000 
#    z 0.000000 0.000000 2.070610 
# 
# From -- ./inp_files/3817.got.cif
#   From: 2010.05.17/outbox.cif.g08.bks.cpg/sg54_2_cif.got.tgz:3817.got - 2010.06.03 13:09:01.
