data_PCOD9424600
_publ_section_title
;
Structure prediction by ZEFSAII (Michael W. Deem and Ramdas Pophale) SiO2 
 PCOD9424600
Probable space group: P C C A
;
_chemical_formula_sum "Si O2"
_cell_formula_units_Z 12
_cell_length_a 5.384231
_cell_length_b 4.755505
_cell_length_c 16.091134
_cell_angle_alpha 90.000000
_cell_angle_beta 90.000000
_cell_angle_gamma 90.000000
_cell_volume 412.009261
_symmetry_space_group_name_H-M "P C C A"
_symmetry_group_IT_number 54
_symmetry_cell_setting 'orthorhombic'
loop_
_space_group_symop_operation_xyz
x,y,z
1/2-x,-y,z
1/2+x,-y,1/2-z
-x,y,1/2-z
-x,-y,-z
1/2+x,y,-z
1/2-x,y,1/2+z
x,-y,1/2+z
loop_
_atom_site_type_symbol
_atom_site_label
_atom_site_fract_x
_atom_site_fract_y
_atom_site_fract_z
Si Si1 0.750000 0.500000 0.697773
Si Si2 0.415551 0.211609 0.074406
O O1 0.500000 0.433979 0.750000
O O2 0.645308 0.718563 0.631202
O O3 0.250000 0.500000 0.054725
O O4 0.250000 0.000000 0.127959
O O5 0.500000 0.000000 0.000000
#
# Coordination Sequence:
#
# PCOD9424600 Si02
#       2
#     4   8
#     4  12  30  66  94 146 204 266 328 422 518 600
#     4  12  31  57 100 142 194 260 343 420 498 609
#
# _framework density 29.125561000000001
#
# number of rings (size 3 to 8) (size 9 to 14) (size 15 to 20)
#    0.000    0.000    3.333    2.000   14.000    0.000 
#   12.000    0.000    0.000    0.000    0.000    0.000 
#    0.000    0.000    0.000    0.000    0.000    0.000 
#
# Total GULP energy -67011.292453 kJ/mol
# GULP energy per Si atom -5584.274371 kJ/mol
# Density = 2.905927 g / cm^3
# Si number density = 29.125561 Si / 1000 Ang^3
#
#
#
# Elastic Constant Matrix: (Units=GPa)
#
#
# Indices 1 2 3 4 5 6 
#
# 1 305.9986 142.6278 129.3129 0.0000 0.0000 0.0000
# 2 142.6278 271.5873 105.6375 0.0000 0.0000 0.0000
# 3 129.3129 105.6375 204.2364 0.0000 0.0000 0.0000
# 4 0.0000 0.0000 0.0000 4.8503 0.0000 0.0000
# 5 0.0000 0.0000 0.0000 0.0000 57.5196 0.0000
# 6 0.0000 0.0000 0.0000 0.0000 0.0000 104.7035
#
#
#
# Elastic Compliance Matrix: (Units=1/GPa)
#
#
# Indices 1 2 3 4 5 6 
#
# 1 0.005059 -0.001766 -0.002289 0.000000 0.000000 0.000000
# 2 -0.001766 0.005226 -0.001585 0.000000 0.000000 0.000000
# 3 -0.002289 -0.001585 0.007166 0.000000 0.000000 0.000000
# 4 0.000000 0.000000 0.000000 0.206173 0.000000 0.000000
# 5 0.000000 0.000000 0.000000 0.000000 0.017385 0.000000
# 6 0.000000 0.000000 0.000000 0.000000 0.000000 0.009551
#
#
# Mechanical properties :
#
#
# Convention : Reuss Voigt Hill
#
# Bulk Modulus (GPa) = 162.08779 170.77540 166.43160
# Shear Modulus (GPa) = 18.94684 60.36429 39.65557
#
# Velocity S-wave (km/s) = 2.55330 4.55747 3.69391
# Velocity P-wave (km/s) = 8.02899 9.29815 8.68678
#
# Compressibility (1/GPa) = 0.00616950
#
# Stress axis : x y z
#
# Youngs Moduli (GPa) = 197.67966 191.35077 139.55644
#
# Poissons Ratio (x) = 0.33795 0.31950
# Poissons Ratio (y) = 0.34913 0.22117
# Poissons Ratio (z) = 0.45257 0.30326
#
# Static dielectric constant tensor:
#      x y z
#    x 2.441710 0.000000 0.000000 
#    y 0.000000 2.193260 0.000000 
#    z 0.000000 0.000000 2.391280 
# 
# From -- ./inp_files/15428.got.cif
#   From: 2010.05.17/outbox.cif.g08.bks.cpg/sg54_8_cif.got.tgz:15428.got - 2010.06.03 13:09:01.
