data_PCOD9424494
_publ_section_title
;
Structure prediction by ZEFSAII (Michael W. Deem and Ramdas Pophale) SiO2 
 PCOD9424494
Probable space group: P C C A
;
_chemical_formula_sum "Si O2"
_cell_formula_units_Z 40
_cell_length_a 9.315856
_cell_length_b 15.121990
_cell_length_c 12.915843
_cell_angle_alpha 90.000000
_cell_angle_beta 90.000000
_cell_angle_gamma 90.000000
_cell_volume 1819.510100
_symmetry_space_group_name_H-M "P C C A"
_symmetry_group_IT_number 54
_symmetry_cell_setting 'orthorhombic'
loop_
_space_group_symop_operation_xyz
x,y,z
1/2-x,-y,z
1/2+x,-y,1/2-z
-x,y,1/2-z
-x,-y,-z
1/2+x,y,-z
1/2-x,y,1/2+z
x,-y,1/2+z
loop_
_atom_site_type_symbol
_atom_site_label
_atom_site_fract_x
_atom_site_fract_y
_atom_site_fract_z
Si Si1 0.268053 0.762401 0.726052
Si Si2 0.774474 0.100447 0.611739
Si Si3 0.728358 0.596861 0.627599
Si Si4 0.061192 0.662315 0.046876
Si Si5 0.956386 0.172026 0.428317
O O1 0.339268 0.834876 0.801181
O O2 0.231056 0.677891 0.797176
O O3 0.360251 0.722142 0.632752
O O4 0.135373 0.813800 0.674627
O O5 0.870897 0.110525 0.509190
O O6 0.616576 0.138136 0.587444
O O7 0.750000 0.000000 0.644712
O O8 0.750000 0.500000 0.673819
O O9 0.825583 0.610481 0.524662
O O10 0.560028 0.603980 0.600874
O O11 0.971712 0.730712 0.976993
#
# Coordination Sequence:
#
# PCOD9424494 Si02
#       5
#     8   8   8   8   8
#     4  12  24  46  74 100 144 188 238 290 356 418
#     4  12  27  46  73 110 141 185 240 295 353 426
#     4  12  27  46  73 110 141 185 240 295 353 426
#     4  12  23  49  73  97 147 191 227 292 361 419
#     4  12  23  49  73  97 147 191 227 292 361 419
#
# _framework density 21.983941000000002
#
# number of rings (size 3 to 8) (size 9 to 14) (size 15 to 20)
#    0.000    0.000    8.000    2.400    0.000    1.600 
#   14.400    0.000    0.000    0.000    0.000    0.000 
#    0.000    0.000    0.000    0.000    0.000    0.000 
#
# Total GULP energy -223858.385464 kJ/mol
# GULP energy per Si atom -5596.459637 kJ/mol
# Density = 2.193390 g / cm^3
# Si number density = 21.983941 Si / 1000 Ang^3
#
#
#
# Elastic Constant Matrix: (Units=GPa)
#
#
# Indices 1 2 3 4 5 6 
#
# 1 72.1063 -21.4193 6.5560 0.0000 0.0000 0.0000
# 2 -21.4193 108.5454 7.5377 0.0000 0.0000 0.0000
# 3 6.5560 7.5377 85.1798 0.0000 0.0000 0.0000
# 4 0.0000 0.0000 0.0000 -0.9314 0.0000 0.0000
# 5 0.0000 0.0000 0.0000 0.0000 22.8590 0.0000
# 6 0.0000 0.0000 0.0000 0.0000 0.0000 21.6474
#
#
#
# Elastic Compliance Matrix: (Units=1/GPa)
#
#
# Indices 1 2 3 4 5 6 
#
# 1 0.014900 0.003038 -0.001416 0.000000 0.000000 0.000000
# 2 0.003038 0.009889 -0.001109 0.000000 0.000000 0.000000
# 3 -0.001416 -0.001109 0.011947 0.000000 0.000000 0.000000
# 4 0.000000 0.000000 0.000000 -1.073663 0.000000 0.000000
# 5 0.000000 0.000000 0.000000 0.000000 0.043746 0.000000
# 6 0.000000 0.000000 0.000000 0.000000 0.000000 0.046195
#
#
# Mechanical properties :
#
#
# Convention : Reuss Voigt Hill
#
# Bulk Modulus (GPa) = 26.48048 27.90892 27.19470
# Shear Modulus (GPa) = -5.34516 26.92547 10.79016
#
# Velocity S-wave (km/s) = -1.56098 3.50348 2.21785
# Velocity P-wave (km/s) = 2.97029 5.39338 4.35380
#
# Compressibility (1/GPa) = 0.03776367
#
# Stress axis : x y z
#
# Youngs Moduli (GPa) = 67.11540 101.11910 83.70330
#
# Poissons Ratio (x) = -0.30725 0.11849
# Poissons Ratio (y) = -0.20393 0.09283
# Poissons Ratio (z) = 0.09501 0.11214
#
# Static dielectric constant tensor:
#      x y z
#    x 1.815430 0.000000 0.000000 
#    y 0.000000 1.786330 0.000000 
#    z 0.000000 0.000000 1.835630 
# 
# From -- ./inp_files/11492.got.cif
#   From: 2010.05.17/outbox.cif.g08.bks.cpg/sg54_6_cif.got.tgz:11492.got - 2010.06.03 13:09:01.
