data_PCOD9424245
_publ_section_title
;
Structure prediction by ZEFSAII (Michael W. Deem and Ramdas Pophale) SiO2 
 PCOD9424245
Probable space group: P C C A
;
_chemical_formula_sum "Si O2"
_cell_formula_units_Z 40
_cell_length_a 6.592869
_cell_length_b 9.903514
_cell_length_c 23.201372
_cell_angle_alpha 90.000000
_cell_angle_beta 90.000000
_cell_angle_gamma 90.000000
_cell_volume 1514.877216
_symmetry_space_group_name_H-M "P C C A"
_symmetry_group_IT_number 54
_symmetry_cell_setting 'orthorhombic'
loop_
_space_group_symop_operation_xyz
x,y,z
1/2-x,-y,z
1/2+x,-y,1/2-z
-x,y,1/2-z
-x,-y,-z
1/2+x,y,-z
1/2-x,y,1/2+z
x,-y,1/2+z
loop_
_atom_site_type_symbol
_atom_site_label
_atom_site_fract_x
_atom_site_fract_y
_atom_site_fract_z
Si Si1 0.100050 0.103780 0.806533
Si Si2 0.769941 0.750369 0.381178
Si Si3 0.903703 0.664957 0.694781
Si Si4 0.371614 0.111876 0.504344
Si Si5 0.143044 0.374976 0.921804
O O1 0.242080 0.224497 0.782934
O O2 0.000000 0.039230 0.750000
O O3 0.933634 0.151354 0.851375
O O4 0.250000 0.000000 0.836959
O O5 0.607649 0.717256 0.333468
O O6 0.647774 0.822431 0.431957
O O7 0.907631 0.623456 0.402051
O O8 0.777581 0.628194 0.636719
O O9 0.000000 0.583104 0.750000
O O10 0.621318 0.069039 0.500482
O O11 0.358318 0.237412 0.458582
O O12 0.250000 0.500000 0.954656
#
# Coordination Sequence:
#
# PCOD9424245 Si02
#       5
#     8   8   8   8   8
#     4  11  24  39  67 108 156 204 263 325 401 487
#     4  11  26  46  74 110 159 205 268 326 410 481
#     4  11  24  47  74 107 154 209 258 328 404 479
#     4  12  25  48  76 114 154 211 263 332 405 485
#     4  11  28  51  77 116 157 206 269 335 405 487
#
# _framework density 26.404781
#
# number of rings (size 3 to 8) (size 9 to 14) (size 15 to 20)
#    0.000    0.800    4.000    1.800    2.800    4.800 
#    3.600    0.000    0.000    0.000    0.000    0.000 
#    0.000    0.000    0.000    0.000    0.000    0.000 
#
# Total GULP energy -223259.302528 kJ/mol
# GULP energy per Si atom -5581.482563 kJ/mol
# Density = 2.634468 g / cm^3
# Si number density = 26.404781 Si / 1000 Ang^3
#
#
#
# Elastic Constant Matrix: (Units=GPa)
#
#
# Indices 1 2 3 4 5 6 
#
# 1 177.8864 63.6121 61.6000 0.0000 0.0000 0.0000
# 2 63.6121 96.7127 61.7400 0.0000 0.0000 0.0000
# 3 61.6000 61.7400 162.9834 0.0000 0.0000 0.0000
# 4 0.0000 0.0000 0.0000 159.8918 0.0000 0.0000
# 5 0.0000 0.0000 0.0000 0.0000 23.1956 0.0000
# 6 0.0000 0.0000 0.0000 0.0000 0.0000 26.0247
#
#
#
# Elastic Compliance Matrix: (Units=1/GPa)
#
#
# Indices 1 2 3 4 5 6 
#
# 1 0.007548 -0.004146 -0.001282 0.000000 0.000000 0.000000
# 2 -0.004146 0.015915 -0.004462 0.000000 0.000000 0.000000
# 3 -0.001282 -0.004462 0.008310 0.000000 0.000000 0.000000
# 4 0.000000 0.000000 0.000000 0.006254 0.000000 0.000000
# 5 0.000000 0.000000 0.000000 0.000000 0.043112 0.000000
# 6 0.000000 0.000000 0.000000 0.000000 0.000000 0.038425
#
#
# Mechanical properties :
#
#
# Convention : Reuss Voigt Hill
#
# Bulk Modulus (GPa) = 83.37900 90.16518 86.77209
# Shear Modulus (GPa) = 34.88122 58.53112 46.70617
#
# Velocity S-wave (km/s) = 3.63853 4.71328 4.21034
# Velocity P-wave (km/s) = 7.02123 7.99008 7.52127
#
# Compressibility (1/GPa) = 0.01199343
#
# Stress axis : x y z
#
# Youngs Moduli (GPa) = 132.48018 62.83193 120.33070
#
# Poissons Ratio (x) = 0.26052 0.15429
# Poissons Ratio (y) = 0.54930 0.53690
# Poissons Ratio (z) = 0.16987 0.28035
#
# Static dielectric constant tensor:
#      x y z
#    x 2.012700 0.000000 0.000000 
#    y 0.000000 2.453650 0.000000 
#    z 0.000000 0.000000 1.991790 
# 
# From -- ./inp_files/25146.got.cif
#   From: 2010.05.17/outbox.cif.g08.bks.cpg/sg54_13_cif.got.tgz:25146.got - 2010.06.03 13:09:01.
