data_PCOD9424522
_publ_section_title
;
Structure prediction by ZEFSAII (Michael W. Deem and Ramdas Pophale) SiO2 
 PCOD9424522
Probable space group: P C C A
;
_chemical_formula_sum "Si O2"
_cell_formula_units_Z 40
_cell_length_a 18.075716
_cell_length_b 5.333693
_cell_length_c 18.436406
_cell_angle_alpha 90.000000
_cell_angle_beta 90.000000
_cell_angle_gamma 90.000000
_cell_volume 1777.459800
_symmetry_space_group_name_H-M "P C C A"
_symmetry_group_IT_number 54
_symmetry_cell_setting 'orthorhombic'
loop_
_space_group_symop_operation_xyz
x,y,z
1/2-x,-y,z
1/2+x,-y,1/2-z
-x,y,1/2-z
-x,-y,-z
1/2+x,y,-z
1/2-x,y,1/2+z
x,-y,1/2+z
loop_
_atom_site_type_symbol
_atom_site_label
_atom_site_fract_x
_atom_site_fract_y
_atom_site_fract_z
Si Si1 0.916543 0.773167 0.720964
Si Si2 0.555062 0.321166 0.454142
Si Si3 0.168918 0.933496 0.492823
Si Si4 0.671729 0.637584 0.362947
Si Si5 0.583503 0.741772 0.629742
O O1 0.861338 0.731559 0.787870
O O2 0.918369 0.519510 0.672617
O O3 0.000000 0.811711 0.750000
O O4 0.892601 0.022504 0.678177
O O5 0.500000 0.500000 0.500000
O O6 0.605709 0.145791 0.504132
O O7 0.610867 0.460349 0.400580
O O8 0.497311 0.183228 0.401289
O O9 0.250000 0.000000 0.465415
O O10 0.178795 0.848961 0.575625
O O11 0.137128 0.722389 0.439656
O O12 0.750000 0.500000 0.354235
#
# Coordination Sequence:
#
# PCOD9424522 Si02
#       5
#     8   8   8   8   8
#     4  12  27  47  74 107 151 197 251 308 379 455
#     4  12  24  47  76 113 146 196 260 323 381 460
#     4  12  27  46  77 108 152 198 252 320 385 457
#     4  12  27  47  76 109 155 199 254 317 389 457
#     4  12  27  47  76 111 147 197 254 312 374 458
#
# _framework density 22.504023
#
# number of rings (size 3 to 8) (size 9 to 14) (size 15 to 20)
#    0.000    0.000    6.000    3.600    2.800    1.600 
#    0.000    0.000    0.000    0.000    0.000    0.000 
#    0.000    0.000    0.000    0.000    0.000    0.000 
#
# Total GULP energy -223900.682951 kJ/mol
# GULP energy per Si atom -5597.517074 kJ/mol
# Density = 2.245280 g / cm^3
# Si number density = 22.504023 Si / 1000 Ang^3
#
#
#
# Elastic Constant Matrix: (Units=GPa)
#
#
# Indices 1 2 3 4 5 6 
#
# 1 136.7575 11.1851 43.0244 0.0000 0.0000 0.0000
# 2 11.1851 76.6769 33.2349 0.0000 0.0000 0.0000
# 3 43.0244 33.2349 106.8106 0.0000 0.0000 0.0000
# 4 0.0000 0.0000 0.0000 9.6494 0.0000 0.0000
# 5 0.0000 0.0000 0.0000 0.0000 29.1593 0.0000
# 6 0.0000 0.0000 0.0000 0.0000 0.0000 27.1146
#
#
#
# Elastic Compliance Matrix: (Units=1/GPa)
#
#
# Indices 1 2 3 4 5 6 
#
# 1 0.008378 0.000278 -0.003461 0.000000 0.000000 0.000000
# 2 0.000278 0.015084 -0.004806 0.000000 0.000000 0.000000
# 3 -0.003461 -0.004806 0.012252 0.000000 0.000000 0.000000
# 4 0.000000 0.000000 0.000000 0.103633 0.000000 0.000000
# 5 0.000000 0.000000 0.000000 0.000000 0.034294 0.000000
# 6 0.000000 0.000000 0.000000 0.000000 0.000000 0.036880
#
#
# Mechanical properties :
#
#
# Convention : Reuss Voigt Hill
#
# Bulk Modulus (GPa) = 50.66695 55.01486 52.84090
# Shear Modulus (GPa) = 21.45194 28.70471 25.07832
#
# Velocity S-wave (km/s) = 3.09082 3.57534 3.34187
# Velocity P-wave (km/s) = 5.94147 6.44545 6.19858
#
# Compressibility (1/GPa) = 0.01973673
#
# Stress axis : x y z
#
# Youngs Moduli (GPa) = 119.35370 66.29505 81.61951
#
# Poissons Ratio (x) = -0.01844 0.28252
# Poissons Ratio (y) = -0.03320 0.39223
# Poissons Ratio (z) = 0.41314 0.31859
#
# Static dielectric constant tensor:
#      x y z
#    x 1.814660 0.000000 0.000000 
#    y 0.000000 1.952940 0.000000 
#    z 0.000000 0.000000 1.873630 
# 
# From -- ./inp_files/18373.got.cif
#   From: 2010.05.17/outbox.cif.g08.bks.cpg/sg54_10_cif.got.tgz:18373.got - 2010.06.03 13:09:01.
