data_PCOD9424974
_publ_section_title
;
Structure prediction by ZEFSAII (Michael W. Deem and Ramdas Pophale) SiO2 
 PCOD9424974
Probable space group: P B A M
;
_chemical_formula_sum "Si O2"
_cell_formula_units_Z 64
_cell_length_a 19.948321
_cell_length_b 23.894032
_cell_length_c 7.613954
_cell_angle_alpha 90.000000
_cell_angle_beta 90.000000
_cell_angle_gamma 90.000000
_cell_volume 3629.159350
_symmetry_space_group_name_H-M "P B A M"
_symmetry_group_IT_number 55
_symmetry_cell_setting 'orthorhombic'
loop_
_space_group_symop_operation_xyz
x,y,z
-x,-y,z
1/2+x,1/2-y,-z
1/2-x,1/2+y,-z
-x,-y,-z
x,y,-z
1/2-x,1/2+y,z
1/2+x,1/2-y,z
loop_
_atom_site_type_symbol
_atom_site_label
_atom_site_fract_x
_atom_site_fract_y
_atom_site_fract_z
Si Si1 0.995830 0.625652 0.299949
Si Si2 0.628837 0.929926 0.802671
Si Si3 0.367852 0.941400 0.287068
Si Si4 0.995928 0.247201 0.715427
Si Si5 0.642994 0.273224 0.286080
Si Si6 0.649884 0.723072 0.285855
Si Si7 0.272398 0.164322 0.288193
Si Si8 0.279319 0.839368 0.713828
O O1 0.972789 0.636134 0.500000
O O2 0.066920 0.594771 0.306127
O O3 0.938246 0.585705 0.224572
O O4 0.003618 0.687847 0.224741
O O5 0.694968 0.893177 0.772106
O O6 0.640075 0.995227 0.772837
O O7 0.605761 0.920841 0.000000
O O8 0.368110 0.943682 0.500000
O O9 0.310110 0.898193 0.229764
O O10 0.994360 0.246760 0.500000
O O11 0.066430 0.220594 0.771077
O O12 0.926668 0.218863 0.773486
O O13 0.643152 0.273764 0.500000
O O14 0.697758 0.318894 0.228592
O O15 0.671998 0.212168 0.234842
O O16 0.649989 0.722140 0.500000
O O17 0.679580 0.783872 0.235278
O O18 0.704576 0.677421 0.228108
O O19 0.272096 0.163493 0.500000
O O20 0.279076 0.839695 0.500000
#
# Coordination Sequence:
#
# PCOD9424974 Si02
#       8
#     8   8   8   8   8   8   8   8
#     4  10  18  30  47  67  89 119 155 183 211 258
#     4  12  24  33  42  59  89 124 157 189 222 256
#     4  10  19  31  48  65  86 117 157 191 216 257
#     4   9  13  21  41  72  99 116 136 172 219 265
#     4   8  13  22  42  70  94 111 138 180 221 261
#     4   8  13  21  41  69  94 112 136 177 223 264
#     4   9  16  29  47  66  87 115 149 183 218 259
#     4   8  13  23  39  65  91 113 141 180 221 258
#
# _framework density 17.634937999999998
#
# number of rings (size 3 to 8) (size 9 to 14) (size 15 to 20)
#    0.000    2.750    2.500    3.000    0.000    2.000 
#    0.000    0.000    0.000    3.750    0.000    0.875 
#    0.000    7.000    0.000    0.000    0.000    0.000 
#
# Total GULP energy -356750.881610 kJ/mol
# GULP energy per Si atom -5574.232525 kJ/mol
# Density = 1.759480 g / cm^3
# Si number density = 17.634938 Si / 1000 Ang^3
#
#
#
# Elastic Constant Matrix: (Units=GPa)
#
#
# Indices 1 2 3 4 5 6 
#
# 1 165.3072 61.4202 -0.6523 0.0000 0.0000 0.0000
# 2 61.4202 78.7240 -2.8381 0.0000 0.0000 0.0000
# 3 -0.6523 -2.8381 36.7536 0.0000 0.0000 0.0000
# 4 0.0000 0.0000 0.0000 77.2792 0.0000 0.0000
# 5 0.0000 0.0000 0.0000 0.0000 -19.0087 0.0000
# 6 0.0000 0.0000 0.0000 0.0000 0.0000 20.9753
#
#
#
# Elastic Compliance Matrix: (Units=1/GPa)
#
#
# Indices 1 2 3 4 5 6 
#
# 1 0.008524 -0.006663 -0.000363 0.000000 0.000000 0.000000
# 2 -0.006663 0.017947 0.001268 0.000000 0.000000 0.000000
# 3 -0.000363 0.001268 0.027300 0.000000 0.000000 0.000000
# 4 0.000000 0.000000 0.000000 0.012940 0.000000 0.000000
# 5 0.000000 0.000000 0.000000 0.000000 -0.052608 0.000000
# 6 0.000000 0.000000 0.000000 0.000000 0.000000 0.047675
#
#
# Mechanical properties :
#
#
# Convention : Reuss Voigt Hill
#
# Bulk Modulus (GPa) = 23.66726 44.07160 33.86943
# Shear Modulus (GPa) = 57.22158 30.70617 43.96388
#
# Velocity S-wave (km/s) = 5.70248 4.17731 4.99841
# Velocity P-wave (km/s) = 7.53708 6.95068 7.24981
#
# Compressibility (1/GPa) = 0.04225246
#
# Stress axis : x y z
#
# Youngs Moduli (GPa) = 117.32074 55.71988 36.63052
#
# Poissons Ratio (x) = 0.37127 0.01331
# Poissons Ratio (y) = 0.78173 -0.04643
# Poissons Ratio (z) = 0.04262 -0.07063
#
# Static dielectric constant tensor:
#      x y z
#    x 1.620520 0.000000 0.000000 
#    y 0.000000 1.566500 0.000000 
#    z 0.000000 0.000000 1.651430 
# 
# From -- ./inp_files/9145.got.cif
#   From: 2010.05.17/outbox.cif.g08.bks.cpg/sg55_5_cif.got.tgz:9145.got - 2010.06.03 13:27:54.
