data_PCOD9424384
_publ_section_title
;
Structure prediction by ZEFSAII (Michael W. Deem and Ramdas Pophale) SiO2 
 PCOD9424384
Probable space group: P C C A
;
_chemical_formula_sum "Si O2"
_cell_formula_units_Z 48
_cell_length_a 24.642101
_cell_length_b 11.237026
_cell_length_c 7.962019
_cell_angle_alpha 90.000000
_cell_angle_beta 90.000000
_cell_angle_gamma 90.000000
_cell_volume 2204.714349
_symmetry_space_group_name_H-M "P C C A"
_symmetry_group_IT_number 54
_symmetry_cell_setting 'orthorhombic'
loop_
_space_group_symop_operation_xyz
x,y,z
1/2-x,-y,z
1/2+x,-y,1/2-z
-x,y,1/2-z
-x,-y,-z
1/2+x,y,-z
1/2-x,y,1/2+z
x,-y,1/2+z
loop_
_atom_site_type_symbol
_atom_site_label
_atom_site_fract_x
_atom_site_fract_y
_atom_site_fract_z
Si Si1 0.262437 0.860354 0.491850
Si Si2 0.162170 0.685944 0.784484
Si Si3 0.939122 0.161169 0.207954
Si Si4 0.832613 0.772380 0.190723
Si Si5 0.938999 0.109273 0.812974
Si Si6 0.687102 0.532080 0.539246
O O1 0.297680 0.789854 0.350821
O O2 0.201652 0.810001 0.473776
O O3 0.297299 0.829493 0.657175
O O4 0.250000 0.000000 0.471901
O O5 0.105936 0.746285 0.736173
O O6 0.182116 0.598181 0.638440
O O7 0.155619 0.591739 0.937887
O O8 0.000000 0.199818 0.250000
O O9 0.930640 0.032265 0.292307
O O10 0.933600 0.142817 0.007781
O O11 0.892568 0.823906 0.208354
O O12 0.831041 0.630571 0.175644
O O13 0.000000 0.134869 0.750000
O O14 0.750000 0.500000 0.564245
#
# Coordination Sequence:
#
# PCOD9424384 Si02
#       6
#     8   8   8   8   8   8
#     4  12  25  45  67 110 148 187 233 306 375 444
#     4  12  26  47  72 103 144 192 251 300 373 442
#     4  11  25  47  75 108 148 195 246 310 375 451
#     4  12  26  44  74 105 147 195 244 303 367 446
#     4  11  25  47  76 110 151 196 247 302 384 455
#     4  12  27  47  72 101 142 198 248 299 369 447
#
# _framework density 21.771529000000001
#
# number of rings (size 3 to 8) (size 9 to 14) (size 15 to 20)
#    0.000    0.333    3.333    6.000    4.667    0.000 
#    0.000    2.500    0.000    0.000    0.000    0.000 
#    0.000    0.000    0.000    0.000    0.000    0.000 
#
# Total GULP energy -268470.587139 kJ/mol
# GULP energy per Si atom -5593.137232 kJ/mol
# Density = 2.172198 g / cm^3
# Si number density = 21.771529 Si / 1000 Ang^3
#
#
#
# Elastic Constant Matrix: (Units=GPa)
#
#
# Indices 1 2 3 4 5 6 
#
# 1 143.2278 74.6458 15.8171 0.0000 0.0000 0.0000
# 2 74.6458 142.3085 28.6188 0.0000 0.0000 0.0000
# 3 15.8171 28.6188 79.7236 0.0000 0.0000 0.0000
# 4 0.0000 0.0000 0.0000 20.6449 0.0000 0.0000
# 5 0.0000 0.0000 0.0000 0.0000 21.3570 0.0000
# 6 0.0000 0.0000 0.0000 0.0000 0.0000 11.0390
#
#
#
# Elastic Compliance Matrix: (Units=1/GPa)
#
#
# Indices 1 2 3 4 5 6 
#
# 1 0.009609 -0.005019 -0.000105 0.000000 0.000000 0.000000
# 2 -0.005019 0.010196 -0.002664 0.000000 0.000000 0.000000
# 3 -0.000105 -0.002664 0.013520 0.000000 0.000000 0.000000
# 4 0.000000 0.000000 0.000000 0.048438 0.000000 0.000000
# 5 0.000000 0.000000 0.000000 0.000000 0.046823 0.000000
# 6 0.000000 0.000000 0.000000 0.000000 0.000000 0.090588
#
#
# Mechanical properties :
#
#
# Convention : Reuss Voigt Hill
#
# Bulk Modulus (GPa) = 56.34093 67.04702 61.69398
# Shear Modulus (GPa) = 20.77553 27.02005 23.89779
#
# Velocity S-wave (km/s) = 3.09245 3.52671 3.31669
# Velocity P-wave (km/s) = 6.21976 6.88812 6.56245
#
# Compressibility (1/GPa) = 0.01774908
#
# Stress axis : x y z
#
# Youngs Moduli (GPa) = 104.06469 98.08142 73.96203
#
# Poissons Ratio (x) = 0.49231 0.00774
# Poissons Ratio (y) = 0.52234 0.19704
# Poissons Ratio (z) = 0.01089 0.26130
#
# Static dielectric constant tensor:
#      x y z
#    x 1.759870 0.000000 0.000000 
#    y 0.000000 1.815470 0.000000 
#    z 0.000000 0.000000 1.932130 
# 
# From -- ./inp_files/5155.got.cif
#   From: 2010.05.17/outbox.cif.g08.bks.cpg/sg54_3_cif.got.tgz:5155.got - 2010.06.03 13:09:01.
