data_PCOD9424786
_publ_section_title
;
Structure prediction by ZEFSAII (Michael W. Deem and Ramdas Pophale) SiO2 
 PCOD9424786
Probable space group: P B A M
;
_chemical_formula_sum "Si O2"
_cell_formula_units_Z 64
_cell_length_a 27.382725
_cell_length_b 19.037944
_cell_length_c 8.294249
_cell_angle_alpha 90.000000
_cell_angle_beta 90.000000
_cell_angle_gamma 90.000000
_cell_volume 4323.881458
_symmetry_space_group_name_H-M "P B A M"
_symmetry_group_IT_number 55
_symmetry_cell_setting 'orthorhombic'
loop_
_space_group_symop_operation_xyz
x,y,z
-x,-y,z
1/2+x,1/2-y,-z
1/2-x,1/2+y,-z
-x,-y,-z
x,y,-z
1/2-x,1/2+y,z
1/2+x,1/2-y,z
loop_
_atom_site_type_symbol
_atom_site_label
_atom_site_fract_x
_atom_site_fract_y
_atom_site_fract_z
Si Si1 0.792041 0.287227 0.687909
Si Si2 0.302072 0.790506 0.812461
Si Si3 0.556607 0.419617 0.804947
Si Si4 0.651415 0.342692 0.687672
Si Si5 0.445899 0.418420 0.803723
Si Si6 0.747002 0.420541 0.809074
Si Si7 0.147137 0.831632 0.195302
Si Si8 0.256556 0.419072 0.196844
O O1 0.781138 0.275582 0.500000
O O2 0.749478 0.250640 0.793289
O O3 0.786181 0.369181 0.725994
O O4 0.840461 0.244967 0.734968
O O5 0.340053 0.739535 0.725609
O O6 0.287670 0.867891 0.750765
O O7 0.315208 0.794605 0.000000
O O8 0.598604 0.370427 0.737036
O O9 0.501286 0.401185 0.754056
O O10 0.565203 0.500999 0.756599
O O11 0.558583 0.416945 0.000000
O O12 0.659949 0.354336 0.500000
O O13 0.693471 0.386905 0.779000
O O14 0.403662 0.365754 0.750339
O O15 0.445697 0.418089 0.000000
O O16 0.747519 0.500713 0.749928
O O17 0.756102 0.420362 0.000000
O O18 0.191983 0.883201 0.244203
O O19 0.147237 0.827757 0.000000
O O20 0.256307 0.418669 0.000000
#
# Coordination Sequence:
#
# PCOD9424786 Si02
#       8
#     8   8   8   8   8   8   8   8
#     4  10  18  27  37  56  82 107 133 163 195 236
#     4   9  16  29  44  57  74 102 135 169 201 234
#     4   9  16  29  45  61  79 105 137 173 207 235
#     4  11  20  28  38  58  84 111 138 165 196 239
#     4   8  15  27  46  64  78 100 140 179 203 230
#     4  10  17  28  44  60  78 105 136 169 202 237
#     4   9  15  27  43  59  78 105 136 167 198 234
#     4   8  15  25  42  63  79  97 131 169 202 235
#
# _framework density 14.801515
#
# number of rings (size 3 to 8) (size 9 to 14) (size 15 to 20)
#    0.000    2.750    0.000    6.750    0.000    2.000 
#    0.000   11.250    0.000    0.000    0.000    0.000 
#    0.000    1.000    0.000   11.500    0.000    4.500 
#
# Total GULP energy -356402.098229 kJ/mol
# GULP energy per Si atom -5568.782785 kJ/mol
# Density = 1.476783 g / cm^3
# Si number density = 14.801515 Si / 1000 Ang^3
#
#
#
# Elastic Constant Matrix: (Units=GPa)
#
#
# Indices 1 2 3 4 5 6 
#
# 1 86.7881 54.2667 7.2824 0.0000 0.0000 0.0000
# 2 54.2667 106.9356 6.9013 0.0000 0.0000 0.0000
# 3 7.2824 6.9013 17.6383 0.0000 0.0000 0.0000
# 4 0.0000 0.0000 0.0000 -14.7648 0.0000 0.0000
# 5 0.0000 0.0000 0.0000 0.0000 -3.9176 0.0000
# 6 0.0000 0.0000 0.0000 0.0000 0.0000 29.2206
#
#
#
# Elastic Compliance Matrix: (Units=1/GPa)
#
#
# Indices 1 2 3 4 5 6 
#
# 1 0.017118 -0.008444 -0.003764 0.000000 0.000000 0.000000
# 2 -0.008444 0.013759 -0.001897 0.000000 0.000000 0.000000
# 3 -0.003764 -0.001897 0.058991 0.000000 0.000000 0.000000
# 4 0.000000 0.000000 0.000000 -0.067729 0.000000 0.000000
# 5 0.000000 0.000000 0.000000 0.000000 -0.255260 0.000000
# 6 0.000000 0.000000 0.000000 0.000000 0.000000 0.034222
#
#
# Mechanical properties :
#
#
# Convention : Reuss Voigt Hill
#
# Bulk Modulus (GPa) = 16.21841 38.69589 27.45715
# Shear Modulus (GPa) = -33.30313 11.63508 -10.83403
#
# Velocity S-wave (km/s) = -4.74854 2.80674 -2.70840
# Velocity P-wave (km/s) = 4.36850 6.05836 2.96815
#
# Compressibility (1/GPa) = 0.06165833
#
# Stress axis : x y z
#
# Youngs Moduli (GPa) = 58.41816 72.68005 16.95170
#
# Poissons Ratio (x) = 0.61371 0.06380
# Poissons Ratio (y) = 0.49328 0.03216
# Poissons Ratio (z) = 0.21987 0.13788
#
# Static dielectric constant tensor:
#      x y z
#    x 1.480730 0.000000 0.000000 
#    y 0.000000 1.514460 0.000000 
#    z 0.000000 0.000000 1.503310 
# 
# From -- ./inp_files/10309.got.cif
#   From: 2010.05.17/outbox.cif.g08.bks.cpg/sg55_6_cif.got.tgz:10309.got - 2010.06.03 13:27:54.
