data_PCOD9424227
_publ_section_title
;
Structure prediction by ZEFSAII (Michael W. Deem and Ramdas Pophale) SiO2 
 PCOD9424227
Probable space group: P C C A
;
_chemical_formula_sum "Si O2"
_cell_formula_units_Z 24
_cell_length_a 8.471100
_cell_length_b 11.942966
_cell_length_c 9.774720
_cell_angle_alpha 90.000000
_cell_angle_beta 90.000000
_cell_angle_gamma 90.000000
_cell_volume 988.909002
_symmetry_space_group_name_H-M "P C C A"
_symmetry_group_IT_number 54
_symmetry_cell_setting 'orthorhombic'
loop_
_space_group_symop_operation_xyz
x,y,z
1/2-x,-y,z
1/2+x,-y,1/2-z
-x,y,1/2-z
-x,-y,-z
1/2+x,y,-z
1/2-x,y,1/2+z
x,-y,1/2+z
loop_
_atom_site_type_symbol
_atom_site_label
_atom_site_fract_x
_atom_site_fract_y
_atom_site_fract_z
Si Si1 0.869454 0.916241 0.446435
Si Si2 0.144432 0.758936 0.400013
Si Si3 0.832577 0.383816 0.323006
O O1 0.768797 0.857912 0.566002
O O2 0.973148 0.816620 0.383062
O O3 0.750000 0.000000 0.366021
O O4 0.000000 0.000000 0.500000
O O5 0.219952 0.680778 0.284504
O O6 0.137247 0.688837 0.541523
O O7 0.750000 0.500000 0.361199
O O8 0.000000 0.404331 0.250000
#
# Coordination Sequence:
#
# PCOD9424227 Si02
#       3
#     8   8   8
#     4   9  20  42  72 106 139 184 238 290 359 429
#     4  11  23  46  73 104 150 186 238 300 361 431
#     4  12  28  46  71 107 145 193 247 301 366 432
#
# _framework density 24.269169999999999
#
# number of rings (size 3 to 8) (size 9 to 14) (size 15 to 20)
#    0.000    1.333    3.333    1.000    4.667    2.667 
#    0.000   25.000    0.000    0.000    0.000    0.000 
#    0.000    0.000    0.000    0.000    0.000    0.000 
#
# Total GULP energy -134229.818909 kJ/mol
# GULP energy per Si atom -5592.909121 kJ/mol
# Density = 2.421393 g / cm^3
# Si number density = 24.269170 Si / 1000 Ang^3
#
#
#
# Elastic Constant Matrix: (Units=GPa)
#
#
# Indices 1 2 3 4 5 6 
#
# 1 158.4627 55.6971 16.1956 0.0000 0.0000 0.0000
# 2 55.6971 132.8973 35.7288 0.0000 0.0000 0.0000
# 3 16.1956 35.7288 92.0447 0.0000 0.0000 0.0000
# 4 0.0000 0.0000 0.0000 -9.5237 0.0000 0.0000
# 5 0.0000 0.0000 0.0000 0.0000 12.8155 0.0000
# 6 0.0000 0.0000 0.0000 0.0000 0.0000 62.3020
#
#
#
# Elastic Compliance Matrix: (Units=1/GPa)
#
#
# Indices 1 2 3 4 5 6 
#
# 1 0.007402 -0.003073 -0.000110 0.000000 0.000000 0.000000
# 2 -0.003073 0.009677 -0.003216 0.000000 0.000000 0.000000
# 3 -0.000110 -0.003216 0.012132 0.000000 0.000000 0.000000
# 4 0.000000 0.000000 0.000000 -0.105001 0.000000 0.000000
# 5 0.000000 0.000000 0.000000 0.000000 0.078031 0.000000
# 6 0.000000 0.000000 0.000000 0.000000 0.000000 0.016051
#
#
# Mechanical properties :
#
#
# Convention : Reuss Voigt Hill
#
# Bulk Modulus (GPa) = 60.92123 66.51641 63.71882
# Shear Modulus (GPa) = 136.76908 31.50432 84.13670
#
# Velocity S-wave (km/s) = 7.51515 3.60685 5.89435
# Velocity P-wave (km/s) = 10.02297 6.69426 8.52271
#
# Compressibility (1/GPa) = 0.01641464
#
# Stress axis : x y z
#
# Youngs Moduli (GPa) = 135.10206 103.33965 82.42818
#
# Poissons Ratio (x) = 0.31752 0.00904
# Poissons Ratio (y) = 0.41511 0.26506
# Poissons Ratio (z) = 0.01482 0.33230
#
# Static dielectric constant tensor:
#      x y z
#    x 2.077310 0.000000 0.000000 
#    y 0.000000 1.998040 0.000000 
#    z 0.000000 0.000000 1.927990 
# 
# From -- ./inp_files/2430.got.cif
#   From: 2010.05.17/outbox.cif.g08.bks.cpg/sg54_2_cif.got.tgz:2430.got - 2010.06.03 13:09:01.
