data_PCOD9424270
_publ_section_title
;
Structure prediction by ZEFSAII (Michael W. Deem and Ramdas Pophale) SiO2 
 PCOD9424270
Probable space group: P C C A
;
_chemical_formula_sum "Si O2"
_cell_formula_units_Z 48
_cell_length_a 23.562910
_cell_length_b 8.658435
_cell_length_c 9.911392
_cell_angle_alpha 90.000000
_cell_angle_beta 90.000000
_cell_angle_gamma 90.000000
_cell_volume 2022.101626
_symmetry_space_group_name_H-M "P C C A"
_symmetry_group_IT_number 54
_symmetry_cell_setting 'orthorhombic'
loop_
_space_group_symop_operation_xyz
x,y,z
1/2-x,-y,z
1/2+x,-y,1/2-z
-x,y,1/2-z
-x,-y,-z
1/2+x,y,-z
1/2-x,y,1/2+z
x,-y,1/2+z
loop_
_atom_site_type_symbol
_atom_site_label
_atom_site_fract_x
_atom_site_fract_y
_atom_site_fract_z
Si Si1 0.254630 0.180522 0.077601
Si Si2 0.445572 0.107242 0.456959
Si Si3 0.376859 0.185136 0.953532
Si Si4 0.709426 0.352652 0.156174
Si Si5 0.562613 0.679931 0.293598
Si Si6 0.583138 0.667879 0.773394
O O1 0.260907 0.264033 0.219634
O O2 0.250000 0.000000 0.102333
O O3 0.311568 0.200523 0.989317
O O4 0.207649 0.255628 0.982051
O O5 0.424673 0.209150 0.582425
O O6 0.451279 0.232328 0.336917
O O7 0.500000 0.000000 0.500000
O O8 0.397087 0.985929 0.414991
O O9 0.395710 0.291594 0.830797
O O10 0.407999 0.231833 0.092250
O O11 0.750000 0.500000 0.130310
O O12 0.644926 0.371185 0.207709
O O13 0.500000 0.730512 0.250000
O O14 0.559855 0.497689 0.321142
#
# Coordination Sequence:
#
# PCOD9424270 Si02
#       6
#     8   8   8   8   8   8
#     4  11  24  42  69 103 139 181 230 286 344 412
#     4  12  26  46  70 100 139 183 233 287 348 409
#     4  11  25  44  69 103 138 182 234 281 346 414
#     4  11  24  44  69 102 141 184 229 288 349 415
#     4  12  26  45  69 100 136 184 229 288 342 412
#     4  11  27  44  70 103 141 181 237 287 344 419
#
# _framework density 23.737677999999999
#
# number of rings (size 3 to 8) (size 9 to 14) (size 15 to 20)
#    0.000    0.667    1.667    5.000    2.333   12.000 
#    0.000    0.000    0.000    0.000    0.000    0.000 
#    0.000    0.000    0.000    0.000    0.000    0.000 
#
# Total GULP energy -268806.565078 kJ/mol
# GULP energy per Si atom -5600.136772 kJ/mol
# Density = 2.368365 g / cm^3
# Si number density = 23.737678 Si / 1000 Ang^3
#
#
#
# Elastic Constant Matrix: (Units=GPa)
#
#
# Indices 1 2 3 4 5 6 
#
# 1 58.7005 17.4093 23.9266 0.0000 0.0000 0.0000
# 2 17.4093 127.6792 16.3910 0.0000 0.0000 0.0000
# 3 23.9266 16.3910 63.5418 0.0000 0.0000 0.0000
# 4 0.0000 0.0000 0.0000 -7.1825 0.0000 0.0000
# 5 0.0000 0.0000 0.0000 0.0000 35.7648 0.0000
# 6 0.0000 0.0000 0.0000 0.0000 0.0000 181.7383
#
#
#
# Elastic Compliance Matrix: (Units=1/GPa)
#
#
# Indices 1 2 3 4 5 6 
#
# 1 0.020547 -0.001870 -0.007255 0.000000 0.000000 0.000000
# 2 -0.001870 0.008271 -0.001429 0.000000 0.000000 0.000000
# 3 -0.007255 -0.001429 0.018838 0.000000 0.000000 0.000000
# 4 0.000000 0.000000 0.000000 -0.139228 0.000000 0.000000
# 5 0.000000 0.000000 0.000000 0.000000 0.027960 0.000000
# 6 0.000000 0.000000 0.000000 0.000000 0.000000 0.005502
#
#
# Mechanical properties :
#
#
# Convention : Reuss Voigt Hill
#
# Bulk Modulus (GPa) = 37.66800 40.59726 39.13263
# Shear Modulus (GPa) = -177.61091 54.87711 -61.36690
#
# Velocity S-wave (km/s) = -8.65938 4.81335 -5.09001
# Velocity P-wave (km/s) = 9.16934 6.93042 4.24536
#
# Compressibility (1/GPa) = 0.02654774
#
# Stress axis : x y z
#
# Youngs Moduli (GPa) = 48.66806 120.90982 53.08396
#
# Poissons Ratio (x) = 0.22614 0.38511
# Poissons Ratio (y) = 0.09103 0.07587
# Poissons Ratio (z) = 0.35307 0.17280
#
# Static dielectric constant tensor:
#      x y z
#    x 1.944160 0.000000 0.000000 
#    y 0.000000 1.863990 0.000000 
#    z 0.000000 0.000000 1.762760 
# 
# From -- ./inp_files/5856.got.cif
#   From: 2010.05.17/outbox.cif.g08.bks.cpg/sg54_3_cif.got.tgz:5856.got - 2010.06.03 13:09:01.
