data_PCOD9424558
_publ_section_title
;
Structure prediction by ZEFSAII (Michael W. Deem and Ramdas Pophale) SiO2 
 PCOD9424558
Probable space group: P C C A
;
_chemical_formula_sum "Si O2"
_cell_formula_units_Z 32
_cell_length_a 18.203932
_cell_length_b 6.437127
_cell_length_c 11.862818
_cell_angle_alpha 90.000000
_cell_angle_beta 90.000000
_cell_angle_gamma 90.000000
_cell_volume 1390.097139
_symmetry_space_group_name_H-M "P C C A"
_symmetry_group_IT_number 54
_symmetry_cell_setting 'orthorhombic'
loop_
_space_group_symop_operation_xyz
x,y,z
1/2-x,-y,z
1/2+x,-y,1/2-z
-x,y,1/2-z
-x,-y,-z
1/2+x,y,-z
1/2-x,y,1/2+z
x,-y,1/2+z
loop_
_atom_site_type_symbol
_atom_site_label
_atom_site_fract_x
_atom_site_fract_y
_atom_site_fract_z
Si Si1 0.872274 0.451273 0.116026
Si Si2 0.250000 0.500000 0.201169
Si Si3 0.573763 0.902492 0.945295
Si Si4 0.795716 0.187765 0.470801
Si Si5 0.000000 0.345454 0.750000
O O1 0.817539 0.429232 0.221376
O O2 0.949583 0.523542 0.166380
O O3 0.890798 0.258369 0.035326
O O4 0.830690 0.634817 0.048421
O O5 0.242712 0.697692 0.118334
O O6 0.551624 0.790106 0.830302
O O7 0.632954 0.079148 0.918674
O O8 0.500000 0.000000 0.000000
O O9 0.750000 0.000000 0.527591
#
# Coordination Sequence:
#
# PCOD9424558 Si02
#       5
#     8   4   8   8   4
#     4  12  27  49  73 114 156 199 260 326 384 475
#     4  12  28  46  80 106 150 204 256 330 394 454
#     4  12  28  47  76 115 157 203 263 322 389 479
#     4  12  26  49  75 109 153 199 262 321 391 469
#     4  12  26  46  78 112 154 210 248 320 398 458
#
# _framework density 23.019973
#
# number of rings (size 3 to 8) (size 9 to 14) (size 15 to 20)
#    0.000    0.000    2.500    7.500    7.000    5.000 
#    0.000    0.000    0.000    0.000    0.000    0.000 
#    0.000    0.000    0.000    0.000    0.000    0.000 
#
# Total GULP energy -179040.952946 kJ/mol
# GULP energy per Si atom -5595.029780 kJ/mol
# Density = 2.296758 g / cm^3
# Si number density = 23.019973 Si / 1000 Ang^3
#
#
#
# Elastic Constant Matrix: (Units=GPa)
#
#
# Indices 1 2 3 4 5 6 
#
# 1 115.9582 52.3303 36.3878 0.0000 0.0000 0.0000
# 2 52.3303 125.2710 65.3441 0.0000 0.0000 0.0000
# 3 36.3878 65.3441 104.8789 0.0000 0.0000 0.0000
# 4 0.0000 0.0000 0.0000 -1.6472 0.0000 0.0000
# 5 0.0000 0.0000 0.0000 0.0000 56.7602 0.0000
# 6 0.0000 0.0000 0.0000 0.0000 0.0000 63.1951
#
#
#
# Elastic Compliance Matrix: (Units=1/GPa)
#
#
# Indices 1 2 3 4 5 6 
#
# 1 0.010761 -0.003774 -0.001382 0.000000 0.000000 0.000000
# 2 -0.003774 0.013150 -0.006883 0.000000 0.000000 0.000000
# 3 -0.001382 -0.006883 0.014303 0.000000 0.000000 0.000000
# 4 0.000000 0.000000 0.000000 -0.607101 0.000000 0.000000
# 5 0.000000 0.000000 0.000000 0.000000 0.017618 0.000000
# 6 0.000000 0.000000 0.000000 0.000000 0.000000 0.015824
#
#
# Mechanical properties :
#
#
# Convention : Reuss Voigt Hill
#
# Bulk Modulus (GPa) = 70.75007 72.69251 71.72129
# Shear Modulus (GPa) = -9.86866 36.46470 13.29802
#
# Velocity S-wave (km/s) = -2.07275 3.98433 2.40609
# Velocity P-wave (km/s) = 5.00725 7.26726 6.24042
#
# Compressibility (1/GPa) = 0.01413426
#
# Stress axis : x y z
#
# Youngs Moduli (GPa) = 92.93044 76.04600 69.91569
#
# Poissons Ratio (x) = 0.28702 0.09661
# Poissons Ratio (y) = 0.35075 0.48126
# Poissons Ratio (z) = 0.12842 0.52346
#
# Static dielectric constant tensor:
#      x y z
#    x 1.989150 0.000000 0.000000 
#    y 0.000000 1.868960 0.000000 
#    z 0.000000 0.000000 1.872330 
# 
# From -- ./inp_files/9279.got.cif
#   From: 2010.05.17/outbox.cif.g08.bks.cpg/sg54_5_cif.got.tgz:9279.got - 2010.06.03 13:09:01.
