data_PCOD9424893
_publ_section_title
;
Structure prediction by ZEFSAII (Michael W. Deem and Ramdas Pophale) SiO2 
 PCOD9424893
Probable space group: P B A M
;
_chemical_formula_sum "Si O2"
_cell_formula_units_Z 32
_cell_length_a 8.916700
_cell_length_b 13.006847
_cell_length_c 11.424145
_cell_angle_alpha 90.000000
_cell_angle_beta 90.000000
_cell_angle_gamma 90.000000
_cell_volume 1324.951233
_symmetry_space_group_name_H-M "P B A M"
_symmetry_group_IT_number 55
_symmetry_cell_setting 'orthorhombic'
loop_
_space_group_symop_operation_xyz
x,y,z
-x,-y,z
1/2+x,1/2-y,-z
1/2-x,1/2+y,-z
-x,-y,-z
x,y,-z
1/2-x,1/2+y,z
1/2+x,1/2-y,z
loop_
_atom_site_type_symbol
_atom_site_label
_atom_site_fract_x
_atom_site_fract_y
_atom_site_fract_z
Si Si1 0.636472 0.705878 0.870244
Si Si2 0.103597 0.276377 0.286975
Si Si3 0.166658 0.545702 0.872881
Si Si4 0.681506 0.893563 0.371748
O O1 0.501015 0.693538 0.780931
O O2 0.793371 0.671552 0.814215
O O3 0.652587 0.829709 0.877030
O O4 0.603340 0.669532 0.000000
O O5 0.216863 0.209892 0.364698
O O6 0.989898 0.353622 0.350813
O O7 0.000000 0.500000 0.874286
O O8 0.226729 0.536539 0.739442
O O9 0.237389 0.518263 0.000000
O O10 0.696347 0.940718 0.500000
#
# Coordination Sequence:
#
# PCOD9424893 Si02
#       4
#     8   8   8   8
#     4   9  15  25  43  65  87 110 136 169 209 251
#     4   8  16  26  38  60  87 112 137 168 207 246
#     4   8  15  27  41  59  83 109 138 173 208 240
#     4  10  18  28  43  63  87 114 140 168 205 248
#
# _framework density 24.151831000000001
#
# number of rings (size 3 to 8) (size 9 to 14) (size 15 to 20)
#    0.000    3.750    0.000    1.500    0.000    2.500 
#    0.000    0.000    0.000    0.000    0.000  112.000 
#    0.000  448.000    0.000    0.000    0.000    0.000 
#
# Total GULP energy -178284.953018 kJ/mol
# GULP energy per Si atom -5571.404782 kJ/mol
# Density = 2.409686 g / cm^3
# Si number density = 24.151831 Si / 1000 Ang^3
#
#
#
# Elastic Constant Matrix: (Units=GPa)
#
#
# Indices 1 2 3 4 5 6 
#
# 1 90.5311 2.4677 20.4867 0.0000 0.0000 0.0000
# 2 2.4677 63.4790 2.8341 0.0000 0.0000 0.0000
# 3 20.4867 2.8341 223.1999 0.0000 0.0000 0.0000
# 4 0.0000 0.0000 0.0000 -5.0252 0.0000 0.0000
# 5 0.0000 0.0000 0.0000 0.0000 -42.5807 0.0000
# 6 0.0000 0.0000 0.0000 0.0000 0.0000 31.5377
#
#
#
# Elastic Compliance Matrix: (Units=1/GPa)
#
#
# Indices 1 2 3 4 5 6 
#
# 1 0.011290 -0.000393 -0.001031 0.000000 0.000000 0.000000
# 2 -0.000393 0.015776 -0.000164 0.000000 0.000000 0.000000
# 3 -0.001031 -0.000164 0.004577 0.000000 0.000000 0.000000
# 4 0.000000 0.000000 0.000000 -0.198998 0.000000 0.000000
# 5 0.000000 0.000000 0.000000 0.000000 -0.023485 0.000000
# 6 0.000000 0.000000 0.000000 0.000000 0.000000 0.031708
#
#
# Mechanical properties :
#
#
# Convention : Reuss Voigt Hill
#
# Bulk Modulus (GPa) = 35.12945 47.64298 41.38622
# Shear Modulus (GPa) = -34.13756 20.21445 -6.96155
#
# Velocity S-wave (km/s) = -3.76367 2.89619 -1.69961
# Velocity P-wave (km/s) = 2.07609 5.56356 3.64986
#
# Compressibility (1/GPa) = 0.02846614
#
# Stress axis : x y z
#
# Youngs Moduli (GPa) = 88.57389 63.38801 218.48220
#
# Poissons Ratio (x) = 0.02490 0.22532
# Poissons Ratio (y) = 0.03480 0.03589
# Poissons Ratio (z) = 0.09134 0.01041
#
# Static dielectric constant tensor:
#      x y z
#    x 1.914370 0.000000 0.000000 
#    y 0.000000 1.960590 0.000000 
#    z 0.000000 0.000000 2.065400 
# 
# From -- ./inp_files/11799.got.cif
#   From: 2010.05.17/outbox.cif.g08.bks.cpg/sg55_6_cif.got.tgz:11799.got - 2010.06.03 13:27:54.
