data_PCOD9424873
_publ_section_title
;
Structure prediction by ZEFSAII (Michael W. Deem and Ramdas Pophale) SiO2 
 PCOD9424873
Probable space group: P B A M
;
_chemical_formula_sum "Si O2"
_cell_formula_units_Z 64
_cell_length_a 26.008408
_cell_length_b 8.376099
_cell_length_c 17.317148
_cell_angle_alpha 90.000000
_cell_angle_beta 90.000000
_cell_angle_gamma 90.000000
_cell_volume 3772.523379
_symmetry_space_group_name_H-M "P B A M"
_symmetry_group_IT_number 55
_symmetry_cell_setting 'orthorhombic'
loop_
_space_group_symop_operation_xyz
x,y,z
-x,-y,z
1/2+x,1/2-y,-z
1/2-x,1/2+y,-z
-x,-y,-z
x,y,-z
1/2-x,1/2+y,z
1/2+x,1/2-y,z
loop_
_atom_site_type_symbol
_atom_site_label
_atom_site_fract_x
_atom_site_fract_y
_atom_site_fract_z
Si Si1 0.424814 0.833540 0.907939
Si Si2 0.938237 0.999482 0.408101
Si Si3 0.815507 0.812401 0.094048
Si Si4 0.015559 0.821074 0.190620
Si Si5 0.707962 0.672459 0.906386
Si Si6 0.101257 0.700304 0.908850
Si Si7 0.949786 0.323625 0.651888
Si Si8 0.437584 0.848991 0.590153
O O1 0.369849 0.761581 0.883291
O O2 0.470315 0.755065 0.859995
O O3 0.421457 0.024029 0.897076
O O4 0.432261 0.804514 0.000000
O O5 0.930435 0.007303 0.500000
O O6 0.918960 0.163421 0.370286
O O7 0.918422 0.825393 0.381813
O O8 0.000000 0.000000 0.394627
O O9 0.764504 0.719903 0.121187
O O10 0.808878 0.995917 0.117292
O O11 0.815351 0.806907 0.000000
O O12 0.066729 0.823044 0.138485
O O13 0.028158 0.709077 0.263334
O O14 0.000000 0.000000 0.214597
O O15 0.661198 0.790597 0.886202
O O16 0.711071 0.673129 0.000000
O O17 0.098223 0.737334 0.000000
O O18 0.923077 0.494289 0.639015
O O19 0.000218 0.333407 0.596933
O O20 0.424296 0.870531 0.500000
#
# Coordination Sequence:
#
# PCOD9424873 Si02
#       8
#     8   8   8   8   8   8   8   8
#     4  10  21  35  48  62  82 113 153 194 233 272
#     4   8  13  24  40  59  81 103 138 185 221 258
#     4   9  16  28  48  70  87 102 129 179 234 277
#     4  12  24  33  43  60  86 123 158 190 224 269
#     4   9  16  28  48  70  87 102 129 179 234 277
#     4  10  21  35  48  62  82 113 153 194 233 272
#     4  10  18  27  39  59  84 111 148 189 217 263
#     4   9  16  26  44  62  78 108 148 184 222 258
#
# _framework density 16.964770999999999
#
# number of rings (size 3 to 8) (size 9 to 14) (size 15 to 20)
#    0.000    2.375    0.000    5.625    3.500    6.000 
#    0.000    0.000    0.000    0.000    0.000    0.000 
#    0.000    0.000    0.000    0.000    0.000   11.250 
#
# Total GULP energy -356615.838801 kJ/mol
# GULP energy per Si atom -5572.122481 kJ/mol
# Density = 1.692616 g / cm^3
# Si number density = 16.964771 Si / 1000 Ang^3
#
#
#
# Elastic Constant Matrix: (Units=GPa)
#
#
# Indices 1 2 3 4 5 6 
#
# 1 57.7566 18.5089 24.4496 0.0000 0.0000 0.0000
# 2 18.5089 121.2827 37.7432 0.0000 0.0000 0.0000
# 3 24.4496 37.7432 48.2112 0.0000 0.0000 0.0000
# 4 0.0000 0.0000 0.0000 24.7351 0.0000 0.0000
# 5 0.0000 0.0000 0.0000 0.0000 -2.0892 0.0000
# 6 0.0000 0.0000 0.0000 0.0000 0.0000 21.2887
#
#
#
# Elastic Compliance Matrix: (Units=1/GPa)
#
#
# Indices 1 2 3 4 5 6 
#
# 1 0.022049 0.000152 -0.011301 0.000000 0.000000 0.000000
# 2 0.000152 0.010902 -0.008612 0.000000 0.000000 0.000000
# 3 -0.011301 -0.008612 0.033215 0.000000 0.000000 0.000000
# 4 0.000000 0.000000 0.000000 0.040428 0.000000 0.000000
# 5 0.000000 0.000000 0.000000 0.000000 -0.478642 0.000000
# 6 0.000000 0.000000 0.000000 0.000000 0.000000 0.046973
#
#
# Mechanical properties :
#
#
# Convention : Reuss Voigt Hill
#
# Bulk Modulus (GPa) = 37.53097 43.18377 40.35737
# Shear Modulus (GPa) = -18.07205 18.55682 0.24239
#
# Velocity S-wave (km/s) = -3.26739 3.31092 0.37840
# Velocity P-wave (km/s) = 2.81718 6.33455 4.90219
#
# Compressibility (1/GPa) = 0.02664466
#
# Stress axis : x y z
#
# Youngs Moduli (GPa) = 45.35296 91.72581 30.10666
#
# Poissons Ratio (x) = -0.01393 0.34023
# Poissons Ratio (y) = -0.00689 0.25928
# Poissons Ratio (z) = 0.51253 0.78994
#
# Static dielectric constant tensor:
#      x y z
#    x 1.546820 0.000000 0.000000 
#    y 0.000000 1.665290 0.000000 
#    z 0.000000 0.000000 1.581800 
# 
# From -- ./inp_files/22117.got.cif
#   From: 2010.05.17/outbox.cif.g08.bks.cpg/sg55_12_cif.got.tgz:22117.got - 2010.06.03 13:27:54.
