data_PCOD9424611
_publ_section_title
;
Structure prediction by ZEFSAII (Michael W. Deem and Ramdas Pophale) SiO2 
 PCOD9424611
Probable space group: P C C A
;
_chemical_formula_sum "Si O2"
_cell_formula_units_Z 56
_cell_length_a 21.000000
_cell_length_b 9.000000
_cell_length_c 15.000000
_cell_angle_alpha 90.000000
_cell_angle_beta 90.000000
_cell_angle_gamma 90.000000
_cell_volume 2835.000000
_symmetry_space_group_name_H-M "P C C A"
_symmetry_group_IT_number 54
_symmetry_cell_setting 'orthorhombic'
loop_
_space_group_symop_operation_xyz
x,y,z
1/2-x,-y,z
1/2+x,-y,1/2-z
-x,y,1/2-z
-x,-y,-z
1/2+x,y,-z
1/2-x,y,1/2+z
x,-y,1/2+z
loop_
_atom_site_type_symbol
_atom_site_label
_atom_site_fract_x
_atom_site_fract_y
_atom_site_fract_z
Si Si1 0.563118 0.419946 0.038945
Si Si2 0.587294 0.920617 0.580123
Si Si3 0.118218 0.864884 0.224984
Si Si4 0.076286 0.467786 0.764395
Si Si5 0.479853 0.893243 0.156476
Si Si6 0.815885 0.963006 0.922208
Si Si7 0.128442 0.671466 0.620472
O O1 0.556927 0.244695 0.067966
O O2 0.583886 0.493798 0.130973
O O3 0.500000 0.500000 0.000000
O O4 0.619843 0.428404 0.966655
O O5 0.626827 0.913108 0.672393
O O6 0.630063 0.964048 0.496946
O O7 0.535135 0.047224 0.595063
O O8 0.099342 0.693711 0.230258
O O9 0.059249 0.961615 0.187315
O O10 0.172082 0.920074 0.157303
O O11 0.119229 0.581164 0.709348
O O12 0.000000 0.476039 0.750000
O O13 0.500000 0.823959 0.250000
O O14 0.435693 0.771001 0.114276
O O15 0.817602 0.795206 0.883437
O O16 0.750000 0.000000 0.966787
#
# Coordination Sequence:
#
# PCOD9424611 Si02
#       7
#     8   8   8   8   8   8   8
#     4  10  19  30  48  80 117 153 174 212 288 361
#     4   9  19  35  56  82 116 151 186 236 294 351
#     4   9  19  34  55  85 113 154 189 230 297 359
#     4  11  19  32  53  82 120 151 176 220 290 359
#     4   9  17  31  52  81 119 146 183 228 287 365
#     4  10  22  40  59  79 108 153 212 252 281 331
#     4  10  21  34  53  84 118 149 186 234 285 347
#
# _framework density 19.753086
#
# number of rings (size 3 to 8) (size 9 to 14) (size 15 to 20)
#    0.000    2.286    1.429    2.571    0.000    6.857 
#    0.000    0.714    0.000    0.000    0.000    8.000 
#    0.000    0.000    0.000    0.000    0.000    0.000 
#
# Total GULP energy -311758.604329 kJ/mol
# GULP energy per Si atom -5567.117934 kJ/mol
# Density = 1.970813 g / cm^3
# Si number density = 19.753086 Si / 1000 Ang^3
#
#
#
# Elastic Constant Matrix: (Units=GPa)
#
#
# Indices 1 2 3 4 5 6 
#
# 1 8.8948 4.8176 27.9470 0.0000 0.0000 0.0000
# 2 4.8176 50.5794 40.5763 0.0000 0.0000 0.0000
# 3 27.9470 40.5763 142.3066 0.0000 0.0000 0.0000
# 4 0.0000 0.0000 0.0000 11.8548 0.0000 0.0000
# 5 0.0000 0.0000 0.0000 0.0000 -19.8541 0.0000
# 6 0.0000 0.0000 0.0000 0.0000 0.0000 -22.0995
#
#
#
# Elastic Compliance Matrix: (Units=1/GPa)
#
#
# Indices 1 2 3 4 5 6 
#
# 1 0.317267 0.025627 -0.069614 0.000000 0.000000 0.000000
# 2 0.025627 0.027705 -0.012932 0.000000 0.000000 0.000000
# 3 -0.069614 -0.012932 0.024386 0.000000 0.000000 0.000000
# 4 0.000000 0.000000 0.000000 0.084354 0.000000 0.000000
# 5 0.000000 0.000000 0.000000 0.000000 -0.050367 0.000000
# 6 0.000000 0.000000 0.000000 0.000000 0.000000 -0.045250
#
#
# Mechanical properties :
#
#
# Convention : Reuss Voigt Hill
#
# Bulk Modulus (GPa) = 3.91360 38.71808 21.31584
# Shear Modulus (GPa) = 8.97496 2.54290 5.75893
#
# Velocity S-wave (km/s) = 2.13388 1.13584 1.70932
# Velocity P-wave (km/s) = 2.83845 4.62210 3.83540
#
# Compressibility (1/GPa) = 0.25551952
#
# Stress axis : x y z
#
# Youngs Moduli (GPa) = 3.15192 36.09498 41.00755
#
# Poissons Ratio (x) = -0.92502 2.85470
# Poissons Ratio (y) = -0.08078 0.53032
# Poissons Ratio (z) = 0.21942 0.46679
#
# Static dielectric constant tensor:
#      x y z
#    x 1.719090 0.000000 0.000000 
#    y 0.000000 1.737790 0.000000 
#    z 0.000000 0.000000 1.797950 
# 
# From -- ./inp_files/14689.got.cif
#   From: 2010.05.17/outbox.ucp.g08.bks.cvg/sg54_8_cif.got.tgz:14689.got - 2010.06.11 16:34:40.
