data_PCOD9424068
_publ_section_title
;
Structure prediction by ZEFSAII (Michael W. Deem and Ramdas Pophale) SiO2 
 PCOD9424068
Probable space group: P C C A
;
_chemical_formula_sum "Si O2"
_cell_formula_units_Z 64
_cell_length_a 16.262912
_cell_length_b 20.118302
_cell_length_c 9.451196
_cell_angle_alpha 90.000000
_cell_angle_beta 90.000000
_cell_angle_gamma 90.000000
_cell_volume 3092.262864
_symmetry_space_group_name_H-M "P C C A"
_symmetry_group_IT_number 54
_symmetry_cell_setting 'orthorhombic'
loop_
_space_group_symop_operation_xyz
x,y,z
1/2-x,-y,z
1/2+x,-y,1/2-z
-x,y,1/2-z
-x,-y,-z
1/2+x,y,-z
1/2-x,y,1/2+z
x,-y,1/2+z
loop_
_atom_site_type_symbol
_atom_site_label
_atom_site_fract_x
_atom_site_fract_y
_atom_site_fract_z
Si Si1 0.330890 0.934285 0.801540
Si Si2 0.903069 0.561597 0.037660
Si Si3 0.654125 0.943461 0.360676
Si Si4 0.387357 0.344337 0.725199
Si Si5 0.694951 0.208120 0.145816
Si Si6 0.355377 0.799000 0.172862
Si Si7 0.917291 0.408913 0.988695
Si Si8 0.308835 0.650080 0.751439
O O1 0.241053 0.934293 0.724142
O O2 0.353997 0.856563 0.799094
O O3 0.380238 0.989579 0.712198
O O4 0.330511 0.951650 0.970154
O O5 0.901144 0.596935 0.886025
O O6 0.890063 0.483149 0.031106
O O7 0.836096 0.596661 0.133436
O O8 0.995642 0.578617 0.087940
O O9 0.607539 0.873477 0.334060
O O10 0.407893 0.268503 0.681463
O O11 0.288576 0.344851 0.742670
O O12 0.427684 0.364544 0.872287
O O13 0.788501 0.202864 0.201376
O O14 0.659953 0.277450 0.201124
O O15 0.693149 0.206882 0.976299
O O16 0.850516 0.373375 0.892273
#
# Coordination Sequence:
#
# PCOD9424068 Si02
#       8
#     8   8   8   8   8   8   8   8
#     4   9  15  24  38  63  97 139 178 210 261 322
#     4  11  23  43  59  77 114 143 182 228 279 333
#     4   9  15  24  38  63  97 139 178 210 261 322
#     4  11  22  37  58  85 112 143 184 228 278 326
#     4   9  18  30  47  71 106 143 177 224 275 321
#     4   9  18  30  47  71 106 143 177 224 275 321
#     4  11  25  39  59  83 106 149 182 226 281 333
#     4  11  22  37  58  85 112 143 184 228 278 326
#
# _framework density 20.696816999999999
#
# number of rings (size 3 to 8) (size 9 to 14) (size 15 to 20)
#    0.000    2.000    1.250    3.750    5.250    6.000 
#    0.000    0.000    0.000    0.000    0.000    0.000 
#    0.000    6.000    0.000    0.000    0.000    0.000 
#
# Total GULP energy -356758.503875 kJ/mol
# GULP energy per Si atom -5574.351623 kJ/mol
# Density = 2.064971 g / cm^3
# Si number density = 20.696817 Si / 1000 Ang^3
#
#
#
# Elastic Constant Matrix: (Units=GPa)
#
#
# Indices 1 2 3 4 5 6 
#
# 1 23.9905 5.8169 8.4935 0.0000 0.0000 0.0000
# 2 5.8169 134.7674 15.7957 0.0000 0.0000 0.0000
# 3 8.4935 15.7957 95.4160 0.0000 0.0000 0.0000
# 4 0.0000 0.0000 0.0000 -205.8695 0.0000 0.0000
# 5 0.0000 0.0000 0.0000 0.0000 -25.5666 0.0000
# 6 0.0000 0.0000 0.0000 0.0000 0.0000 -355.4717
#
#
#
# Elastic Compliance Matrix: (Units=1/GPa)
#
#
# Indices 1 2 3 4 5 6 
#
# 1 0.043314 -0.001446 -0.003616 0.000000 0.000000 0.000000
# 2 -0.001446 0.007615 -0.001132 0.000000 0.000000 0.000000
# 3 -0.003616 -0.001132 0.010990 0.000000 0.000000 0.000000
# 4 0.000000 0.000000 0.000000 -0.004857 0.000000 0.000000
# 5 0.000000 0.000000 0.000000 0.000000 -0.039114 0.000000
# 6 0.000000 0.000000 0.000000 0.000000 0.000000 -0.002813
#
#
# Mechanical properties :
#
#
# Convention : Reuss Voigt Hill
#
# Bulk Modulus (GPa) = 20.18933 34.93179 27.56056
# Shear Modulus (GPa) = 113.55055 -102.44371 5.55342
#
# Velocity S-wave (km/s) = 7.41504 -7.04307 1.63983
# Velocity P-wave (km/s) = 9.11518 7.01607 4.11469
#
# Compressibility (1/GPa) = 0.04953112
#
# Stress axis : x y z
#
# Youngs Moduli (GPa) = 23.08718 131.31513 90.99403
#
# Poissons Ratio (x) = 0.18984 0.32906
# Poissons Ratio (y) = 0.03338 0.10300
# Poissons Ratio (z) = 0.08349 0.14865
#
# Static dielectric constant tensor:
#      x y z
#    x 1.753000 0.000000 0.000000 
#    y 0.000000 1.800460 0.000000 
#    z 0.000000 0.000000 1.746010 
# 
# From -- ./inp_files/4398.got.cif
#   From: 2010.05.17/outbox.cif.g08.bks.cpg/sg54_3_cif.got.tgz:4398.got - 2010.06.03 13:09:01.
