data_PCOD9424408
_publ_section_title
;
Structure prediction by ZEFSAII (Michael W. Deem and Ramdas Pophale) SiO2 
 PCOD9424408
Probable space group: P C C A
;
_chemical_formula_sum "Si O2"
_cell_formula_units_Z 40
_cell_length_a 8.521981
_cell_length_b 11.286834
_cell_length_c 17.170465
_cell_angle_alpha 90.000000
_cell_angle_beta 90.000000
_cell_angle_gamma 90.000000
_cell_volume 1651.561521
_symmetry_space_group_name_H-M "P C C A"
_symmetry_group_IT_number 54
_symmetry_cell_setting 'orthorhombic'
loop_
_space_group_symop_operation_xyz
x,y,z
1/2-x,-y,z
1/2+x,-y,1/2-z
-x,y,1/2-z
-x,-y,-z
1/2+x,y,-z
1/2-x,y,1/2+z
x,-y,1/2+z
loop_
_atom_site_type_symbol
_atom_site_label
_atom_site_fract_x
_atom_site_fract_y
_atom_site_fract_z
Si Si1 0.150227 0.746805 0.449670
Si Si2 0.183050 0.369555 0.233342
Si Si3 0.670252 0.373226 0.435911
Si Si4 0.914110 0.067311 0.427891
Si Si5 0.196131 0.120675 0.318736
O O1 0.304723 0.678550 0.476404
O O2 0.115681 0.806335 0.532758
O O3 0.190324 0.854228 0.392623
O O4 0.012004 0.660972 0.421843
O O5 0.250000 0.500000 0.256075
O O6 0.246084 0.343494 0.146509
O O7 0.217042 0.245808 0.276913
O O8 0.000000 0.384437 0.250000
O O9 0.750000 0.500000 0.447613
O O10 0.024224 0.092447 0.353755
O O11 0.750000 0.000000 0.412157
O O12 0.000000 0.000000 0.500000
O O13 0.250000 0.000000 0.277684
#
# Coordination Sequence:
#
# PCOD9424408 Si02
#       5
#     8   8   8   8   8
#     4  12  22  42  77 110 146 197 263 329 393 456
#     4  11  29  55  76 109 160 210 259 325 401 475
#     4  11  26  45  73 111 152 203 263 327 396 467
#     4  12  20  40  69 110 151 194 251 319 391 448
#     4  12  26  47  77 116 155 208 262 323 393 475
#
# _framework density 24.219504000000001
#
# number of rings (size 3 to 8) (size 9 to 14) (size 15 to 20)
#    0.000    0.400    6.000    1.800    5.600    0.800 
#    3.600    2.000    0.000    0.000    0.000    0.000 
#    0.000    0.000    0.000    0.000    0.000    0.000 
#
# Total GULP energy -222841.845966 kJ/mol
# GULP energy per Si atom -5571.046149 kJ/mol
# Density = 2.416438 g / cm^3
# Si number density = 24.219504 Si / 1000 Ang^3
#
#
#
# Elastic Constant Matrix: (Units=GPa)
#
#
# Indices 1 2 3 4 5 6 
#
# 1 114.2104 50.8578 25.0395 0.0000 0.0000 0.0000
# 2 50.8578 166.1164 56.4284 0.0000 0.0000 0.0000
# 3 25.0395 56.4284 60.0270 0.0000 0.0000 0.0000
# 4 0.0000 0.0000 0.0000 41.8036 0.0000 0.0000
# 5 0.0000 0.0000 0.0000 0.0000 29.1385 0.0000
# 6 0.0000 0.0000 0.0000 0.0000 0.0000 51.4056
#
#
#
# Elastic Compliance Matrix: (Units=1/GPa)
#
#
# Indices 1 2 3 4 5 6 
#
# 1 0.010292 -0.002487 -0.001956 0.000000 0.000000 0.000000
# 2 -0.002487 0.009445 -0.007841 0.000000 0.000000 0.000000
# 3 -0.001956 -0.007841 0.024846 0.000000 0.000000 0.000000
# 4 0.000000 0.000000 0.000000 0.023921 0.000000 0.000000
# 5 0.000000 0.000000 0.000000 0.000000 0.034319 0.000000
# 6 0.000000 0.000000 0.000000 0.000000 0.000000 0.019453
#
#
# Mechanical properties :
#
#
# Convention : Reuss Voigt Hill
#
# Bulk Modulus (GPa) = 49.96063 67.22280 58.59172
# Shear Modulus (GPa) = 32.57010 38.33808 35.45409
#
# Velocity S-wave (km/s) = 3.67111 3.98294 3.83020
# Velocity P-wave (km/s) = 6.21631 6.99769 6.61854
#
# Compressibility (1/GPa) = 0.02001576
#
# Stress axis : x y z
#
# Youngs Moduli (GPa) = 97.16476 105.87813 40.24771
#
# Poissons Ratio (x) = 0.26328 0.07871
# Poissons Ratio (y) = 0.24161 0.31560
# Poissons Ratio (z) = 0.19001 0.83023
#
# Static dielectric constant tensor:
#      x y z
#    x 1.967240 0.000000 0.000000 
#    y 0.000000 2.161840 0.000000 
#    z 0.000000 0.000000 2.058040 
# 
# From -- ./inp_files/16302.got.cif
#   From: 2010.05.17/outbox.cif.g08.bks.cpg/sg54_9_cif.got.tgz:16302.got - 2010.06.03 13:09:01.
