data_PCOD9424151
_publ_section_title
;
Structure prediction by ZEFSAII (Michael W. Deem and Ramdas Pophale) SiO2 
 PCOD9424151
Probable space group: P C C A
;
_chemical_formula_sum "Si O2"
_cell_formula_units_Z 64
_cell_length_a 24.717222
_cell_length_b 15.219092
_cell_length_c 7.058435
_cell_angle_alpha 90.000000
_cell_angle_beta 90.000000
_cell_angle_gamma 90.000000
_cell_volume 2655.197438
_symmetry_space_group_name_H-M "P C C A"
_symmetry_group_IT_number 54
_symmetry_cell_setting 'orthorhombic'
loop_
_space_group_symop_operation_xyz
x,y,z
1/2-x,-y,z
1/2+x,-y,1/2-z
-x,y,1/2-z
-x,-y,-z
1/2+x,y,-z
1/2-x,y,1/2+z
x,-y,1/2+z
loop_
_atom_site_type_symbol
_atom_site_label
_atom_site_fract_x
_atom_site_fract_y
_atom_site_fract_z
Si Si1 0.051733 0.245827 0.989940
Si Si2 0.752386 0.309507 0.711252
Si Si3 0.640267 0.893131 0.005779
Si Si4 0.744140 0.172937 0.965400
Si Si5 0.868462 0.381162 0.639642
Si Si6 0.072379 0.730070 0.946769
Si Si7 0.627550 0.907386 0.448114
Si Si8 0.645514 0.585039 0.199216
O O1 0.079789 0.317913 0.853689
O O2 0.063626 0.258671 0.216953
O O3 0.080747 0.151405 0.957634
O O4 0.987705 0.256919 0.974105
O O5 0.740134 0.199742 0.711869
O O6 0.756666 0.284046 0.459209
O O7 0.814549 0.339009 0.725148
O O8 0.707988 0.385882 0.676018
O O9 0.702532 0.886720 0.945290
O O10 0.618466 0.988773 0.956085
O O11 0.609422 0.804084 0.954701
O O12 0.631921 0.888485 0.228413
O O13 0.687190 0.125601 0.010196
O O14 0.863046 0.384370 0.412639
O O15 0.868725 0.482909 0.695148
O O16 0.106548 0.639002 0.943910
#
# Coordination Sequence:
#
# PCOD9424151 Si02
#       8
#     8   8   8   8   8   8   8   8
#     4   9  19  40  63  83 116 161 205 253 304 355
#     4  12  22  39  63  87 121 159 196 241 296 357
#     4  11  24  38  61  92 123 158 199 248 300 362
#     4  12  22  39  63  87 121 159 196 241 296 357
#     4  11  24  38  61  92 123 158 199 248 300 362
#     4   9  19  40  63  83 116 161 205 253 304 355
#     4  11  23  39  59  91 122 157 203 245 303 360
#     4  11  23  39  59  91 122 157 203 245 303 360
#
# _framework density 24.103667999999999
#
# number of rings (size 3 to 8) (size 9 to 14) (size 15 to 20)
#    0.000    1.250    5.000    1.500    3.500    3.000 
#    0.000    0.000    0.000    5.250    0.000    0.000 
#    0.000    0.000    0.000    0.000    0.000    0.000 
#
# Total GULP energy -356892.911362 kJ/mol
# GULP energy per Si atom -5576.451740 kJ/mol
# Density = 2.404881 g / cm^3
# Si number density = 24.103668 Si / 1000 Ang^3
#
#
#
# Elastic Constant Matrix: (Units=GPa)
#
#
# Indices 1 2 3 4 5 6 
#
# 1 124.8165 72.1111 1.5483 0.0000 0.0000 0.0000
# 2 72.1111 146.0041 8.6897 0.0000 0.0000 0.0000
# 3 1.5483 8.6897 97.6965 0.0000 0.0000 0.0000
# 4 0.0000 0.0000 0.0000 54.7422 0.0000 0.0000
# 5 0.0000 0.0000 0.0000 0.0000 39.0341 0.0000
# 6 0.0000 0.0000 0.0000 0.0000 0.0000 17.6281
#
#
#
# Elastic Compliance Matrix: (Units=1/GPa)
#
#
# Indices 1 2 3 4 5 6 
#
# 1 0.011220 -0.005561 0.000317 0.000000 0.000000 0.000000
# 2 -0.005561 0.009641 -0.000769 0.000000 0.000000 0.000000
# 3 0.000317 -0.000769 0.010299 0.000000 0.000000 0.000000
# 4 0.000000 0.000000 0.000000 0.018267 0.000000 0.000000
# 5 0.000000 0.000000 0.000000 0.000000 0.025619 0.000000
# 6 0.000000 0.000000 0.000000 0.000000 0.000000 0.056728
#
#
# Mechanical properties :
#
#
# Convention : Reuss Voigt Hill
#
# Bulk Modulus (GPa) = 52.26193 59.24614 55.75404
# Shear Modulus (GPa) = 33.29358 41.35875 37.32616
#
# Velocity S-wave (km/s) = 3.72057 4.14680 3.93945
# Velocity P-wave (km/s) = 6.33925 6.89645 6.62371
#
# Compressibility (1/GPa) = 0.01913439
#
# Stress axis : x y z
#
# Youngs Moduli (GPa) = 89.12348 103.72072 97.09491
#
# Poissons Ratio (x) = 0.57675 -0.03076
# Poissons Ratio (y) = 0.49558 0.07471
# Poissons Ratio (z) = -0.02823 0.07981
#
# Static dielectric constant tensor:
#      x y z
#    x 1.816150 0.000000 0.000000 
#    y 0.000000 2.042510 0.000000 
#    z 0.000000 0.000000 2.604380 
# 
# From -- ./inp_files/5299.got.cif
#   From: 2010.05.17/outbox.cif.g08.bks.cpg/sg54_3_cif.got.tgz:5299.got - 2010.06.03 13:09:01.
