data_PCOD9424488
_publ_section_title
;
Structure prediction by ZEFSAII (Michael W. Deem and Ramdas Pophale) SiO2 
 PCOD9424488
Probable space group: P C C A
;
_chemical_formula_sum "Si O2"
_cell_formula_units_Z 24
_cell_length_a 15.470879
_cell_length_b 7.030890
_cell_length_c 10.007738
_cell_angle_alpha 90.000000
_cell_angle_beta 90.000000
_cell_angle_gamma 90.000000
_cell_volume 1088.582178
_symmetry_space_group_name_H-M "P C C A"
_symmetry_group_IT_number 54
_symmetry_cell_setting 'orthorhombic'
loop_
_space_group_symop_operation_xyz
x,y,z
1/2-x,-y,z
1/2+x,-y,1/2-z
-x,y,1/2-z
-x,-y,-z
1/2+x,y,-z
1/2-x,y,1/2+z
x,-y,1/2+z
loop_
_atom_site_type_symbol
_atom_site_label
_atom_site_fract_x
_atom_site_fract_y
_atom_site_fract_z
Si Si1 0.829476 0.704930 0.759618
Si Si2 0.901335 0.439961 0.988487
Si Si3 0.669083 0.097545 0.341111
O O1 0.861423 0.588461 0.634024
O O2 0.728682 0.765188 0.749600
O O3 0.872426 0.915630 0.770421
O O4 0.850738 0.589222 0.894295
O O5 0.893026 0.232480 0.920844
O O6 0.000000 0.500000 0.000000
O O7 0.750000 0.000000 0.424196
#
# Coordination Sequence:
#
# PCOD9424488 Si02
#       3
#     8   8   8
#     4   9  24  42  68  97 136 185 232 281 347 420
#     4  12  23  42  70 107 140 174 229 300 353 399
#     4   8  23  42  67  97 131 187 236 275 333 425
#
# _framework density 22.047028000000001
#
# number of rings (size 3 to 8) (size 9 to 14) (size 15 to 20)
#    2.000    0.000    0.000    2.000    4.667    9.333 
#    0.000    3.333    0.000    0.000    0.000    0.000 
#    0.000    0.000    0.000    0.000    0.000    0.000 
#
# Total GULP energy -133670.438591 kJ/mol
# GULP energy per Si atom -5569.601608 kJ/mol
# Density = 2.199685 g / cm^3
# Si number density = 22.047028 Si / 1000 Ang^3
#
#
#
# Elastic Constant Matrix: (Units=GPa)
#
#
# Indices 1 2 3 4 5 6 
#
# 1 54.7429 77.4456 59.4459 0.0000 0.0000 0.0000
# 2 77.4456 170.3297 90.6263 0.0000 0.0000 0.0000
# 3 59.4459 90.6263 130.8131 0.0000 0.0000 0.0000
# 4 0.0000 0.0000 0.0000 21.5467 0.0000 0.0000
# 5 0.0000 0.0000 0.0000 0.0000 16.6505 0.0000
# 6 0.0000 0.0000 0.0000 0.0000 0.0000 33.8411
#
#
#
# Elastic Compliance Matrix: (Units=1/GPa)
#
#
# Indices 1 2 3 4 5 6 
#
# 1 0.064508 -0.021751 -0.014246 0.000000 0.000000 0.000000
# 2 -0.021751 0.016632 -0.001638 0.000000 0.000000 0.000000
# 3 -0.014246 -0.001638 0.015253 0.000000 0.000000 0.000000
# 4 0.000000 0.000000 0.000000 0.046411 0.000000 0.000000
# 5 0.000000 0.000000 0.000000 0.000000 0.060058 0.000000
# 6 0.000000 0.000000 0.000000 0.000000 0.000000 0.029550
#
#
# Mechanical properties :
#
#
# Convention : Reuss Voigt Hill
#
# Bulk Modulus (GPa) = 47.34039 90.10238 68.72139
# Shear Modulus (GPa) = 15.88688 22.96551 19.42620
#
# Velocity S-wave (km/s) = 2.68729 3.23098 2.97160
# Velocity P-wave (km/s) = 5.58102 7.40783 6.55834
#
# Compressibility (1/GPa) = 0.02112361
#
# Stress axis : x y z
#
# Youngs Moduli (GPa) = 15.50188 60.12329 65.55910
#
# Poissons Ratio (x) = 1.30774 0.93394
# Poissons Ratio (y) = 0.33718 0.10742
# Poissons Ratio (z) = 0.22084 0.09851
#
# Static dielectric constant tensor:
#      x y z
#    x 1.813540 0.000000 0.000000 
#    y 0.000000 1.893370 0.000000 
#    z 0.000000 0.000000 1.834550 
# 
# From -- ./inp_files/3151.got.cif
#   From: 2010.05.17/outbox.cif.g08.bks.cpg/sg54_2_cif.got.tgz:3151.got - 2010.06.03 13:09:01.
