data_PCOD9424018
_publ_section_title
;
Structure prediction by ZEFSAII (Michael W. Deem and Ramdas Pophale) SiO2 
 PCOD9424018
Probable space group: P C C A
;
_chemical_formula_sum "Si O2"
_cell_formula_units_Z 40
_cell_length_a 22.786604
_cell_length_b 5.063031
_cell_length_c 13.555307
_cell_angle_alpha 90.000000
_cell_angle_beta 90.000000
_cell_angle_gamma 90.000000
_cell_volume 1563.866042
_symmetry_space_group_name_H-M "P C C A"
_symmetry_group_IT_number 54
_symmetry_cell_setting 'orthorhombic'
loop_
_space_group_symop_operation_xyz
x,y,z
1/2-x,-y,z
1/2+x,-y,1/2-z
-x,y,1/2-z
-x,-y,-z
1/2+x,y,-z
1/2-x,y,1/2+z
x,-y,1/2+z
loop_
_atom_site_type_symbol
_atom_site_label
_atom_site_fract_x
_atom_site_fract_y
_atom_site_fract_z
Si Si1 0.576353 0.788716 0.447285
Si Si2 0.712318 0.251681 0.887967
Si Si3 0.801416 0.794740 0.653848
Si Si4 0.450406 0.698829 0.671442
Si Si5 0.874745 0.291010 0.642323
O O1 0.646127 0.761055 0.425376
O O2 0.542239 0.584042 0.378682
O O3 0.573893 0.697053 0.560914
O O4 0.559187 0.080984 0.412381
O O5 0.750000 0.500000 0.921468
O O6 0.710075 0.249549 0.769362
O O7 0.750000 0.000000 0.916816
O O8 0.823044 0.504344 0.618921
O O9 0.750000 0.000000 0.621994
O O10 0.856443 0.985599 0.637202
O O11 0.500000 0.774836 0.750000
O O12 0.394071 0.668670 0.744542
#
# Coordination Sequence:
#
# PCOD9424018 Si02
#       5
#     8   8   8   8   8
#     4  12  26  44  70 102 135 179 232 281 348 415
#     4  11  21  38  64  95 132 174 216 263 326 407
#     4  11  22  40  68  99 138 185 218 269 338 412
#     4  12  26  48  71  97 136 180 233 299 355 399
#     4  12  24  44  69 101 139 178 229 284 340 415
#
# _framework density 25.577639000000001
#
# number of rings (size 3 to 8) (size 9 to 14) (size 15 to 20)
#    0.000    0.400    4.000    6.000    0.000    4.000 
#    0.000    0.000    0.000    0.000    0.000    0.000 
#    0.000    0.000    0.000    0.000    0.000    0.000 
#
# Total GULP energy -223855.082908 kJ/mol
# GULP energy per Si atom -5596.377073 kJ/mol
# Density = 2.551942 g / cm^3
# Si number density = 25.577639 Si / 1000 Ang^3
#
#
#
# Elastic Constant Matrix: (Units=GPa)
#
#
# Indices 1 2 3 4 5 6 
#
# 1 74.3617 21.8475 -14.7008 0.0000 0.0000 0.0000
# 2 21.8475 171.8073 11.3437 0.0000 0.0000 0.0000
# 3 -14.7008 11.3437 117.6221 0.0000 0.0000 0.0000
# 4 0.0000 0.0000 0.0000 939.7445 0.0000 0.0000
# 5 0.0000 0.0000 0.0000 0.0000 34.1813 0.0000
# 6 0.0000 0.0000 0.0000 0.0000 0.0000 40.3906
#
#
#
# Elastic Compliance Matrix: (Units=1/GPa)
#
#
# Indices 1 2 3 4 5 6 
#
# 1 0.014419 -0.001965 0.001992 0.000000 0.000000 0.000000
# 2 -0.001965 0.006126 -0.000836 0.000000 0.000000 0.000000
# 3 0.001992 -0.000836 0.008831 0.000000 0.000000 0.000000
# 4 0.000000 0.000000 0.000000 0.001064 0.000000 0.000000
# 5 0.000000 0.000000 0.000000 0.000000 0.029256 0.000000
# 6 0.000000 0.000000 0.000000 0.000000 0.000000 0.024758
#
#
# Mechanical properties :
#
#
# Convention : Reuss Voigt Hill
#
# Bulk Modulus (GPa) = 36.02790 44.53019 40.27905
# Shear Modulus (GPa) = 52.45186 225.88334 139.16760
#
# Velocity S-wave (km/s) = 4.53337 9.40769 7.38431
# Velocity P-wave (km/s) = 6.44346 11.63846 9.40670
#
# Compressibility (1/GPa) = 0.02775626
#
# Stress axis : x y z
#
# Youngs Moduli (GPa) = 69.35373 163.25000 113.23255
#
# Poissons Ratio (x) = 0.32079 -0.22552
# Poissons Ratio (y) = 0.13628 0.09470
# Poissons Ratio (z) = -0.13813 0.13654
#
# Static dielectric constant tensor:
#      x y z
#    x 2.085620 0.000000 0.000000 
#    y 0.000000 1.885920 0.000000 
#    z 0.000000 0.000000 2.050120 
# 
# From -- ./inp_files/14824.got.cif
#   From: 2010.05.17/outbox.cif.g08.bks.cpg/sg54_8_cif.got.tgz:14824.got - 2010.06.03 13:09:01.
