data_PCOD9424119
_publ_section_title
;
Structure prediction by ZEFSAII (Michael W. Deem and Ramdas Pophale) SiO2 
 PCOD9424119
Probable space group: P C C A
;
_chemical_formula_sum "Si O2"
_cell_formula_units_Z 32
_cell_length_a 9.190691
_cell_length_b 14.171171
_cell_length_c 8.493538
_cell_angle_alpha 90.000000
_cell_angle_beta 90.000000
_cell_angle_gamma 90.000000
_cell_volume 1106.222628
_symmetry_space_group_name_H-M "P C C A"
_symmetry_group_IT_number 54
_symmetry_cell_setting 'orthorhombic'
loop_
_space_group_symop_operation_xyz
x,y,z
1/2-x,-y,z
1/2+x,-y,1/2-z
-x,y,1/2-z
-x,-y,-z
1/2+x,y,-z
1/2-x,y,1/2+z
x,-y,1/2+z
loop_
_atom_site_type_symbol
_atom_site_label
_atom_site_fract_x
_atom_site_fract_y
_atom_site_fract_z
Si Si1 0.500000 0.280091 0.250000
Si Si2 0.128155 0.573040 0.012030
Si Si3 0.250000 0.000000 0.786167
Si Si4 0.332430 0.854086 0.017046
Si Si5 0.183528 0.748763 0.815852
O O1 0.413498 0.349059 0.137601
O O2 0.634384 0.228272 0.162514
O O3 0.250000 0.500000 0.059059
O O4 0.164831 0.639986 0.864039
O O5 0.000000 0.500000 0.000000
O O6 0.316636 0.079204 0.674559
O O7 0.137784 0.057397 0.896467
O O8 0.376616 0.764372 0.141344
O O9 0.161530 0.820162 0.963458
#
# Coordination Sequence:
#
# PCOD9424119 Si02
#       5
#     4   8   4   8   8
#     4  12  26  44  66 100 148 188 254 304 370 434
#     4  12  27  46  70 104 149 202 255 311 366 434
#     4   8  16  34  68 110 134 190 236 308 362 456
#     4   9  18  36  69 102 144 186 247 293 381 438
#     4  11  22  42  68 107 143 202 240 307 363 446
#
# _framework density 28.92727
#
# number of rings (size 3 to 8) (size 9 to 14) (size 15 to 20)
#    0.000    1.500    5.000    0.000    3.500    0.000 
#    0.000    0.000    0.000   24.000    0.000    0.000 
#    0.000    0.000    0.000    0.000    0.000    0.000 
#
# Total GULP energy -178207.484079 kJ/mol
# GULP energy per Si atom -5568.983877 kJ/mol
# Density = 2.886143 g / cm^3
# Si number density = 28.927270 Si / 1000 Ang^3
#
#
#
# Elastic Constant Matrix: (Units=GPa)
#
#
# Indices 1 2 3 4 5 6 
#
# 1 81.8189 33.8051 10.3802 0.0000 0.0000 0.0000
# 2 33.8051 195.0867 65.2897 0.0000 0.0000 0.0000
# 3 10.3802 65.2897 212.9969 0.0000 0.0000 0.0000
# 4 0.0000 0.0000 0.0000 66.3682 0.0000 0.0000
# 5 0.0000 0.0000 0.0000 0.0000 26.3460 0.0000
# 6 0.0000 0.0000 0.0000 0.0000 0.0000 41.8619
#
#
#
# Elastic Compliance Matrix: (Units=1/GPa)
#
#
# Indices 1 2 3 4 5 6 
#
# 1 0.013165 -0.002303 0.000064 0.000000 0.000000 0.000000
# 2 -0.002303 0.006115 -0.001762 0.000000 0.000000 0.000000
# 3 0.000064 -0.001762 0.005232 0.000000 0.000000 0.000000
# 4 0.000000 0.000000 0.000000 0.015067 0.000000 0.000000
# 5 0.000000 0.000000 0.000000 0.000000 0.037956 0.000000
# 6 0.000000 0.000000 0.000000 0.000000 0.000000 0.023888
#
#
# Mechanical properties :
#
#
# Convention : Reuss Voigt Hill
#
# Bulk Modulus (GPa) = 60.56680 78.76137 69.66409
# Shear Modulus (GPa) = 43.50514 52.27705 47.89109
#
# Velocity S-wave (km/s) = 3.88229 4.25572 4.07328
# Velocity P-wave (km/s) = 6.40931 7.17180 6.80125
#
# Compressibility (1/GPa) = 0.01651069
#
# Stress axis : x y z
#
# Youngs Moduli (GPa) = 75.95652 163.54052 191.13493
#
# Poissons Ratio (x) = 0.37661 -0.01229
# Poissons Ratio (y) = 0.17492 0.33680
# Poissons Ratio (z) = -0.00488 0.28818
#
# Static dielectric constant tensor:
#      x y z
#    x 1.804900 0.000000 0.000000 
#    y 0.000000 1.889660 0.000000 
#    z 0.000000 0.000000 2.531120 
# 
# From -- ./inp_files/2876.got.cif
#   From: 2010.05.17/outbox.cif.g08.bks.cpg/sg54_2_cif.got.tgz:2876.got - 2010.06.03 13:09:01.
