data_PCOD9424261
_publ_section_title
;
Structure prediction by ZEFSAII (Michael W. Deem and Ramdas Pophale) SiO2 
 PCOD9424261
Probable space group: P C C A
;
_chemical_formula_sum "Si O2"
_cell_formula_units_Z 56
_cell_length_a 22.761294
_cell_length_b 6.203043
_cell_length_c 19.627935
_cell_angle_alpha 90.000000
_cell_angle_beta 90.000000
_cell_angle_gamma 90.000000
_cell_volume 2771.254117
_symmetry_space_group_name_H-M "P C C A"
_symmetry_group_IT_number 54
_symmetry_cell_setting 'orthorhombic'
loop_
_space_group_symop_operation_xyz
x,y,z
1/2-x,-y,z
1/2+x,-y,1/2-z
-x,y,1/2-z
-x,-y,-z
1/2+x,y,-z
1/2-x,y,1/2+z
x,-y,1/2+z
loop_
_atom_site_type_symbol
_atom_site_label
_atom_site_fract_x
_atom_site_fract_y
_atom_site_fract_z
Si Si1 0.083318 0.318898 0.809931
Si Si2 0.387291 0.311764 0.901878
Si Si3 0.189961 0.936750 0.369813
Si Si4 0.490235 0.877698 0.070487
Si Si5 0.222294 0.249580 0.011415
Si Si6 0.949642 0.749435 0.346418
Si Si7 0.893269 0.451635 0.453771
O O1 0.111940 0.540916 0.835280
O O2 0.133949 0.149010 0.829255
O O3 0.068538 0.290415 0.731026
O O4 0.019984 0.310736 0.849248
O O5 0.446840 0.175578 0.899579
O O6 0.332595 0.154933 0.904725
O O7 0.388350 0.441885 0.972177
O O8 0.205866 0.776502 0.431562
O O9 0.250000 0.000000 0.331539
O O10 0.454592 0.670040 0.049829
O O11 0.452579 0.008490 0.125528
O O12 0.500000 0.000000 0.000000
O O13 0.250000 0.500000 0.020002
O O14 0.161015 0.286018 0.052040
O O15 0.250000 0.000000 0.027648
O O16 0.903433 0.626289 0.394688
#
# Coordination Sequence:
#
# PCOD9424261 Si02
#       7
#     8   8   8   8   8   8   8
#     4  11  24  44  63  96 139 180 228 291 355 440
#     4  12  22  40  69 101 136 173 234 292 354 422
#     4  11  24  41  70  99 130 185 237 291 344 419
#     4  12  22  36  67 101 136 171 223 286 358 424
#     4  11  25  43  70 106 141 182 241 307 358 418
#     4  11  25  42  65 100 140 178 225 293 371 430
#     4  12  23  39  70 100 133 178 230 293 360 429
#
# _framework density 20.207459
#
# number of rings (size 3 to 8) (size 9 to 14) (size 15 to 20)
#    0.000    0.571    5.714    3.857    2.000    1.143 
#    0.000    0.000    6.286    0.000    0.000    0.000 
#    0.000    0.000    0.000    0.000    0.000    0.000 
#
# Total GULP energy -311862.572981 kJ/mol
# GULP energy per Si atom -5568.974518 kJ/mol
# Density = 2.016147 g / cm^3
# Si number density = 20.207459 Si / 1000 Ang^3
#
#
#
# Elastic Constant Matrix: (Units=GPa)
#
#
# Indices 1 2 3 4 5 6 
#
# 1 126.6785 42.5520 32.3583 0.0000 0.0000 0.0000
# 2 42.5520 90.1534 38.4930 0.0000 0.0000 0.0000
# 3 32.3583 38.4930 79.0947 0.0000 0.0000 0.0000
# 4 0.0000 0.0000 0.0000 13.4517 0.0000 0.0000
# 5 0.0000 0.0000 0.0000 0.0000 14.2745 0.0000
# 6 0.0000 0.0000 0.0000 0.0000 0.0000 39.7962
#
#
#
# Elastic Compliance Matrix: (Units=1/GPa)
#
#
# Indices 1 2 3 4 5 6 
#
# 1 0.009673 -0.003630 -0.002191 0.000000 0.000000 0.000000
# 2 -0.003630 0.015364 -0.005992 0.000000 0.000000 0.000000
# 3 -0.002191 -0.005992 0.016455 0.000000 0.000000 0.000000
# 4 0.000000 0.000000 0.000000 0.074340 0.000000 0.000000
# 5 0.000000 0.000000 0.000000 0.000000 0.070055 0.000000
# 6 0.000000 0.000000 0.000000 0.000000 0.000000 0.025128
#
#
# Mechanical properties :
#
#
# Convention : Reuss Voigt Hill
#
# Bulk Modulus (GPa) = 55.97008 58.08147 57.02577
# Shear Modulus (GPa) = 20.78164 25.67269 23.22717
#
# Velocity S-wave (km/s) = 3.21037 3.56821 3.39401
# Velocity P-wave (km/s) = 6.44204 6.76618 6.60610
#
# Compressibility (1/GPa) = 0.01786669
#
# Stress axis : x y z
#
# Youngs Moduli (GPa) = 103.38073 65.08664 60.77027
#
# Poissons Ratio (x) = 0.23628 0.13312
# Poissons Ratio (y) = 0.37530 0.36414
# Poissons Ratio (z) = 0.22646 0.39000
#
# Static dielectric constant tensor:
#      x y z
#    x 1.761980 0.000000 0.000000 
#    y 0.000000 1.856430 0.000000 
#    z 0.000000 0.000000 1.694750 
# 
# From -- ./inp_files/22302.got.cif
#   From: 2010.05.17/outbox.cif.g08.bks.cpg/sg54_12_cif.got.tgz:22302.got - 2010.06.03 13:09:01.
