data_PCOD9424349
_publ_section_title
;
Structure prediction by ZEFSAII (Michael W. Deem and Ramdas Pophale) SiO2 
 PCOD9424349
Probable space group: P C C A
;
_chemical_formula_sum "Si O2"
_cell_formula_units_Z 56
_cell_length_a 14.593911
_cell_length_b 10.705348
_cell_length_c 15.763448
_cell_angle_alpha 90.000000
_cell_angle_beta 90.000000
_cell_angle_gamma 90.000000
_cell_volume 2462.769131
_symmetry_space_group_name_H-M "P C C A"
_symmetry_group_IT_number 54
_symmetry_cell_setting 'orthorhombic'
loop_
_space_group_symop_operation_xyz
x,y,z
1/2-x,-y,z
1/2+x,-y,1/2-z
-x,y,1/2-z
-x,-y,-z
1/2+x,y,-z
1/2-x,y,1/2+z
x,-y,1/2+z
loop_
_atom_site_type_symbol
_atom_site_label
_atom_site_fract_x
_atom_site_fract_y
_atom_site_fract_z
Si Si1 0.500000 0.307764 0.750000
Si Si2 0.750000 0.500000 0.651086
Si Si3 0.396420 0.068585 0.288503
Si Si4 0.599320 0.368631 0.034495
Si Si5 0.842332 0.864863 0.837837
Si Si6 0.905866 0.928344 0.019186
Si Si7 0.560936 0.496344 0.373609
Si Si8 0.303486 0.688915 0.724335
O O1 0.573720 0.217747 0.796796
O O2 0.509422 0.411460 0.674957
O O3 0.828112 0.440613 0.592802
O O4 0.732191 0.384427 0.715089
O O5 0.500000 0.065153 0.250000
O O6 0.382188 0.025007 0.385821
O O7 0.361906 0.210399 0.277038
O O8 0.340666 0.975307 0.229816
O O9 0.596117 0.220423 0.033306
O O10 0.499666 0.405764 0.069014
O O11 0.615730 0.418351 0.939624
O O12 0.755513 0.772798 0.839394
O O13 0.854176 0.931384 0.928934
O O14 0.000000 0.000000 0.000000
O O15 0.628044 0.412839 0.316143
#
# Coordination Sequence:
#
# PCOD9424349 Si02
#       8
#     4   4   8   8   8   8   8   8
#     4  12  22  44  72 106 148 196 246 306 374 454
#     4  12  26  44  72 108 154 192 244 320 378 454
#     4  12  25  49  77 105 149 201 258 314 380 459
#     4  11  25  45  69 110 146 194 255 310 381 459
#     4  12  26  47  73 113 149 197 259 318 377 455
#     4  12  24  47  78 107 145 202 257 315 381 457
#     4  11  25  42  72 105 147 199 247 308 384 455
#     4  12  27  45  73 108 151 198 250 313 389 449
#
# _framework density 22.738633
#
# number of rings (size 3 to 8) (size 9 to 14) (size 15 to 20)
#    0.000    0.286    5.000    3.857    3.000    0.000 
#    0.000    2.857    0.000    0.000    0.000    0.000 
#    0.000    0.000    0.000    0.000    0.000    0.000 
#
# Total GULP energy -312239.504777 kJ/mol
# GULP energy per Si atom -5575.705442 kJ/mol
# Density = 2.268688 g / cm^3
# Si number density = 22.738633 Si / 1000 Ang^3
#
#
#
# Elastic Constant Matrix: (Units=GPa)
#
#
# Indices 1 2 3 4 5 6 
#
# 1 87.5249 41.0084 36.8614 0.0000 0.0000 0.0000
# 2 41.0084 115.1939 54.4427 0.0000 0.0000 0.0000
# 3 36.8614 54.4427 184.5626 0.0000 0.0000 0.0000
# 4 0.0000 0.0000 0.0000 32.5460 0.0000 0.0000
# 5 0.0000 0.0000 0.0000 0.0000 -30.2920 0.0000
# 6 0.0000 0.0000 0.0000 0.0000 0.0000 36.2146
#
#
#
# Elastic Compliance Matrix: (Units=1/GPa)
#
#
# Indices 1 2 3 4 5 6 
#
# 1 0.014084 -0.004281 -0.001550 0.000000 0.000000 0.000000
# 2 -0.004281 0.011389 -0.002504 0.000000 0.000000 0.000000
# 3 -0.001550 -0.002504 0.006467 0.000000 0.000000 0.000000
# 4 0.000000 0.000000 0.000000 0.030726 0.000000 0.000000
# 5 0.000000 0.000000 0.000000 0.000000 -0.033012 0.000000
# 6 0.000000 0.000000 0.000000 0.000000 0.000000 0.027613
#
#
# Mechanical properties :
#
#
# Convention : Reuss Voigt Hill
#
# Bulk Modulus (GPa) = 65.49672 72.43405 68.96538
# Shear Modulus (GPa) = 63.26960 24.69166 43.98063
#
# Velocity S-wave (km/s) = 5.28064 3.29886 4.40270
# Velocity P-wave (km/s) = 8.12692 6.81426 7.49937
#
# Compressibility (1/GPa) = 0.01526794
#
# Stress axis : x y z
#
# Youngs Moduli (GPa) = 71.00241 87.80595 154.64212
#
# Poissons Ratio (x) = 0.37592 0.23970
# Poissons Ratio (y) = 0.30398 0.38729
# Poissons Ratio (z) = 0.11005 0.21990
#
# Static dielectric constant tensor:
#      x y z
#    x 1.871620 0.000000 0.000000 
#    y 0.000000 1.846260 0.000000 
#    z 0.000000 0.000000 1.896090 
# 
# From -- ./inp_files/13549.got.cif
#   From: 2010.05.17/outbox.cif.g08.bks.cpg/sg54_7_cif.got.tgz:13549.got - 2010.06.03 13:09:01.
