data_PCOD9424771
_publ_section_title
;
Structure prediction by ZEFSAII (Michael W. Deem and Ramdas Pophale) SiO2 
 PCOD9424771
Probable space group: P B A M
;
_chemical_formula_sum "Si O2"
_cell_formula_units_Z 40
_cell_length_a 16.088656
_cell_length_b 13.269575
_cell_length_c 7.496107
_cell_angle_alpha 90.000000
_cell_angle_beta 90.000000
_cell_angle_gamma 90.000000
_cell_volume 1600.341091
_symmetry_space_group_name_H-M "P B A M"
_symmetry_group_IT_number 55
_symmetry_cell_setting 'orthorhombic'
loop_
_space_group_symop_operation_xyz
x,y,z
-x,-y,z
1/2+x,1/2-y,-z
1/2-x,1/2+y,-z
-x,-y,-z
x,y,-z
1/2-x,1/2+y,z
1/2+x,1/2-y,z
loop_
_atom_site_type_symbol
_atom_site_label
_atom_site_fract_x
_atom_site_fract_y
_atom_site_fract_z
Si Si1 0.870029 0.199006 0.219098
Si Si2 0.906343 0.980616 0.218085
Si Si3 0.267010 0.648195 0.204872
Si Si4 0.626688 0.994143 0.708512
Si Si5 0.985810 0.666295 0.201388
O O1 0.860502 0.083845 0.268650
O O2 0.793920 0.267812 0.283685
O O3 0.959725 0.242691 0.280570
O O4 0.872467 0.206010 0.000000
O O5 0.855528 0.883601 0.283041
O O6 0.907353 0.974188 0.000000
O O7 0.000000 0.000000 0.275618
O O8 0.211898 0.545336 0.208722
O O9 0.280466 0.678129 0.000000
O O10 0.628651 0.970676 0.500000
O O11 0.595298 0.109054 0.725974
O O12 0.556672 0.921479 0.793980
O O13 0.964819 0.694634 0.000000
#
# Coordination Sequence:
#
# PCOD9424771 Si02
#       5
#     8   8   8   8   8
#     4   8  15  28  46  72 101 130 168 207 253 310
#     4   9  17  31  50  75 104 133 170 216 260 305
#     4   9  17  31  50  72 101 134 167 213 263 304
#     4  10  17  26  44  71 102 134 169 207 250 303
#     4   9  15  26  45  71 103 132 162 206 258 305
#
# _framework density 24.994672000000001
#
# number of rings (size 3 to 8) (size 9 to 14) (size 15 to 20)
#    0.000    3.000    0.000    4.800    0.000    0.000 
#    3.600    0.000    0.000    6.600    0.000    0.000 
#    0.000    0.000    0.000    0.000    0.000    0.000 
#
# Total GULP energy -223141.414657 kJ/mol
# GULP energy per Si atom -5578.535366 kJ/mol
# Density = 2.493778 g / cm^3
# Si number density = 24.994672 Si / 1000 Ang^3
#
#
#
# Elastic Constant Matrix: (Units=GPa)
#
#
# Indices 1 2 3 4 5 6 
#
# 1 111.6093 36.6209 -6.8227 0.0000 0.0000 0.0000
# 2 36.6209 79.8602 -2.7463 0.0000 0.0000 0.0000
# 3 -6.8227 -2.7463 85.6765 0.0000 0.0000 0.0000
# 4 0.0000 0.0000 0.0000 -17.6101 0.0000 0.0000
# 5 0.0000 0.0000 0.0000 0.0000 7.1298 0.0000
# 6 0.0000 0.0000 0.0000 0.0000 0.0000 40.2194
#
#
#
# Elastic Compliance Matrix: (Units=1/GPa)
#
#
# Indices 1 2 3 4 5 6 
#
# 1 0.010587 -0.004831 0.000688 0.000000 0.000000 0.000000
# 2 -0.004831 0.014740 0.000088 0.000000 0.000000 0.000000
# 3 0.000688 0.000088 0.011729 0.000000 0.000000 0.000000
# 4 0.000000 0.000000 0.000000 -0.056785 0.000000 0.000000
# 5 0.000000 0.000000 0.000000 0.000000 0.140257 0.000000
# 6 0.000000 0.000000 0.000000 0.000000 0.000000 0.024864
#
#
# Mechanical properties :
#
#
# Convention : Reuss Voigt Hill
#
# Bulk Modulus (GPa) = 34.54654 36.80553 35.67604
# Shear Modulus (GPa) = 30.64648 22.62073 26.63361
#
# Velocity S-wave (km/s) = 3.50540 3.01162 3.26785
# Velocity P-wave (km/s) = 5.49867 5.18174 5.34256
#
# Compressibility (1/GPa) = 0.02894646
#
# Stress axis : x y z
#
# Youngs Moduli (GPa) = 94.45467 67.84119 85.25561
#
# Poissons Ratio (x) = 0.32775 -0.05867
# Poissons Ratio (y) = 0.45633 -0.00748
# Poissons Ratio (z) = -0.06501 -0.00595
#
# Static dielectric constant tensor:
#      x y z
#    x 2.008410 0.000000 0.000000 
#    y 0.000000 1.995110 0.000000 
#    z 0.000000 0.000000 1.935790 
# 
# From -- ./inp_files/7282.got.cif
#   From: 2010.05.17/outbox.cif.g08.bks.cpg/sg55_4_cif.got.tgz:7282.got - 2010.06.03 13:27:54.
