data_PCOD9424712
_publ_section_title
;
Structure prediction by ZEFSAII (Michael W. Deem and Ramdas Pophale) SiO2 
 PCOD9424712
Probable space group: P B A M
;
_chemical_formula_sum "Si O2"
_cell_formula_units_Z 44
_cell_length_a 13.589679
_cell_length_b 13.488111
_cell_length_c 8.438473
_cell_angle_alpha 90.000000
_cell_angle_beta 90.000000
_cell_angle_gamma 90.000000
_cell_volume 1546.764496
_symmetry_space_group_name_H-M "P B A M"
_symmetry_group_IT_number 55
_symmetry_cell_setting 'orthorhombic'
loop_
_space_group_symop_operation_xyz
x,y,z
-x,-y,z
1/2+x,1/2-y,-z
1/2-x,1/2+y,-z
-x,-y,-z
x,y,-z
1/2-x,1/2+y,z
1/2+x,1/2-y,z
loop_
_atom_site_type_symbol
_atom_site_label
_atom_site_fract_x
_atom_site_fract_y
_atom_site_fract_z
Si Si1 0.780386 0.803980 0.000000
Si Si2 0.067907 0.382570 0.000000
Si Si3 0.763953 0.581723 0.672807
Si Si4 0.474557 0.827057 0.318327
Si Si5 0.220576 0.966853 0.000000
Si Si6 0.027548 0.104448 0.318723
Si Si7 0.238034 0.640722 0.327748
O O1 0.720926 0.800742 0.165459
O O2 0.814860 0.919998 0.000000
O O3 0.868926 0.723668 0.000000
O O4 0.004423 0.387626 0.840878
O O5 0.159400 0.458453 0.000000
O O6 0.716052 0.589608 0.500000
O O7 0.855425 0.656853 0.675313
O O8 0.698760 0.584882 0.831802
O O9 0.807739 0.469347 0.676471
O O10 0.505669 0.850657 0.500000
O O11 0.504639 0.715113 0.274057
O O12 0.994348 0.097009 0.500000
O O13 0.145654 0.115835 0.325084
O O14 0.000000 0.000000 0.238498
O O15 0.215857 0.686179 0.500000
#
# Coordination Sequence:
#
# PCOD9424712 Si02
#       7
#     4   4   8   8   4   8   8
#     4  10  16  24  38  52  68  96 126 152 188 220
#     4  10  16  24  38  52  68  96 126 152 188 220
#     4   8  14  24  38  50  64  90 122 156 188 210
#     4   9  16  26  37  51  70  94 127 156 181 216
#     4   8  16  24  32  52  72  84 120 158 180 224
#     4   9  16  25  37  53  76 103 126 151 181 220
#     4   9  16  26  37  51  70  94 127 156 181 216
#
# _framework density 28.446477000000002
#
# number of rings (size 3 to 8) (size 9 to 14) (size 15 to 20)
#    0.000    3.091    1.818    0.000    0.000    0.000 
#    0.000    1.818    0.000    0.000    0.000    0.000 
#    0.000    0.000    0.000    1.636    3.636  129.091 
#
# Total GULP energy -245491.359106 kJ/mol
# GULP energy per Si atom -5579.349071 kJ/mol
# Density = 2.838173 g / cm^3
# Si number density = 28.446477 Si / 1000 Ang^3
#
#
#
# Elastic Constant Matrix: (Units=GPa)
#
#
# Indices 1 2 3 4 5 6 
#
# 1 118.9335 25.2755 24.4214 0.0000 0.0000 0.0000
# 2 25.2755 174.1000 47.9950 0.0000 0.0000 0.0000
# 3 24.4214 47.9950 293.3632 0.0000 0.0000 0.0000
# 4 0.0000 0.0000 0.0000 25.6416 0.0000 0.0000
# 5 0.0000 0.0000 0.0000 0.0000 -25.5745 0.0000
# 6 0.0000 0.0000 0.0000 0.0000 0.0000 40.0425
#
#
#
# Elastic Compliance Matrix: (Units=1/GPa)
#
#
# Indices 1 2 3 4 5 6 
#
# 1 0.008758 -0.001121 -0.000546 0.000000 0.000000 0.000000
# 2 -0.001121 0.006159 -0.000914 0.000000 0.000000 0.000000
# 3 -0.000546 -0.000914 0.003604 0.000000 0.000000 0.000000
# 4 0.000000 0.000000 0.000000 0.038999 0.000000 0.000000
# 5 0.000000 0.000000 0.000000 0.000000 -0.039101 0.000000
# 6 0.000000 0.000000 0.000000 0.000000 0.000000 0.024973
#
#
# Mechanical properties :
#
#
# Convention : Reuss Voigt Hill
#
# Bulk Modulus (GPa) = 74.85766 86.86449 80.86107
# Shear Modulus (GPa) = 94.32756 40.60225 67.46490
#
# Velocity S-wave (km/s) = 5.76469 3.78209 4.87524
# Velocity P-wave (km/s) = 8.40721 7.04803 7.75745
#
# Compressibility (1/GPa) = 0.01335869
#
# Stress axis : x y z
#
# Youngs Moduli (GPa) = 114.17666 162.37415 277.48937
#
# Poissons Ratio (x) = 0.18204 0.15142
# Poissons Ratio (y) = 0.12800 0.25369
# Poissons Ratio (z) = 0.06230 0.14845
#
# Static dielectric constant tensor:
#      x y z
#    x 2.169430 0.000000 0.000000 
#    y 0.000000 2.270750 0.000000 
#    z 0.000000 0.000000 2.306480 
# 
# From -- ./inp_files/4011.got.cif
#   From: 2010.05.17/outbox.cif.g08.bks.cpg/sg55_3_cif.got.tgz:4011.got - 2010.06.03 13:27:54.
