data_PCOD9424515
_publ_section_title
;
Structure prediction by ZEFSAII (Michael W. Deem and Ramdas Pophale) SiO2 
 PCOD9424515
Probable space group: P C C A
;
_chemical_formula_sum "Si O2"
_cell_formula_units_Z 20
_cell_length_a 5.147836
_cell_length_b 5.051588
_cell_length_c 35.403323
_cell_angle_alpha 90.000000
_cell_angle_beta 90.000000
_cell_angle_gamma 90.000000
_cell_volume 920.654442
_symmetry_space_group_name_H-M "P C C A"
_symmetry_group_IT_number 54
_symmetry_cell_setting 'orthorhombic'
loop_
_space_group_symop_operation_xyz
x,y,z
1/2-x,-y,z
1/2+x,-y,1/2-z
-x,y,1/2-z
-x,-y,-z
1/2+x,y,-z
1/2-x,y,1/2+z
x,-y,1/2+z
loop_
_atom_site_type_symbol
_atom_site_label
_atom_site_fract_x
_atom_site_fract_y
_atom_site_fract_z
Si Si1 0.500000 0.189673 0.750000
Si Si2 0.750000 0.500000 0.185571
Si Si3 0.750000 0.500000 0.973148
Si Si4 0.250000 0.000000 0.366526
Si Si5 0.750000 0.000000 0.418592
O O1 0.463920 0.378023 0.786176
O O2 0.250000 0.000000 0.747142
O O3 0.820838 0.747714 0.159342
O O4 0.721812 0.750302 0.945868
O O5 0.500000 0.500000 0.000000
O O6 0.499297 0.949805 0.392568
#
# Coordination Sequence:
#
# PCOD9424515 Si02
#       5
#     4   4   4   4   4
#     4  12  28  50  76 108 146 190 268 318 372 440
#     4  12  28  49  73 106 142 198 248 308 376 424
#     4  12  24  45  77 104 142 184 234 288 348 416
#     4  12  28  45  73 100 152 190 234 296 372 438
#     4  12  26  47  69 110 144 184 238 284 356 442
#
# _framework density 21.723678
#
# number of rings (size 3 to 8) (size 9 to 14) (size 15 to 20)
#    0.000    0.000    2.000    7.200    2.800    3.200 
#    0.000    0.000    0.000    0.000    0.000    0.000 
#    0.000    0.000    0.000    0.000    0.000    0.000 
#
# Total GULP energy -112065.428806 kJ/mol
# GULP energy per Si atom -5603.271440 kJ/mol
# Density = 2.167423 g / cm^3
# Si number density = 21.723678 Si / 1000 Ang^3
#
#
#
# Elastic Constant Matrix: (Units=GPa)
#
#
# Indices 1 2 3 4 5 6 
#
# 1 178.3366 42.7681 74.4522 0.0000 0.0000 0.0000
# 2 42.7681 192.9821 88.4797 0.0000 0.0000 0.0000
# 3 74.4522 88.4797 171.4448 0.0000 0.0000 0.0000
# 4 0.0000 0.0000 0.0000 3.2521 0.0000 0.0000
# 5 0.0000 0.0000 0.0000 0.0000 0.7339 0.0000
# 6 0.0000 0.0000 0.0000 0.0000 0.0000 29.6337
#
#
#
# Elastic Compliance Matrix: (Units=1/GPa)
#
#
# Indices 1 2 3 4 5 6 
#
# 1 0.006855 -0.000202 -0.002873 0.000000 0.000000 0.000000
# 2 -0.000202 0.006794 -0.003418 0.000000 0.000000 0.000000
# 3 -0.002873 -0.003418 0.008844 0.000000 0.000000 0.000000
# 4 0.000000 0.000000 0.000000 0.307495 0.000000 0.000000
# 5 0.000000 0.000000 0.000000 0.000000 1.362553 0.000000
# 6 0.000000 0.000000 0.000000 0.000000 0.000000 0.033745
#
#
# Mechanical properties :
#
#
# Convention : Reuss Voigt Hill
#
# Bulk Modulus (GPa) = 105.18456 106.01815 105.60136
# Shear Modulus (GPa) = 2.86954 29.19485 16.03219
#
# Velocity S-wave (km/s) = 1.15056 3.66993 2.71957
# Velocity P-wave (km/s) = 7.09151 8.17721 7.65364
#
# Compressibility (1/GPa) = 0.00950710
#
# Stress axis : x y z
#
# Youngs Moduli (GPa) = 145.87667 147.19004 113.06543
#
# Poissons Ratio (x) = 0.02976 0.32479
# Poissons Ratio (y) = 0.02949 0.38651
# Poissons Ratio (z) = 0.41904 0.50316
#
# Static dielectric constant tensor:
#      x y z
#    x 1.774880 0.000000 0.000000 
#    y 0.000000 1.765890 0.000000 
#    z 0.000000 0.000000 1.760140 
# 
# From -- ./inp_files/22486.got.cif
#   From: 2010.05.17/outbox.cif.g08.bks.cpg/sg54_12_cif.got.tgz:22486.got - 2010.06.03 13:09:01.
