data_PCOD9424285
_publ_section_title
;
Structure prediction by ZEFSAII (Michael W. Deem and Ramdas Pophale) SiO2 
 PCOD9424285
Probable space group: P C C A
;
_chemical_formula_sum "Si O2"
_cell_formula_units_Z 24
_cell_length_a 8.285257
_cell_length_b 11.721451
_cell_length_c 10.686649
_cell_angle_alpha 90.000000
_cell_angle_beta 90.000000
_cell_angle_gamma 90.000000
_cell_volume 1037.836418
_symmetry_space_group_name_H-M "P C C A"
_symmetry_group_IT_number 54
_symmetry_cell_setting 'orthorhombic'
loop_
_space_group_symop_operation_xyz
x,y,z
1/2-x,-y,z
1/2+x,-y,1/2-z
-x,y,1/2-z
-x,-y,-z
1/2+x,y,-z
1/2-x,y,1/2+z
x,-y,1/2+z
loop_
_atom_site_type_symbol
_atom_site_label
_atom_site_fract_x
_atom_site_fract_y
_atom_site_fract_z
Si Si1 0.455532 0.807645 0.883926
Si Si2 0.076500 0.552540 0.121241
Si Si3 0.623549 0.109004 0.631392
O O1 0.500000 0.863256 0.750000
O O2 0.550070 0.688242 0.885489
O O3 0.261790 0.792519 0.877579
O O4 0.517532 0.876545 0.005142
O O5 0.250000 0.500000 0.123704
O O6 0.000000 0.513160 0.250000
O O7 0.000000 0.500000 0.000000
O O8 0.500000 0.115911 0.750000
O O9 0.750000 0.000000 0.632482
#
# Coordination Sequence:
#
# PCOD9424285 Si02
#       3
#     8   8   8
#     4  11  25  45  70 105 142 188 241 293 358 429
#     4  11  24  44  70 104 142 186 237 295 360 429
#     4  12  26  47  73 105 146 190 241 302 360 430
#
# _framework density 23.125032999999998
#
# number of rings (size 3 to 8) (size 9 to 14) (size 15 to 20)
#    0.000    0.667    0.000    7.000    0.000    9.333 
#    0.000    0.000    0.000    0.000    0.000    0.000 
#    0.000    0.000    0.000    0.000    0.000    0.000 
#
# Total GULP energy -134000.418699 kJ/mol
# GULP energy per Si atom -5583.350779 kJ/mol
# Density = 2.307240 g / cm^3
# Si number density = 23.125033 Si / 1000 Ang^3
#
#
#
# Elastic Constant Matrix: (Units=GPa)
#
#
# Indices 1 2 3 4 5 6 
#
# 1 239.5354 68.4735 130.8966 0.0000 0.0000 0.0000
# 2 68.4735 100.2528 51.7631 0.0000 0.0000 0.0000
# 3 130.8966 51.7631 296.4046 0.0000 0.0000 0.0000
# 4 0.0000 0.0000 0.0000 -0.9434 0.0000 0.0000
# 5 0.0000 0.0000 0.0000 0.0000 70.9641 0.0000
# 6 0.0000 0.0000 0.0000 0.0000 0.0000 40.3531
#
#
#
# Elastic Compliance Matrix: (Units=1/GPa)
#
#
# Indices 1 2 3 4 5 6 
#
# 1 0.006293 -0.003147 -0.002229 0.000000 0.000000 0.000000
# 2 -0.003147 0.012537 -0.000800 0.000000 0.000000 0.000000
# 3 -0.002229 -0.000800 0.004498 0.000000 0.000000 0.000000
# 4 0.000000 0.000000 0.000000 -1.059992 0.000000 0.000000
# 5 0.000000 0.000000 0.000000 0.000000 0.014092 0.000000
# 6 0.000000 0.000000 0.000000 0.000000 0.000000 0.024781
#
#
# Mechanical properties :
#
#
# Convention : Reuss Voigt Hill
#
# Bulk Modulus (GPa) = 91.11010 126.49545 108.80278
# Shear Modulus (GPa) = -5.09278 47.74540 21.32631
#
# Velocity S-wave (km/s) = -1.48562 4.54879 3.04010
# Velocity P-wave (km/s) = 6.04497 9.07789 7.71199
#
# Compressibility (1/GPa) = 0.01097573
#
# Stress axis : x y z
#
# Youngs Moduli (GPa) = 158.91862 79.76384 222.32428
#
# Poissons Ratio (x) = 0.25100 0.49563
# Poissons Ratio (y) = 0.50008 0.17780
# Poissons Ratio (z) = 0.35428 0.06379
#
# Static dielectric constant tensor:
#      x y z
#    x 1.883140 0.000000 0.000000 
#    y 0.000000 1.694200 0.000000 
#    z 0.000000 0.000000 1.818560 
# 
# From -- ./inp_files/2426.got.cif
#   From: 2010.05.17/outbox.cif.g08.bks.cpg/sg54_2_cif.got.tgz:2426.got - 2010.06.03 13:09:01.
