data_PCOD9424658
_publ_section_title
;
Structure prediction by ZEFSAII (Michael W. Deem and Ramdas Pophale) SiO2 
 PCOD9424658
Probable space group: P C C A
;
_chemical_formula_sum "Si O2"
_cell_formula_units_Z 52
_cell_length_a 15.000000
_cell_length_b 9.000000
_cell_length_c 21.000000
_cell_angle_alpha 90.000000
_cell_angle_beta 90.000000
_cell_angle_gamma 90.000000
_cell_volume 2835.000000
_symmetry_space_group_name_H-M "P C C A"
_symmetry_group_IT_number 54
_symmetry_cell_setting 'orthorhombic'
loop_
_space_group_symop_operation_xyz
x,y,z
1/2-x,-y,z
1/2+x,-y,1/2-z
-x,y,1/2-z
-x,-y,-z
1/2+x,y,-z
1/2-x,y,1/2+z
x,-y,1/2+z
loop_
_atom_site_type_symbol
_atom_site_label
_atom_site_fract_x
_atom_site_fract_y
_atom_site_fract_z
Si Si1 0.591785 0.838438 0.644469
Si Si2 0.500000 0.631877 0.750000
Si Si3 0.383576 0.626826 0.189158
Si Si4 0.353913 0.502690 0.048002
Si Si5 0.004217 0.272497 0.986438
Si Si6 0.776851 0.673940 0.684563
Si Si7 0.546549 0.816733 0.130041
O O1 0.534973 0.737213 0.693535
O O2 0.552724 0.808414 0.573115
O O3 0.693746 0.779346 0.660597
O O4 0.573748 0.016008 0.652144
O O5 0.574466 0.517802 0.776143
O O6 0.350423 0.566105 0.120542
O O7 0.310433 0.688166 0.240535
O O8 0.463040 0.744369 0.170004
O O9 0.250000 0.500000 0.025819
O O10 0.412947 0.351024 0.040353
O O11 0.418593 0.611970 0.008217
O O12 0.978163 0.191550 0.053937
O O13 0.750000 0.500000 0.675426
O O14 0.866015 0.715776 0.644560
#
# Coordination Sequence:
#
# PCOD9424658 Si02
#       7
#     8   4   8   8   8   8   8
#     4  12  26  42  66 101 133 178 224 276 344 400
#     4  12  22  40  66  92 130 172 220 268 328 402
#     4  11  21  43  66  96 131 176 218 278 334 395
#     4  10  22  38  68  99 128 174 234 280 323 402
#     4  10  24  42  66  96 135 182 223 274 344 396
#     4  12  24  40  69  99 131 169 225 275 329 403
#     4  11  25  44  67  94 140 175 218 282 345 399
#
# _framework density 18.342151999999999
#
# number of rings (size 3 to 8) (size 9 to 14) (size 15 to 20)
#    0.000    0.923    4.615    1.385    8.615    0.000 
#    0.000    0.000    0.000    0.000    0.000    0.000 
#    0.000    0.000    0.000    0.000    0.000    0.000 
#
# Total GULP energy -289976.187875 kJ/mol
# GULP energy per Si atom -5576.465151 kJ/mol
# Density = 1.830040 g / cm^3
# Si number density = 18.342152 Si / 1000 Ang^3
#
#
#
# Elastic Constant Matrix: (Units=GPa)
#
#
# Indices 1 2 3 4 5 6 
#
# 1 139.9108 49.9431 35.6049 0.0000 0.0000 0.0000
# 2 49.9431 123.0473 35.0353 0.0000 0.0000 0.0000
# 3 35.6049 35.0353 117.2493 0.0000 0.0000 0.0000
# 4 0.0000 0.0000 0.0000 28.4314 0.0000 0.0000
# 5 0.0000 0.0000 0.0000 0.0000 39.2436 0.0000
# 6 0.0000 0.0000 0.0000 0.0000 0.0000 31.9697
#
#
#
# Elastic Compliance Matrix: (Units=1/GPa)
#
#
# Indices 1 2 3 4 5 6 
#
# 1 0.008667 -0.003026 -0.001728 0.000000 0.000000 0.000000
# 2 -0.003026 0.009939 -0.002051 0.000000 0.000000 0.000000
# 3 -0.001728 -0.002051 0.009666 0.000000 0.000000 0.000000
# 4 0.000000 0.000000 0.000000 0.035172 0.000000 0.000000
# 5 0.000000 0.000000 0.000000 0.000000 0.025482 0.000000
# 6 0.000000 0.000000 0.000000 0.000000 0.000000 0.031280
#
#
# Mechanical properties :
#
#
# Convention : Reuss Voigt Hill
#
# Bulk Modulus (GPa) = 68.19781 69.04156 68.61968
# Shear Modulus (GPa) = 36.04800 37.23720 36.64260
#
# Velocity S-wave (km/s) = 4.43799 4.51060 4.47444
# Velocity P-wave (km/s) = 7.97011 8.05295 8.01164
#
# Compressibility (1/GPa) = 0.01466323
#
# Stress axis : x y z
#
# Youngs Moduli (GPa) = 115.37664 100.61229 103.45130
#
# Poissons Ratio (x) = 0.30445 0.17874
# Poissons Ratio (y) = 0.34913 0.21218
# Poissons Ratio (z) = 0.19935 0.20636
#
# Static dielectric constant tensor:
#      x y z
#    x 1.647210 0.000000 0.000000 
#    y 0.000000 1.647370 0.000000 
#    z 0.000000 0.000000 1.653380 
# 
# From -- ./inp_files/21537.got.cif
#   From: 2010.05.17/outbox.ucp.g08.bks.cvg/sg54_11_cif.got.tgz:21537.got - 2010.06.11 16:34:40.
