data_PCOD9424256
_publ_section_title
;
Structure prediction by ZEFSAII (Michael W. Deem and Ramdas Pophale) SiO2 
 PCOD9424256
Probable space group: P C C A
;
_chemical_formula_sum "Si O2"
_cell_formula_units_Z 40
_cell_length_a 5.810901
_cell_length_b 11.258114
_cell_length_c 24.215817
_cell_angle_alpha 90.000000
_cell_angle_beta 90.000000
_cell_angle_gamma 90.000000
_cell_volume 1584.193564
_symmetry_space_group_name_H-M "P C C A"
_symmetry_group_IT_number 54
_symmetry_cell_setting 'orthorhombic'
loop_
_space_group_symop_operation_xyz
x,y,z
1/2-x,-y,z
1/2+x,-y,1/2-z
-x,y,1/2-z
-x,-y,-z
1/2+x,y,-z
1/2-x,y,1/2+z
x,-y,1/2+z
loop_
_atom_site_type_symbol
_atom_site_label
_atom_site_fract_x
_atom_site_fract_y
_atom_site_fract_z
Si Si1 0.980846 0.325895 0.527819
Si Si2 0.261946 0.370953 0.359958
Si Si3 0.487497 0.841330 0.690764
Si Si4 0.864932 0.370953 0.308000
Si Si5 0.997051 0.941123 0.428779
O O1 0.736040 0.355165 0.496254
O O2 0.927184 0.379410 0.588441
O O3 0.988132 0.184855 0.540094
O O4 0.250000 0.500000 0.331175
O O5 0.317268 0.256357 0.323622
O O6 0.992081 0.353283 0.367640
O O7 0.500000 0.903526 0.750000
O O8 0.283242 0.747145 0.695464
O O9 0.477725 0.922230 0.637388
O O10 0.750000 0.500000 0.310972
O O11 0.000000 0.373163 0.250000
O O12 0.250000 0.000000 0.436800
O O13 0.750000 0.000000 0.444220
#
# Coordination Sequence:
#
# PCOD9424256 Si02
#       5
#     8   8   8   8   8
#     4  11  27  47  74 103 135 177 237 297 362 421
#     4  11  24  41  65  99 143 187 228 280 340 412
#     4  11  24  41  65  99 142 188 227 280 339 414
#     4  12  22  36  66 101 144 185 234 278 335 414
#     4  11  27  47  74 103 134 178 235 297 362 420
#
# _framework density 25.249442999999999
#
# number of rings (size 3 to 8) (size 9 to 14) (size 15 to 20)
#    0.000    0.800    4.000    2.400   11.200    4.000 
#    0.000    0.000    0.000    0.000    0.000    0.000 
#    0.000    0.000    0.000    0.000    0.000    0.000 
#
# Total GULP energy -222801.738085 kJ/mol
# GULP energy per Si atom -5570.043452 kJ/mol
# Density = 2.519197 g / cm^3
# Si number density = 25.249443 Si / 1000 Ang^3
#
#
#
# Elastic Constant Matrix: (Units=GPa)
#
#
# Indices 1 2 3 4 5 6 
#
# 1 168.3571 37.2674 61.7256 0.0000 0.0000 0.0000
# 2 37.2674 69.6407 18.9668 0.0000 0.0000 0.0000
# 3 61.7256 18.9668 140.1499 0.0000 0.0000 0.0000
# 4 0.0000 0.0000 0.0000 42.7804 0.0000 0.0000
# 5 0.0000 0.0000 0.0000 0.0000 12.0945 0.0000
# 6 0.0000 0.0000 0.0000 0.0000 0.0000 27.9144
#
#
#
# Elastic Compliance Matrix: (Units=1/GPa)
#
#
# Indices 1 2 3 4 5 6 
#
# 1 0.007770 -0.003349 -0.002969 0.000000 0.000000 0.000000
# 2 -0.003349 0.016353 -0.000738 0.000000 0.000000 0.000000
# 3 -0.002969 -0.000738 0.008543 0.000000 0.000000 0.000000
# 4 0.000000 0.000000 0.000000 0.023375 0.000000 0.000000
# 5 0.000000 0.000000 0.000000 0.000000 0.082682 0.000000
# 6 0.000000 0.000000 0.000000 0.000000 0.000000 0.035824
#
#
# Mechanical properties :
#
#
# Convention : Reuss Voigt Hill
#
# Bulk Modulus (GPa) = 53.89934 68.22970 61.06452
# Shear Modulus (GPa) = 25.66184 33.90372 29.78278
#
# Velocity S-wave (km/s) = 3.19146 3.66833 3.43817
# Velocity P-wave (km/s) = 5.91385 6.70993 6.32443
#
# Compressibility (1/GPa) = 0.01855310
#
# Stress axis : x y z
#
# Youngs Moduli (GPa) = 128.70748 61.15194 117.06099
#
# Poissons Ratio (x) = 0.20481 0.34751
# Poissons Ratio (y) = 0.43108 0.08638
# Poissons Ratio (z) = 0.38209 0.04513
#
# Static dielectric constant tensor:
#      x y z
#    x 2.254200 0.000000 0.000000 
#    y 0.000000 1.975370 0.000000 
#    z 0.000000 0.000000 2.087300 
# 
# From -- ./inp_files/25166.got.cif
#   From: 2010.05.17/outbox.cif.g08.bks.cpg/sg54_13_cif.got.tgz:25166.got - 2010.06.03 13:09:01.
