data_PCOD9424136
_publ_section_title
;
Structure prediction by ZEFSAII (Michael W. Deem and Ramdas Pophale) SiO2 
 PCOD9424136
Probable space group: P C C A
;
_chemical_formula_sum "Si O2"
_cell_formula_units_Z 56
_cell_length_a 14.547690
_cell_length_b 11.677383
_cell_length_c 13.049681
_cell_angle_alpha 90.000000
_cell_angle_beta 90.000000
_cell_angle_gamma 90.000000
_cell_volume 2216.866079
_symmetry_space_group_name_H-M "P C C A"
_symmetry_group_IT_number 54
_symmetry_cell_setting 'orthorhombic'
loop_
_space_group_symop_operation_xyz
x,y,z
1/2-x,-y,z
1/2+x,-y,1/2-z
-x,y,1/2-z
-x,-y,-z
1/2+x,y,-z
1/2-x,y,1/2+z
x,-y,1/2+z
loop_
_atom_site_type_symbol
_atom_site_label
_atom_site_fract_x
_atom_site_fract_y
_atom_site_fract_z
Si Si1 0.714920 0.809341 0.568848
Si Si2 0.568409 0.742363 0.839994
Si Si3 0.035450 0.630128 0.932347
Si Si4 0.611735 0.179478 0.710032
Si Si5 0.749237 0.135976 0.346697
Si Si6 0.464459 0.957776 0.891809
Si Si7 0.841745 0.559980 0.994506
O O1 0.788002 0.821932 0.657953
O O2 0.762329 0.863274 0.469135
O O3 0.623616 0.877425 0.594587
O O4 0.690126 0.678196 0.544998
O O5 0.500000 0.695637 0.750000
O O6 0.676133 0.762285 0.815837
O O7 0.542279 0.875978 0.848773
O O8 0.549948 0.684623 0.951843
O O9 0.057945 0.719348 0.844102
O O10 0.930965 0.585783 0.924396
O O11 0.110806 0.529236 0.926921
O O12 0.645518 0.178551 0.826485
O O13 0.563668 0.064738 0.674830
O O14 0.750000 0.000000 0.314000
O O15 0.500000 0.000000 0.000000
O O16 0.750000 0.500000 0.949937
#
# Coordination Sequence:
#
# PCOD9424136 Si02
#       7
#     8   8   8   8   8   8   8
#     4  12  22  42  69  95 139 187 235 289 365 426
#     4  12  23  41  64  99 138 179 235 288 356 432
#     4  11  24  44  69 100 137 184 240 294 363 429
#     4  12  23  43  66 103 141 184 235 293 362 440
#     4  12  25  40  66 104 142 188 234 291 361 444
#     4  12  22  39  66  97 141 184 227 291 360 432
#     4  11  22  43  74  98 131 190 238 296 359 425
#
# _framework density 25.260884999999998
#
# number of rings (size 3 to 8) (size 9 to 14) (size 15 to 20)
#    0.000    0.286    5.714    4.714    0.000    0.000 
#    0.000    6.429    6.286    0.000    0.000    0.000 
#    0.000    0.000    0.000    0.000    0.000    0.000 
#
# Total GULP energy -313407.013475 kJ/mol
# GULP energy per Si atom -5596.553812 kJ/mol
# Density = 2.520339 g / cm^3
# Si number density = 25.260885 Si / 1000 Ang^3
#
#
#
# Elastic Constant Matrix: (Units=GPa)
#
#
# Indices 1 2 3 4 5 6 
#
# 1 151.3637 35.9253 10.8932 0.0000 0.0000 0.0000
# 2 35.9253 137.6777 0.7572 0.0000 0.0000 0.0000
# 3 10.8932 0.7572 62.3914 0.0000 0.0000 0.0000
# 4 0.0000 0.0000 0.0000 -111.4928 0.0000 0.0000
# 5 0.0000 0.0000 0.0000 0.0000 31.8925 0.0000
# 6 0.0000 0.0000 0.0000 0.0000 0.0000 54.5605
#
#
#
# Elastic Compliance Matrix: (Units=1/GPa)
#
#
# Indices 1 2 3 4 5 6 
#
# 1 0.007135 -0.001855 -0.001223 0.000000 0.000000 0.000000
# 2 -0.001855 0.007746 0.000230 0.000000 0.000000 0.000000
# 3 -0.001223 0.000230 0.016239 0.000000 0.000000 0.000000
# 4 0.000000 0.000000 0.000000 -0.008969 0.000000 0.000000
# 5 0.000000 0.000000 0.000000 0.000000 0.031355 0.000000
# 6 0.000000 0.000000 0.000000 0.000000 0.000000 0.018328
#
#
# Mechanical properties :
#
#
# Convention : Reuss Voigt Hill
#
# Bulk Modulus (GPa) = 39.33458 49.62046 44.47752
# Shear Modulus (GPa) = 58.13610 15.24920 36.69265
#
# Velocity S-wave (km/s) = 4.80252 2.45963 3.81537
# Velocity P-wave (km/s) = 6.80863 5.26804 6.08727
#
# Compressibility (1/GPa) = 0.02542292
#
# Stress axis : x y z
#
# Youngs Moduli (GPa) = 140.15581 129.09676 61.58161
#
# Poissons Ratio (x) = 0.23948 0.07533
# Poissons Ratio (y) = 0.26000 -0.01416
# Poissons Ratio (z) = 0.17144 -0.02968
#
# Static dielectric constant tensor:
#      x y z
#    x 2.608970 0.000000 0.000000 
#    y 0.000000 1.988590 0.000000 
#    z 0.000000 0.000000 2.170170 
# 
# From -- ./inp_files/13472.got.cif
#   From: 2010.05.17/outbox.cif.g08.bks.cpg/sg54_7_cif.got.tgz:13472.got - 2010.06.03 13:09:01.
