data_PCOD9424327
_publ_section_title
;
Structure prediction by ZEFSAII (Michael W. Deem and Ramdas Pophale) SiO2 
 PCOD9424327
Probable space group: P C C A
;
_chemical_formula_sum "Si O2"
_cell_formula_units_Z 48
_cell_length_a 18.214718
_cell_length_b 8.776108
_cell_length_c 13.362214
_cell_angle_alpha 90.000000
_cell_angle_beta 90.000000
_cell_angle_gamma 90.000000
_cell_volume 2136.007798
_symmetry_space_group_name_H-M "P C C A"
_symmetry_group_IT_number 54
_symmetry_cell_setting 'orthorhombic'
loop_
_space_group_symop_operation_xyz
x,y,z
1/2-x,-y,z
1/2+x,-y,1/2-z
-x,y,1/2-z
-x,-y,-z
1/2+x,y,-z
1/2-x,y,1/2+z
x,-y,1/2+z
loop_
_atom_site_type_symbol
_atom_site_label
_atom_site_fract_x
_atom_site_fract_y
_atom_site_fract_z
Si Si1 0.304287 0.140693 0.440423
Si Si2 0.812390 0.605574 0.910502
Si Si3 0.076320 0.064778 0.540755
Si Si4 0.666356 0.959792 0.758755
Si Si5 0.573932 0.412209 0.533210
Si Si6 0.913835 0.737930 0.735442
O O1 0.276344 0.269917 0.514973
O O2 0.325176 0.172414 0.324848
O O3 0.250000 0.000000 0.431231
O O4 0.372098 0.065555 0.495668
O O5 0.750000 0.500000 0.862014
O O6 0.860463 0.503603 0.984109
O O7 0.868905 0.679263 0.831780
O O8 0.107807 0.073910 0.654346
O O9 0.076398 0.238343 0.504054
O O10 0.000000 0.000000 0.500000
O O11 0.750000 0.000000 0.795338
O O12 0.631491 0.110312 0.705927
O O13 0.500000 0.500000 0.500000
O O14 0.583961 0.392938 0.651883
O O15 0.000000 0.778560 0.750000
#
# Coordination Sequence:
#
# PCOD9424327 Si02
#       6
#     8   8   8   8   8   8
#     4  11  24  47  72 110 149 200 258 315 387 465
#     4  12  28  46  78 113 158 201 255 326 398 465
#     4  12  24  44  78 105 144 202 260 316 386 468
#     4  11  26  44  79 112 150 201 271 324 377 464
#     4  12  26  48  72 110 155 198 251 321 397 472
#     4  12  25  50  77 109 157 209 260 321 395 468
#
# _framework density 22.471827999999999
#
# number of rings (size 3 to 8) (size 9 to 14) (size 15 to 20)
#    0.000    0.333    5.000    3.500    4.667    2.000 
#    0.000    0.000    0.000    0.000    0.000    0.000 
#    0.000    0.000    0.000    0.000    0.000    0.000 
#
# Total GULP energy -267994.451235 kJ/mol
# GULP energy per Si atom -5583.217734 kJ/mol
# Density = 2.242068 g / cm^3
# Si number density = 22.471828 Si / 1000 Ang^3
#
#
#
# Elastic Constant Matrix: (Units=GPa)
#
#
# Indices 1 2 3 4 5 6 
#
# 1 112.4248 18.9817 29.8353 0.0000 0.0000 0.0000
# 2 18.9817 70.9411 25.8911 0.0000 0.0000 0.0000
# 3 29.8353 25.8911 131.6487 0.0000 0.0000 0.0000
# 4 0.0000 0.0000 0.0000 31.2583 0.0000 0.0000
# 5 0.0000 0.0000 0.0000 0.0000 27.5545 0.0000
# 6 0.0000 0.0000 0.0000 0.0000 0.0000 38.0729
#
#
#
# Elastic Compliance Matrix: (Units=1/GPa)
#
#
# Indices 1 2 3 4 5 6 
#
# 1 0.009704 -0.001933 -0.001819 0.000000 0.000000 0.000000
# 2 -0.001933 0.015571 -0.002624 0.000000 0.000000 0.000000
# 3 -0.001819 -0.002624 0.008524 0.000000 0.000000 0.000000
# 4 0.000000 0.000000 0.000000 0.031992 0.000000 0.000000
# 5 0.000000 0.000000 0.000000 0.000000 0.036292 0.000000
# 6 0.000000 0.000000 0.000000 0.000000 0.000000 0.026265
#
#
# Mechanical properties :
#
#
# Convention : Reuss Voigt Hill
#
# Bulk Modulus (GPa) = 47.51203 51.60341 49.55772
# Shear Modulus (GPa) = 33.75738 35.39757 34.57747
#
# Velocity S-wave (km/s) = 3.88004 3.97318 3.92689
# Velocity P-wave (km/s) = 6.42353 6.63790 6.53159
#
# Compressibility (1/GPa) = 0.02104730
#
# Stress axis : x y z
#
# Youngs Moduli (GPa) = 103.05157 64.22155 117.31082
#
# Poissons Ratio (x) = 0.12411 0.21340
# Poissons Ratio (y) = 0.19915 0.30787
# Poissons Ratio (z) = 0.18746 0.16854
#
# Static dielectric constant tensor:
#      x y z
#    x 1.790230 0.000000 0.000000 
#    y 0.000000 1.822520 0.000000 
#    z 0.000000 0.000000 1.956780 
# 
# From -- ./inp_files/14084.got.cif
#   From: 2010.05.17/outbox.cif.g08.bks.cpg/sg54_8_cif.got.tgz:14084.got - 2010.06.03 13:09:01.
