data_PCOD9424357
_publ_section_title
;
Structure prediction by ZEFSAII (Michael W. Deem and Ramdas Pophale) SiO2 
 PCOD9424357
Probable space group: P C C A
;
_chemical_formula_sum "Si O2"
_cell_formula_units_Z 48
_cell_length_a 13.672999
_cell_length_b 5.168357
_cell_length_c 31.288705
_cell_angle_alpha 90.000000
_cell_angle_beta 90.000000
_cell_angle_gamma 90.000000
_cell_volume 2211.077042
_symmetry_space_group_name_H-M "P C C A"
_symmetry_group_IT_number 54
_symmetry_cell_setting 'orthorhombic'
loop_
_space_group_symop_operation_xyz
x,y,z
1/2-x,-y,z
1/2+x,-y,1/2-z
-x,y,1/2-z
-x,-y,-z
1/2+x,y,-z
1/2-x,y,1/2+z
x,-y,1/2+z
loop_
_atom_site_type_symbol
_atom_site_label
_atom_site_fract_x
_atom_site_fract_y
_atom_site_fract_z
Si Si1 0.750000 0.500000 0.072025
Si Si2 0.419341 0.687364 0.982849
Si Si3 0.035180 0.161258 0.345352
Si Si4 0.750000 0.500000 0.322760
Si Si5 0.460357 0.338324 0.202627
Si Si6 0.750000 0.000000 0.379771
Si Si7 0.250000 0.000000 0.368885
Si Si8 0.437440 0.953802 0.068893
O O1 0.658832 0.486740 0.040711
O O2 0.738793 0.249977 0.101261
O O3 0.474499 0.874530 0.949850
O O4 0.500000 0.500000 0.000000
O O5 0.388610 0.830007 0.026446
O O6 0.148091 0.063718 0.345024
O O7 0.975450 0.924003 0.324288
O O8 0.992871 0.205554 0.393467
O O9 0.018712 0.425612 0.319686
O O10 0.846564 0.580246 0.297009
O O11 0.775742 0.250999 0.351705
O O12 0.500000 0.296712 0.250000
O O13 0.655208 0.079601 0.407427
#
# Coordination Sequence:
#
# PCOD9424357 Si02
#       8
#     4   8   8   4   8   4   4   8
#     4  12  26  45  67 100 144 194 246 300 355 407
#     4  11  27  42  66 100 146 189 244 305 350 412
#     4  12  25  48  74 104 142 189 235 290 362 429
#     4  12  24  47  73 110 138 180 234 294 353 435
#     4  12  27  48  77 109 145 181 229 300 364 437
#     4  12  26  41  79 102 136 190 238 286 359 421
#     4  12  26  45  75 102 140 196 246 288 347 439
#     4  11  25  45  66 103 139 188 242 291 353 422
#
# _framework density 21.708877000000001
#
# number of rings (size 3 to 8) (size 9 to 14) (size 15 to 20)
#    0.000    0.333    5.000    2.500    9.333    1.333 
#    0.000    0.000    0.000    0.000    0.000    0.000 
#    0.000    0.000    0.000    0.000    0.000    0.000 
#
# Total GULP energy -268276.903371 kJ/mol
# GULP energy per Si atom -5589.102154 kJ/mol
# Density = 2.165947 g / cm^3
# Si number density = 21.708877 Si / 1000 Ang^3
#
#
#
# Elastic Constant Matrix: (Units=GPa)
#
#
# Indices 1 2 3 4 5 6 
#
# 1 99.9839 -4.3453 33.7428 0.0000 0.0000 0.0000
# 2 -4.3453 100.2625 27.3940 0.0000 0.0000 0.0000
# 3 33.7428 27.3940 99.6157 0.0000 0.0000 0.0000
# 4 0.0000 0.0000 0.0000 -53.7945 0.0000 0.0000
# 5 0.0000 0.0000 0.0000 0.0000 27.1392 0.0000
# 6 0.0000 0.0000 0.0000 0.0000 0.0000 29.3111
#
#
#
# Elastic Compliance Matrix: (Units=1/GPa)
#
#
# Indices 1 2 3 4 5 6 
#
# 1 0.011554 0.001698 -0.004380 0.000000 0.000000 0.000000
# 2 0.001698 0.011033 -0.003609 0.000000 0.000000 0.000000
# 3 -0.004380 -0.003609 0.012515 0.000000 0.000000 0.000000
# 4 0.000000 0.000000 0.000000 -0.018589 0.000000 0.000000
# 5 0.000000 0.000000 0.000000 0.000000 0.036847 0.000000
# 6 0.000000 0.000000 0.000000 0.000000 0.000000 0.034117
#
#
# Mechanical properties :
#
#
# Convention : Reuss Voigt Hill
#
# Bulk Modulus (GPa) = 44.40894 45.93834 45.17364
# Shear Modulus (GPa) = 46.48276 16.73586 31.60931
#
# Velocity S-wave (km/s) = 4.63232 2.77956 3.81997
# Velocity P-wave (km/s) = 7.00800 5.61323 6.34903
#
# Compressibility (1/GPa) = 0.02251799
#
# Stress axis : x y z
#
# Youngs Moduli (GPa) = 86.55240 90.63309 79.90497
#
# Poissons Ratio (x) = -0.15385 0.35002
# Poissons Ratio (y) = -0.14693 0.28839
# Poissons Ratio (z) = 0.37913 0.32711
#
# Static dielectric constant tensor:
#      x y z
#    x 1.798590 0.000000 0.000000 
#    y 0.000000 1.728410 0.000000 
#    z 0.000000 0.000000 1.608810 
# 
# From -- ./inp_files/26552.got.cif
#   From: 2010.05.17/outbox.cif.g08.bks.cpg/sg54_14_cif.got.tgz:26552.got - 2010.06.03 13:09:01.
