data_PCOD9424505
_publ_section_title
;
Structure prediction by ZEFSAII (Michael W. Deem and Ramdas Pophale) SiO2 
 PCOD9424505
Probable space group: P C C A
;
_chemical_formula_sum "Si O2"
_cell_formula_units_Z 32
_cell_length_a 7.156064
_cell_length_b 10.651174
_cell_length_c 16.247603
_cell_angle_alpha 90.000000
_cell_angle_beta 90.000000
_cell_angle_gamma 90.000000
_cell_volume 1238.400145
_symmetry_space_group_name_H-M "P C C A"
_symmetry_group_IT_number 54
_symmetry_cell_setting 'orthorhombic'
loop_
_space_group_symop_operation_xyz
x,y,z
1/2-x,-y,z
1/2+x,-y,1/2-z
-x,y,1/2-z
-x,-y,-z
1/2+x,y,-z
1/2-x,y,1/2+z
x,-y,1/2+z
loop_
_atom_site_type_symbol
_atom_site_label
_atom_site_fract_x
_atom_site_fract_y
_atom_site_fract_z
Si Si1 0.532692 0.473355 0.152355
Si Si2 0.004399 0.746453 0.610895
Si Si3 0.670943 0.868872 0.693696
Si Si4 0.906487 0.210283 0.926088
O O1 0.250000 0.500000 0.863300
O O2 0.500000 0.465228 0.250000
O O3 0.439296 0.600444 0.118939
O O4 0.474555 0.346038 0.107900
O O5 0.150876 0.780133 0.820868
O O6 0.201756 0.817793 0.610057
O O7 0.908490 0.775677 0.523702
O O8 0.500000 0.822561 0.750000
O O9 0.561073 0.886282 0.607288
O O10 0.750000 0.000000 0.723963
#
# Coordination Sequence:
#
# PCOD9424505 Si02
#       4
#     8   8   8   8
#     4  12  24  42  73 115 160 205 250 304 378 458
#     4  12  26  48  79 111 156 198 250 315 378 458
#     4  12  31  52  77 110 146 200 259 320 386 454
#     4  12  25  50  75 116 152 200 252 312 384 450
#
# _framework density 25.839790000000001
#
# number of rings (size 3 to 8) (size 9 to 14) (size 15 to 20)
#    0.000    0.000    5.000    3.750    7.000    1.000 
#    0.000    0.000    0.000    0.000    0.000    0.000 
#    0.000    0.000    0.000    0.000    0.000    0.000 
#
# Total GULP energy -179390.670582 kJ/mol
# GULP energy per Si atom -5605.958456 kJ/mol
# Density = 2.578098 g / cm^3
# Si number density = 25.839790 Si / 1000 Ang^3
#
#
#
# Elastic Constant Matrix: (Units=GPa)
#
#
# Indices 1 2 3 4 5 6 
#
# 1 202.7428 34.1344 37.9128 0.0000 0.0000 0.0000
# 2 34.1344 67.4866 12.9296 0.0000 0.0000 0.0000
# 3 37.9128 12.9296 97.0597 0.0000 0.0000 0.0000
# 4 0.0000 0.0000 0.0000 -4.6551 0.0000 0.0000
# 5 0.0000 0.0000 0.0000 0.0000 54.7224 0.0000
# 6 0.0000 0.0000 0.0000 0.0000 0.0000 34.5367
#
#
#
# Elastic Compliance Matrix: (Units=1/GPa)
#
#
# Indices 1 2 3 4 5 6 
#
# 1 0.005712 -0.002526 -0.001895 0.000000 0.000000 0.000000
# 2 -0.002526 0.016323 -0.001188 0.000000 0.000000 0.000000
# 3 -0.001895 -0.001188 0.011201 0.000000 0.000000 0.000000
# 4 0.000000 0.000000 0.000000 -0.214819 0.000000 0.000000
# 5 0.000000 0.000000 0.000000 0.000000 0.018274 0.000000
# 6 0.000000 0.000000 0.000000 0.000000 0.000000 0.028955
#
#
# Mechanical properties :
#
#
# Convention : Reuss Voigt Hill
#
# Bulk Modulus (GPa) = 45.41475 59.69362 52.55418
# Shear Modulus (GPa) = -43.17874 35.74163 -3.71855
#
# Velocity S-wave (km/s) = -4.09224 3.72318 -1.20092
# Velocity P-wave (km/s) = 2.17139 6.45247 4.29647
#
# Compressibility (1/GPa) = 0.02201928
#
# Stress axis : x y z
#
# Youngs Moduli (GPa) = 175.07135 61.26327 89.27585
#
# Poissons Ratio (x) = 0.15476 0.16915
# Poissons Ratio (y) = 0.44225 0.10603
# Poissons Ratio (z) = 0.33170 0.07276
#
# Static dielectric constant tensor:
#      x y z
#    x 2.031390 0.000000 0.000000 
#    y 0.000000 2.010670 0.000000 
#    z 0.000000 0.000000 2.107810 
# 
# From -- ./inp_files/11207.got.cif
#   From: 2010.05.17/outbox.cif.g08.bks.cpg/sg54_6_cif.got.tgz:11207.got - 2010.06.03 13:09:01.
