data_PCOD9424100
_publ_section_title
;
Structure prediction by ZEFSAII (Michael W. Deem and Ramdas Pophale) SiO2 
 PCOD9424100
Probable space group: P C C A
;
_chemical_formula_sum "Si O2"
_cell_formula_units_Z 28
_cell_length_a 8.283489
_cell_length_b 12.387721
_cell_length_c 11.588178
_cell_angle_alpha 90.000000
_cell_angle_beta 90.000000
_cell_angle_gamma 90.000000
_cell_volume 1189.104090
_symmetry_space_group_name_H-M "P C C A"
_symmetry_group_IT_number 54
_symmetry_cell_setting 'orthorhombic'
loop_
_space_group_symop_operation_xyz
x,y,z
1/2-x,-y,z
1/2+x,-y,1/2-z
-x,y,1/2-z
-x,-y,-z
1/2+x,y,-z
1/2-x,y,1/2+z
x,-y,1/2+z
loop_
_atom_site_type_symbol
_atom_site_label
_atom_site_fract_x
_atom_site_fract_y
_atom_site_fract_z
Si Si1 0.505828 0.653903 0.569561
Si Si2 0.500000 0.942491 0.250000
Si Si3 0.250000 0.000000 0.574833
Si Si4 0.750000 0.500000 0.928065
Si Si5 0.780770 0.198460 0.092254
O O1 0.370889 0.582670 0.635085
O O2 0.630578 0.572684 0.505749
O O3 0.406636 0.721760 0.472509
O O4 0.623896 0.736559 0.632320
O O5 0.408867 0.010140 0.153241
O O6 0.632398 0.865135 0.193571
O O7 0.230464 0.893381 0.498980
#
# Coordination Sequence:
#
# PCOD9424100 Si02
#       5
#     8   4   4   4   8
#     4   9  18  35  65  94 126 164 217 266 322 399
#     4  12  26  40  64  92 136 180 222 272 336 388
#     4  12  26  42  62  94 136 174 224 274 326 404
#     4   8  16  34  64  98 112 172 214 256 342 384
#     4  11  22  41  61  97 132 172 217 271 325 400
#
# _framework density 23.547139000000001
#
# number of rings (size 3 to 8) (size 9 to 14) (size 15 to 20)
#    0.000    1.714    2.857    1.714    4.000    0.000 
#    0.000    0.000    0.000   10.286    0.000    0.000 
#    0.000    0.000    0.000    0.000    0.000    0.000 
#
# Total GULP energy -156561.513706 kJ/mol
# GULP energy per Si atom -5591.482632 kJ/mol
# Density = 2.349354 g / cm^3
# Si number density = 23.547139 Si / 1000 Ang^3
#
#
#
# Elastic Constant Matrix: (Units=GPa)
#
#
# Indices 1 2 3 4 5 6 
#
# 1 158.7813 67.7641 35.3719 0.0000 0.0000 0.0000
# 2 67.7641 113.3376 29.2450 0.0000 0.0000 0.0000
# 3 35.3719 29.2450 53.8922 0.0000 0.0000 0.0000
# 4 0.0000 0.0000 0.0000 16.8095 0.0000 0.0000
# 5 0.0000 0.0000 0.0000 0.0000 46.2532 0.0000
# 6 0.0000 0.0000 0.0000 0.0000 0.0000 854.6716
#
#
#
# Elastic Compliance Matrix: (Units=1/GPa)
#
#
# Indices 1 2 3 4 5 6 
#
# 1 0.008980 -0.004475 -0.003466 0.000000 0.000000 0.000000
# 2 -0.004475 0.012490 -0.003841 0.000000 0.000000 0.000000
# 3 -0.003466 -0.003841 0.022914 0.000000 0.000000 0.000000
# 4 0.000000 0.000000 0.000000 0.059490 0.000000 0.000000
# 5 0.000000 0.000000 0.000000 0.000000 0.021620 0.000000
# 6 0.000000 0.000000 0.000000 0.000000 0.000000 0.001170
#
#
# Mechanical properties :
#
#
# Convention : Reuss Voigt Hill
#
# Bulk Modulus (GPa) = 48.02650 65.64146 56.83398
# Shear Modulus (GPa) = 31.81341 196.45552 114.13447
#
# Velocity S-wave (km/s) = 3.67965 9.14395 6.96964
# Velocity P-wave (km/s) = 6.20430 11.80761 9.43167
#
# Compressibility (1/GPa) = 0.02082184
#
# Stress axis : x y z
#
# Youngs Moduli (GPa) = 111.36241 80.06649 43.64089
#
# Poissons Ratio (x) = 0.35827 0.15124
# Poissons Ratio (y) = 0.49831 0.16761
# Poissons Ratio (z) = 0.38593 0.30751
#
# Static dielectric constant tensor:
#      x y z
#    x 1.911800 0.000000 0.000000 
#    y 0.000000 1.891620 0.000000 
#    z 0.000000 0.000000 1.825410 
# 
# From -- ./inp_files/6658.got.cif
#   From: 2010.05.17/outbox.cif.g08.bks.cpg/sg54_4_cif.got.tgz:6658.got - 2010.06.03 13:09:01.
