data_PCOD9424486
_publ_section_title
;
Structure prediction by ZEFSAII (Michael W. Deem and Ramdas Pophale) SiO2 
 PCOD9424486
Probable space group: P C C A
;
_chemical_formula_sum "Si O2"
_cell_formula_units_Z 32
_cell_length_a 14.378340
_cell_length_b 11.319554
_cell_length_c 8.504310
_cell_angle_alpha 90.000000
_cell_angle_beta 90.000000
_cell_angle_gamma 90.000000
_cell_volume 1384.130847
_symmetry_space_group_name_H-M "P C C A"
_symmetry_group_IT_number 54
_symmetry_cell_setting 'orthorhombic'
loop_
_space_group_symop_operation_xyz
x,y,z
1/2-x,-y,z
1/2+x,-y,1/2-z
-x,y,1/2-z
-x,-y,-z
1/2+x,y,-z
1/2-x,y,1/2+z
x,-y,1/2+z
loop_
_atom_site_type_symbol
_atom_site_label
_atom_site_fract_x
_atom_site_fract_y
_atom_site_fract_z
Si Si1 0.975085 0.372818 0.932840
Si Si2 0.072371 0.953276 0.124218
Si Si3 0.689376 0.749343 0.039512
Si Si4 0.876798 0.217265 0.382566
O O1 0.000000 0.364201 0.750000
O O2 0.029975 0.276263 0.044469
O O3 0.000000 0.500000 0.000000
O O4 0.864733 0.353306 0.948731
O O5 0.000000 0.899431 0.250000
O O6 0.117333 0.078957 0.169282
O O7 0.144861 0.865247 0.045952
O O8 0.000000 0.000000 0.000000
O O9 0.660513 0.729204 0.219895
O O10 0.798552 0.762589 0.014430
#
# Coordination Sequence:
#
# PCOD9424486 Si02
#       4
#     8   8   8   8
#     4  12  26  48  74  98 133 177 228 287 351 412
#     4  12  23  41  70  99 141 184 227 278 340 404
#     4  12  26  43  69 102 142 180 234 281 345 408
#     4  12  26  44  68 104 139 183 230 285 340 412
#
# _framework density 23.119202999999999
#
# number of rings (size 3 to 8) (size 9 to 14) (size 15 to 20)
#    0.000    0.000    5.000    5.250    3.500    3.000 
#    0.000    5.000    0.000    0.000    0.000    0.000 
#    0.000    0.000    0.000    0.000    0.000    0.000 
#
# Total GULP energy -178715.077354 kJ/mol
# GULP energy per Si atom -5584.846167 kJ/mol
# Density = 2.306658 g / cm^3
# Si number density = 23.119203 Si / 1000 Ang^3
#
#
#
# Elastic Constant Matrix: (Units=GPa)
#
#
# Indices 1 2 3 4 5 6 
#
# 1 88.7093 -1.8069 -9.2829 0.0000 0.0000 0.0000
# 2 -1.8069 108.5166 -5.6466 0.0000 0.0000 0.0000
# 3 -9.2829 -5.6466 119.3640 0.0000 0.0000 0.0000
# 4 0.0000 0.0000 0.0000 25.1622 0.0000 0.0000
# 5 0.0000 0.0000 0.0000 0.0000 35.4175 0.0000
# 6 0.0000 0.0000 0.0000 0.0000 0.0000 9.8383
#
#
#
# Elastic Compliance Matrix: (Units=1/GPa)
#
#
# Indices 1 2 3 4 5 6 
#
# 1 0.011371 0.000236 0.000896 0.000000 0.000000 0.000000
# 2 0.000236 0.009243 0.000456 0.000000 0.000000 0.000000
# 3 0.000896 0.000456 0.008469 0.000000 0.000000 0.000000
# 4 0.000000 0.000000 0.000000 0.039742 0.000000 0.000000
# 5 0.000000 0.000000 0.000000 0.000000 0.028235 0.000000
# 6 0.000000 0.000000 0.000000 0.000000 0.000000 0.101643
#
#
# Mechanical properties :
#
#
# Convention : Reuss Voigt Hill
#
# Bulk Modulus (GPa) = 31.00092 31.45744 31.22918
# Shear Modulus (GPa) = 24.23872 36.30534 30.27203
#
# Velocity S-wave (km/s) = 3.24145 3.96707 3.62247
# Velocity P-wave (km/s) = 5.23905 5.88385 5.57078
#
# Compressibility (1/GPa) = 0.03225711
#
# Stress axis : x y z
#
# Youngs Moduli (GPa) = 87.94074 108.19212 118.07862
#
# Poissons Ratio (x) = -0.02553 -0.10574
# Poissons Ratio (y) = -0.02075 -0.05380
# Poissons Ratio (z) = -0.07875 -0.04929
#
# Static dielectric constant tensor:
#      x y z
#    x 1.700590 0.000000 0.000000 
#    y 0.000000 2.160140 0.000000 
#    z 0.000000 0.000000 2.118130 
# 
# From -- ./inp_files/3249.got.cif
#   From: 2010.05.17/outbox.cif.g08.bks.cpg/sg54_2_cif.got.tgz:3249.got - 2010.06.03 13:09:01.
