data_PCOD9424677
_publ_section_title
;
Structure prediction by ZEFSAII (Michael W. Deem and Ramdas Pophale) SiO2 
 PCOD9424677
Probable space group: P C C A
;
_chemical_formula_sum "Si O2"
_cell_formula_units_Z 40
_cell_length_a 18.000000
_cell_length_b 12.000000
_cell_length_c 9.000000
_cell_angle_alpha 90.000000
_cell_angle_beta 90.000000
_cell_angle_gamma 90.000000
_cell_volume 1944.000000
_symmetry_space_group_name_H-M "P C C A"
_symmetry_group_IT_number 54
_symmetry_cell_setting 'orthorhombic'
loop_
_space_group_symop_operation_xyz
x,y,z
1/2-x,-y,z
1/2+x,-y,1/2-z
-x,y,1/2-z
-x,-y,-z
1/2+x,y,-z
1/2-x,y,1/2+z
x,-y,1/2+z
loop_
_atom_site_type_symbol
_atom_site_label
_atom_site_fract_x
_atom_site_fract_y
_atom_site_fract_z
Si Si1 0.661711 0.388415 0.479397
Si Si2 0.339185 0.970525 0.238570
Si Si3 0.323167 0.370549 0.380506
Si Si4 0.947538 0.795872 0.604475
Si Si5 0.905087 0.858529 0.054712
O O1 0.673156 0.383884 0.299775
O O2 0.651388 0.515109 0.538452
O O3 0.738494 0.351068 0.561761
O O4 0.593396 0.310182 0.530934
O O5 0.379237 0.875767 0.342293
O O6 0.250000 0.000000 0.252000
O O7 0.384617 0.079711 0.291512
O O8 0.359782 0.926480 0.073678
O O9 0.373103 0.266456 0.431492
O O10 0.000000 0.770771 0.750000
O O11 0.008235 0.852247 0.493365
#
# Coordination Sequence:
#
# PCOD9424677 Si02
#       5
#     8   8   8   8   8
#     4  11  25  47  74 107 142 186 239 304 349 430
#     4  11  24  44  71 100 139 190 241 290 348 419
#     4  11  26  44  78 103 142 183 248 291 362 417
#     4  10  25  45  72 101 153 186 236 292 363 419
#     4  11  26  44  69 106 143 189 233 295 355 430
#
# _framework density 20.576132000000001
#
# number of rings (size 3 to 8) (size 9 to 14) (size 15 to 20)
#    0.000    1.200    0.000    4.800   16.800    1.600 
#    0.000    0.000    0.000    0.000    0.000    0.000 
#    0.000    0.000    0.000    0.000    0.000    0.000 
#
# Total GULP energy -223690.967862 kJ/mol
# GULP energy per Si atom -5592.274197 kJ/mol
# Density = 2.052930 g / cm^3
# Si number density = 20.576132 Si / 1000 Ang^3
#
#
#
# Elastic Constant Matrix: (Units=GPa)
#
#
# Indices 1 2 3 4 5 6 
#
# 1 152.3554 62.9576 64.4832 0.0000 0.0000 0.0000
# 2 62.9576 114.7731 52.0520 0.0000 0.0000 0.0000
# 3 64.4832 52.0520 143.4236 0.0000 0.0000 0.0000
# 4 0.0000 0.0000 0.0000 43.0894 0.0000 0.0000
# 5 0.0000 0.0000 0.0000 0.0000 31.9100 0.0000
# 6 0.0000 0.0000 0.0000 0.0000 0.0000 49.3137
#
#
#
# Elastic Compliance Matrix: (Units=1/GPa)
#
#
# Indices 1 2 3 4 5 6 
#
# 1 0.009342 -0.003854 -0.002801 0.000000 0.000000 0.000000
# 2 -0.003854 0.012019 -0.002629 0.000000 0.000000 0.000000
# 3 -0.002801 -0.002629 0.009186 0.000000 0.000000 0.000000
# 4 0.000000 0.000000 0.000000 0.023208 0.000000 0.000000
# 5 0.000000 0.000000 0.000000 0.000000 0.031338 0.000000
# 6 0.000000 0.000000 0.000000 0.000000 0.000000 0.020278
#
#
# Mechanical properties :
#
#
# Convention : Reuss Voigt Hill
#
# Bulk Modulus (GPa) = 83.48700 85.50416 84.49558
# Shear Modulus (GPa) = 39.08286 40.26657 39.67471
#
# Velocity S-wave (km/s) = 4.36297 4.42855 4.39588
# Velocity P-wave (km/s) = 8.12671 8.23375 8.18041
#
# Compressibility (1/GPa) = 0.01197791
#
# Stress axis : x y z
#
# Youngs Moduli (GPa) = 107.04585 83.19934 108.85954
#
# Poissons Ratio (x) = 0.32064 0.30496
# Poissons Ratio (y) = 0.41254 0.28624
# Poissons Ratio (z) = 0.29988 0.21877
#
# Static dielectric constant tensor:
#      x y z
#    x 1.713320 0.000000 0.000000 
#    y 0.000000 1.756810 0.000000 
#    z 0.000000 0.000000 1.759100 
# 
# From -- ./inp_files/3976.got.cif
#   From: 2010.05.17/outbox.ucp.g08.bks.cvg/sg54_2_cif.got.tgz:3976.got - 2010.06.11 16:34:40.
