data_PCOD9424475
_publ_section_title
;
Structure prediction by ZEFSAII (Michael W. Deem and Ramdas Pophale) SiO2 
 PCOD9424475
Probable space group: P C C A
;
_chemical_formula_sum "Si O2"
_cell_formula_units_Z 32
_cell_length_a 5.419512
_cell_length_b 15.941878
_cell_length_c 16.613913
_cell_angle_alpha 90.000000
_cell_angle_beta 90.000000
_cell_angle_gamma 90.000000
_cell_volume 1435.395550
_symmetry_space_group_name_H-M "P C C A"
_symmetry_group_IT_number 54
_symmetry_cell_setting 'orthorhombic'
loop_
_space_group_symop_operation_xyz
x,y,z
1/2-x,-y,z
1/2+x,-y,1/2-z
-x,y,1/2-z
-x,-y,-z
1/2+x,y,-z
1/2-x,y,1/2+z
x,-y,1/2+z
loop_
_atom_site_type_symbol
_atom_site_label
_atom_site_fract_x
_atom_site_fract_y
_atom_site_fract_z
Si Si1 0.371793 0.853732 0.171652
Si Si2 0.544230 0.728257 0.050262
Si Si3 0.750000 0.000000 0.446574
Si Si4 0.840169 0.406833 0.167918
Si Si5 0.500000 0.721593 0.750000
O O1 0.500000 0.893995 0.250000
O O2 0.561163 0.801152 0.117273
O O3 0.248212 0.920121 0.112771
O O4 0.192277 0.782320 0.206443
O O5 0.526115 0.638288 0.094374
O O6 0.788091 0.737436 0.997063
O O7 0.500000 0.000000 0.500000
O O8 0.750000 0.500000 0.150403
O O9 0.620203 0.342103 0.186552
O O10 0.000000 0.409268 0.250000
#
# Coordination Sequence:
#
# PCOD9424475 Si02
#       5
#     8   8   4   8   4
#     4  12  27  47  82 109 148 202 261 312 370 459
#     4  12  26  46  72 107 153 197 244 307 385 448
#     4  12  32  54  78 118 164 196 242 316 400 458
#     4  12  25  44  74 106 148 204 262 322 372 448
#     4  12  22  46  76 110 144 188 270 316 364 430
#
# _framework density 22.293506000000001
#
# number of rings (size 3 to 8) (size 9 to 14) (size 15 to 20)
#    0.000    0.000    6.250    3.000    5.250    1.000 
#    0.000    0.000    0.000    0.000    0.000    0.000 
#    0.000    0.000    0.000    0.000    0.000    0.000 
#
# Total GULP energy -179174.341750 kJ/mol
# GULP energy per Si atom -5599.198180 kJ/mol
# Density = 2.224276 g / cm^3
# Si number density = 22.293506 Si / 1000 Ang^3
#
#
#
# Elastic Constant Matrix: (Units=GPa)
#
#
# Indices 1 2 3 4 5 6 
#
# 1 112.1480 27.8298 62.9445 0.0000 0.0000 0.0000
# 2 27.8298 130.5611 53.1711 0.0000 0.0000 0.0000
# 3 62.9445 53.1711 137.2857 0.0000 0.0000 0.0000
# 4 0.0000 0.0000 0.0000 13.6762 0.0000 0.0000
# 5 0.0000 0.0000 0.0000 0.0000 38.6612 0.0000
# 6 0.0000 0.0000 0.0000 0.0000 0.0000 15.2166
#
#
#
# Elastic Compliance Matrix: (Units=1/GPa)
#
#
# Indices 1 2 3 4 5 6 
#
# 1 0.012022 -0.000377 -0.005366 0.000000 0.000000 0.000000
# 2 -0.000377 0.009105 -0.003354 0.000000 0.000000 0.000000
# 3 -0.005366 -0.003354 0.011043 0.000000 0.000000 0.000000
# 4 0.000000 0.000000 0.000000 0.073120 0.000000 0.000000
# 5 0.000000 0.000000 0.000000 0.000000 0.025866 0.000000
# 6 0.000000 0.000000 0.000000 0.000000 0.000000 0.065718
#
#
# Mechanical properties :
#
#
# Convention : Reuss Voigt Hill
#
# Bulk Modulus (GPa) = 71.54552 74.20951 72.87752
# Shear Modulus (GPa) = 22.75560 29.24743 26.00152
#
# Velocity S-wave (km/s) = 3.19835 3.62598 3.41886
# Velocity P-wave (km/s) = 6.76768 7.13373 6.95311
#
# Compressibility (1/GPa) = 0.01397711
#
# Stress axis : x y z
#
# Youngs Moduli (GPa) = 83.18007 109.82477 90.55376
#
# Poissons Ratio (x) = 0.04144 0.48590
# Poissons Ratio (y) = 0.03138 0.30368
# Poissons Ratio (z) = 0.44634 0.36830
#
# Static dielectric constant tensor:
#      x y z
#    x 1.872270 0.000000 0.000000 
#    y 0.000000 1.809770 0.000000 
#    z 0.000000 0.000000 1.867040 
# 
# From -- ./inp_files/15692.got.cif
#   From: 2010.05.17/outbox.cif.g08.bks.cpg/sg54_8_cif.got.tgz:15692.got - 2010.06.03 13:09:01.
