data_PCOD9424977
_publ_section_title
;
Structure prediction by ZEFSAII (Michael W. Deem and Ramdas Pophale) SiO2 
 PCOD9424977
Probable space group: P B A M
;
_chemical_formula_sum "Si O2"
_cell_formula_units_Z 64
_cell_length_a 19.741467
_cell_length_b 23.985122
_cell_length_c 7.635168
_cell_angle_alpha 90.000000
_cell_angle_beta 90.000000
_cell_angle_gamma 90.000000
_cell_volume 3615.263458
_symmetry_space_group_name_H-M "P B A M"
_symmetry_group_IT_number 55
_symmetry_cell_setting 'orthorhombic'
loop_
_space_group_symop_operation_xyz
x,y,z
-x,-y,z
1/2+x,1/2-y,-z
1/2-x,1/2+y,-z
-x,-y,-z
x,y,-z
1/2-x,1/2+y,z
1/2+x,1/2-y,z
loop_
_atom_site_type_symbol
_atom_site_label
_atom_site_fract_x
_atom_site_fract_y
_atom_site_fract_z
Si Si1 0.301245 0.180209 0.794246
Si Si2 0.011199 0.388544 0.287515
Si Si3 0.669684 0.260032 0.288807
Si Si4 0.752774 0.149617 0.714139
Si Si5 0.381403 0.290268 0.297798
Si Si6 0.481687 0.759006 0.714834
Si Si7 0.348377 0.940632 0.705395
Si Si8 0.635209 0.933382 0.204715
O O1 0.221854 0.193012 0.773395
O O2 0.341609 0.231091 0.706145
O O3 0.325227 0.120622 0.723443
O O4 0.318655 0.182737 0.000000
O O5 0.010614 0.389836 0.500000
O O6 0.009050 0.323725 0.233368
O O7 0.944299 0.420696 0.228241
O O8 0.080397 0.417187 0.222802
O O9 0.669532 0.261427 0.500000
O O10 0.702914 0.200708 0.237652
O O11 0.592197 0.261995 0.229408
O O12 0.757364 0.149792 0.500000
O O13 0.827702 0.165820 0.779554
O O14 0.716418 0.093255 0.774686
O O15 0.392451 0.306188 0.500000
O O16 0.455128 0.277630 0.221039
O O17 0.482873 0.758915 0.500000
O O18 0.350613 0.926328 0.500000
O O19 0.345874 0.006785 0.720175
O O20 0.650747 0.936709 0.000000
#
# Coordination Sequence:
#
# PCOD9424977 Si02
#       8
#     8   8   8   8   8   8   8   8
#     4  10  20  32  43  62  91 121 154 192 228 263
#     4  10  18  30  47  68  92 121 157 188 217 265
#     4   9  16  29  49  69  91 116 147 185 227 275
#     4   8  14  26  44  67  89 113 145 184 223 261
#     4   9  16  28  50  71  91 118 147 182 228 278
#     4   9  15  26  48  75  95 116 147 182 223 276
#     4  10  19  31  47  65  89 121 158 193 221 262
#     4  11  23  34  43  60  91 126 160 195 226 260
#
# _framework density 17.702721
#
# number of rings (size 3 to 8) (size 9 to 14) (size 15 to 20)
#    0.000    2.500    2.500    1.875    0.000    3.500 
#    0.000    3.750    0.000    0.000    0.000    0.875 
#    0.000    7.000    0.000    0.000    0.000    0.000 
#
# Total GULP energy -356859.201637 kJ/mol
# GULP energy per Si atom -5575.925026 kJ/mol
# Density = 1.766243 g / cm^3
# Si number density = 17.702721 Si / 1000 Ang^3
#
#
#
# Elastic Constant Matrix: (Units=GPa)
#
#
# Indices 1 2 3 4 5 6 
#
# 1 73.2981 10.5207 -6.5603 0.0000 0.0000 0.0000
# 2 10.5207 49.6380 -7.1306 0.0000 0.0000 0.0000
# 3 -6.5603 -7.1306 30.6242 0.0000 0.0000 0.0000
# 4 0.0000 0.0000 0.0000 -977.5986 0.0000 0.0000
# 5 0.0000 0.0000 0.0000 0.0000 91.8700 0.0000
# 6 0.0000 0.0000 0.0000 0.0000 0.0000 20.6087
#
#
#
# Elastic Compliance Matrix: (Units=1/GPa)
#
#
# Indices 1 2 3 4 5 6 
#
# 1 0.014244 -0.002670 0.002430 0.000000 0.000000 0.000000
# 2 -0.002670 0.021343 0.004398 0.000000 0.000000 0.000000
# 3 0.002430 0.004398 0.034198 0.000000 0.000000 0.000000
# 4 0.000000 0.000000 0.000000 -0.001023 0.000000 0.000000
# 5 0.000000 0.000000 0.000000 0.000000 0.010885 0.000000
# 6 0.000000 0.000000 0.000000 0.000000 0.000000 0.048523
#
#
# Mechanical properties :
#
#
# Convention : Reuss Voigt Hill
#
# Bulk Modulus (GPa) = 12.80404 16.35775 14.58089
# Shear Modulus (GPa) = 34.27258 -162.57528 -64.15135
#
# Velocity S-wave (km/s) = 4.40478 -9.59352 -6.02634
# Velocity P-wave (km/s) = 5.75482 10.65148 6.33782
#
# Compressibility (1/GPa) = 0.07810036
#
# Stress axis : x y z
#
# Youngs Moduli (GPa) = 70.20701 46.85275 29.24114
#
# Poissons Ratio (x) = 0.12509 -0.07104
# Poissons Ratio (y) = 0.18744 -0.12860
# Poissons Ratio (z) = -0.17057 -0.20605
#
# Static dielectric constant tensor:
#      x y z
#    x 1.626880 0.000000 0.000000 
#    y 0.000000 1.587490 0.000000 
#    z 0.000000 0.000000 1.657680 
# 
# From -- ./inp_files/9120.got.cif
#   From: 2010.05.17/outbox.cif.g08.bks.cpg/sg55_5_cif.got.tgz:9120.got - 2010.06.03 13:27:54.
