data_PCOD9424114
_publ_section_title
;
Structure prediction by ZEFSAII (Michael W. Deem and Ramdas Pophale) SiO2 
 PCOD9424114
Probable space group: P C C A
;
_chemical_formula_sum "Si O2"
_cell_formula_units_Z 56
_cell_length_a 21.431371
_cell_length_b 13.919209
_cell_length_c 9.097259
_cell_angle_alpha 90.000000
_cell_angle_beta 90.000000
_cell_angle_gamma 90.000000
_cell_volume 2713.782701
_symmetry_space_group_name_H-M "P C C A"
_symmetry_group_IT_number 54
_symmetry_cell_setting 'orthorhombic'
loop_
_space_group_symop_operation_xyz
x,y,z
1/2-x,-y,z
1/2+x,-y,1/2-z
-x,y,1/2-z
-x,-y,-z
1/2+x,y,-z
1/2-x,y,1/2+z
x,-y,1/2+z
loop_
_atom_site_type_symbol
_atom_site_label
_atom_site_fract_x
_atom_site_fract_y
_atom_site_fract_z
Si Si1 0.362458 0.526051 0.752579
Si Si2 0.828667 0.327189 0.325064
Si Si3 0.198202 0.893975 0.246247
Si Si4 0.830939 0.074831 0.094402
Si Si5 0.217115 0.698889 0.364777
Si Si6 0.436841 0.773195 0.320907
Si Si7 0.555230 0.579078 0.004765
O O1 0.332570 0.441286 0.655889
O O2 0.312884 0.599502 0.814698
O O3 0.413127 0.580777 0.654325
O O4 0.396325 0.467890 0.881060
O O5 0.789232 0.306681 0.178845
O O6 0.792718 0.284447 0.463508
O O7 0.896098 0.281087 0.304625
O O8 0.270262 0.899916 0.304106
O O9 0.182917 0.783541 0.276875
O O10 0.158445 0.966071 0.348856
O O11 0.189711 0.920289 0.075785
O O12 0.889755 0.145175 0.118731
O O13 0.500000 0.813034 0.250000
O O14 0.455718 0.686784 0.433747
O O15 0.500000 0.500000 0.000000
#
# Coordination Sequence:
#
# PCOD9424114 Si02
#       7
#     8   8   8   8   8   8   8
#     4  11  23  38  61  94 136 173 221 280 333 408
#     4  11  25  40  64  99 134 181 216 285 349 411
#     4  11  23  40  72 102 136 177 220 289 345 424
#     4  11  23  43  69 106 134 179 229 284 355 409
#     4  12  24  39  66  98 136 172 225 277 356 413
#     4  11  25  44  70  93 135 180 235 287 345 410
#     4  11  22  42  62  92 130 187 234 268 334 414
#
# _framework density 20.635401999999999
#
# number of rings (size 3 to 8) (size 9 to 14) (size 15 to 20)
#    0.000    0.857    2.857    6.000    6.000    1.143 
#    0.000    0.714    0.000    0.000    0.000    0.000 
#    0.000    0.000    0.000    0.000    0.000    0.000 
#
# Total GULP energy -312721.515805 kJ/mol
# GULP energy per Si atom -5584.312782 kJ/mol
# Density = 2.058844 g / cm^3
# Si number density = 20.635402 Si / 1000 Ang^3
#
#
#
# Elastic Constant Matrix: (Units=GPa)
#
#
# Indices 1 2 3 4 5 6 
#
# 1 89.9510 37.9754 28.8024 0.0000 0.0000 0.0000
# 2 37.9754 105.7949 24.1854 0.0000 0.0000 0.0000
# 3 28.8024 24.1854 98.7736 0.0000 0.0000 0.0000
# 4 0.0000 0.0000 0.0000 24.3144 0.0000 0.0000
# 5 0.0000 0.0000 0.0000 0.0000 21.0668 0.0000
# 6 0.0000 0.0000 0.0000 0.0000 0.0000 36.5839
#
#
#
# Elastic Compliance Matrix: (Units=1/GPa)
#
#
# Indices 1 2 3 4 5 6 
#
# 1 0.013893 -0.004302 -0.002998 0.000000 0.000000 0.000000
# 2 -0.004302 0.011345 -0.001523 0.000000 0.000000 0.000000
# 3 -0.002998 -0.001523 0.011371 0.000000 0.000000 0.000000
# 4 0.000000 0.000000 0.000000 0.041128 0.000000 0.000000
# 5 0.000000 0.000000 0.000000 0.000000 0.047468 0.000000
# 6 0.000000 0.000000 0.000000 0.000000 0.000000 0.027334
#
#
# Mechanical properties :
#
#
# Convention : Reuss Voigt Hill
#
# Bulk Modulus (GPa) = 52.73408 52.93844 52.83626
# Shear Modulus (GPa) = 28.32755 29.96344 29.14549
#
# Velocity S-wave (km/s) = 3.70910 3.81470 3.76227
# Velocity P-wave (km/s) = 6.62977 6.71658 6.67332
#
# Compressibility (1/GPa) = 0.01896307
#
# Stress axis : x y z
#
# Youngs Moduli (GPa) = 71.97780 88.14757 87.93990
#
# Poissons Ratio (x) = 0.37918 0.26364
# Poissons Ratio (y) = 0.30962 0.13397
# Poissons Ratio (z) = 0.21579 0.13429
#
# Static dielectric constant tensor:
#      x y z
#    x 1.739030 0.000000 0.000000 
#    y 0.000000 1.867840 0.000000 
#    z 0.000000 0.000000 1.759380 
# 
# From -- ./inp_files/4788.got.cif
#   From: 2010.05.17/outbox.cif.g08.bks.cpg/sg54_3_cif.got.tgz:4788.got - 2010.06.03 13:09:01.
