data_PCOD9424540
_publ_section_title
;
Structure prediction by ZEFSAII (Michael W. Deem and Ramdas Pophale) SiO2 
 PCOD9424540
Probable space group: P C C A
;
_chemical_formula_sum "Si O2"
_cell_formula_units_Z 40
_cell_length_a 21.680249
_cell_length_b 9.488731
_cell_length_c 8.410924
_cell_angle_alpha 90.000000
_cell_angle_beta 90.000000
_cell_angle_gamma 90.000000
_cell_volume 1730.278890
_symmetry_space_group_name_H-M "P C C A"
_symmetry_group_IT_number 54
_symmetry_cell_setting 'orthorhombic'
loop_
_space_group_symop_operation_xyz
x,y,z
1/2-x,-y,z
1/2+x,-y,1/2-z
-x,y,1/2-z
-x,-y,-z
1/2+x,y,-z
1/2-x,y,1/2+z
x,-y,1/2+z
loop_
_atom_site_type_symbol
_atom_site_label
_atom_site_fract_x
_atom_site_fract_y
_atom_site_fract_z
Si Si1 0.997664 0.161604 0.558661
Si Si2 0.679333 0.453452 0.717517
Si Si3 0.680410 0.049442 0.223537
Si Si4 0.369796 0.200628 0.962929
Si Si5 0.866322 0.703058 0.031147
O O1 0.934837 0.237701 0.508892
O O2 0.000000 0.162512 0.750000
O O3 0.058585 0.234213 0.487990
O O4 0.000000 0.000000 0.500000
O O5 0.750000 0.500000 0.725670
O O6 0.669222 0.337428 0.580268
O O7 0.638565 0.589137 0.673129
O O8 0.658641 0.376266 0.877355
O O9 0.654690 0.124930 0.379081
O O10 0.675222 0.163980 0.082542
O O11 0.750000 0.000000 0.244139
O O12 0.639410 0.915282 0.175418
#
# Coordination Sequence:
#
# PCOD9424540 Si02
#       5
#     8   8   8   8   8
#     4  12  26  50  81 114 156 197 263 325 387 467
#     4  12  29  52  76 111 159 205 257 321 393 470
#     4  12  25  45  76 114 150 202 263 319 385 466
#     4  12  25  48  78 112 156 203 257 323 390 457
#     4  12  27  50  79 110 155 207 256 324 392 464
#
# _framework density 23.117660999999998
#
# number of rings (size 3 to 8) (size 9 to 14) (size 15 to 20)
#    0.000    0.000    4.000    4.800    2.800    4.000 
#    0.000    2.000    0.000    0.000    0.000    0.000 
#    0.000    0.000    0.000    0.000    0.000    0.000 
#
# Total GULP energy -224518.831449 kJ/mol
# GULP energy per Si atom -5612.970786 kJ/mol
# Density = 2.306504 g / cm^3
# Si number density = 23.117661 Si / 1000 Ang^3
#
#
#
# Elastic Constant Matrix: (Units=GPa)
#
#
# Indices 1 2 3 4 5 6 
#
# 1 205.0947 76.4569 61.5365 0.0000 0.0000 0.0000
# 2 76.4569 146.9994 40.7811 0.0000 0.0000 0.0000
# 3 61.5365 40.7811 84.1364 0.0000 0.0000 0.0000
# 4 0.0000 0.0000 0.0000 56.9910 0.0000 0.0000
# 5 0.0000 0.0000 0.0000 0.0000 31.8158 0.0000
# 6 0.0000 0.0000 0.0000 0.0000 0.0000 54.1806
#
#
#
# Elastic Compliance Matrix: (Units=1/GPa)
#
#
# Indices 1 2 3 4 5 6 
#
# 1 0.006993 -0.002563 -0.003872 0.000000 0.000000 0.000000
# 2 -0.002563 0.008799 -0.002390 0.000000 0.000000 0.000000
# 3 -0.003872 -0.002390 0.015876 0.000000 0.000000 0.000000
# 4 0.000000 0.000000 0.000000 0.017547 0.000000 0.000000
# 5 0.000000 0.000000 0.000000 0.000000 0.031431 0.000000
# 6 0.000000 0.000000 0.000000 0.000000 0.000000 0.018457
#
#
# Mechanical properties :
#
#
# Convention : Reuss Voigt Hill
#
# Bulk Modulus (GPa) = 71.34234 88.19771 79.77002
# Shear Modulus (GPa) = 41.17720 45.76120 43.46920
#
# Velocity S-wave (km/s) = 4.22501 4.45397 4.34100
# Velocity P-wave (km/s) = 7.39787 8.04270 7.72701
#
# Compressibility (1/GPa) = 0.01401692
#
# Stress axis : x y z
#
# Youngs Moduli (GPa) = 142.99795 113.65037 62.98693
#
# Poissons Ratio (x) = 0.29128 0.24391
# Poissons Ratio (y) = 0.36649 0.15056
# Poissons Ratio (z) = 0.55375 0.27166
#
# Static dielectric constant tensor:
#      x y z
#    x 1.807260 0.000000 0.000000 
#    y 0.000000 1.856180 0.000000 
#    z 0.000000 0.000000 1.945830 
# 
# From -- ./inp_files/5005.got.cif
#   From: 2010.05.17/outbox.cif.g08.bks.cpg/sg54_3_cif.got.tgz:5005.got - 2010.06.03 13:09:01.
