data_PCOD9424002
_publ_section_title
;
Structure prediction by ZEFSAII (Michael W. Deem and Ramdas Pophale) SiO2 
 PCOD9424002
Probable space group: P C C A
;
_chemical_formula_sum "Si O2"
_cell_formula_units_Z 64
_cell_length_a 21.853334
_cell_length_b 14.068142
_cell_length_c 9.176166
_cell_angle_alpha 90.000000
_cell_angle_beta 90.000000
_cell_angle_gamma 90.000000
_cell_volume 2821.081989
_symmetry_space_group_name_H-M "P C C A"
_symmetry_group_IT_number 54
_symmetry_cell_setting 'orthorhombic'
loop_
_space_group_symop_operation_xyz
x,y,z
1/2-x,-y,z
1/2+x,-y,1/2-z
-x,y,1/2-z
-x,-y,-z
1/2+x,y,-z
1/2-x,y,1/2+z
x,-y,1/2+z
loop_
_atom_site_type_symbol
_atom_site_label
_atom_site_fract_x
_atom_site_fract_y
_atom_site_fract_z
Si Si1 0.376947 0.017884 0.689399
Si Si2 0.240914 0.689902 0.343876
Si Si3 0.147780 0.186908 0.685275
Si Si4 0.458657 0.272310 0.381330
Si Si5 0.452921 0.069148 0.428122
Si Si6 0.565444 0.619968 0.323877
Si Si7 0.697185 0.572300 0.394174
Si Si8 0.867481 0.786943 0.635214
O O1 0.392453 0.055500 0.528743
O O2 0.366196 0.112268 0.783096
O O3 0.333637 0.924913 0.689231
O O4 0.434358 0.965774 0.768440
O O5 0.204785 0.746848 0.220010
O O6 0.273888 0.605672 0.257530
O O7 0.200463 0.653062 0.479285
O O8 0.297607 0.754682 0.387268
O O9 0.102266 0.227699 0.808836
O O10 0.113832 0.202744 0.532406
O O11 0.500000 0.310664 0.250000
O O12 0.482178 0.172311 0.443014
O O13 0.450445 0.342365 0.514825
O O14 0.500000 0.000000 0.500000
O O15 0.500000 0.589109 0.250000
O O16 0.625425 0.551597 0.354513
O O17 0.593837 0.707872 0.226378
O O18 0.750000 0.500000 0.447142
#
# Coordination Sequence:
#
# PCOD9424002 Si02
#       8
#     8   8   8   8   8   8   8   8
#     4  11  22  34  54  84 130 190 239 295 343 396
#     4  11  23  43  73 102 128 178 234 293 359 439
#     4  11  22  41  59  91 139 181 249 298 342 413
#     4  11  22  36  60  94 137 189 233 291 351 407
#     4  11  21  33  49  81 125 182 249 284 325 399
#     4  11  24  41  71 108 149 187 232 293 369 433
#     4  11  24  47  78 108 139 176 233 293 363 459
#     4  11  23  41  63  94 141 190 240 295 356 418
#
# _framework density 22.686330000000002
#
# number of rings (size 3 to 8) (size 9 to 14) (size 15 to 20)
#    0.000    1.000    5.000    3.000    1.750    0.500 
#    0.000    1.250    0.000    7.500    0.000    0.000 
#    0.000    0.000    0.000    0.000    0.000    0.000 
#
# Total GULP energy -356491.964427 kJ/mol
# GULP energy per Si atom -5570.186944 kJ/mol
# Density = 2.263469 g / cm^3
# Si number density = 22.686330 Si / 1000 Ang^3
#
#
#
# Elastic Constant Matrix: (Units=GPa)
#
#
# Indices 1 2 3 4 5 6 
#
# 1 110.5605 31.9340 27.7193 0.0000 0.0000 0.0000
# 2 31.9340 31.4875 4.4204 0.0000 0.0000 0.0000
# 3 27.7193 4.4204 102.1738 0.0000 0.0000 0.0000
# 4 0.0000 0.0000 0.0000 8.6077 0.0000 0.0000
# 5 0.0000 0.0000 0.0000 0.0000 31.5295 0.0000
# 6 0.0000 0.0000 0.0000 0.0000 0.0000 19.8809
#
#
#
# Elastic Compliance Matrix: (Units=1/GPa)
#
#
# Indices 1 2 3 4 5 6 
#
# 1 0.013726 -0.013479 -0.003141 0.000000 0.000000 0.000000
# 2 -0.013479 0.045190 0.001702 0.000000 0.000000 0.000000
# 3 -0.003141 0.001702 0.010566 0.000000 0.000000 0.000000
# 4 0.000000 0.000000 0.000000 0.116175 0.000000 0.000000
# 5 0.000000 0.000000 0.000000 0.000000 0.031716 0.000000
# 6 0.000000 0.000000 0.000000 0.000000 0.000000 0.050300
#
#
# Mechanical properties :
#
#
# Convention : Reuss Voigt Hill
#
# Bulk Modulus (GPa) = 25.22367 41.37433 33.29900
# Shear Modulus (GPa) = 16.09149 24.01350 20.05249
#
# Velocity S-wave (km/s) = 2.66616 3.25699 2.97627
# Velocity P-wave (km/s) = 4.54098 5.69396 5.14984
#
# Compressibility (1/GPa) = 0.03964530
#
# Stress axis : x y z
#
# Youngs Moduli (GPa) = 72.85707 22.12874 94.64653
#
# Poissons Ratio (x) = 0.29828 0.29724
# Poissons Ratio (y) = 0.98206 -0.16107
# Poissons Ratio (z) = 0.22881 -0.03766
#
# Static dielectric constant tensor:
#      x y z
#    x -0.498740 0.000000 0.000000 
#    y 0.000000 1.978630 0.000000 
#    z 0.000000 0.000000 1.879830 
# 
# From -- ./inp_files/5295.got.cif
#   From: 2010.05.17/outbox.cif.g08.bks.cpg/sg54_3_cif.got.tgz:5295.got - 2010.06.03 13:09:01.
