data_PCOD9424883
_publ_section_title
;
Structure prediction by ZEFSAII (Michael W. Deem and Ramdas Pophale) SiO2 
 PCOD9424883
Probable space group: P B A M
;
_chemical_formula_sum "Si O2"
_cell_formula_units_Z 64
_cell_length_a 20.083418
_cell_length_b 9.043633
_cell_length_c 18.121121
_cell_angle_alpha 90.000000
_cell_angle_beta 90.000000
_cell_angle_gamma 90.000000
_cell_volume 3291.285963
_symmetry_space_group_name_H-M "P B A M"
_symmetry_group_IT_number 55
_symmetry_cell_setting 'orthorhombic'
loop_
_space_group_symop_operation_xyz
x,y,z
-x,-y,z
1/2+x,1/2-y,-z
1/2-x,1/2+y,-z
-x,-y,-z
x,y,-z
1/2-x,1/2+y,z
1/2+x,1/2-y,z
loop_
_atom_site_type_symbol
_atom_site_label
_atom_site_fract_x
_atom_site_fract_y
_atom_site_fract_z
Si Si1 0.640432 0.200770 0.585207
Si Si2 0.434524 0.087654 0.413720
Si Si3 0.735757 0.461295 0.168656
Si Si4 0.495277 0.672884 0.347222
Si Si5 0.486961 0.329189 0.087968
Si Si6 0.666807 0.730974 0.911659
Si Si7 0.957101 0.647322 0.208251
Si Si8 0.686299 0.191558 0.259337
O O1 0.840875 0.732211 0.500000
O O2 0.568880 0.276485 0.603847
O O3 0.687524 0.235832 0.654508
O O4 0.626109 0.024350 0.592492
O O5 0.446033 0.112347 0.500000
O O6 0.438407 0.244534 0.375438
O O7 0.500000 0.000000 0.384162
O O8 0.794256 0.365851 0.128578
O O9 0.699137 0.573684 0.112797
O O10 0.691577 0.336281 0.207998
O O11 0.760871 0.571427 0.232850
O O12 0.500000 0.500000 0.350892
O O13 0.484964 0.730790 0.264833
O O14 0.500000 0.500000 0.108741
O O15 0.411668 0.278632 0.107772
O O16 0.538441 0.221735 0.128515
O O17 0.493640 0.318963 0.000000
O O18 0.672690 0.748061 0.000000
O O19 0.884178 0.617692 0.239337
O O20 0.000000 0.500000 0.209191
#
# Coordination Sequence:
#
# PCOD9424883 Si02
#       8
#     8   8   8   8   8   8   8   8
#     4   9  18  34  53  73 103 140 180 225 274 330
#     4   8  14  26  44  67  98 135 167 200 253 319
#     4  10  21  37  58  80 108 145 190 234 269 315
#     4  10  18  27  46  75 108 141 175 218 268 323
#     4  10  21  36  54  80 115 148 177 221 283 338
#     4  10  20  36  58  84 113 146 185 228 273 323
#     4  11  21  35  55  80 110 144 181 220 272 339
#     4  10  21  38  57  80 106 143 187 230 276 322
#
# _framework density 19.445285999999999
#
# number of rings (size 3 to 8) (size 9 to 14) (size 15 to 20)
#    0.000    2.250    0.000    5.250    0.000    2.250 
#    0.000    6.250    0.000    0.000    0.000    0.000 
#    0.000    0.000    0.000    0.000    0.000    0.000 
#
# Total GULP energy -356738.013424 kJ/mol
# GULP energy per Si atom -5574.031460 kJ/mol
# Density = 1.940103 g / cm^3
# Si number density = 19.445286 Si / 1000 Ang^3
#
#
#
# Elastic Constant Matrix: (Units=GPa)
#
#
# Indices 1 2 3 4 5 6 
#
# 1 14.0434 -7.9137 12.8487 0.0000 0.0000 0.0000
# 2 -7.9137 85.4677 11.3362 0.0000 0.0000 0.0000
# 3 12.8487 11.3362 81.2179 0.0000 0.0000 0.0000
# 4 0.0000 0.0000 0.0000 13.9279 0.0000 0.0000
# 5 0.0000 0.0000 0.0000 0.0000 18.1747 0.0000
# 6 0.0000 0.0000 0.0000 0.0000 0.0000 17.5951
#
#
#
# Elastic Compliance Matrix: (Units=1/GPa)
#
#
# Indices 1 2 3 4 5 6 
#
# 1 0.091849 0.010629 -0.016014 0.000000 0.000000 0.000000
# 2 0.010629 0.013151 -0.003517 0.000000 0.000000 0.000000
# 3 -0.016014 -0.003517 0.015337 0.000000 0.000000 0.000000
# 4 0.000000 0.000000 0.000000 0.071798 0.000000 0.000000
# 5 0.000000 0.000000 0.000000 0.000000 0.055021 0.000000
# 6 0.000000 0.000000 0.000000 0.000000 0.000000 0.056834
#
#
# Mechanical properties :
#
#
# Convention : Reuss Voigt Hill
#
# Bulk Modulus (GPa) = 9.75304 23.69683 16.72493
# Shear Modulus (GPa) = 14.04599 20.90339 17.47469
#
# Velocity S-wave (km/s) = 2.69054 3.28225 3.00102
# Velocity P-wave (km/s) = 3.83126 5.15530 4.54179
#
# Compressibility (1/GPa) = 0.10253213
#
# Stress axis : x y z
#
# Youngs Moduli (GPa) = 10.88740 76.04002 65.20216
#
# Poissons Ratio (x) = -0.80821 1.04416
# Poissons Ratio (y) = -0.11572 0.22932
# Poissons Ratio (z) = 0.17435 0.26744
#
# Static dielectric constant tensor:
#      x y z
#    x 1.703930 0.000000 0.000000 
#    y 0.000000 1.675610 0.000000 
#    z 0.000000 0.000000 1.704160 
# 
# From -- ./inp_files/21963.got.cif
#   From: 2010.05.17/outbox.cif.g08.bks.cpg/sg55_11_cif.got.tgz:21963.got - 2010.06.03 13:27:54.
