data_PCOD9424548
_publ_section_title
;
Structure prediction by ZEFSAII (Michael W. Deem and Ramdas Pophale) SiO2 
 PCOD9424548
Probable space group: P C C A
;
_chemical_formula_sum "Si O2"
_cell_formula_units_Z 32
_cell_length_a 9.059338
_cell_length_b 13.012000
_cell_length_c 10.290855
_cell_angle_alpha 90.000000
_cell_angle_beta 90.000000
_cell_angle_gamma 90.000000
_cell_volume 1213.087079
_symmetry_space_group_name_H-M "P C C A"
_symmetry_group_IT_number 54
_symmetry_cell_setting 'orthorhombic'
loop_
_space_group_symop_operation_xyz
x,y,z
1/2-x,-y,z
1/2+x,-y,1/2-z
-x,y,1/2-z
-x,-y,-z
1/2+x,y,-z
1/2-x,y,1/2+z
x,-y,1/2+z
loop_
_atom_site_type_symbol
_atom_site_label
_atom_site_fract_x
_atom_site_fract_y
_atom_site_fract_z
Si Si1 0.992776 0.737628 0.989203
Si Si2 0.658989 0.230606 0.743960
Si Si3 0.915580 0.541650 0.123771
Si Si4 0.620134 0.077872 0.347431
O O1 0.854112 0.721529 0.888296
O O2 0.041067 0.850689 0.042811
O O3 0.000000 0.500000 0.000000
O O4 0.952269 0.663275 0.107206
O O5 0.500000 0.173997 0.750000
O O6 0.627753 0.290738 0.610836
O O7 0.793373 0.155930 0.751580
O O8 0.750000 0.500000 0.128245
O O9 0.000000 0.503605 0.250000
O O10 0.500000 0.032037 0.250000
O O11 0.750000 0.000000 0.395595
#
# Coordination Sequence:
#
# PCOD9424548 Si02
#       4
#     8   8   8   8
#     4   9  25  48  79 104 160 206 257 329 413 467
#     4   8  23  46  75 110 148 206 261 319 397 486
#     4  12  29  51  83 124 162 214 278 351 420 508
#     4  12  26  44  75 113 156 206 264 323 394 480
#
# _framework density 26.378978
#
# number of rings (size 3 to 8) (size 9 to 14) (size 15 to 20)
#    1.500    0.000    0.000    2.250   10.500    4.000 
#    0.000    0.000    0.000    0.000    0.000    0.000 
#    0.000    0.000    0.000    0.000    0.000    0.000 
#
# Total GULP energy -178179.481965 kJ/mol
# GULP energy per Si atom -5568.108811 kJ/mol
# Density = 2.631894 g / cm^3
# Si number density = 26.378978 Si / 1000 Ang^3
#
#
#
# Elastic Constant Matrix: (Units=GPa)
#
#
# Indices 1 2 3 4 5 6 
#
# 1 132.8811 38.8092 86.8447 0.0000 0.0000 0.0000
# 2 38.8092 116.8245 45.2572 0.0000 0.0000 0.0000
# 3 86.8447 45.2572 184.1518 0.0000 0.0000 0.0000
# 4 0.0000 0.0000 0.0000 11.8409 0.0000 0.0000
# 5 0.0000 0.0000 0.0000 0.0000 46.0591 0.0000
# 6 0.0000 0.0000 0.0000 0.0000 0.0000 39.5031
#
#
#
# Elastic Compliance Matrix: (Units=1/GPa)
#
#
# Indices 1 2 3 4 5 6 
#
# 1 0.011231 -0.001856 -0.004840 0.000000 0.000000 0.000000
# 2 -0.001856 0.009767 -0.001525 0.000000 0.000000 0.000000
# 3 -0.004840 -0.001525 0.008088 0.000000 0.000000 0.000000
# 4 0.000000 0.000000 0.000000 0.084453 0.000000 0.000000
# 5 0.000000 0.000000 0.000000 0.000000 0.021711 0.000000
# 6 0.000000 0.000000 0.000000 0.000000 0.000000 0.025314
#
#
# Mechanical properties :
#
#
# Convention : Reuss Voigt Hill
#
# Bulk Modulus (GPa) = 79.09365 86.18662 82.64013
# Shear Modulus (GPa) = 27.59044 37.01036 32.30040
#
# Velocity S-wave (km/s) = 3.23759 3.74976 3.50305
# Velocity P-wave (km/s) = 6.63511 7.17572 6.91070
#
# Compressibility (1/GPa) = 0.01264324
#
# Stress axis : x y z
#
# Youngs Moduli (GPa) = 89.03957 102.38344 123.64274
#
# Poissons Ratio (x) = 0.19000 0.59848
# Poissons Ratio (y) = 0.16524 0.18858
# Poissons Ratio (z) = 0.43098 0.15616
#
# Static dielectric constant tensor:
#      x y z
#    x 2.140730 0.000000 0.000000 
#    y 0.000000 2.286270 0.000000 
#    z 0.000000 0.000000 2.312020 
# 
# From -- ./inp_files/11308.got.cif
#   From: 2010.05.17/outbox.cif.g08.bks.cpg/sg54_6_cif.got.tgz:11308.got - 2010.06.03 13:09:01.
