data_PCOD9424213
_publ_section_title
;
Structure prediction by ZEFSAII (Michael W. Deem and Ramdas Pophale) SiO2 
 PCOD9424213
Probable space group: P C C A
;
_chemical_formula_sum "Si O2"
_cell_formula_units_Z 64
_cell_length_a 8.496752
_cell_length_b 11.312273
_cell_length_c 29.087771
_cell_angle_alpha 90.000000
_cell_angle_beta 90.000000
_cell_angle_gamma 90.000000
_cell_volume 2795.846105
_symmetry_space_group_name_H-M "P C C A"
_symmetry_group_IT_number 54
_symmetry_cell_setting 'orthorhombic'
loop_
_space_group_symop_operation_xyz
x,y,z
1/2-x,-y,z
1/2+x,-y,1/2-z
-x,y,1/2-z
-x,-y,-z
1/2+x,y,-z
1/2-x,y,1/2+z
x,-y,1/2+z
loop_
_atom_site_type_symbol
_atom_site_label
_atom_site_fract_x
_atom_site_fract_y
_atom_site_fract_z
Si Si1 0.440900 0.503932 0.664347
Si Si2 0.151174 0.793938 0.879745
Si Si3 0.381918 0.714335 0.285114
Si Si4 0.129364 0.585349 0.422817
Si Si5 0.105155 0.236054 0.542232
Si Si6 0.710446 0.120100 0.030901
Si Si7 0.121728 0.266329 0.716466
Si Si8 0.281479 0.141668 0.630246
O O1 0.250000 0.500000 0.658577
O O2 0.521956 0.393778 0.691018
O O3 0.531987 0.515983 0.616355
O O4 0.465683 0.627002 0.690742
O O5 0.188389 0.795193 0.825496
O O6 0.256119 0.681631 0.897698
O O7 0.205464 0.881951 0.919746
O O8 0.961705 0.813742 0.876872
O O9 0.500000 0.779355 0.250000
O O10 0.246490 0.673089 0.250872
O O11 0.250000 0.500000 0.448061
O O12 0.998214 0.647205 0.453384
O O13 0.220960 0.226167 0.499611
O O14 0.189465 0.209298 0.589911
O O15 0.973110 0.135796 0.535992
O O16 0.750000 0.000000 0.005151
O O17 0.210409 0.187908 0.678578
O O18 0.000000 0.200282 0.750000
O O19 0.250000 0.000000 0.626653
#
# Coordination Sequence:
#
# PCOD9424213 Si02
#       8
#     8   8   8   8   8   8   8   8
#     4  12  23  40  69 103 140 185 235 292 350 416
#     4  11  24  44  68  98 142 181 232 296 350 424
#     4  12  23  42  65 101 139 185 236 287 352 424
#     4  11  24  41  70 104 146 184 222 286 363 438
#     4  11  24  44  72 105 138 176 236 297 361 436
#     4  11  23  44  74 106 131 181 240 302 361 419
#     4  12  27  42  64 101 136 184 243 291 349 420
#     4  12  25  47  70  99 140 189 239 302 362 415
#
# _framework density 22.891102
#
# number of rings (size 3 to 8) (size 9 to 14) (size 15 to 20)
#    0.000    0.500    5.000    3.375    1.750    1.000 
#    2.250    2.500    0.000    0.000    0.000    0.000 
#    0.000    0.000    0.000    0.000    0.000    0.000 
#
# Total GULP energy -357106.387258 kJ/mol
# GULP energy per Si atom -5579.787301 kJ/mol
# Density = 2.283900 g / cm^3
# Si number density = 22.891102 Si / 1000 Ang^3
#
#
#
# Elastic Constant Matrix: (Units=GPa)
#
#
# Indices 1 2 3 4 5 6 
#
# 1 70.8846 10.9316 33.3925 0.0000 0.0000 0.0000
# 2 10.9316 51.1260 32.8303 0.0000 0.0000 0.0000
# 3 33.3925 32.8303 90.8630 0.0000 0.0000 0.0000
# 4 0.0000 0.0000 0.0000 7.5819 0.0000 0.0000
# 5 0.0000 0.0000 0.0000 0.0000 33.5099 0.0000
# 6 0.0000 0.0000 0.0000 0.0000 0.0000 26.8078
#
#
#
# Elastic Compliance Matrix: (Units=1/GPa)
#
#
# Indices 1 2 3 4 5 6 
#
# 1 0.017071 0.000493 -0.006452 0.000000 0.000000 0.000000
# 2 0.000493 0.025483 -0.009389 0.000000 0.000000 0.000000
# 3 -0.006452 -0.009389 0.016769 0.000000 0.000000 0.000000
# 4 0.000000 0.000000 0.000000 0.131894 0.000000 0.000000
# 5 0.000000 0.000000 0.000000 0.000000 0.029842 0.000000
# 6 0.000000 0.000000 0.000000 0.000000 0.000000 0.037303
#
#
# Mechanical properties :
#
#
# Convention : Reuss Voigt Hill
#
# Bulk Modulus (GPa) = 34.93101 40.79804 37.86452
# Shear Modulus (GPa) = 16.74494 22.62786 19.68640
#
# Velocity S-wave (km/s) = 2.70757 3.14745 2.93576
# Velocity P-wave (km/s) = 5.00673 5.57404 5.29799
#
# Compressibility (1/GPa) = 0.02862786
#
# Stress axis : x y z
#
# Youngs Moduli (GPa) = 58.58001 39.24194 59.63456
#
# Poissons Ratio (x) = -0.01934 0.38474
# Poissons Ratio (y) = -0.02887 0.55988
# Poissons Ratio (z) = 0.37794 0.36842
#
# Static dielectric constant tensor:
#      x y z
#    x 1.875010 0.000000 0.000000 
#    y 0.000000 1.937520 0.000000 
#    z 0.000000 0.000000 1.837600 
# 
# From -- ./inp_files/27935.got.cif
#   From: 2010.05.17/outbox.cif.g08.bks.cpg/sg54_14_cif.got.tgz:27935.got - 2010.06.03 13:09:01.
