data_PCOD9424286
_publ_section_title
;
Structure prediction by ZEFSAII (Michael W. Deem and Ramdas Pophale) SiO2 
 PCOD9424286
Probable space group: P C C A
;
_chemical_formula_sum "Si O2"
_cell_formula_units_Z 40
_cell_length_a 10.518679
_cell_length_b 10.666880
_cell_length_c 15.513731
_cell_angle_alpha 90.000000
_cell_angle_beta 90.000000
_cell_angle_gamma 90.000000
_cell_volume 1740.663682
_symmetry_space_group_name_H-M "P C C A"
_symmetry_group_IT_number 54
_symmetry_cell_setting 'orthorhombic'
loop_
_space_group_symop_operation_xyz
x,y,z
1/2-x,-y,z
1/2+x,-y,1/2-z
-x,y,1/2-z
-x,-y,-z
1/2+x,y,-z
1/2-x,y,1/2+z
x,-y,1/2+z
loop_
_atom_site_type_symbol
_atom_site_label
_atom_site_fract_x
_atom_site_fract_y
_atom_site_fract_z
Si Si1 0.067696 0.607808 0.333538
Si Si2 0.353617 0.325216 0.832051
Si Si3 0.935796 0.263215 0.980607
Si Si4 0.177494 0.117766 0.020743
Si Si5 0.130392 0.921170 0.719548
O O1 0.102337 0.464886 0.309353
O O2 0.204040 0.668141 0.353565
O O3 0.000000 0.665940 0.250000
O O4 0.976432 0.626273 0.415738
O O5 0.633723 0.218275 0.739727
O O6 0.431637 0.295072 0.918391
O O7 0.792851 0.215864 0.963427
O O8 0.051345 0.163555 0.972063
O O9 0.133618 0.080510 0.116519
O O10 0.250000 0.000000 0.978151
O O11 0.000000 0.981799 0.750000
O O12 0.250000 0.000000 0.750717
#
# Coordination Sequence:
#
# PCOD9424286 Si02
#       5
#     8   8   8   8   8
#     4  11  25  45  70 102 139 190 244 291 358 418
#     4  11  24  45  69 105 139 185 238 296 349 420
#     4  12  23  46  71 100 146 183 239 292 353 429
#     4  11  25  43  70 106 142 189 235 287 360 425
#     4  11  24  44  70 105 143 186 230 287 357 427
#
# _framework density 22.97974
#
# number of rings (size 3 to 8) (size 9 to 14) (size 15 to 20)
#    0.000    0.800    4.000    3.000    0.000    4.800 
#    0.000    0.000    0.000    0.000    0.000    0.000 
#    0.000    0.000    0.000    0.000    0.000    0.000 
#
# Total GULP energy -223561.557046 kJ/mol
# GULP energy per Si atom -5589.038926 kJ/mol
# Density = 2.292744 g / cm^3
# Si number density = 22.979740 Si / 1000 Ang^3
#
#
#
# Elastic Constant Matrix: (Units=GPa)
#
#
# Indices 1 2 3 4 5 6 
#
# 1 150.2005 20.5539 10.5780 0.0000 0.0000 0.0000
# 2 20.5539 56.8411 0.3466 0.0000 0.0000 0.0000
# 3 10.5780 0.3466 55.3009 0.0000 0.0000 0.0000
# 4 0.0000 0.0000 0.0000 83.0124 0.0000 0.0000
# 5 0.0000 0.0000 0.0000 0.0000 30.8324 0.0000
# 6 0.0000 0.0000 0.0000 0.0000 0.0000 19.0563
#
#
#
# Elastic Compliance Matrix: (Units=1/GPa)
#
#
# Indices 1 2 3 4 5 6 
#
# 1 0.007103 -0.002560 -0.001343 0.000000 0.000000 0.000000
# 2 -0.002560 0.018516 0.000374 0.000000 0.000000 0.000000
# 3 -0.001343 0.000374 0.018337 0.000000 0.000000 0.000000
# 4 0.000000 0.000000 0.000000 0.012046 0.000000 0.000000
# 5 0.000000 0.000000 0.000000 0.000000 0.032433 0.000000
# 6 0.000000 0.000000 0.000000 0.000000 0.000000 0.052476
#
#
# Mechanical properties :
#
#
# Convention : Reuss Voigt Hill
#
# Bulk Modulus (GPa) = 27.10151 36.14438 31.62294
# Shear Modulus (GPa) = 31.19738 41.97115 36.58427
#
# Velocity S-wave (km/s) = 3.68856 4.27832 3.99434
# Velocity P-wave (km/s) = 5.47357 6.33785 5.92150
#
# Compressibility (1/GPa) = 0.03689831
#
# Stress axis : x y z
#
# Youngs Moduli (GPa) = 140.79231 54.00622 54.53349
#
# Poissons Ratio (x) = 0.13826 0.07321
# Poissons Ratio (y) = 0.36045 -0.02038
# Poissons Ratio (z) = 0.18902 -0.02018
#
# Static dielectric constant tensor:
#      x y z
#    x 1.871320 0.000000 0.000000 
#    y 0.000000 1.911060 0.000000 
#    z 0.000000 0.000000 1.830610 
# 
# From -- ./inp_files/16314.got.cif
#   From: 2010.05.17/outbox.cif.g08.bks.cpg/sg54_9_cif.got.tgz:16314.got - 2010.06.03 13:09:01.
