data_PCOD9424929
_publ_section_title
;
Structure prediction by ZEFSAII (Michael W. Deem and Ramdas Pophale) SiO2 
 PCOD9424929
Probable space group: P B A M
;
_chemical_formula_sum "Si O2"
_cell_formula_units_Z 56
_cell_length_a 5.025901
_cell_length_b 27.717735
_cell_length_c 23.629618
_cell_angle_alpha 90.000000
_cell_angle_beta 90.000000
_cell_angle_gamma 90.000000
_cell_volume 3291.761555
_symmetry_space_group_name_H-M "P B A M"
_symmetry_group_IT_number 55
_symmetry_cell_setting 'orthorhombic'
loop_
_space_group_symop_operation_xyz
x,y,z
-x,-y,z
1/2+x,1/2-y,-z
1/2-x,1/2+y,-z
-x,-y,-z
x,y,-z
1/2-x,1/2+y,z
1/2+x,1/2-y,z
loop_
_atom_site_type_symbol
_atom_site_label
_atom_site_fract_x
_atom_site_fract_y
_atom_site_fract_z
Si Si1 0.321433 0.047310 0.434745
Si Si2 0.218583 0.361201 0.439061
Si Si3 0.554561 0.781663 0.618130
Si Si4 0.513633 0.138686 0.714358
Si Si5 0.637238 0.217379 0.061202
Si Si6 0.443708 0.786175 0.813073
Si Si7 0.007226 0.096934 0.658470
O O1 0.214071 0.045663 0.500000
O O2 0.523128 0.092896 0.431356
O O3 0.110717 0.054549 0.383602
O O4 0.500000 0.000000 0.426826
O O5 0.035453 0.314517 0.433967
O O6 0.006366 0.316463 0.329298
O O7 0.438806 0.363869 0.390451
O O8 0.151538 0.863850 0.500000
O O9 0.850874 0.762559 0.619605
O O10 0.553742 0.167078 0.772852
O O11 0.237575 0.112143 0.701382
O O12 0.739914 0.100323 0.695796
O O13 0.939622 0.236280 0.061580
O O14 0.574087 0.194989 0.121961
O O15 0.589773 0.192821 0.000000
O O16 0.199204 0.748670 0.804253
#
# Coordination Sequence:
#
# PCOD9424929 Si02
#       7
#     8   8   8   8   8   8   8
#     4  10  21  39  62  81  94 114 149 196 253 312
#     4  10  22  38  54  72  96 118 149 194 239 291
#     4  11  21  33  48  66  89 122 156 186 223 265
#     4  11  21  33  51  67  95 128 160 198 235 272
#     4   8  14  24  39  60  90 124 161 210 254 274
#     4  10  18  29  45  69  94 127 176 214 236 273
#     4  11  20  38  52  73  95 119 144 189 245 292
#
# _framework density 17.012167999999999
#
# number of rings (size 3 to 8) (size 9 to 14) (size 15 to 20)
#    0.000    1.857    2.857    3.857    0.000    1.143 
#    0.000    2.143    0.000    0.000    0.000    0.000 
#    0.000    0.000    0.000    0.000    0.000    4.286 
#
# Total GULP energy -311826.544813 kJ/mol
# GULP energy per Si atom -5568.331157 kJ/mol
# Density = 1.697345 g / cm^3
# Si number density = 17.012168 Si / 1000 Ang^3
#
#
#
# Elastic Constant Matrix: (Units=GPa)
#
#
# Indices 1 2 3 4 5 6 
#
# 1 76.7791 5.4261 3.6061 0.0000 0.0000 0.0000
# 2 5.4261 44.3105 2.7380 0.0000 0.0000 0.0000
# 3 3.6061 2.7380 102.9712 0.0000 0.0000 0.0000
# 4 0.0000 0.0000 0.0000 37.5579 0.0000 0.0000
# 5 0.0000 0.0000 0.0000 0.0000 10.5469 0.0000
# 6 0.0000 0.0000 0.0000 0.0000 0.0000 16.1861
#
#
#
# Elastic Compliance Matrix: (Units=1/GPa)
#
#
# Indices 1 2 3 4 5 6 
#
# 1 0.013156 -0.001585 -0.000419 0.000000 0.000000 0.000000
# 2 -0.001585 0.022796 -0.000551 0.000000 0.000000 0.000000
# 3 -0.000419 -0.000551 0.009741 0.000000 0.000000 0.000000
# 4 0.000000 0.000000 0.000000 0.026626 0.000000 0.000000
# 5 0.000000 0.000000 0.000000 0.000000 0.094815 0.000000
# 6 0.000000 0.000000 0.000000 0.000000 0.000000 0.061781
#
#
# Mechanical properties :
#
#
# Convention : Reuss Voigt Hill
#
# Bulk Modulus (GPa) = 24.64012 27.51122 26.07567
# Shear Modulus (GPa) = 20.19782 27.01090 23.60436
#
# Velocity S-wave (km/s) = 3.44940 3.98897 3.72896
# Velocity P-wave (km/s) = 5.51178 6.11739 5.82246
#
# Compressibility (1/GPa) = 0.04058422
#
# Stress axis : x y z
#
# Youngs Moduli (GPa) = 76.01056 43.86702 102.66146
#
# Poissons Ratio (x) = 0.06954 0.04297
# Poissons Ratio (y) = 0.12049 0.05653
# Poissons Ratio (z) = 0.03182 0.02415
#
# Static dielectric constant tensor:
#      x y z
#    x 1.646210 0.000000 0.000000 
#    y 0.000000 1.578700 0.000000 
#    z 0.000000 0.000000 1.636230 
# 
# From -- ./inp_files/22432.got.cif
#   From: 2010.05.17/outbox.cif.g08.bks.cpg/sg55_12_cif.got.tgz:22432.got - 2010.06.03 13:27:54.
