data_PCOD9424821
_publ_section_title
;
Structure prediction by ZEFSAII (Michael W. Deem and Ramdas Pophale) SiO2 
 PCOD9424821
Probable space group: P B A M
;
_chemical_formula_sum "Si O2"
_cell_formula_units_Z 58
_cell_length_a 15.060796
_cell_length_b 26.206610
_cell_length_c 7.581195
_cell_angle_alpha 90.000000
_cell_angle_beta 90.000000
_cell_angle_gamma 90.000000
_cell_volume 2992.240103
_symmetry_space_group_name_H-M "P B A M"
_symmetry_group_IT_number 55
_symmetry_cell_setting 'orthorhombic'
loop_
_space_group_symop_operation_xyz
x,y,z
-x,-y,z
1/2+x,1/2-y,-z
1/2-x,1/2+y,-z
-x,-y,-z
x,y,-z
1/2-x,1/2+y,z
1/2+x,1/2-y,z
loop_
_atom_site_type_symbol
_atom_site_label
_atom_site_fract_x
_atom_site_fract_y
_atom_site_fract_z
Si Si1 0.353915 0.001953 0.700398
Si Si2 0.232128 0.792869 0.716496
Si Si3 0.500000 0.000000 0.000000
Si Si4 0.771344 0.399685 0.798680
Si Si5 0.464432 0.269089 0.715006
Si Si6 0.346417 0.695648 0.709993
Si Si7 0.350448 0.887632 0.712754
Si Si8 0.040239 0.649939 0.286307
O O1 0.389828 0.999022 0.500000
O O2 0.321292 0.945166 0.750813
O O3 0.281126 0.046431 0.702218
O O4 0.427695 0.015016 0.844344
O O5 0.231999 0.792731 0.500000
O O6 0.283108 0.741561 0.775174
O O7 0.286594 0.842545 0.775546
O O8 0.129951 0.791175 0.774043
O O9 0.698702 0.358655 0.740025
O O10 0.867172 0.372219 0.779009
O O11 0.753923 0.411543 0.000000
O O12 0.463535 0.270757 0.500000
O O13 0.553496 0.297016 0.777587
O O14 0.469311 0.209286 0.762082
O O15 0.351091 0.703153 0.500000
O O16 0.353425 0.882408 0.500000
O O17 0.451762 0.879308 0.776143
O O18 0.043457 0.646703 0.500000
#
# Coordination Sequence:
#
# PCOD9424821 Si02
#       8
#     8   8   2   8   8   8   8   8
#     4  11  23  39  58  83 119 160 197 240 294 346
#     4   9  15  28  53  85 114 142 187 238 282 346
#     4  12  22  40  60  90 120 154 198 248 284 352
#     4  12  24  37  52  77 114 156 198 242 285 340
#     4   9  16  27  52  86 114 142 183 233 283 345
#     4  10  18  32  56  82 109 145 187 231 288 346
#     4   9  18  31  54  82 113 152 191 229 280 344
#     4  10  17  30  53  81 111 146 183 226 282 344
#
# _framework density 19.383472999999999
#
# number of rings (size 3 to 8) (size 9 to 14) (size 15 to 20)
#    0.000    1.931    3.448    2.276    0.000    1.103 
#    0.000    0.690    1.517    0.828    0.000    5.793 
#    0.000    0.000    0.000    0.000    0.000    0.000 
#
# Total GULP energy -323329.187495 kJ/mol
# GULP energy per Si atom -5574.641164 kJ/mol
# Density = 1.933936 g / cm^3
# Si number density = 19.383473 Si / 1000 Ang^3
#
#
#
# Elastic Constant Matrix: (Units=GPa)
#
#
# Indices 1 2 3 4 5 6 
#
# 1 98.3609 31.2800 9.1288 0.0000 0.0000 0.0000
# 2 31.2800 81.9149 5.5992 0.0000 0.0000 0.0000
# 3 9.1288 5.5992 67.2313 0.0000 0.0000 0.0000
# 4 0.0000 0.0000 0.0000 44.3870 0.0000 0.0000
# 5 0.0000 0.0000 0.0000 0.0000 12.7193 0.0000
# 6 0.0000 0.0000 0.0000 0.0000 0.0000 20.2541
#
#
#
# Elastic Compliance Matrix: (Units=1/GPa)
#
#
# Indices 1 2 3 4 5 6 
#
# 1 0.011671 -0.004373 -0.001220 0.000000 0.000000 0.000000
# 2 -0.004373 0.013916 -0.000565 0.000000 0.000000 0.000000
# 3 -0.001220 -0.000565 0.015087 0.000000 0.000000 0.000000
# 4 0.000000 0.000000 0.000000 0.022529 0.000000 0.000000
# 5 0.000000 0.000000 0.000000 0.000000 0.078620 0.000000
# 6 0.000000 0.000000 0.000000 0.000000 0.000000 0.049373
#
#
# Mechanical properties :
#
#
# Convention : Reuss Voigt Hill
#
# Bulk Modulus (GPa) = 35.26564 37.72481 36.49523
# Shear Modulus (GPa) = 23.47795 28.90535 26.19165
#
# Velocity S-wave (km/s) = 3.48406 3.86584 3.67990
# Velocity P-wave (km/s) = 5.86669 6.27941 6.07655
#
# Compressibility (1/GPa) = 0.02835621
#
# Stress axis : x y z
#
# Youngs Moduli (GPa) = 85.68527 71.85793 66.28307
#
# Poissons Ratio (x) = 0.31424 0.08090
# Poissons Ratio (y) = 0.37471 0.03746
# Poissons Ratio (z) = 0.10458 0.04061
#
# Static dielectric constant tensor:
#      x y z
#    x 1.665770 0.000000 0.000000 
#    y 0.000000 1.701740 0.000000 
#    z 0.000000 0.000000 1.751940 
# 
# From -- ./inp_files/6826.got.cif
#   From: 2010.05.17/outbox.cif.g08.bks.cpg/sg55_4_cif.got.tgz:6826.got - 2010.06.03 13:27:54.
