data_PCOD9424115
_publ_section_title
;
Structure prediction by ZEFSAII (Michael W. Deem and Ramdas Pophale) SiO2 
 PCOD9424115
Probable space group: P C C A
;
_chemical_formula_sum "Si O2"
_cell_formula_units_Z 32
_cell_length_a 27.361841
_cell_length_b 5.196977
_cell_length_c 8.445556
_cell_angle_alpha 90.000000
_cell_angle_beta 90.000000
_cell_angle_gamma 90.000000
_cell_volume 1200.948421
_symmetry_space_group_name_H-M "P C C A"
_symmetry_group_IT_number 54
_symmetry_cell_setting 'orthorhombic'
loop_
_space_group_symop_operation_xyz
x,y,z
1/2-x,-y,z
1/2+x,-y,1/2-z
-x,y,1/2-z
-x,-y,-z
1/2+x,y,-z
1/2-x,y,1/2+z
x,-y,1/2+z
loop_
_atom_site_type_symbol
_atom_site_label
_atom_site_fract_x
_atom_site_fract_y
_atom_site_fract_z
Si Si1 0.400063 0.358636 0.358506
Si Si2 0.250000 0.000000 0.432117
Si Si3 0.032472 0.673295 0.619661
Si Si4 0.837518 0.730172 0.423644
Si Si5 0.250000 0.500000 0.721295
O O1 0.428156 0.203705 0.498285
O O2 0.437843 0.485243 0.235258
O O3 0.365519 0.203853 0.238985
O O4 0.371893 0.595494 0.445376
O O5 0.199208 0.045949 0.524111
O O6 0.252737 0.249434 0.325511
O O7 0.000000 0.828591 0.750000
O O8 0.000000 0.500000 0.500000
O O9 0.798997 0.505452 0.379471
#
# Coordination Sequence:
#
# PCOD9424115 Si02
#       5
#     8   4   8   8   4
#     4   9  18  33  62  95 148 195 257 314 371 465
#     4  12  26  46  72  98 142 206 258 314 372 436
#     4   8  14  28  55  99 148 192 241 312 391 461
#     4  11  22  42  63  96 141 206 254 320 370 442
#     4  12  26  46  68 100 140 206 256 314 370 434
#
# _framework density 26.645606999999998
#
# number of rings (size 3 to 8) (size 9 to 14) (size 15 to 20)
#    0.000    2.000    2.500    1.500    0.000    0.000 
#    0.000    0.000    0.000    0.000    0.000    0.000 
#    0.000  372.000    0.000    0.000    0.000  409.500 
#
# Total GULP energy -178951.590560 kJ/mol
# GULP energy per Si atom -5592.237205 kJ/mol
# Density = 2.658496 g / cm^3
# Si number density = 26.645607 Si / 1000 Ang^3
#
#
#
# Elastic Constant Matrix: (Units=GPa)
#
#
# Indices 1 2 3 4 5 6 
#
# 1 132.3455 27.7083 98.7126 0.0000 0.0000 0.0000
# 2 27.7083 124.2918 59.3366 0.0000 0.0000 0.0000
# 3 98.7126 59.3366 201.4276 0.0000 0.0000 0.0000
# 4 0.0000 0.0000 0.0000 51.1285 0.0000 0.0000
# 5 0.0000 0.0000 0.0000 0.0000 119.1432 0.0000
# 6 0.0000 0.0000 0.0000 0.0000 0.0000 12.6328
#
#
#
# Elastic Compliance Matrix: (Units=1/GPa)
#
#
# Indices 1 2 3 4 5 6 
#
# 1 0.011912 0.000153 -0.005882 0.000000 0.000000 0.000000
# 2 0.000153 0.009364 -0.002833 0.000000 0.000000 0.000000
# 3 -0.005882 -0.002833 0.008682 0.000000 0.000000 0.000000
# 4 0.000000 0.000000 0.000000 0.019559 0.000000 0.000000
# 5 0.000000 0.000000 0.000000 0.000000 0.008393 0.000000
# 6 0.000000 0.000000 0.000000 0.000000 0.000000 0.079159
#
#
# Mechanical properties :
#
#
# Convention : Reuss Voigt Hill
#
# Bulk Modulus (GPa) = 77.93212 92.17554 85.05383
# Shear Modulus (GPa) = 31.55139 54.73474 43.14306
#
# Velocity S-wave (km/s) = 3.44483 4.53722 4.02822
# Velocity P-wave (km/s) = 6.71815 7.88142 7.32292
#
# Compressibility (1/GPa) = 0.01283168
#
# Stress axis : x y z
#
# Youngs Moduli (GPa) = 83.95236 106.79011 115.18084
#
# Poissons Ratio (x) = -0.01632 0.67754
# Poissons Ratio (y) = -0.01283 0.32635
# Poissons Ratio (z) = 0.49384 0.30258
#
# Static dielectric constant tensor:
#      x y z
#    x 2.260440 0.000000 0.000000 
#    y 0.000000 2.007640 0.000000 
#    z 0.000000 0.000000 2.152940 
# 
# From -- ./inp_files/5666.got.cif
#   From: 2010.05.17/outbox.cif.g08.bks.cpg/sg54_3_cif.got.tgz:5666.got - 2010.06.03 13:09:01.
