data_PCOD9424366
_publ_section_title
;
Structure prediction by ZEFSAII (Michael W. Deem and Ramdas Pophale) SiO2 
 PCOD9424366
Probable space group: P C C A
;
_chemical_formula_sum "Si O2"
_cell_formula_units_Z 40
_cell_length_a 9.733665
_cell_length_b 7.566243
_cell_length_c 21.609021
_cell_angle_alpha 90.000000
_cell_angle_beta 90.000000
_cell_angle_gamma 90.000000
_cell_volume 1591.445505
_symmetry_space_group_name_H-M "P C C A"
_symmetry_group_IT_number 54
_symmetry_cell_setting 'orthorhombic'
loop_
_space_group_symop_operation_xyz
x,y,z
1/2-x,-y,z
1/2+x,-y,1/2-z
-x,y,1/2-z
-x,-y,-z
1/2+x,y,-z
1/2-x,y,1/2+z
x,-y,1/2+z
loop_
_atom_site_type_symbol
_atom_site_label
_atom_site_fract_x
_atom_site_fract_y
_atom_site_fract_z
Si Si1 0.515062 0.738790 0.824274
Si Si2 0.382177 0.912691 0.380627
Si Si3 0.459864 0.300003 0.515085
Si Si4 0.877540 0.596319 0.704071
Si Si5 0.311958 0.193411 0.071825
O O1 0.500000 0.738521 0.750000
O O2 0.433978 0.558062 0.841783
O O3 0.660348 0.726006 0.860352
O O4 0.459435 0.928695 0.846241
O O5 0.474679 0.792036 0.424552
O O6 0.330153 0.772537 0.329711
O O7 0.250000 0.000000 0.413467
O O8 0.500000 0.500000 0.500000
O O9 0.538034 0.193861 0.460639
O O10 0.297187 0.289265 0.527136
O O11 0.750000 0.500000 0.736386
O O12 0.000000 0.642731 0.750000
O O13 0.250000 0.000000 0.079120
#
# Coordination Sequence:
#
# PCOD9424366 Si02
#       5
#     8   8   8   8   8
#     4  11  26  49  80 116 165 219 281 345 420 508
#     4  12  25  46  78 113 160 219 278 341 424 504
#     4  12  28  48  80 119 163 211 275 344 427 505
#     4  11  25  46  72 111 159 215 280 344 417 498
#     4  12  26  50  79 116 162 211 275 338 421 509
#
# _framework density 25.134381999999999
#
# number of rings (size 3 to 8) (size 9 to 14) (size 15 to 20)
#    0.000    0.400    4.000    3.600    2.800    5.600 
#    0.000    0.000    0.000    0.000    0.000    0.000 
#    0.000    0.000    0.000    0.000    0.000    0.000 
#
# Total GULP energy -223691.435395 kJ/mol
# GULP energy per Si atom -5592.285885 kJ/mol
# Density = 2.507718 g / cm^3
# Si number density = 25.134382 Si / 1000 Ang^3
#
#
#
# Elastic Constant Matrix: (Units=GPa)
#
#
# Indices 1 2 3 4 5 6 
#
# 1 125.4752 43.7707 47.4725 0.0000 0.0000 0.0000
# 2 43.7707 162.1467 34.4079 0.0000 0.0000 0.0000
# 3 47.4725 34.4079 107.0002 0.0000 0.0000 0.0000
# 4 0.0000 0.0000 0.0000 32.8107 0.0000 0.0000
# 5 0.0000 0.0000 0.0000 0.0000 35.3734 0.0000
# 6 0.0000 0.0000 0.0000 0.0000 0.0000 45.0268
#
#
#
# Elastic Compliance Matrix: (Units=1/GPa)
#
#
# Indices 1 2 3 4 5 6 
#
# 1 0.010097 -0.001905 -0.003867 0.000000 0.000000 0.000000
# 2 -0.001905 0.006978 -0.001399 0.000000 0.000000 0.000000
# 3 -0.003867 -0.001399 0.011511 0.000000 0.000000 0.000000
# 4 0.000000 0.000000 0.000000 0.030478 0.000000 0.000000
# 5 0.000000 0.000000 0.000000 0.000000 0.028270 0.000000
# 6 0.000000 0.000000 0.000000 0.000000 0.000000 0.022209
#
#
# Mechanical properties :
#
#
# Convention : Reuss Voigt Hill
#
# Bulk Modulus (GPa) = 70.20099 71.76936 70.98517
# Shear Modulus (GPa) = 38.86985 40.57359 39.72172
#
# Velocity S-wave (km/s) = 3.93680 4.02215 3.97970
# Velocity P-wave (km/s) = 6.97534 7.08424 7.03000
#
# Compressibility (1/GPa) = 0.01424481
#
# Stress axis : x y z
#
# Youngs Moduli (GPa) = 99.03514 143.30023 86.87069
#
# Poissons Ratio (x) = 0.27300 0.33595
# Poissons Ratio (y) = 0.18867 0.12151
# Poissons Ratio (z) = 0.38300 0.20045
#
# Static dielectric constant tensor:
#      x y z
#    x 2.087050 0.000000 0.000000 
#    y 0.000000 1.973120 0.000000 
#    z 0.000000 0.000000 2.047390 
# 
# From -- ./inp_files/23198.got.cif
#   From: 2010.05.17/outbox.cif.g08.bks.cpg/sg54_12_cif.got.tgz:23198.got - 2010.06.03 13:09:01.
