data_PCOD9424407
_publ_section_title
;
Structure prediction by ZEFSAII (Michael W. Deem and Ramdas Pophale) SiO2 
 PCOD9424407
Probable space group: P C C A
;
_chemical_formula_sum "Si O2"
_cell_formula_units_Z 40
_cell_length_a 9.597546
_cell_length_b 19.774830
_cell_length_c 9.277387
_cell_angle_alpha 90.000000
_cell_angle_beta 90.000000
_cell_angle_gamma 90.000000
_cell_volume 1760.753800
_symmetry_space_group_name_H-M "P C C A"
_symmetry_group_IT_number 54
_symmetry_cell_setting 'orthorhombic'
loop_
_space_group_symop_operation_xyz
x,y,z
1/2-x,-y,z
1/2+x,-y,1/2-z
-x,y,1/2-z
-x,-y,-z
1/2+x,y,-z
1/2-x,y,1/2+z
x,-y,1/2+z
loop_
_atom_site_type_symbol
_atom_site_label
_atom_site_fract_x
_atom_site_fract_y
_atom_site_fract_z
Si Si1 0.379941 0.876001 0.363165
Si Si2 0.009271 0.272641 0.415401
Si Si3 0.657336 0.433705 0.192797
Si Si4 0.652022 0.065662 0.320395
Si Si5 0.246448 0.347026 0.056284
O O1 0.500000 0.898851 0.250000
O O2 0.429722 0.802338 0.416159
O O3 0.237961 0.877575 0.269826
O O4 0.362759 0.918921 0.509346
O O5 0.104790 0.325048 0.497803
O O6 0.000000 0.293596 0.250000
O O7 0.851733 0.282022 0.466760
O O8 0.750000 0.500000 0.213108
O O9 0.500000 0.443756 0.250000
O O10 0.725570 0.372661 0.283674
O O11 0.674279 0.408543 0.029215
O O12 0.500000 0.058285 0.250000
O O13 0.750000 0.000000 0.302262
#
# Coordination Sequence:
#
# PCOD9424407 Si02
#       5
#     8   8   8   8   8
#     4  11  27  48  74 114 149 195 248 304 372 439
#     4  11  26  45  73 107 146 185 237 298 355 441
#     4  12  28  45  71 103 139 186 240 296 360 429
#     4  12  27  49  78 108 152 200 251 309 368 436
#     4  12  25  47  71 102 141 187 234 294 361 430
#
# _framework density 22.717542000000002
#
# number of rings (size 3 to 8) (size 9 to 14) (size 15 to 20)
#    0.000    0.400    4.000    3.000   11.200    4.000 
#    0.000    1.000    0.000    0.000    0.000    0.000 
#    0.000    0.000    0.000    0.000    0.000    0.000 
#
# Total GULP energy -223678.227240 kJ/mol
# GULP energy per Si atom -5591.955681 kJ/mol
# Density = 2.266584 g / cm^3
# Si number density = 22.717542 Si / 1000 Ang^3
#
#
#
# Elastic Constant Matrix: (Units=GPa)
#
#
# Indices 1 2 3 4 5 6 
#
# 1 162.8603 35.9647 25.7319 0.0000 0.0000 0.0000
# 2 35.9647 70.7876 -1.7880 0.0000 0.0000 0.0000
# 3 25.7319 -1.7880 95.6186 0.0000 0.0000 0.0000
# 4 0.0000 0.0000 0.0000 21.5548 0.0000 0.0000
# 5 0.0000 0.0000 0.0000 0.0000 31.2910 0.0000
# 6 0.0000 0.0000 0.0000 0.0000 0.0000 27.7469
#
#
#
# Elastic Compliance Matrix: (Units=1/GPa)
#
#
# Indices 1 2 3 4 5 6 
#
# 1 0.007291 -0.003755 -0.002032 0.000000 0.000000 0.000000
# 2 -0.003755 0.016068 0.001311 0.000000 0.000000 0.000000
# 3 -0.002032 0.001311 0.011030 0.000000 0.000000 0.000000
# 4 0.000000 0.000000 0.000000 0.046393 0.000000 0.000000
# 5 0.000000 0.000000 0.000000 0.000000 0.031958 0.000000
# 6 0.000000 0.000000 0.000000 0.000000 0.000000 0.036040
#
#
# Mechanical properties :
#
#
# Convention : Reuss Voigt Hill
#
# Bulk Modulus (GPa) = 39.31587 49.89818 44.60703
# Shear Modulus (GPa) = 30.08220 34.07572 32.07896
#
# Velocity S-wave (km/s) = 3.64288 3.87715 3.76184
# Velocity P-wave (km/s) = 5.91930 6.48501 6.20860
#
# Compressibility (1/GPa) = 0.02543502
#
# Stress axis : x y z
#
# Youngs Moduli (GPa) = 137.16210 62.23589 90.66494
#
# Poissons Ratio (x) = 0.23372 0.18425
# Poissons Ratio (y) = 0.51511 -0.11887
# Poissons Ratio (z) = 0.27874 -0.08160
#
# Static dielectric constant tensor:
#      x y z
#    x 1.857070 0.000000 0.000000 
#    y 0.000000 1.850180 0.000000 
#    z 0.000000 0.000000 1.807390 
# 
# From -- ./inp_files/2527.got.cif
#   From: 2010.05.17/outbox.cif.g08.bks.cpg/sg54_2_cif.got.tgz:2527.got - 2010.06.03 13:09:01.
