data_PCOD9424120
_publ_section_title
;
Structure prediction by ZEFSAII (Michael W. Deem and Ramdas Pophale) SiO2 
 PCOD9424120
Probable space group: P C C A
;
_chemical_formula_sum "Si O2"
_cell_formula_units_Z 48
_cell_length_a 8.653745
_cell_length_b 13.318123
_cell_length_c 18.908117
_cell_angle_alpha 90.000000
_cell_angle_beta 90.000000
_cell_angle_gamma 90.000000
_cell_volume 2179.191500
_symmetry_space_group_name_H-M "P C C A"
_symmetry_group_IT_number 54
_symmetry_cell_setting 'orthorhombic'
loop_
_space_group_symop_operation_xyz
x,y,z
1/2-x,-y,z
1/2+x,-y,1/2-z
-x,y,1/2-z
-x,-y,-z
1/2+x,y,-z
1/2-x,y,1/2+z
x,-y,1/2+z
loop_
_atom_site_type_symbol
_atom_site_label
_atom_site_fract_x
_atom_site_fract_y
_atom_site_fract_z
Si Si1 0.070733 0.636688 0.917718
Si Si2 0.884600 0.260030 0.541659
Si Si3 0.392371 0.067131 0.548660
Si Si4 0.431264 0.525846 0.673672
Si Si5 0.065707 0.810089 0.673697
Si Si6 0.427159 0.767184 0.675619
O O1 0.245843 0.672709 0.928147
O O2 0.029088 0.526333 0.889211
O O3 0.999643 0.705595 0.855635
O O4 0.987027 0.669225 0.990499
O O5 0.832553 0.167097 0.492102
O O6 0.977968 0.207323 0.605228
O O7 0.482948 0.107550 0.616474
O O8 0.250000 0.000000 0.571762
O O9 0.500000 0.000000 0.500000
O O10 0.250000 0.500000 0.667086
O O11 0.500000 0.493250 0.750000
O O12 0.436803 0.645900 0.672724
O O13 0.250707 0.801692 0.673368
O O14 0.000000 0.831262 0.750000
O O15 0.500000 0.800653 0.750000
#
# Coordination Sequence:
#
# PCOD9424120 Si02
#       6
#     8   8   8   8   8   8
#     4  11  23  41  65  92 137 176 225 269 329 390
#     4  11  24  43  66  97 129 177 221 275 342 402
#     4  11  23  44  70  95 129 169 215 276 342 417
#     4  11  25  41  65  96 135 184 229 277 329 386
#     4  11  22  42  68  97 131 172 217 273 337 401
#     4  11  24  41  66  96 134 176 227 272 325 395
#
# _framework density 22.026517999999999
#
# number of rings (size 3 to 8) (size 9 to 14) (size 15 to 20)
#    0.000    1.000    1.667    6.500    4.667    0.667 
#    0.000    5.833    0.000    0.000    0.000    0.000 
#    0.000    0.000    0.000    0.000    0.000    0.000 
#
# Total GULP energy -268556.743069 kJ/mol
# GULP energy per Si atom -5594.932147 kJ/mol
# Density = 2.197638 g / cm^3
# Si number density = 22.026518 Si / 1000 Ang^3
#
#
#
# Elastic Constant Matrix: (Units=GPa)
#
#
# Indices 1 2 3 4 5 6 
#
# 1 106.0063 16.4180 37.8125 0.0000 0.0000 0.0000
# 2 16.4180 58.0378 32.7030 0.0000 0.0000 0.0000
# 3 37.8125 32.7030 146.0831 0.0000 0.0000 0.0000
# 4 0.0000 0.0000 0.0000 27.4451 0.0000 0.0000
# 5 0.0000 0.0000 0.0000 0.0000 43.5369 0.0000
# 6 0.0000 0.0000 0.0000 0.0000 0.0000 27.3931
#
#
#
# Elastic Compliance Matrix: (Units=1/GPa)
#
#
# Indices 1 2 3 4 5 6 
#
# 1 0.010529 -0.001651 -0.002356 0.000000 0.000000 0.000000
# 2 -0.001651 0.019976 -0.004045 0.000000 0.000000 0.000000
# 3 -0.002356 -0.004045 0.008361 0.000000 0.000000 0.000000
# 4 0.000000 0.000000 0.000000 0.036436 0.000000 0.000000
# 5 0.000000 0.000000 0.000000 0.000000 0.022969 0.000000
# 6 0.000000 0.000000 0.000000 0.000000 0.000000 0.036506
#
#
# Mechanical properties :
#
#
# Convention : Reuss Voigt Hill
#
# Bulk Modulus (GPa) = 43.93058 53.77714 48.85386
# Shear Modulus (GPa) = 31.55205 34.55461 33.05333
#
# Velocity S-wave (km/s) = 3.78889 3.96507 3.87798
# Velocity P-wave (km/s) = 6.25529 6.74019 6.50226
#
# Compressibility (1/GPa) = 0.02276319
#
# Stress axis : x y z
#
# Youngs Moduli (GPa) = 94.97166 50.05937 119.60779
#
# Poissons Ratio (x) = 0.08266 0.28178
# Poissons Ratio (y) = 0.15681 0.48377
# Poissons Ratio (z) = 0.22374 0.20247
#
# Static dielectric constant tensor:
#      x y z
#    x 1.802410 0.000000 0.000000 
#    y 0.000000 1.836460 0.000000 
#    z 0.000000 0.000000 1.817380 
# 
# From -- ./inp_files/16627.got.cif
#   From: 2010.05.17/outbox.cif.g08.bks.cpg/sg54_9_cif.got.tgz:16627.got - 2010.06.03 13:09:01.
