data_PCOD9424073
_publ_section_title
;
Structure prediction by ZEFSAII (Michael W. Deem and Ramdas Pophale) SiO2 
 PCOD9424073
Probable space group: P C C A
;
_chemical_formula_sum "Si O2"
_cell_formula_units_Z 48
_cell_length_a 8.425819
_cell_length_b 17.891922
_cell_length_c 14.989387
_cell_angle_alpha 90.000000
_cell_angle_beta 90.000000
_cell_angle_gamma 90.000000
_cell_volume 2259.711492
_symmetry_space_group_name_H-M "P C C A"
_symmetry_group_IT_number 54
_symmetry_cell_setting 'orthorhombic'
loop_
_space_group_symop_operation_xyz
x,y,z
1/2-x,-y,z
1/2+x,-y,1/2-z
-x,y,1/2-z
-x,-y,-z
1/2+x,y,-z
1/2-x,y,1/2+z
x,-y,1/2+z
loop_
_atom_site_type_symbol
_atom_site_label
_atom_site_fract_x
_atom_site_fract_y
_atom_site_fract_z
Si Si1 0.934588 0.480842 0.097947
Si Si2 0.383746 0.051623 0.558655
Si Si3 0.935417 0.325071 0.345230
Si Si4 0.578149 0.256522 0.037447
Si Si5 0.854640 0.157060 0.045167
Si Si6 0.075708 0.625749 0.161772
O O1 0.750000 0.500000 0.103094
O O2 0.956906 0.395294 0.125323
O O3 0.035414 0.538628 0.156455
O O4 0.000000 0.500000 0.000000
O O5 0.274385 0.099111 0.491459
O O6 0.510457 0.111390 0.600119
O O7 0.250000 0.000000 0.608140
O O8 0.500000 0.000000 0.500000
O O9 0.915250 0.270618 0.430370
O O10 0.760812 0.359802 0.335332
O O11 0.000000 0.295771 0.250000
O O12 0.743040 0.225951 0.077938
O O13 0.511489 0.331166 0.081395
O O14 0.445346 0.192136 0.040688
O O15 0.000000 0.659342 0.250000
#
# Coordination Sequence:
#
# PCOD9424073 Si02
#       6
#     8   8   8   8   8   8
#     4  12  25  42  65  87 115 155 214 268 323 378
#     4   8  14  28  52  87 128 160 198 248 292 343
#     4  12  26  42  63  87 119 162 212 267 322 378
#     4  11  22  38  58  85 128 163 207 250 319 377
#     4   9  18  31  54  85 124 170 194 248 301 359
#     4  12  26  42  63  87 119 162 212 267 322 378
#
# _framework density 21.241648999999999
#
# number of rings (size 3 to 8) (size 9 to 14) (size 15 to 20)
#    0.000    1.333    3.333    3.000    4.667    0.000 
#    0.000    0.000    0.000    0.000    0.000    0.000 
#    0.000  280.000    0.000    0.000    0.000    0.000 
#
# Total GULP energy -267390.235318 kJ/mol
# GULP energy per Si atom -5570.629902 kJ/mol
# Density = 2.119330 g / cm^3
# Si number density = 21.241649 Si / 1000 Ang^3
#
#
#
# Elastic Constant Matrix: (Units=GPa)
#
#
# Indices 1 2 3 4 5 6 
#
# 1 140.7024 27.3741 6.5606 0.0000 0.0000 0.0000
# 2 27.3741 85.3088 7.3484 0.0000 0.0000 0.0000
# 3 6.5606 7.3484 83.4959 0.0000 0.0000 0.0000
# 4 0.0000 0.0000 0.0000 -0.8979 0.0000 0.0000
# 5 0.0000 0.0000 0.0000 0.0000 12.3887 0.0000
# 6 0.0000 0.0000 0.0000 0.0000 0.0000 43.3307
#
#
#
# Elastic Compliance Matrix: (Units=1/GPa)
#
#
# Indices 1 2 3 4 5 6 
#
# 1 0.007593 -0.002403 -0.000385 0.000000 0.000000 0.000000
# 2 -0.002403 0.012572 -0.000918 0.000000 0.000000 0.000000
# 3 -0.000385 -0.000918 0.012088 0.000000 0.000000 0.000000
# 4 0.000000 0.000000 0.000000 -1.113701 0.000000 0.000000
# 5 0.000000 0.000000 0.000000 0.000000 0.080719 0.000000
# 6 0.000000 0.000000 0.000000 0.000000 0.000000 0.023078
#
#
# Mechanical properties :
#
#
# Convention : Reuss Voigt Hill
#
# Bulk Modulus (GPa) = 40.25633 43.56369 41.91001
# Shear Modulus (GPa) = -5.19773 28.84590 11.82409
#
# Velocity S-wave (km/s) = -1.56597 3.68909 2.36189
# Velocity P-wave (km/s) = 3.96523 6.22085 5.21642
#
# Compressibility (1/GPa) = 0.02484082
#
# Stress axis : x y z
#
# Youngs Moduli (GPa) = 131.70538 79.53994 82.72900
#
# Poissons Ratio (x) = 0.19115 0.03186
# Poissons Ratio (y) = 0.31651 0.07592
# Poissons Ratio (z) = 0.05072 0.07299
#
# Static dielectric constant tensor:
#      x y z
#    x 1.828450 0.000000 0.000000 
#    y 0.000000 1.882500 0.000000 
#    z 0.000000 0.000000 1.856740 
# 
# From -- ./inp_files/11731.got.cif
#   From: 2010.05.17/outbox.cif.g08.bks.cpg/sg54_6_cif.got.tgz:11731.got - 2010.06.03 13:09:01.
