data_PCOD9424685
_publ_section_title
;
Structure prediction by ZEFSAII (Michael W. Deem and Ramdas Pophale) SiO2 
 PCOD9424685
Probable space group: P C C A
;
_chemical_formula_sum "Si O2"
_cell_formula_units_Z 40
_cell_length_a 18.000000
_cell_length_b 9.000000
_cell_length_c 12.000000
_cell_angle_alpha 90.000000
_cell_angle_beta 90.000000
_cell_angle_gamma 90.000000
_cell_volume 1944.000000
_symmetry_space_group_name_H-M "P C C A"
_symmetry_group_IT_number 54
_symmetry_cell_setting 'orthorhombic'
loop_
_space_group_symop_operation_xyz
x,y,z
1/2-x,-y,z
1/2+x,-y,1/2-z
-x,y,1/2-z
-x,-y,-z
1/2+x,y,-z
1/2-x,y,1/2+z
x,-y,1/2+z
loop_
_atom_site_type_symbol
_atom_site_label
_atom_site_fract_x
_atom_site_fract_y
_atom_site_fract_z
Si Si1 0.030660 0.670694 0.501344
Si Si2 0.351344 0.368241 0.312161
Si Si3 0.814962 0.713119 0.636825
Si Si4 0.080208 0.881663 0.695418
Si Si5 0.883575 0.804056 0.411676
O O1 0.090415 0.684669 0.403834
O O2 0.065169 0.740107 0.613813
O O3 0.000000 0.500000 0.500000
O O4 0.961462 0.773951 0.471856
O O5 0.271359 0.294545 0.332898
O O6 0.344098 0.546029 0.333280
O O7 0.376346 0.312197 0.190670
O O8 0.862408 0.826966 0.710751
O O9 0.824828 0.759115 0.507519
O O10 0.000000 0.920571 0.750000
O O11 0.113640 0.026796 0.633139
#
# Coordination Sequence:
#
# PCOD9424685 Si02
#       5
#     8   8   8   8   8
#     4  12  23  45  77 103 138 190 246 297 353 425
#     4  11  26  46  73 102 142 186 241 294 363 423
#     4  11  27  47  69 106 143 187 238 297 356 435
#     4  12  25  45  72 105 146 186 237 300 359 428
#     4  12  26  46  72 103 144 188 239 298 362 426
#
# _framework density 20.576132000000001
#
# number of rings (size 3 to 8) (size 9 to 14) (size 15 to 20)
#    0.000    0.400    4.000    3.600    5.600    2.400 
#    0.000    0.000    0.000    0.000    0.000    0.000 
#    0.000    0.000    0.000    0.000    0.000    0.000 
#
# Total GULP energy -223741.584474 kJ/mol
# GULP energy per Si atom -5593.539612 kJ/mol
# Density = 2.052930 g / cm^3
# Si number density = 20.576132 Si / 1000 Ang^3
#
#
#
# Elastic Constant Matrix: (Units=GPa)
#
#
# Indices 1 2 3 4 5 6 
#
# 1 53.3657 -6.9152 3.9694 0.0000 0.0000 0.0000
# 2 -6.9152 105.2995 31.5969 0.0000 0.0000 0.0000
# 3 3.9694 31.5969 125.7735 0.0000 0.0000 0.0000
# 4 0.0000 0.0000 0.0000 38.5956 0.0000 0.0000
# 5 0.0000 0.0000 0.0000 0.0000 20.6673 0.0000
# 6 0.0000 0.0000 0.0000 0.0000 0.0000 16.5951
#
#
#
# Elastic Compliance Matrix: (Units=1/GPa)
#
#
# Indices 1 2 3 4 5 6 
#
# 1 0.019012 0.001545 -0.000988 0.000000 0.000000 0.000000
# 2 0.001545 0.010397 -0.002661 0.000000 0.000000 0.000000
# 3 -0.000988 -0.002661 0.008650 0.000000 0.000000 0.000000
# 4 0.000000 0.000000 0.000000 0.025910 0.000000 0.000000
# 5 0.000000 0.000000 0.000000 0.000000 0.048386 0.000000
# 6 0.000000 0.000000 0.000000 0.000000 0.000000 0.060259
#
#
# Mechanical properties :
#
#
# Convention : Reuss Voigt Hill
#
# Bulk Modulus (GPa) = 29.54041 37.97120 33.75580
# Shear Modulus (GPa) = 26.58093 32.22410 29.40251
#
# Velocity S-wave (km/s) = 3.59811 3.96168 3.78426
# Velocity P-wave (km/s) = 5.62580 6.27858 5.96113
#
# Compressibility (1/GPa) = 0.03385194
#
# Stress axis : x y z
#
# Youngs Moduli (GPa) = 52.59735 96.18577 115.60182
#
# Poissons Ratio (x) = -0.14862 0.11424
# Poissons Ratio (y) = -0.08127 0.30757
# Poissons Ratio (z) = 0.05198 0.25591
#
# Static dielectric constant tensor:
#      x y z
#    x 1.735540 0.000000 0.000000 
#    y 0.000000 1.733140 0.000000 
#    z 0.000000 0.000000 1.737060 
# 
# From -- ./inp_files/8721.got.cif
#   From: 2010.05.17/outbox.ucp.g08.bks.cvg/sg54_5_cif.got.tgz:8721.got - 2010.06.11 16:34:40.
