data_PCOD9424271
_publ_section_title
;
Structure prediction by ZEFSAII (Michael W. Deem and Ramdas Pophale) SiO2 
 PCOD9424271
Probable space group: P C C A
;
_chemical_formula_sum "Si O2"
_cell_formula_units_Z 24
_cell_length_a 8.244426
_cell_length_b 5.430669
_cell_length_c 21.925435
_cell_angle_alpha 90.000000
_cell_angle_beta 90.000000
_cell_angle_gamma 90.000000
_cell_volume 981.661991
_symmetry_space_group_name_H-M "P C C A"
_symmetry_group_IT_number 54
_symmetry_cell_setting 'orthorhombic'
loop_
_space_group_symop_operation_xyz
x,y,z
1/2-x,-y,z
1/2+x,-y,1/2-z
-x,y,1/2-z
-x,-y,-z
1/2+x,y,-z
1/2-x,y,1/2+z
x,-y,1/2+z
loop_
_atom_site_type_symbol
_atom_site_label
_atom_site_fract_x
_atom_site_fract_y
_atom_site_fract_z
Si Si1 0.590302 0.587593 0.096099
Si Si2 0.123018 0.183114 0.529444
Si Si3 0.861242 0.752882 0.802082
O O1 0.750000 0.500000 0.132751
O O2 0.463470 0.381879 0.071505
O O3 0.476208 0.755536 0.137533
O O4 0.674317 0.701721 0.035563
O O5 0.250000 0.000000 0.559323
O O6 0.000000 0.000000 0.500000
O O7 0.750000 0.500000 0.802346
O O8 0.000000 0.741420 0.750000
O O9 0.750000 0.000000 0.796391
#
# Coordination Sequence:
#
# PCOD9424271 Si02
#       3
#     8   8   8
#     4  11  26  45  73 115 156 204 263 318 383 464
#     4  11  24  42  71 110 163 211 253 310 386 461
#     4  12  30  54  84 115 153 204 264 333 398 472
#
# _framework density 24.448333000000002
#
# number of rings (size 3 to 8) (size 9 to 14) (size 15 to 20)
#    0.000    0.667    3.333    2.000    9.333    1.333 
#    0.000    0.000    0.000    0.000    0.000    0.000 
#    0.000    0.000    0.000    0.000    0.000    0.000 
#
# Total GULP energy -133778.899896 kJ/mol
# GULP energy per Si atom -5574.120829 kJ/mol
# Density = 2.439269 g / cm^3
# Si number density = 24.448333 Si / 1000 Ang^3
#
#
#
# Elastic Constant Matrix: (Units=GPa)
#
#
# Indices 1 2 3 4 5 6 
#
# 1 153.6578 45.9671 59.5721 0.0000 0.0000 0.0000
# 2 45.9671 103.5068 30.6801 0.0000 0.0000 0.0000
# 3 59.5721 30.6801 106.0259 0.0000 0.0000 0.0000
# 4 0.0000 0.0000 0.0000 27.9586 0.0000 0.0000
# 5 0.0000 0.0000 0.0000 0.0000 -111.9103 0.0000
# 6 0.0000 0.0000 0.0000 0.0000 0.0000 75.2891
#
#
#
# Elastic Compliance Matrix: (Units=1/GPa)
#
#
# Indices 1 2 3 4 5 6 
#
# 1 0.008971 -0.002724 -0.004253 0.000000 0.000000 0.000000
# 2 -0.002724 0.011394 -0.001767 0.000000 0.000000 0.000000
# 3 -0.004253 -0.001767 0.012332 0.000000 0.000000 0.000000
# 4 0.000000 0.000000 0.000000 0.035767 0.000000 0.000000
# 5 0.000000 0.000000 0.000000 0.000000 -0.008936 0.000000
# 6 0.000000 0.000000 0.000000 0.000000 0.000000 0.013282
#
#
# Mechanical properties :
#
#
# Convention : Reuss Voigt Hill
#
# Bulk Modulus (GPa) = 65.73749 70.62548 68.18148
# Shear Modulus (GPa) = 52.42806 13.39889 32.91347
#
# Velocity S-wave (km/s) = 4.63584 2.34358 3.67310
# Velocity P-wave (km/s) = 7.45663 6.02275 6.77772
#
# Compressibility (1/GPa) = 0.01521202
#
# Stress axis : x y z
#
# Youngs Moduli (GPa) = 111.46433 87.76174 81.08794
#
# Poissons Ratio (x) = 0.23904 0.34483
# Poissons Ratio (y) = 0.30360 0.14327
# Poissons Ratio (z) = 0.47401 0.15506
#
# Static dielectric constant tensor:
#      x y z
#    x 1.667850 0.000000 0.000000 
#    y 0.000000 1.776120 0.000000 
#    z 0.000000 0.000000 2.105230 
# 
# From -- ./inp_files/23079.got.cif
#   From: 2010.05.17/outbox.cif.g08.bks.cpg/sg54_12_cif.got.tgz:23079.got - 2010.06.03 13:09:01.
