data_PCOD9424728
_publ_section_title
;
Structure prediction by ZEFSAII (Michael W. Deem and Ramdas Pophale) SiO2 
 PCOD9424728
Probable space group: P B A M
;
_chemical_formula_sum "Si O2"
_cell_formula_units_Z 64
_cell_length_a 31.099416
_cell_length_b 15.185651
_cell_length_c 7.711705
_cell_angle_alpha 90.000000
_cell_angle_beta 90.000000
_cell_angle_gamma 90.000000
_cell_volume 3641.967419
_symmetry_space_group_name_H-M "P B A M"
_symmetry_group_IT_number 55
_symmetry_cell_setting 'orthorhombic'
loop_
_space_group_symop_operation_xyz
x,y,z
-x,-y,z
1/2+x,1/2-y,-z
1/2-x,1/2+y,-z
-x,-y,-z
x,y,-z
1/2-x,1/2+y,z
1/2+x,1/2-y,z
loop_
_atom_site_type_symbol
_atom_site_label
_atom_site_fract_x
_atom_site_fract_y
_atom_site_fract_z
Si Si1 0.295568 0.811991 0.213218
Si Si2 0.456935 0.610842 0.798720
Si Si3 0.631870 0.322675 0.788156
Si Si4 0.787477 0.299907 0.797218
Si Si5 0.823750 0.004212 0.205823
Si Si6 0.134124 0.816881 0.303286
Si Si7 0.947038 0.089244 0.701881
Si Si8 0.778510 0.494164 0.793390
O O1 0.337831 0.757619 0.265372
O O2 0.252258 0.759707 0.271140
O O3 0.296150 0.912929 0.274875
O O4 0.294059 0.813687 0.000000
O O5 0.417413 0.668547 0.728849
O O6 0.503525 0.618621 0.713566
O O7 0.443898 0.507287 0.786932
O O8 0.462999 0.632064 0.000000
O O9 0.655400 0.413003 0.736561
O O10 0.630903 0.322066 0.000000
O O11 0.832310 0.248490 0.785005
O O12 0.791260 0.398353 0.721661
O O13 0.776557 0.312111 0.000000
O O14 0.772837 0.999695 0.225780
O O15 0.842939 0.088105 0.299661
O O16 0.832698 0.015569 0.000000
O O17 0.128811 0.785087 0.500000
O O18 0.087113 0.840025 0.227541
O O19 0.936290 0.075980 0.500000
O O20 0.788625 0.494017 0.000000
#
# Coordination Sequence:
#
# PCOD9424728 Si02
#       8
#     8   8   8   8   8   8   8   8
#     4   9  15  25  44  69  96 120 148 186 224 268
#     4  10  18  28  46  70  92 116 150 189 226 268
#     4   9  16  25  42  70  98 121 148 185 227 266
#     4  10  18  29  48  69  89 119 158 191 220 262
#     4  10  16  27  47  68  92 122 157 189 218 262
#     4  11  22  32  43  64  93 126 158 187 229 271
#     4  10  20  32  44  61  90 124 152 183 229 279
#     4   9  16  26  45  71  92 119 156 190 223 261
#
# _framework density 17.57292
#
# number of rings (size 3 to 8) (size 9 to 14) (size 15 to 20)
#    0.000    2.250    3.750    1.875    0.000    1.500 
#    0.000    0.625    0.000    1.500    0.000    0.875 
#    0.000    7.000    0.000    0.000    0.000    0.000 
#
# Total GULP energy -356774.520099 kJ/mol
# GULP energy per Si atom -5574.601877 kJ/mol
# Density = 1.753292 g / cm^3
# Si number density = 17.572920 Si / 1000 Ang^3
#
#
#
# Elastic Constant Matrix: (Units=GPa)
#
#
# Indices 1 2 3 4 5 6 
#
# 1 87.2992 58.2376 5.8843 0.0000 0.0000 0.0000
# 2 58.2376 122.9743 2.8822 0.0000 0.0000 0.0000
# 3 5.8843 2.8822 25.5082 0.0000 0.0000 0.0000
# 4 0.0000 0.0000 0.0000 41.1509 0.0000 0.0000
# 5 0.0000 0.0000 0.0000 0.0000 47.1023 0.0000
# 6 0.0000 0.0000 0.0000 0.0000 0.0000 22.7993
#
#
#
# Elastic Compliance Matrix: (Units=1/GPa)
#
#
# Indices 1 2 3 4 5 6 
#
# 1 0.016973 -0.007967 -0.003015 0.000000 0.000000 0.000000
# 2 -0.007967 0.011893 0.000494 0.000000 0.000000 0.000000
# 3 -0.003015 0.000494 0.039843 0.000000 0.000000 0.000000
# 4 0.000000 0.000000 0.000000 0.024301 0.000000 0.000000
# 5 0.000000 0.000000 0.000000 0.000000 0.021230 0.000000
# 6 0.000000 0.000000 0.000000 0.000000 0.000000 0.043861
#
#
# Mechanical properties :
#
#
# Convention : Reuss Voigt Hill
#
# Bulk Modulus (GPa) = 20.95015 41.08776 31.01896
# Shear Modulus (GPa) = 25.64245 33.46235 29.55240
#
# Velocity S-wave (km/s) = 3.82410 4.36845 4.10530
# Velocity P-wave (km/s) = 5.60767 6.99117 6.33729
#
# Compressibility (1/GPa) = 0.04773235
#
# Stress axis : x y z
#
# Youngs Moduli (GPa) = 58.91642 84.08043 25.09868
#
# Poissons Ratio (x) = 0.66990 0.07568
# Poissons Ratio (y) = 0.46941 -0.01240
# Poissons Ratio (z) = 0.17764 -0.04154
#
# Static dielectric constant tensor:
#      x y z
#    x 1.615040 0.000000 0.000000 
#    y 0.000000 1.596000 0.000000 
#    z 0.000000 0.000000 1.579220 
# 
# From -- ./inp_files/10917.got.cif
#   From: 2010.05.17/outbox.cif.g08.bks.cpg/sg55_6_cif.got.tgz:10917.got - 2010.06.03 13:27:54.
