data_PCOD9424016
_publ_section_title
;
Structure prediction by ZEFSAII (Michael W. Deem and Ramdas Pophale) SiO2 
 PCOD9424016
Probable space group: P C C A
;
_chemical_formula_sum "Si O2"
_cell_formula_units_Z 48
_cell_length_a 15.886431
_cell_length_b 9.588693
_cell_length_c 13.727539
_cell_angle_alpha 90.000000
_cell_angle_beta 90.000000
_cell_angle_gamma 90.000000
_cell_volume 2091.117522
_symmetry_space_group_name_H-M "P C C A"
_symmetry_group_IT_number 54
_symmetry_cell_setting 'orthorhombic'
loop_
_space_group_symop_operation_xyz
x,y,z
1/2-x,-y,z
1/2+x,-y,1/2-z
-x,y,1/2-z
-x,-y,-z
1/2+x,y,-z
1/2-x,y,1/2+z
x,-y,1/2+z
loop_
_atom_site_type_symbol
_atom_site_label
_atom_site_fract_x
_atom_site_fract_y
_atom_site_fract_z
Si Si1 0.897676 0.135134 0.578256
Si Si2 0.404311 0.166556 0.826276
Si Si3 0.465731 0.341941 0.994034
Si Si4 0.733173 0.662695 0.642588
Si Si5 0.679275 0.888170 0.362437
Si Si6 0.277636 0.359489 0.074446
O O1 0.847118 0.234653 0.655464
O O2 0.850714 0.098419 0.474851
O O3 0.976876 0.229460 0.548682
O O4 0.915226 0.983070 0.622637
O O5 0.312425 0.235696 0.843649
O O6 0.398819 0.130670 0.711245
O O7 0.458787 0.284044 0.882903
O O8 0.373901 0.342509 0.044560
O O9 0.500000 0.500000 0.000000
O O10 0.750000 0.500000 0.673995
O O11 0.725349 0.642471 0.525638
O O12 0.738169 0.753922 0.357794
O O13 0.750000 0.000000 0.335356
O O14 0.250000 0.500000 0.123316
#
# Coordination Sequence:
#
# PCOD9424016 Si02
#       6
#     8   8   8   8   8   8
#     4  11  21  38  63  92 130 169 212 272 338 402
#     4  11  23  38  61  92 125 172 224 266 325 401
#     4  11  22  40  67  95 128 171 215 274 348 408
#     4   9  17  34  58  85 118 165 217 261 309 388
#     4  11  22  38  63  91 125 169 221 275 323 391
#     4   9  19  38  62  88 120 166 220 266 318 388
#
# _framework density 22.954235000000001
#
# number of rings (size 3 to 8) (size 9 to 14) (size 15 to 20)
#    0.000    1.667    0.000    9.000    0.000    1.333 
#    0.000    1.667    0.000   11.000    0.000    0.000 
#    0.000    0.000    0.000    0.000    0.000    0.000 
#
# Total GULP energy -267348.579810 kJ/mol
# GULP energy per Si atom -5569.762079 kJ/mol
# Density = 2.290199 g / cm^3
# Si number density = 22.954235 Si / 1000 Ang^3
#
#
#
# Elastic Constant Matrix: (Units=GPa)
#
#
# Indices 1 2 3 4 5 6 
#
# 1 67.1406 33.9711 18.3278 0.0000 0.0000 0.0000
# 2 33.9711 193.0753 39.1376 0.0000 0.0000 0.0000
# 3 18.3278 39.1376 103.6631 0.0000 0.0000 0.0000
# 4 0.0000 0.0000 0.0000 -635.3763 0.0000 0.0000
# 5 0.0000 0.0000 0.0000 0.0000 35.9408 0.0000
# 6 0.0000 0.0000 0.0000 0.0000 0.0000 43.2397
#
#
#
# Elastic Compliance Matrix: (Units=1/GPa)
#
#
# Indices 1 2 3 4 5 6 
#
# 1 0.016724 -0.002537 -0.001999 0.000000 0.000000 0.000000
# 2 -0.002537 0.005994 -0.001814 0.000000 0.000000 0.000000
# 3 -0.001999 -0.001814 0.010685 0.000000 0.000000 0.000000
# 4 0.000000 0.000000 0.000000 -0.001574 0.000000 0.000000
# 5 0.000000 0.000000 0.000000 0.000000 0.027824 0.000000
# 6 0.000000 0.000000 0.000000 0.000000 0.000000 0.023127
#
#
# Mechanical properties :
#
#
# Convention : Reuss Voigt Hill
#
# Bulk Modulus (GPa) = 48.30594 60.75020 54.52807
# Shear Modulus (GPa) = 48.83780 -93.07634 -22.11927
#
# Velocity S-wave (km/s) = 4.61761 -6.37469 -3.10760
# Velocity P-wave (km/s) = 7.03704 5.25918 3.30613
#
# Compressibility (1/GPa) = 0.02070139
#
# Stress axis : x y z
#
# Youngs Moduli (GPa) = 59.79595 166.84706 93.58937
#
# Poissons Ratio (x) = 0.42334 0.18707
# Poissons Ratio (y) = 0.15172 0.16979
# Poissons Ratio (z) = 0.11952 0.30270
#
# Static dielectric constant tensor:
#      x y z
#    x 1.882910 0.000000 0.000000 
#    y 0.000000 1.784820 0.000000 
#    z 0.000000 0.000000 1.921200 
# 
# From -- ./inp_files/14083.got.cif
#   From: 2010.05.17/outbox.cif.g08.bks.cpg/sg54_8_cif.got.tgz:14083.got - 2010.06.03 13:09:01.
