data_PCOD9424233
_publ_section_title
;
Structure prediction by ZEFSAII (Michael W. Deem and Ramdas Pophale) SiO2 
 PCOD9424233
Probable space group: P C C A
;
_chemical_formula_sum "Si O2"
_cell_formula_units_Z 48
_cell_length_a 10.839928
_cell_length_b 14.721738
_cell_length_c 13.995418
_cell_angle_alpha 90.000000
_cell_angle_beta 90.000000
_cell_angle_gamma 90.000000
_cell_volume 2233.424912
_symmetry_space_group_name_H-M "P C C A"
_symmetry_group_IT_number 54
_symmetry_cell_setting 'orthorhombic'
loop_
_space_group_symop_operation_xyz
x,y,z
1/2-x,-y,z
1/2+x,-y,1/2-z
-x,y,1/2-z
-x,-y,-z
1/2+x,y,-z
1/2-x,y,1/2+z
x,-y,1/2+z
loop_
_atom_site_type_symbol
_atom_site_label
_atom_site_fract_x
_atom_site_fract_y
_atom_site_fract_z
Si Si1 0.838954 0.849481 0.876317
Si Si2 0.500000 0.422146 0.250000
Si Si3 0.500000 0.735406 0.250000
Si Si4 0.750000 0.500000 0.159083
Si Si5 0.404571 0.731391 0.604603
Si Si6 0.180120 0.312570 0.398674
Si Si7 0.750000 0.000000 0.732679
Si Si8 0.367189 0.856672 0.904018
O O1 0.727885 0.775904 0.872094
O O2 0.816640 0.929960 0.802615
O O3 0.957287 0.797592 0.837361
O O4 0.854927 0.882320 0.984516
O O5 0.621318 0.479526 0.216896
O O6 0.551818 0.353003 0.331461
O O7 0.391224 0.680748 0.298350
O O8 0.742678 0.589798 0.093701
O O9 0.399515 0.702420 0.493759
O O10 0.500769 0.813390 0.616509
O O11 0.271527 0.226914 0.389595
O O12 0.663736 0.939948 0.664215
#
# Coordination Sequence:
#
# PCOD9424233 Si02
#       8
#     8   4   4   4   8   8   4   8
#     4  11  25  41  70 105 133 194 235 288 360 419
#     4  12  25  46  71 108 148 190 237 300 357 432
#     4  12  21  46  67 100 142 182 233 294 357 422
#     4  12  26  44  74 110 146 188 250 292 364 432
#     4  11  24  47  74  98 145 190 237 290 362 425
#     4  11  24  45  73 101 141 189 235 296 359 424
#     4  12  24  44  70 104 142 186 242 288 354 422
#     4  11  23  47  68 101 145 185 236 295 355 422
#
# _framework density 21.491657
#
# number of rings (size 3 to 8) (size 9 to 14) (size 15 to 20)
#    0.000    0.667    5.000    3.000    0.000    2.667 
#    0.000    3.333    0.000    0.000    0.000    0.000 
#    0.000    0.000    0.000    0.000    0.000    0.000 
#
# Total GULP energy -268226.817952 kJ/mol
# GULP energy per Si atom -5588.058707 kJ/mol
# Density = 2.144274 g / cm^3
# Si number density = 21.491657 Si / 1000 Ang^3
#
#
#
# Elastic Constant Matrix: (Units=GPa)
#
#
# Indices 1 2 3 4 5 6 
#
# 1 53.1303 14.2346 14.0863 0.0000 0.0000 0.0000
# 2 14.2346 101.0685 56.6560 0.0000 0.0000 0.0000
# 3 14.0863 56.6560 114.4472 0.0000 0.0000 0.0000
# 4 0.0000 0.0000 0.0000 -32.7550 0.0000 0.0000
# 5 0.0000 0.0000 0.0000 0.0000 26.0827 0.0000
# 6 0.0000 0.0000 0.0000 0.0000 0.0000 26.8456
#
#
#
# Elastic Compliance Matrix: (Units=1/GPa)
#
#
# Indices 1 2 3 4 5 6 
#
# 1 0.019734 -0.001962 -0.001457 0.000000 0.000000 0.000000
# 2 -0.001962 0.013890 -0.006634 0.000000 0.000000 0.000000
# 3 -0.001457 -0.006634 0.012201 0.000000 0.000000 0.000000
# 4 0.000000 0.000000 0.000000 -0.030530 0.000000 0.000000
# 5 0.000000 0.000000 0.000000 0.000000 0.038340 0.000000
# 6 0.000000 0.000000 0.000000 0.000000 0.000000 0.037250
#
#
# Mechanical properties :
#
#
# Convention : Reuss Voigt Hill
#
# Bulk Modulus (GPa) = 38.88562 48.73333 43.80947
# Shear Modulus (GPa) = 41.81812 16.27927 29.04870
#
# Velocity S-wave (km/s) = 4.41589 2.75520 3.68044
# Velocity P-wave (km/s) = 6.64325 5.73116 6.20399
#
# Compressibility (1/GPa) = 0.02571645
#
# Stress axis : x y z
#
# Youngs Moduli (GPa) = 50.67447 71.99565 81.95816
#
# Poissons Ratio (x) = 0.14128 0.11945
# Poissons Ratio (y) = 0.09944 0.54375
# Poissons Ratio (z) = 0.07385 0.47765
#
# Static dielectric constant tensor:
#      x y z
#    x 1.988150 0.000000 0.000000 
#    y 0.000000 1.790520 0.000000 
#    z 0.000000 0.000000 1.772080 
# 
# From -- ./inp_files/12683.got.cif
#   From: 2010.05.17/outbox.cif.g08.bks.cpg/sg54_7_cif.got.tgz:12683.got - 2010.06.03 13:09:01.
