data_PCOD9424411
_publ_section_title
;
Structure prediction by ZEFSAII (Michael W. Deem and Ramdas Pophale) SiO2 
 PCOD9424411
Probable space group: P C C A
;
_chemical_formula_sum "Si O2"
_cell_formula_units_Z 28
_cell_length_a 8.787694
_cell_length_b 8.125287
_cell_length_c 16.793539
_cell_angle_alpha 90.000000
_cell_angle_beta 90.000000
_cell_angle_gamma 90.000000
_cell_volume 1199.101270
_symmetry_space_group_name_H-M "P C C A"
_symmetry_group_IT_number 54
_symmetry_cell_setting 'orthorhombic'
loop_
_space_group_symop_operation_xyz
x,y,z
1/2-x,-y,z
1/2+x,-y,1/2-z
-x,y,1/2-z
-x,-y,-z
1/2+x,y,-z
1/2-x,y,1/2+z
x,-y,1/2+z
loop_
_atom_site_type_symbol
_atom_site_label
_atom_site_fract_x
_atom_site_fract_y
_atom_site_fract_z
Si Si1 0.759499 0.312041 0.962644
Si Si2 0.750000 0.000000 0.707241
Si Si3 0.445087 0.880912 0.930067
Si Si4 0.656911 0.329065 0.795019
O O1 0.750000 0.500000 0.987901
O O2 0.641917 0.295610 0.889358
O O3 0.920699 0.254466 0.926505
O O4 0.707334 0.203552 0.036375
O O5 0.602115 0.969691 0.651023
O O6 0.767733 0.834019 0.757802
O O7 0.500000 0.000000 0.000000
O O8 0.750000 0.500000 0.787699
O O9 0.500000 0.353387 0.750000
#
# Coordination Sequence:
#
# PCOD9424411 Si02
#       4
#     8   4   8   8
#     4  11  26  46  73 101 146 185 239 295 352 428
#     4  12  28  42  80 102 150 188 236 308 360 432
#     4  12  24  46  70 108 136 187 241 290 359 422
#     4  11  29  48  73 107 144 191 240 295 363 432
#
# _framework density 23.350823999999999
#
# number of rings (size 3 to 8) (size 9 to 14) (size 15 to 20)
#    0.000    0.571    2.857    2.571   16.000    1.143 
#    0.000    0.000    0.000    0.000    0.000    0.000 
#    0.000    0.000    0.000    0.000    0.000    0.000 
#
# Total GULP energy -156776.560254 kJ/mol
# GULP energy per Si atom -5599.162866 kJ/mol
# Density = 2.329768 g / cm^3
# Si number density = 23.350824 Si / 1000 Ang^3
#
#
#
# Elastic Constant Matrix: (Units=GPa)
#
#
# Indices 1 2 3 4 5 6 
#
# 1 56.3005 8.5341 -18.3763 0.0000 0.0000 0.0000
# 2 8.5341 162.3267 34.8201 0.0000 0.0000 0.0000
# 3 -18.3763 34.8201 59.3217 0.0000 0.0000 0.0000
# 4 0.0000 0.0000 0.0000 32.1565 0.0000 0.0000
# 5 0.0000 0.0000 0.0000 0.0000 34.8423 0.0000
# 6 0.0000 0.0000 0.0000 0.0000 0.0000 38.4895
#
#
#
# Elastic Compliance Matrix: (Units=1/GPa)
#
#
# Indices 1 2 3 4 5 6 
#
# 1 0.020843 -0.002838 0.008123 0.000000 0.000000 0.000000
# 2 -0.002838 0.007434 -0.005243 0.000000 0.000000 0.000000
# 3 0.008123 -0.005243 0.022451 0.000000 0.000000 0.000000
# 4 0.000000 0.000000 0.000000 0.031098 0.000000 0.000000
# 5 0.000000 0.000000 0.000000 0.000000 0.028701 0.000000
# 6 0.000000 0.000000 0.000000 0.000000 0.000000 0.025981
#
#
# Mechanical properties :
#
#
# Convention : Reuss Voigt Hill
#
# Bulk Modulus (GPa) = 19.68059 36.43385 28.05722
# Shear Modulus (GPa) = 32.60258 37.96240 35.28249
#
# Velocity S-wave (km/s) = 3.74064 4.03642 3.89134
# Velocity P-wave (km/s) = 5.20606 6.11231 5.67729
#
# Compressibility (1/GPa) = 0.05081148
#
# Stress axis : x y z
#
# Youngs Moduli (GPa) = 47.97715 134.51237 44.54181
#
# Poissons Ratio (x) = 0.38177 -0.36180
# Poissons Ratio (y) = 0.13617 0.23353
# Poissons Ratio (z) = -0.38970 0.70523
#
# Static dielectric constant tensor:
#      x y z
#    x 2.030970 0.000000 0.000000 
#    y 0.000000 1.901430 0.000000 
#    z 0.000000 0.000000 1.818720 
# 
# From -- ./inp_files/16152.got.cif
#   From: 2010.05.17/outbox.cif.g08.bks.cpg/sg54_9_cif.got.tgz:16152.got - 2010.06.03 13:09:01.
