data_PCOD9424857
_publ_section_title
;
Structure prediction by ZEFSAII (Michael W. Deem and Ramdas Pophale) SiO2 
 PCOD9424857
Probable space group: P B A M
;
_chemical_formula_sum "Si O2"
_cell_formula_units_Z 48
_cell_length_a 9.473412
_cell_length_b 17.336295
_cell_length_c 16.355281
_cell_angle_alpha 90.000000
_cell_angle_beta 90.000000
_cell_angle_gamma 90.000000
_cell_volume 2686.091013
_symmetry_space_group_name_H-M "P B A M"
_symmetry_group_IT_number 55
_symmetry_cell_setting 'orthorhombic'
loop_
_space_group_symop_operation_xyz
x,y,z
-x,-y,z
1/2+x,1/2-y,-z
1/2-x,1/2+y,-z
-x,-y,-z
x,y,-z
1/2-x,1/2+y,z
1/2+x,1/2-y,z
loop_
_atom_site_type_symbol
_atom_site_label
_atom_site_fract_x
_atom_site_fract_y
_atom_site_fract_z
Si Si1 0.667266 0.006061 0.671832
Si Si2 0.356781 0.951555 0.908035
Si Si3 0.096504 0.075573 0.407788
Si Si4 0.645011 0.452695 0.176111
Si Si5 0.032412 0.187520 0.744206
Si Si6 0.206247 0.340957 0.755071
O O1 0.745604 0.958870 0.601262
O O2 0.742417 0.969451 0.751806
O O3 0.500000 0.000000 0.671753
O O4 0.701928 0.096399 0.681821
O O5 0.334552 0.887453 0.837891
O O6 0.500000 0.000000 0.893264
O O7 0.225452 0.011066 0.900364
O O8 0.362905 0.919617 0.000000
O O9 0.070742 0.102989 0.500000
O O10 0.063685 0.139237 0.339093
O O11 0.000000 0.000000 0.391998
O O12 0.500000 0.500000 0.190816
O O13 0.603578 0.363809 0.183787
O O14 0.100336 0.271158 0.740702
O O15 0.865797 0.189186 0.759613
#
# Coordination Sequence:
#
# PCOD9424857 Si02
#       6
#     8   8   8   8   8   8
#     4  10  19  34  59  85 114 152 199 239 277 341
#     4  10  22  40  61  87 118 151 192 244 296 338
#     4  10  20  40  63  82 113 154 197 248 293 338
#     4  10  17  36  59  81 109 152 204 236 271 337
#     4  11  22  36  58  88 116 151 198 234 293 356
#     4  11  22  37  57  87 117 155 191 238 285 354
#
# _framework density 17.869834000000001
#
# number of rings (size 3 to 8) (size 9 to 14) (size 15 to 20)
#    0.000    1.667    5.000    3.000    7.000    0.667 
#    0.000    3.333    0.000    0.000    0.000    0.000 
#    0.000    0.000    0.000    0.000    0.000    0.000 
#
# Total GULP energy -267481.480731 kJ/mol
# GULP energy per Si atom -5572.530849 kJ/mol
# Density = 1.782916 g / cm^3
# Si number density = 17.869834 Si / 1000 Ang^3
#
#
#
# Elastic Constant Matrix: (Units=GPa)
#
#
# Indices 1 2 3 4 5 6 
#
# 1 136.3020 23.5318 23.1268 0.0000 0.0000 0.0000
# 2 23.5318 73.9273 32.8793 0.0000 0.0000 0.0000
# 3 23.1268 32.8793 92.9552 0.0000 0.0000 0.0000
# 4 0.0000 0.0000 0.0000 11.3748 0.0000 0.0000
# 5 0.0000 0.0000 0.0000 0.0000 12.5817 0.0000
# 6 0.0000 0.0000 0.0000 0.0000 0.0000 37.4439
#
#
#
# Elastic Compliance Matrix: (Units=1/GPa)
#
#
# Indices 1 2 3 4 5 6 
#
# 1 0.007889 -0.001944 -0.001275 0.000000 0.000000 0.000000
# 2 -0.001944 0.016531 -0.005364 0.000000 0.000000 0.000000
# 3 -0.001275 -0.005364 0.012972 0.000000 0.000000 0.000000
# 4 0.000000 0.000000 0.000000 0.087914 0.000000 0.000000
# 5 0.000000 0.000000 0.000000 0.000000 0.079480 0.000000
# 6 0.000000 0.000000 0.000000 0.000000 0.000000 0.026707
#
#
# Mechanical properties :
#
#
# Convention : Reuss Voigt Hill
#
# Bulk Modulus (GPa) = 49.43944 51.36226 50.40085
# Shear Modulus (GPa) = 19.57713 27.18986 23.38349
#
# Velocity S-wave (km/s) = 3.31349 3.90494 3.62131
# Velocity P-wave (km/s) = 6.50887 7.00972 6.76393
#
# Compressibility (1/GPa) = 0.02022676
#
# Stress axis : x y z
#
# Youngs Moduli (GPa) = 126.76517 60.49232 77.08767
#
# Poissons Ratio (x) = 0.11759 0.09829
# Poissons Ratio (y) = 0.24642 0.41346
# Poissons Ratio (z) = 0.16163 0.32445
#
# Static dielectric constant tensor:
#      x y z
#    x 1.631190 0.000000 0.000000 
#    y 0.000000 1.605280 0.000000 
#    z 0.000000 0.000000 1.645530 
# 
# From -- ./inp_files/20790.got.cif
#   From: 2010.05.17/outbox.cif.g08.bks.cpg/sg55_11_cif.got.tgz:20790.got - 2010.06.03 13:27:54.
