data_PCOD9424148
_publ_section_title
;
Structure prediction by ZEFSAII (Michael W. Deem and Ramdas Pophale) SiO2 
 PCOD9424148
Probable space group: P C C A
;
_chemical_formula_sum "Si O2"
_cell_formula_units_Z 56
_cell_length_a 10.190736
_cell_length_b 23.551866
_cell_length_c 11.448982
_cell_angle_alpha 90.000000
_cell_angle_beta 90.000000
_cell_angle_gamma 90.000000
_cell_volume 2747.879887
_symmetry_space_group_name_H-M "P C C A"
_symmetry_group_IT_number 54
_symmetry_cell_setting 'orthorhombic'
loop_
_space_group_symop_operation_xyz
x,y,z
1/2-x,-y,z
1/2+x,-y,1/2-z
-x,y,1/2-z
-x,-y,-z
1/2+x,y,-z
1/2-x,y,1/2+z
x,-y,1/2+z
loop_
_atom_site_type_symbol
_atom_site_label
_atom_site_fract_x
_atom_site_fract_y
_atom_site_fract_z
Si Si1 0.305342 0.438429 0.264885
Si Si2 0.740729 0.138041 0.853355
Si Si3 0.467310 0.437381 0.049476
Si Si4 0.025284 0.871521 0.989882
Si Si5 0.896759 0.348373 0.147644
Si Si6 0.126029 0.038694 0.313947
Si Si7 0.635061 0.223309 0.677993
O O1 0.250000 0.500000 0.296647
O O2 0.336518 0.439635 0.127580
O O3 0.424435 0.427042 0.352186
O O4 0.207294 0.389297 0.294103
O O5 0.630652 0.138889 0.960781
O O6 0.682543 0.087743 0.772131
O O7 0.732163 0.194658 0.772578
O O8 0.891406 0.127378 0.890349
O O9 0.500000 0.500000 0.000000
O O10 0.456226 0.386050 0.957849
O O11 0.066128 0.929651 0.925687
O O12 0.101671 0.820707 0.923652
O O13 0.838346 0.285630 0.125285
O O14 0.000000 0.340207 0.250000
O O15 0.000000 0.010716 0.250000
O O16 0.250000 0.000000 0.343095
O O17 0.500000 0.225475 0.750000
#
# Coordination Sequence:
#
# PCOD9424148 Si02
#       7
#     8   8   8   8   8   8   8
#     4  11  24  39  58  84 117 150 188 235 292 352
#     4   9  18  35  58  79 113 146 195 233 290 346
#     4  11  24  40  57  85 117 150 189 238 292 352
#     4   9  18  35  56  80 108 152 185 235 286 346
#     4  11  23  38  64  87 111 152 196 238 296 358
#     4   9  19  34  52  78 115 152 191 236 285 346
#     4   8  18  38  56  80 107 144 185 225 281 344
#
# _framework density 20.379346999999999
#
# number of rings (size 3 to 8) (size 9 to 14) (size 15 to 20)
#    0.000    2.286    1.429    2.571    4.000    2.857 
#    5.143    5.000    0.000    0.000    0.000    0.000 
#    0.000    0.000    0.000    0.000    0.000    0.000 
#
# Total GULP energy -311770.044983 kJ/mol
# GULP energy per Si atom -5567.322232 kJ/mol
# Density = 2.033296 g / cm^3
# Si number density = 20.379347 Si / 1000 Ang^3
#
#
#
# Elastic Constant Matrix: (Units=GPa)
#
#
# Indices 1 2 3 4 5 6 
#
# 1 28.6221 22.6744 4.5842 0.0000 0.0000 0.0000
# 2 22.6744 95.4522 10.7009 0.0000 0.0000 0.0000
# 3 4.5842 10.7009 57.2682 0.0000 0.0000 0.0000
# 4 0.0000 0.0000 0.0000 14.2638 0.0000 0.0000
# 5 0.0000 0.0000 0.0000 0.0000 34.3437 0.0000
# 6 0.0000 0.0000 0.0000 0.0000 0.0000 -17.0093
#
#
#
# Elastic Compliance Matrix: (Units=1/GPa)
#
#
# Indices 1 2 3 4 5 6 
#
# 1 0.043175 -0.010080 -0.001573 0.000000 0.000000 0.000000
# 2 -0.010080 0.013054 -0.001632 0.000000 0.000000 0.000000
# 3 -0.001573 -0.001632 0.017893 0.000000 0.000000 0.000000
# 4 0.000000 0.000000 0.000000 0.070108 0.000000 0.000000
# 5 0.000000 0.000000 0.000000 0.000000 0.029117 0.000000
# 6 0.000000 0.000000 0.000000 0.000000 0.000000 -0.058791
#
#
# Mechanical properties :
#
#
# Convention : Reuss Voigt Hill
#
# Bulk Modulus (GPa) = 21.02954 28.58461 24.80707
# Shear Modulus (GPa) = 31.85204 15.87850 23.86527
#
# Velocity S-wave (km/s) = 3.95771 2.79435 3.42578
# Velocity P-wave (km/s) = 5.58803 4.94650 5.27703
#
# Compressibility (1/GPa) = 0.04755215
#
# Stress axis : x y z
#
# Youngs Moduli (GPa) = 23.16142 76.60554 55.88909
#
# Poissons Ratio (x) = 0.77217 0.08789
# Poissons Ratio (y) = 0.23346 0.09123
# Poissons Ratio (z) = 0.03642 0.12505
#
# Static dielectric constant tensor:
#      x y z
#    x 1.802510 0.000000 0.000000 
#    y 0.000000 1.776570 0.000000 
#    z 0.000000 0.000000 1.784250 
# 
# From -- ./inp_files/7613.got.cif
#   From: 2010.05.17/outbox.cif.g08.bks.cpg/sg54_4_cif.got.tgz:7613.got - 2010.06.03 13:09:01.
