data_PCOD9424504
_publ_section_title
;
Structure prediction by ZEFSAII (Michael W. Deem and Ramdas Pophale) SiO2 
 PCOD9424504
Probable space group: P C C A
;
_chemical_formula_sum "Si O2"
_cell_formula_units_Z 36
_cell_length_a 22.024560
_cell_length_b 6.489988
_cell_length_c 10.433314
_cell_angle_alpha 90.000000
_cell_angle_beta 90.000000
_cell_angle_gamma 90.000000
_cell_volume 1491.328827
_symmetry_space_group_name_H-M "P C C A"
_symmetry_group_IT_number 54
_symmetry_cell_setting 'orthorhombic'
loop_
_space_group_symop_operation_xyz
x,y,z
1/2-x,-y,z
1/2+x,-y,1/2-z
-x,y,1/2-z
-x,-y,-z
1/2+x,y,-z
1/2-x,y,1/2+z
x,-y,1/2+z
loop_
_atom_site_type_symbol
_atom_site_label
_atom_site_fract_x
_atom_site_fract_y
_atom_site_fract_z
Si Si1 0.616834 0.088330 0.304250
Si Si2 0.711290 0.166352 0.645726
Si Si3 0.440162 0.133169 0.462782
Si Si4 0.250000 0.500000 0.177652
Si Si5 0.633189 0.530171 0.972580
O O1 0.570784 0.081139 0.185101
O O2 0.614105 0.322382 0.355042
O O3 0.674466 0.976975 0.242673
O O4 0.604735 0.961811 0.432580
O O5 0.756806 0.313347 0.723607
O O6 0.662144 0.315752 0.578633
O O7 0.750000 0.000000 0.563329
O O8 0.420343 0.376924 0.480892
O O9 0.500000 0.000000 0.500000
O O10 0.305416 0.566617 0.086893
#
# Coordination Sequence:
#
# PCOD9424504 Si02
#       5
#     8   8   8   4   8
#     4  12  26  51  78 118 162 212 285 348 420 512
#     4  12  26  43  73 120 169 218 263 340 426 515
#     4  12  29  54  81 113 161 221 290 363 424 500
#     4  12  24  42  72 116 166 218 270 336 422 512
#     4  12  27  45  80 120 162 216 285 337 431 518
#
# _framework density 24.139544999999998
#
# number of rings (size 3 to 8) (size 9 to 14) (size 15 to 20)
#    0.000    0.000    6.667    2.667    6.222    0.889 
#    0.000    2.222    0.000    0.000    0.000    0.000 
#    0.000    0.000    0.000    0.000    0.000    0.000 
#
# Total GULP energy -200425.831069 kJ/mol
# GULP energy per Si atom -5567.384196 kJ/mol
# Density = 2.408460 g / cm^3
# Si number density = 24.139545 Si / 1000 Ang^3
#
#
#
# Elastic Constant Matrix: (Units=GPa)
#
#
# Indices 1 2 3 4 5 6 
#
# 1 68.7019 64.7452 12.0929 0.0000 0.0000 0.0000
# 2 64.7452 151.4236 31.3522 0.0000 0.0000 0.0000
# 3 12.0929 31.3522 83.2984 0.0000 0.0000 0.0000
# 4 0.0000 0.0000 0.0000 43.2405 0.0000 0.0000
# 5 0.0000 0.0000 0.0000 0.0000 36.2009 0.0000
# 6 0.0000 0.0000 0.0000 0.0000 0.0000 42.8213
#
#
#
# Elastic Compliance Matrix: (Units=1/GPa)
#
#
# Indices 1 2 3 4 5 6 
#
# 1 0.024393 -0.010516 0.000417 0.000000 0.000000 0.000000
# 2 -0.010516 0.011696 -0.002875 0.000000 0.000000 0.000000
# 3 0.000417 -0.002875 0.013027 0.000000 0.000000 0.000000
# 4 0.000000 0.000000 0.000000 0.023126 0.000000 0.000000
# 5 0.000000 0.000000 0.000000 0.000000 0.027624 0.000000
# 6 0.000000 0.000000 0.000000 0.000000 0.000000 0.023353
#
#
# Mechanical properties :
#
#
# Convention : Reuss Voigt Hill
#
# Bulk Modulus (GPa) = 43.16675 57.75607 50.46141
# Shear Modulus (GPa) = 31.86958 37.46810 34.66884
#
# Velocity S-wave (km/s) = 3.63743 3.94400 3.79381
# Velocity P-wave (km/s) = 5.96340 6.68716 6.33562
#
# Compressibility (1/GPa) = 0.02316598
#
# Stress axis : x y z
#
# Youngs Moduli (GPa) = 40.99592 85.50102 76.76489
#
# Poissons Ratio (x) = 0.89913 -0.03200
# Poissons Ratio (y) = 0.43112 0.22073
# Poissons Ratio (z) = -0.01709 0.24585
#
# Static dielectric constant tensor:
#      x y z
#    x 2.087160 0.000000 0.000000 
#    y 0.000000 2.086500 0.000000 
#    z 0.000000 0.000000 1.893730 
# 
# From -- ./inp_files/9750.got.cif
#   From: 2010.05.17/outbox.cif.g08.bks.cpg/sg54_5_cif.got.tgz:9750.got - 2010.06.03 13:09:01.
