data_PCOD9424467
_publ_section_title
;
Structure prediction by ZEFSAII (Michael W. Deem and Ramdas Pophale) SiO2 
 PCOD9424467
Probable space group: P C C A
;
_chemical_formula_sum "Si O2"
_cell_formula_units_Z 48
_cell_length_a 16.176943
_cell_length_b 8.333186
_cell_length_c 16.371278
_cell_angle_alpha 90.000000
_cell_angle_beta 90.000000
_cell_angle_gamma 90.000000
_cell_volume 2206.937906
_symmetry_space_group_name_H-M "P C C A"
_symmetry_group_IT_number 54
_symmetry_cell_setting 'orthorhombic'
loop_
_space_group_symop_operation_xyz
x,y,z
1/2-x,-y,z
1/2+x,-y,1/2-z
-x,y,1/2-z
-x,-y,-z
1/2+x,y,-z
1/2-x,y,1/2+z
x,-y,1/2+z
loop_
_atom_site_type_symbol
_atom_site_label
_atom_site_fract_x
_atom_site_fract_y
_atom_site_fract_z
Si Si1 0.250000 0.500000 0.594321
Si Si2 0.958868 0.171806 0.986298
Si Si3 0.376098 0.342442 0.468700
Si Si4 0.204084 0.831890 0.332259
Si Si5 0.500000 0.429244 0.750000
Si Si6 0.868960 0.331833 0.129065
Si Si7 0.615084 0.296823 0.321359
O O1 0.315120 0.403691 0.538517
O O2 0.300037 0.627271 0.646714
O O3 0.032452 0.301570 0.998331
O O4 0.924233 0.194263 0.894773
O O5 0.889091 0.216606 0.052543
O O6 0.000000 0.000000 0.000000
O O7 0.341140 0.190319 0.419114
O O8 0.375805 0.487474 0.404058
O O9 0.279227 0.704123 0.334999
O O10 0.138015 0.798010 0.260949
O O11 0.250000 0.000000 0.321888
O O12 0.439681 0.320106 0.803411
O O13 0.444142 0.552260 0.697543
#
# Coordination Sequence:
#
# PCOD9424467 Si02
#       7
#     4   8   8   8   4   8   8
#     4  12  24  38  74  98 130 170 240 284 328 402
#     4  12  26  44  70 100 145 180 226 283 350 408
#     4  12  22  44  69  99 129 179 231 282 332 408
#     4  12  26  43  67  98 142 175 220 284 356 409
#     4  12  24  40  74  96 136 172 240 288 328 400
#     4  12  23  45  68 102 128 183 227 281 338 404
#     4  12  24  42  65 102 133 181 227 285 340 408
#
# _framework density 21.749590999999999
#
# number of rings (size 3 to 8) (size 9 to 14) (size 15 to 20)
#    0.000    0.000    6.667    3.500    0.000    2.667 
#    0.000    0.833    0.000    0.000    0.000    0.000 
#    0.000    0.000    0.000    0.000    0.000    0.000 
#
# Total GULP energy -268737.432375 kJ/mol
# GULP energy per Si atom -5598.696508 kJ/mol
# Density = 2.170009 g / cm^3
# Si number density = 21.749591 Si / 1000 Ang^3
#
#
#
# Elastic Constant Matrix: (Units=GPa)
#
#
# Indices 1 2 3 4 5 6 
#
# 1 71.1475 -0.8452 6.5530 0.0000 0.0000 0.0000
# 2 -0.8452 67.7177 5.9277 0.0000 0.0000 0.0000
# 3 6.5530 5.9277 71.5588 0.0000 0.0000 0.0000
# 4 0.0000 0.0000 0.0000 9.0700 0.0000 0.0000
# 5 0.0000 0.0000 0.0000 0.0000 54.6360 0.0000
# 6 0.0000 0.0000 0.0000 0.0000 0.0000 37.2502
#
#
#
# Elastic Compliance Matrix: (Units=1/GPa)
#
#
# Indices 1 2 3 4 5 6 
#
# 1 0.014181 0.000293 -0.001323 0.000000 0.000000 0.000000
# 2 0.000293 0.014881 -0.001260 0.000000 0.000000 0.000000
# 3 -0.001323 -0.001260 0.014200 0.000000 0.000000 0.000000
# 4 0.000000 0.000000 0.000000 0.110254 0.000000 0.000000
# 5 0.000000 0.000000 0.000000 0.000000 0.018303 0.000000
# 6 0.000000 0.000000 0.000000 0.000000 0.000000 0.026845
#
#
# Mechanical properties :
#
#
# Convention : Reuss Voigt Hill
#
# Bulk Modulus (GPa) = 25.85143 25.96611 25.90877
# Shear Modulus (GPa) = 23.13343 33.44381 28.28862
#
# Velocity S-wave (km/s) = 3.26487 3.92557 3.61037
# Velocity P-wave (km/s) = 5.11119 5.70188 5.41459
#
# Compressibility (1/GPa) = 0.03868258
#
# Stress axis : x y z
#
# Youngs Moduli (GPa) = 70.51877 67.19937 70.42252
#
# Poissons Ratio (x) = -0.01968 0.09316
# Poissons Ratio (y) = -0.02065 0.08870
# Poissons Ratio (z) = 0.09329 0.08464
#
# Static dielectric constant tensor:
#      x y z
#    x 1.874680 0.000000 0.000000 
#    y 0.000000 1.793310 0.000000 
#    z 0.000000 0.000000 1.800010 
# 
# From -- ./inp_files/14193.got.cif
#   From: 2010.05.17/outbox.cif.g08.bks.cpg/sg54_8_cif.got.tgz:14193.got - 2010.06.03 13:09:01.
