data_PCOD9424630
_publ_section_title
;
Structure prediction by ZEFSAII (Michael W. Deem and Ramdas Pophale) SiO2 
 PCOD9424630
Probable space group: P C C A
;
_chemical_formula_sum "Si O2"
_cell_formula_units_Z 56
_cell_length_a 30.000000
_cell_length_b 6.000000
_cell_length_c 15.000000
_cell_angle_alpha 90.000000
_cell_angle_beta 90.000000
_cell_angle_gamma 90.000000
_cell_volume 2700.000000
_symmetry_space_group_name_H-M "P C C A"
_symmetry_group_IT_number 54
_symmetry_cell_setting 'orthorhombic'
loop_
_space_group_symop_operation_xyz
x,y,z
1/2-x,-y,z
1/2+x,-y,1/2-z
-x,y,1/2-z
-x,-y,-z
1/2+x,y,-z
1/2-x,y,1/2+z
x,-y,1/2+z
loop_
_atom_site_type_symbol
_atom_site_label
_atom_site_fract_x
_atom_site_fract_y
_atom_site_fract_z
Si Si1 0.042925 0.591495 0.206447
Si Si2 0.197105 0.512548 0.831315
Si Si3 0.605926 0.218542 0.858618
Si Si4 0.122901 0.503247 0.479279
Si Si5 0.838466 0.010471 0.717619
Si Si6 0.555741 0.136629 0.464546
Si Si7 0.428036 0.131163 0.372861
O O1 0.083209 0.413210 0.200896
O O2 0.053254 0.790617 0.277021
O O3 0.000000 0.476650 0.250000
O O4 0.966635 0.692045 0.392893
O O5 0.250000 0.500000 0.845382
O O6 0.187588 0.769137 0.793392
O O7 0.183416 0.263443 0.787135
O O8 0.165976 0.516429 0.918377
O O9 0.632988 0.348368 0.934253
O O10 0.636150 0.037681 0.809857
O O11 0.567135 0.081284 0.907154
O O12 0.100546 0.275316 0.511559
O O13 0.084892 0.640818 0.424718
O O14 0.879684 0.020108 0.647274
O O15 0.543022 0.030752 0.561951
#
# Coordination Sequence:
#
# PCOD9424630 Si02
#       7
#     8   8   8   8   8   8   8
#     4  11  24  39  60  96 138 174 224 296 347 384
#     4  11  23  40  66 101 135 167 215 276 345 396
#     4  10  21  39  63  90 123 178 233 270 323 412
#     4   9  20  37  64  92 121 172 224 268 321 411
#     4  11  21  40  69  93 127 179 221 265 323 415
#     4  10  20  39  64  94 119 170 237 264 330 404
#     4  10  20  38  65  91 125 177 225 265 326 406
#
# _framework density 20.740741
#
# number of rings (size 3 to 8) (size 9 to 14) (size 15 to 20)
#    0.000    1.714    2.857    2.143    2.000    1.143 
#    0.000    7.143    3.143    0.000    0.000    0.000 
#    0.000    0.000    0.000    0.000    0.000    0.000 
#
# Total GULP energy -311777.976079 kJ/mol
# GULP energy per Si atom -5567.463859 kJ/mol
# Density = 2.069353 g / cm^3
# Si number density = 20.740741 Si / 1000 Ang^3
#
#
#
# Elastic Constant Matrix: (Units=GPa)
#
#
# Indices 1 2 3 4 5 6 
#
# 1 62.5193 14.1212 23.9339 0.0000 0.0000 0.0000
# 2 14.1212 106.2760 31.0593 0.0000 0.0000 0.0000
# 3 23.9339 31.0593 90.7245 0.0000 0.0000 0.0000
# 4 0.0000 0.0000 0.0000 44.2177 0.0000 0.0000
# 5 0.0000 0.0000 0.0000 0.0000 21.2122 0.0000
# 6 0.0000 0.0000 0.0000 0.0000 0.0000 25.7596
#
#
#
# Elastic Compliance Matrix: (Units=1/GPa)
#
#
# Indices 1 2 3 4 5 6 
#
# 1 0.017909 -0.001110 -0.004345 0.000000 0.000000 0.000000
# 2 -0.001110 0.010524 -0.003310 0.000000 0.000000 0.000000
# 3 -0.004345 -0.003310 0.013302 0.000000 0.000000 0.000000
# 4 0.000000 0.000000 0.000000 0.022615 0.000000 0.000000
# 5 0.000000 0.000000 0.000000 0.000000 0.047143 0.000000
# 6 0.000000 0.000000 0.000000 0.000000 0.000000 0.038820
#
#
# Mechanical properties :
#
#
# Convention : Reuss Voigt Hill
#
# Bulk Modulus (GPa) = 41.31251 44.19429 42.75340
# Shear Modulus (GPa) = 28.42340 30.93159 29.67749
#
# Velocity S-wave (km/s) = 3.70593 3.86598 3.78680
# Velocity P-wave (km/s) = 6.18657 6.42511 6.30696
#
# Compressibility (1/GPa) = 0.02420575
#
# Stress axis : x y z
#
# Youngs Moduli (GPa) = 55.83797 95.01779 75.17812
#
# Poissons Ratio (x) = 0.10546 0.32662
# Poissons Ratio (y) = 0.06198 0.24885
# Poissons Ratio (z) = 0.24259 0.31453
#
# Static dielectric constant tensor:
#      x y z
#    x 1.761380 0.000000 0.000000 
#    y 0.000000 1.777030 0.000000 
#    z 0.000000 0.000000 1.810990 
# 
# From -- ./inp_files/15359.got.cif
#   From: 2010.05.17/outbox.ucp.g08.bks.cvg/sg54_8_cif.got.tgz:15359.got - 2010.06.11 16:34:40.
