data_PCOD9424963
_publ_section_title
;
Structure prediction by ZEFSAII (Michael W. Deem and Ramdas Pophale) SiO2 
 PCOD9424963
Probable space group: P B A M
;
_chemical_formula_sum "Si O2"
_cell_formula_units_Z 40
_cell_length_a 17.757520
_cell_length_b 5.473956
_cell_length_c 19.564455
_cell_angle_alpha 90.000000
_cell_angle_beta 90.000000
_cell_angle_gamma 90.000000
_cell_volume 1901.740998
_symmetry_space_group_name_H-M "P B A M"
_symmetry_group_IT_number 55
_symmetry_cell_setting 'orthorhombic'
loop_
_space_group_symop_operation_xyz
x,y,z
-x,-y,z
1/2+x,1/2-y,-z
1/2-x,1/2+y,-z
-x,-y,-z
x,y,-z
1/2-x,1/2+y,z
1/2+x,1/2-y,z
loop_
_atom_site_type_symbol
_atom_site_label
_atom_site_fract_x
_atom_site_fract_y
_atom_site_fract_z
Si Si1 0.414328 0.584747 0.140028
Si Si2 0.911471 0.745688 0.710648
Si Si3 0.295668 0.273285 0.080597
Si Si4 0.548249 0.246352 0.000000
Si Si5 0.412968 0.252576 0.345447
Si Si6 0.047683 0.749825 0.500000
O O1 0.500000 0.500000 0.145406
O O2 0.401490 0.735358 0.208342
O O3 0.365438 0.341319 0.128769
O O4 0.405550 0.738196 0.070057
O O5 0.878212 0.495413 0.682875
O O6 0.999712 0.749252 0.684093
O O7 0.878696 0.995892 0.680834
O O8 0.257224 0.012410 0.092380
O O9 0.318038 0.278868 0.000000
O O10 0.500000 0.500000 0.000000
O O11 0.500000 0.000000 0.000000
O O12 0.411552 0.249376 0.427199
O O13 0.000000 0.500000 0.500000
O O14 0.000000 0.000000 0.500000
#
# Coordination Sequence:
#
# PCOD9424963 Si02
#       6
#     8   8   8   4   8   4
#     4  11  22  39  60  85 112 147 190 244 282 343
#     4  10  19  29  46  69 106 132 175 219 280 311
#     4  10  23  43  60  79 109 148 190 238 291 344
#     4  10  24  34  48  80 108 132 179 230 275 312
#     4  10  18  30  41  70 103 144 176 211 268 331
#     4  12  16  26  44  60  96 154 184 200 246 346
#
# _framework density 21.033359000000001
#
# number of rings (size 3 to 8) (size 9 to 14) (size 15 to 20)
#    0.000    1.600    7.000    0.000    2.800    4.800 
#    0.000    0.000    0.000    0.000    0.000    0.000 
#    0.000    0.000    0.000   30.600    0.000    0.200 
#
# Total GULP energy -223274.927141 kJ/mol
# GULP energy per Si atom -5581.873179 kJ/mol
# Density = 2.098549 g / cm^3
# Si number density = 21.033359 Si / 1000 Ang^3
#
#
#
# Elastic Constant Matrix: (Units=GPa)
#
#
# Indices 1 2 3 4 5 6 
#
# 1 44.0659 18.9994 1.7859 0.0000 0.0000 0.0000
# 2 18.9994 189.7554 59.5436 0.0000 0.0000 0.0000
# 3 1.7859 59.5436 195.1489 0.0000 0.0000 0.0000
# 4 0.0000 0.0000 0.0000 10.9009 0.0000 0.0000
# 5 0.0000 0.0000 0.0000 0.0000 -7.1662 0.0000
# 6 0.0000 0.0000 0.0000 0.0000 0.0000 18.5338
#
#
#
# Elastic Compliance Matrix: (Units=1/GPa)
#
#
# Indices 1 2 3 4 5 6 
#
# 1 0.023773 -0.002557 0.000563 0.000000 0.000000 0.000000
# 2 -0.002557 0.006103 -0.001839 0.000000 0.000000 0.000000
# 3 0.000563 -0.001839 0.005680 0.000000 0.000000 0.000000
# 4 0.000000 0.000000 0.000000 0.091735 0.000000 0.000000
# 5 0.000000 0.000000 0.000000 0.000000 -0.139544 0.000000
# 6 0.000000 0.000000 0.000000 0.000000 0.000000 0.053955
#
#
# Mechanical properties :
#
#
# Convention : Reuss Voigt Hill
#
# Bulk Modulus (GPa) = 35.85506 65.51421 50.68464
# Shear Modulus (GPa) = 85.22933 27.69646 56.46290
#
# Velocity S-wave (km/s) = 6.37252 3.63269 5.18678
# Velocity P-wave (km/s) = 8.43973 6.98646 7.74725
#
# Compressibility (1/GPa) = 0.02789006
#
# Stress axis : x y z
#
# Youngs Moduli (GPa) = 42.06475 163.85603 176.05110
#
# Poissons Ratio (x) = 0.41895 -0.09904
# Poissons Ratio (y) = 0.10755 0.32371
# Poissons Ratio (z) = -0.02366 0.30128
#
# Static dielectric constant tensor:
#      x y z
#    x 1.791440 0.000000 0.000000 
#    y 0.000000 1.761480 0.000000 
#    z 0.000000 0.000000 1.803370 
# 
# From -- ./inp_files/21875.got.cif
#   From: 2010.05.17/outbox.cif.g08.bks.cpg/sg55_11_cif.got.tgz:21875.got - 2010.06.03 13:27:54.
