data_PCOD9424122
_publ_section_title
;
Structure prediction by ZEFSAII (Michael W. Deem and Ramdas Pophale) SiO2 
 PCOD9424122
Probable space group: P C C A
;
_chemical_formula_sum "Si O2"
_cell_formula_units_Z 56
_cell_length_a 22.402697
_cell_length_b 6.667455
_cell_length_c 19.176700
_cell_angle_alpha 90.000000
_cell_angle_beta 90.000000
_cell_angle_gamma 90.000000
_cell_volume 2864.404006
_symmetry_space_group_name_H-M "P C C A"
_symmetry_group_IT_number 54
_symmetry_cell_setting 'orthorhombic'
loop_
_space_group_symop_operation_xyz
x,y,z
1/2-x,-y,z
1/2+x,-y,1/2-z
-x,y,1/2-z
-x,-y,-z
1/2+x,y,-z
1/2-x,y,1/2+z
x,-y,1/2+z
loop_
_atom_site_type_symbol
_atom_site_label
_atom_site_fract_x
_atom_site_fract_y
_atom_site_fract_z
Si Si1 0.621242 0.698280 0.849437
Si Si2 0.369610 0.375882 0.540373
Si Si3 0.492688 0.193683 0.331812
Si Si4 0.401725 0.510553 0.394513
Si Si5 0.001532 0.164057 0.063325
Si Si6 0.686281 0.897906 0.352159
Si Si7 0.318017 0.433060 0.767202
O O1 0.642050 0.581596 0.917886
O O2 0.550641 0.676588 0.850888
O O3 0.650842 0.601905 0.781279
O O4 0.637017 0.929988 0.849978
O O5 0.365975 0.414675 0.458852
O O6 0.436033 0.284334 0.555795
O O7 0.324229 0.224849 0.577208
O O8 0.500000 0.162260 0.250000
O O9 0.437898 0.329845 0.357090
O O10 0.495765 0.980426 0.369917
O O11 0.447948 0.673034 0.428498
O O12 0.357499 0.599457 0.336126
O O13 0.000000 0.000000 0.000000
O O14 0.681774 0.756849 0.284623
O O15 0.750000 0.000000 0.352075
O O16 0.250000 0.500000 0.782323
#
# Coordination Sequence:
#
# PCOD9424122 Si02
#       7
#     8   8   8   8   8   8   8
#     4  11  22  42  69  96 130 173 226 271 326 401
#     4  11  24  41  68  99 134 179 221 275 337 402
#     4  12  24  38  68 101 137 170 221 274 333 406
#     4  12  26  43  66  99 143 178 214 279 348 398
#     4  12  24  41  66  97 138 182 219 270 340 404
#     4  11  24  45  73  94 127 178 235 277 329 404
#     4  11  25  46  68  95 132 179 223 279 338 399
#
# _framework density 19.550315000000001
#
# number of rings (size 3 to 8) (size 9 to 14) (size 15 to 20)
#    0.000    0.571    7.143    1.286    2.000    0.571 
#    2.571    0.000    0.000    0.000    0.000    0.000 
#    0.000    0.000    0.000    0.000    0.000    0.000 
#
# Total GULP energy -312700.668317 kJ/mol
# GULP energy per Si atom -5583.940506 kJ/mol
# Density = 1.950582 g / cm^3
# Si number density = 19.550315 Si / 1000 Ang^3
#
#
#
# Elastic Constant Matrix: (Units=GPa)
#
#
# Indices 1 2 3 4 5 6 
#
# 1 57.8392 17.4941 22.4936 0.0000 0.0000 0.0000
# 2 17.4941 86.1077 54.3159 0.0000 0.0000 0.0000
# 3 22.4936 54.3159 146.8414 0.0000 0.0000 0.0000
# 4 0.0000 0.0000 0.000039903.5497 0.0000 0.0000
# 5 0.0000 0.0000 0.0000 0.0000 17.0772 0.0000
# 6 0.0000 0.0000 0.0000 0.0000 0.0000 35.2734
#
#
#
# Elastic Compliance Matrix: (Units=1/GPa)
#
#
# Indices 1 2 3 4 5 6 
#
# 1 0.018826 -0.002616 -0.001916 0.000000 0.000000 0.000000
# 2 -0.002616 0.015511 -0.005337 0.000000 0.000000 0.000000
# 3 -0.001916 -0.005337 0.009078 0.000000 0.000000 0.000000
# 4 0.000000 0.000000 0.000000 0.000025 0.000000 0.000000
# 5 0.000000 0.000000 0.000000 0.000000 0.058558 0.000000
# 6 0.000000 0.000000 0.000000 0.000000 0.000000 0.028350
#
#
# Mechanical properties :
#
#
# Convention : Reuss Voigt Hill
#
# Bulk Modulus (GPa) = 42.23568 53.26619 47.75093
# Shear Modulus (GPa) = 31.65008 8004.27903 4017.96455
#
# Velocity S-wave (km/s) = 4.02793 64.05531 45.38340
# Velocity P-wave (km/s) = 6.57896 74.14905 52.63727
#
# Compressibility (1/GPa) = 0.02367666
#
# Stress axis : x y z
#
# Youngs Moduli (GPa) = 53.11872 64.46923 110.16073
#
# Poissons Ratio (x) = 0.16866 0.21108
# Poissons Ratio (y) = 0.13896 0.58791
# Poissons Ratio (z) = 0.10178 0.34406
#
# Static dielectric constant tensor:
#      x y z
#    x 1.700360 0.000000 0.000000 
#    y 0.000000 1.693650 0.000000 
#    z 0.000000 0.000000 1.656030 
# 
# From -- ./inp_files/22306.got.cif
#   From: 2010.05.17/outbox.cif.g08.bks.cpg/sg54_12_cif.got.tgz:22306.got - 2010.06.03 13:09:01.
