data_PCOD9424308
_publ_section_title
;
Structure prediction by ZEFSAII (Michael W. Deem and Ramdas Pophale) SiO2 
 PCOD9424308
Probable space group: P C C A
;
_chemical_formula_sum "Si O2"
_cell_formula_units_Z 48
_cell_length_a 13.902861
_cell_length_b 11.134502
_cell_length_c 12.264995
_cell_angle_alpha 90.000000
_cell_angle_beta 90.000000
_cell_angle_gamma 90.000000
_cell_volume 1898.638809
_symmetry_space_group_name_H-M "P C C A"
_symmetry_group_IT_number 54
_symmetry_cell_setting 'orthorhombic'
loop_
_space_group_symop_operation_xyz
x,y,z
1/2-x,-y,z
1/2+x,-y,1/2-z
-x,y,1/2-z
-x,-y,-z
1/2+x,y,-z
1/2-x,y,1/2+z
x,-y,1/2+z
loop_
_atom_site_type_symbol
_atom_site_label
_atom_site_fract_x
_atom_site_fract_y
_atom_site_fract_z
Si Si1 0.840590 0.710318 0.096515
Si Si2 0.179127 0.109835 0.344008
Si Si3 0.860596 0.187981 0.377567
Si Si4 0.500000 0.365652 0.750000
Si Si5 0.897747 0.539787 0.545962
Si Si6 0.500000 0.227963 0.250000
Si Si7 0.134535 0.797456 0.062939
O O1 0.745605 0.769287 0.147953
O O2 0.830922 0.579286 0.042906
O O3 0.919796 0.696136 0.188544
O O4 0.881540 0.804684 0.006846
O O5 0.129991 0.099315 0.226387
O O6 0.117561 0.124798 0.453403
O O7 0.250000 0.000000 0.358207
O O8 0.930953 0.291068 0.331264
O O9 0.743499 0.191557 0.391758
O O10 0.577379 0.428116 0.671061
O O11 0.874137 0.658458 0.475483
O O12 0.000000 0.500000 0.500000
O O13 0.439175 0.164398 0.156208
#
# Coordination Sequence:
#
# PCOD9424308 Si02
#       7
#     8   8   8   4   8   4   8
#     4  11  25  44  71 109 147 190 242 298 386 444
#     4  11  26  52  77 101 146 201 260 323 364 435
#     4  11  24  45  71 105 145 196 253 302 372 445
#     4  12  23  44  71 104 152 193 242 307 360 460
#     4  12  23  41  70 109 152 187 236 308 378 462
#     4  12  21  46  73 112 156 187 238 305 372 468
#     4  11  25  45  75 108 150 197 247 302 389 451
#
# _framework density 25.281271
#
# number of rings (size 3 to 8) (size 9 to 14) (size 15 to 20)
#    0.000    0.667    6.667    0.500    0.000    5.333 
#    3.000    1.667    0.000    0.000    0.000    0.000 
#    0.000    0.000    0.000    0.000    0.000    0.000 
#
# Total GULP energy -267714.567259 kJ/mol
# GULP energy per Si atom -5577.386818 kJ/mol
# Density = 2.522373 g / cm^3
# Si number density = 25.281271 Si / 1000 Ang^3
#
#
#
# Elastic Constant Matrix: (Units=GPa)
#
#
# Indices 1 2 3 4 5 6 
#
# 1 64.8767 14.7553 17.9506 0.0000 0.0000 0.0000
# 2 14.7553 91.5763 20.3861 0.0000 0.0000 0.0000
# 3 17.9506 20.3861 158.7945 0.0000 0.0000 0.0000
# 4 0.0000 0.0000 0.0000 -10.0193 0.0000 0.0000
# 5 0.0000 0.0000 0.0000 0.0000 61.8486 0.0000
# 6 0.0000 0.0000 0.0000 0.0000 0.0000 22.9521
#
#
#
# Elastic Compliance Matrix: (Units=1/GPa)
#
#
# Indices 1 2 3 4 5 6 
#
# 1 0.016365 -0.002291 -0.001556 0.000000 0.000000 0.000000
# 2 -0.002291 0.011562 -0.001225 0.000000 0.000000 0.000000
# 3 -0.001556 -0.001225 0.006631 0.000000 0.000000 0.000000
# 4 0.000000 0.000000 0.000000 -0.099807 0.000000 0.000000
# 5 0.000000 0.000000 0.000000 0.000000 0.016169 0.000000
# 6 0.000000 0.000000 0.000000 0.000000 0.000000 0.043569
#
#
# Mechanical properties :
#
#
# Convention : Reuss Voigt Hill
#
# Bulk Modulus (GPa) = 40.96004 46.82573 43.89289
# Shear Modulus (GPa) = 391.54864 32.43331 211.99098
#
# Velocity S-wave (km/s) = 12.45846 3.58564 9.16706
# Velocity P-wave (km/s) = 14.93947 5.97533 11.37744
#
# Compressibility (1/GPa) = 0.02441404
#
# Stress axis : x y z
#
# Youngs Moduli (GPa) = 61.10493 86.49249 150.81485
#
# Poissons Ratio (x) = 0.19811 0.23466
# Poissons Ratio (y) = 0.13996 0.18480
# Poissons Ratio (z) = 0.09507 0.10599
#
# Static dielectric constant tensor:
#      x y z
#    x 2.038910 0.000000 0.000000 
#    y 0.000000 2.039970 0.000000 
#    z 0.000000 0.000000 2.050990 
# 
# From -- ./inp_files/8985.got.cif
#   From: 2010.05.17/outbox.cif.g08.bks.cpg/sg54_5_cif.got.tgz:8985.got - 2010.06.03 13:09:01.
