data_PCOD9424306
_publ_section_title
;
Structure prediction by ZEFSAII (Michael W. Deem and Ramdas Pophale) SiO2 
 PCOD9424306
Probable space group: P C C A
;
_chemical_formula_sum "Si O2"
_cell_formula_units_Z 40
_cell_length_a 13.997605
_cell_length_b 5.297085
_cell_length_c 22.201427
_cell_angle_alpha 90.000000
_cell_angle_beta 90.000000
_cell_angle_gamma 90.000000
_cell_volume 1646.158184
_symmetry_space_group_name_H-M "P C C A"
_symmetry_group_IT_number 54
_symmetry_cell_setting 'orthorhombic'
loop_
_space_group_symop_operation_xyz
x,y,z
1/2-x,-y,z
1/2+x,-y,1/2-z
-x,y,1/2-z
-x,-y,-z
1/2+x,y,-z
1/2-x,y,1/2+z
x,-y,1/2+z
loop_
_atom_site_type_symbol
_atom_site_label
_atom_site_fract_x
_atom_site_fract_y
_atom_site_fract_z
Si Si1 0.009042 0.771362 0.436840
Si Si2 0.890265 0.034639 0.237455
Si Si3 0.356164 0.539379 0.838370
Si Si4 0.355215 0.429595 0.520304
Si Si5 0.647899 0.108951 0.874522
O O1 0.062495 0.597057 0.387308
O O2 0.099227 0.802178 0.482594
O O3 0.929958 0.656003 0.482037
O O4 0.947860 0.968540 0.397836
O O5 0.882615 0.284559 0.196947
O O6 0.849347 0.102889 0.302947
O O7 0.000000 0.971162 0.250000
O O8 0.848515 0.785944 0.205129
O O9 0.250000 0.500000 0.864408
O O10 0.250000 0.500000 0.501289
O O11 0.355642 0.374374 0.591839
O O12 0.750000 0.000000 0.896823
#
# Coordination Sequence:
#
# PCOD9424306 Si02
#       5
#     8   8   8   8   8
#     4  11  25  45  70 100 142 188 237 302 364 433
#     4  12  26  46  75 105 150 191 243 301 369 435
#     4  12  26  48  71 110 147 196 242 300 367 445
#     4  11  24  45  71 101 136 184 242 300 366 438
#     4  12  24  43  69 103 138 186 238 304 361 438
#
# _framework density 24.298999999999999
#
# number of rings (size 3 to 8) (size 9 to 14) (size 15 to 20)
#    0.000    0.400    4.000    4.800    2.800    0.800 
#    0.000    0.000    0.000    0.000    0.000    0.000 
#    0.000    0.000    0.000    0.000    0.000    0.000 
#
# Total GULP energy -223387.755731 kJ/mol
# GULP energy per Si atom -5584.693893 kJ/mol
# Density = 2.424369 g / cm^3
# Si number density = 24.299000 Si / 1000 Ang^3
#
#
#
# Elastic Constant Matrix: (Units=GPa)
#
#
# Indices 1 2 3 4 5 6 
#
# 1 181.4769 35.9541 47.2717 0.0000 0.0000 0.0000
# 2 35.9541 104.8118 34.4406 0.0000 0.0000 0.0000
# 3 47.2717 34.4406 120.2810 0.0000 0.0000 0.0000
# 4 0.0000 0.0000 0.0000 19.1135 0.0000 0.0000
# 5 0.0000 0.0000 0.0000 0.0000 -67.6499 0.0000
# 6 0.0000 0.0000 0.0000 0.0000 0.0000 19.8809
#
#
#
# Elastic Compliance Matrix: (Units=1/GPa)
#
#
# Indices 1 2 3 4 5 6 
#
# 1 0.006345 -0.001498 -0.002065 0.000000 0.000000 0.000000
# 2 -0.001498 0.010886 -0.002528 0.000000 0.000000 0.000000
# 3 -0.002065 -0.002528 0.009849 0.000000 0.000000 0.000000
# 4 0.000000 0.000000 0.000000 0.052319 0.000000 0.000000
# 5 0.000000 0.000000 0.000000 0.000000 -0.014782 0.000000
# 6 0.000000 0.000000 0.000000 0.000000 0.000000 0.050300
#
#
# Mechanical properties :
#
#
# Convention : Reuss Voigt Hill
#
# Bulk Modulus (GPa) = 67.12370 71.32251 69.22310
# Shear Modulus (GPa) = 37.86041 13.52912 25.69477
#
# Velocity S-wave (km/s) = 3.95157 2.36217 3.25536
# Velocity P-wave (km/s) = 6.96447 6.07088 6.53297
#
# Compressibility (1/GPa) = 0.01489787
#
# Stress axis : x y z
#
# Youngs Moduli (GPa) = 157.60538 91.86500 101.53108
#
# Poissons Ratio (x) = 0.13762 0.20963
# Poissons Ratio (y) = 0.23611 0.25668
# Poissons Ratio (z) = 0.32540 0.23225
#
# Static dielectric constant tensor:
#      x y z
#    x 1.969160 0.000000 0.000000 
#    y 0.000000 1.976320 0.000000 
#    z 0.000000 0.000000 1.949160 
# 
# From -- ./inp_files/24319.got.cif
#   From: 2010.05.17/outbox.cif.g08.bks.cpg/sg54_13_cif.got.tgz:24319.got - 2010.06.03 13:09:01.
