data_PCOD9424825
_publ_section_title
;
Structure prediction by ZEFSAII (Michael W. Deem and Ramdas Pophale) SiO2 
 PCOD9424825
Probable space group: P B A M
;
_chemical_formula_sum "Si O2"
_cell_formula_units_Z 34
_cell_length_a 5.462493
_cell_length_b 17.902113
_cell_length_c 15.908879
_cell_angle_alpha 90.000000
_cell_angle_beta 90.000000
_cell_angle_gamma 90.000000
_cell_volume 1555.731933
_symmetry_space_group_name_H-M "P B A M"
_symmetry_group_IT_number 55
_symmetry_cell_setting 'orthorhombic'
loop_
_space_group_symop_operation_xyz
x,y,z
-x,-y,z
1/2+x,1/2-y,-z
1/2-x,1/2+y,-z
-x,-y,-z
x,y,-z
1/2-x,1/2+y,z
1/2+x,1/2-y,z
loop_
_atom_site_type_symbol
_atom_site_label
_atom_site_fract_x
_atom_site_fract_y
_atom_site_fract_z
Si Si1 0.617993 0.717090 0.600132
Si Si2 0.269042 0.417032 0.099834
Si Si3 0.169637 0.070940 0.645155
Si Si4 0.770873 0.411744 0.167679
Si Si5 0.500000 0.000000 0.500000
O O1 0.639330 0.730771 0.500000
O O2 0.891221 0.732466 0.633513
O O3 0.516380 0.634522 0.614092
O O4 0.509281 0.379638 0.139306
O O5 0.248732 0.501114 0.138162
O O6 0.011503 0.379869 0.123628
O O7 0.295785 0.423414 0.000000
O O8 0.294904 0.092337 0.732449
O O9 0.359499 0.049355 0.573244
O O10 0.000000 0.000000 0.663201
#
# Coordination Sequence:
#
# PCOD9424825 Si02
#       5
#     8   8   8   8   2
#     4  10  24  43  62  82 115 164 214 257 303 366
#     4  10  17  31  50  77 120 160 185 225 309 380
#     4  12  25  39  61  91 128 157 212 259 321 362
#     4  10  19  31  49  80 115 156 180 250 292 359
#     4  12  26  36  60  90 118 168 196 258 306 374
#
# _framework density 21.854666999999999
#
# number of rings (size 3 to 8) (size 9 to 14) (size 15 to 20)
#    0.000    1.412    3.529    5.294    3.294    0.000 
#    0.000    0.000    0.000    0.000    0.000    0.000 
#    0.000   32.000    0.000    0.000    0.000    0.000 
#
# Total GULP energy -189388.017836 kJ/mol
# GULP energy per Si atom -5570.235819 kJ/mol
# Density = 2.180492 g / cm^3
# Si number density = 21.854667 Si / 1000 Ang^3
#
#
#
# Elastic Constant Matrix: (Units=GPa)
#
#
# Indices 1 2 3 4 5 6 
#
# 1 112.7835 14.7476 70.8362 0.0000 0.0000 0.0000
# 2 14.7476 26.0600 -17.4872 0.0000 0.0000 0.0000
# 3 70.8362 -17.4872 145.9067 0.0000 0.0000 0.0000
# 4 0.0000 0.0000 0.0000 5.8893 0.0000 0.0000
# 5 0.0000 0.0000 0.0000 0.0000 -19.2621 0.0000
# 6 0.0000 0.0000 0.0000 0.0000 0.0000 22.5425
#
#
#
# Elastic Compliance Matrix: (Units=1/GPa)
#
#
# Indices 1 2 3 4 5 6 
#
# 1 0.017902 -0.017359 -0.010772 0.000000 0.000000 0.000000
# 2 -0.017359 0.058562 0.015446 0.000000 0.000000 0.000000
# 3 -0.010772 0.015446 0.013934 0.000000 0.000000 0.000000
# 4 0.000000 0.000000 0.000000 0.169800 0.000000 0.000000
# 5 0.000000 0.000000 0.000000 0.000000 -0.051915 0.000000
# 6 0.000000 0.000000 0.000000 0.000000 0.000000 0.044361
#
#
# Mechanical properties :
#
#
# Convention : Reuss Voigt Hill
#
# Bulk Modulus (GPa) = 15.37768 46.77149 31.07458
# Shear Modulus (GPa) = 16.68403 16.27750 16.48076
#
# Velocity S-wave (km/s) = 2.76598 2.73208 2.74908
# Velocity P-wave (km/s) = 4.15361 5.60356 4.93216
#
# Compressibility (1/GPa) = 0.06502932
#
# Stress axis : x y z
#
# Youngs Moduli (GPa) = 55.86048 17.07604 71.76451
#
# Poissons Ratio (x) = 0.29642 0.77302
# Poissons Ratio (y) = 0.96968 -1.10849
# Poissons Ratio (z) = 0.60171 -0.26376
#
# Static dielectric constant tensor:
#      x y z
#    x 1.889810 0.000000 0.000000 
#    y 0.000000 1.806010 0.000000 
#    z 0.000000 0.000000 1.738060 
# 
# From -- ./inp_files/16500.got.cif
#   From: 2010.05.17/outbox.cif.g08.bks.cpg/sg55_9_cif.got.tgz:16500.got - 2010.06.03 13:27:54.
