data_PCOD9424719
_publ_section_title
;
Structure prediction by ZEFSAII (Michael W. Deem and Ramdas Pophale) SiO2 
 PCOD9424719
Probable space group: P B A M
;
_chemical_formula_sum "Si O2"
_cell_formula_units_Z 64
_cell_length_a 5.362802
_cell_length_b 17.996424
_cell_length_c 32.685572
_cell_angle_alpha 90.000000
_cell_angle_beta 90.000000
_cell_angle_gamma 90.000000
_cell_volume 3154.525692
_symmetry_space_group_name_H-M "P B A M"
_symmetry_group_IT_number 55
_symmetry_cell_setting 'orthorhombic'
loop_
_space_group_symop_operation_xyz
x,y,z
-x,-y,z
1/2+x,1/2-y,-z
1/2-x,1/2+y,-z
-x,-y,-z
x,y,-z
1/2-x,1/2+y,z
1/2+x,1/2-y,z
loop_
_atom_site_type_symbol
_atom_site_label
_atom_site_fract_x
_atom_site_fract_y
_atom_site_fract_z
Si Si1 0.298212 0.710864 0.049222
Si Si2 0.349953 0.797501 0.451597
Si Si3 0.248973 0.950693 0.873245
Si Si4 0.438261 0.914124 0.045278
Si Si5 0.465463 0.909782 0.617475
Si Si6 0.264382 0.910386 0.782867
Si Si7 0.036820 0.084434 0.343946
Si Si8 0.771386 0.918162 0.748877
O O1 0.063153 0.760247 0.064323
O O2 0.192462 0.628653 0.056256
O O3 0.314311 0.717185 0.000000
O O4 0.355580 0.814803 0.500000
O O5 0.588121 0.744118 0.443049
O O6 0.380910 0.871146 0.424332
O O7 0.254104 0.908486 0.916495
O O8 0.280597 0.905279 0.831525
O O9 0.500000 0.000000 0.873938
O O10 0.000000 0.000000 0.869712
O O11 0.500000 0.000000 0.040952
O O12 0.349046 0.887832 0.000000
O O13 0.738893 0.879981 0.630340
O O14 0.245969 0.887419 0.649958
O O15 0.500000 0.000000 0.615667
O O16 0.506535 0.882412 0.759128
O O17 0.001332 0.877308 0.769981
O O18 0.247380 0.998189 0.768499
O O19 0.149808 0.077989 0.298334
O O20 0.000000 0.000000 0.358832
#
# Coordination Sequence:
#
# PCOD9424719 Si02
#       8
#     8   8   8   8   8   8   8   8
#     4   9  18  34  54  73  96 129 171 212 251 308
#     4  10  21  39  61  80 106 153 205 239 269 325
#     4  11  19  31  44  67 102 140 170 212 261 316
#     4   9  20  35  53  77 108 143 174 220 280 333
#     4  10  21  33  51  83 118 143 174 232 288 328
#     4  10  16  25  41  63  93 140 171 208 249 313
#     4  10  18  28  45  73 111 146 166 212 281 340
#     4  10  16  25  43  63  96 143 170 201 253 333
#
# _framework density 20.288312000000001
#
# number of rings (size 3 to 8) (size 9 to 14) (size 15 to 20)
#    0.000    2.125    3.750    1.500    3.500    2.500 
#    0.000    3.750    0.000    4.500    0.000    0.000 
#    0.000   20.000    0.000    0.000    0.000    0.000 
#
# Total GULP energy -356284.968806 kJ/mol
# GULP energy per Si atom -5566.952638 kJ/mol
# Density = 2.024214 g / cm^3
# Si number density = 20.288312 Si / 1000 Ang^3
#
#
#
# Elastic Constant Matrix: (Units=GPa)
#
#
# Indices 1 2 3 4 5 6 
#
# 1 172.2025 15.2760 31.1606 0.0000 0.0000 0.0000
# 2 15.2760 40.5335 5.6201 0.0000 0.0000 0.0000
# 3 31.1606 5.6201 77.0795 0.0000 0.0000 0.0000
# 4 0.0000 0.0000 0.0000 1.8925 0.0000 0.0000
# 5 0.0000 0.0000 0.0000 0.0000 14.2398 0.0000
# 6 0.0000 0.0000 0.0000 0.0000 0.0000 17.5010
#
#
#
# Elastic Compliance Matrix: (Units=1/GPa)
#
#
# Indices 1 2 3 4 5 6 
#
# 1 0.006435 -0.002086 -0.002450 0.000000 0.000000 0.000000
# 2 -0.002086 0.025599 -0.001023 0.000000 0.000000 0.000000
# 3 -0.002450 -0.001023 0.014038 0.000000 0.000000 0.000000
# 4 0.000000 0.000000 0.000000 0.528391 0.000000 0.000000
# 5 0.000000 0.000000 0.000000 0.000000 0.070226 0.000000
# 6 0.000000 0.000000 0.000000 0.000000 0.000000 0.057140
#
#
# Mechanical properties :
#
#
# Convention : Reuss Voigt Hill
#
# Bulk Modulus (GPa) = 28.60767 43.76989 36.18878
# Shear Modulus (GPa) = 6.90038 22.57725 14.73881
#
# Velocity S-wave (km/s) = 1.84622 3.33952 2.69823
# Velocity P-wave (km/s) = 4.32156 6.04074 5.25198
#
# Compressibility (1/GPa) = 0.03495567
#
# Stress axis : x y z
#
# Youngs Moduli (GPa) = 155.39079 39.06421 71.23272
#
# Poissons Ratio (x) = 0.08148 0.17449
# Poissons Ratio (y) = 0.32410 0.07289
# Poissons Ratio (z) = 0.38064 0.03998
#
# Static dielectric constant tensor:
#      x y z
#    x 1.799620 0.000000 0.000000 
#    y 0.000000 1.722150 0.000000 
#    z 0.000000 0.000000 1.774400 
# 
# From -- ./inp_files/24124.got.cif
#   From: 2010.05.17/outbox.cif.g08.bks.cpg/sg55_13_cif.got.tgz:24124.got - 2010.06.03 13:27:54.
