data_PCOD9424300
_publ_section_title
;
Structure prediction by ZEFSAII (Michael W. Deem and Ramdas Pophale) SiO2 
 PCOD9424300
Probable space group: P C C A
;
_chemical_formula_sum "Si O2"
_cell_formula_units_Z 36
_cell_length_a 9.166170
_cell_length_b 8.413945
_cell_length_c 19.341727
_cell_angle_alpha 90.000000
_cell_angle_beta 90.000000
_cell_angle_gamma 90.000000
_cell_volume 1491.704588
_symmetry_space_group_name_H-M "P C C A"
_symmetry_group_IT_number 54
_symmetry_cell_setting 'orthorhombic'
loop_
_space_group_symop_operation_xyz
x,y,z
1/2-x,-y,z
1/2+x,-y,1/2-z
-x,y,1/2-z
-x,-y,-z
1/2+x,y,-z
1/2-x,y,1/2+z
x,-y,1/2+z
loop_
_atom_site_type_symbol
_atom_site_label
_atom_site_fract_x
_atom_site_fract_y
_atom_site_fract_z
Si Si1 0.723087 0.824276 0.416874
Si Si2 0.408023 0.954770 0.810520
Si Si3 0.051113 0.225036 0.952864
Si Si4 0.250000 0.500000 0.913097
Si Si5 0.498138 0.316088 0.828563
O O1 0.608887 0.860425 0.478665
O O2 0.651762 0.687921 0.369060
O O3 0.877260 0.765864 0.447693
O O4 0.750000 0.000000 0.384088
O O5 0.500000 0.872052 0.750000
O O6 0.400809 0.857697 0.881167
O O7 0.250000 0.000000 0.783130
O O8 0.473779 0.126620 0.826210
O O9 0.139951 0.389222 0.955294
O O10 0.363120 0.396255 0.867580
O O11 0.500000 0.376395 0.750000
#
# Coordination Sequence:
#
# PCOD9424300 Si02
#       5
#     8   8   8   4   8
#     4  12  26  47  77 112 139 191 251 317 358 424
#     4  11  24  44  74 108 142 192 248 303 352 426
#     4  12  27  45  77 105 151 189 246 301 372 433
#     4  12  28  50  68 108 154 200 232 302 372 452
#     4  11  27  46  74 108 148 192 246 297 368 438
#
# _framework density 24.133465999999999
#
# number of rings (size 3 to 8) (size 9 to 14) (size 15 to 20)
#    0.000    0.444    4.444    2.667    6.222    7.111 
#    0.000    0.000    0.000    0.000    0.000    0.000 
#    0.000    0.000    0.000    0.000    0.000    0.000 
#
# Total GULP energy -201426.375325 kJ/mol
# GULP energy per Si atom -5595.177092 kJ/mol
# Density = 2.407854 g / cm^3
# Si number density = 24.133466 Si / 1000 Ang^3
#
#
#
# Elastic Constant Matrix: (Units=GPa)
#
#
# Indices 1 2 3 4 5 6 
#
# 1 201.4858 24.2197 51.3221 0.0000 0.0000 0.0000
# 2 24.2197 51.2653 13.7301 0.0000 0.0000 0.0000
# 3 51.3221 13.7301 127.8220 0.0000 0.0000 0.0000
# 4 0.0000 0.0000 0.0000 6.7175 0.0000 0.0000
# 5 0.0000 0.0000 0.0000 0.0000 27.1759 0.0000
# 6 0.0000 0.0000 0.0000 0.0000 0.0000 38.3920
#
#
#
# Elastic Compliance Matrix: (Units=1/GPa)
#
#
# Indices 1 2 3 4 5 6 
#
# 1 0.005752 -0.002161 -0.002077 0.000000 0.000000 0.000000
# 2 -0.002161 0.020896 -0.001377 0.000000 0.000000 0.000000
# 3 -0.002077 -0.001377 0.008805 0.000000 0.000000 0.000000
# 4 0.000000 0.000000 0.000000 0.148865 0.000000 0.000000
# 5 0.000000 0.000000 0.000000 0.000000 0.036797 0.000000
# 6 0.000000 0.000000 0.000000 0.000000 0.000000 0.026047
#
#
# Mechanical properties :
#
#
# Convention : Reuss Voigt Hill
#
# Bulk Modulus (GPa) = 41.28335 62.12412 51.70374
# Shear Modulus (GPa) = 18.76397 33.87715 26.32056
#
# Velocity S-wave (km/s) = 2.79141 3.75072 3.30604
# Velocity P-wave (km/s) = 5.24716 6.67495 6.00365
#
# Compressibility (1/GPa) = 0.02422284
#
# Stress axis : x y z
#
# Youngs Moduli (GPa) = 173.85086 47.85572 113.56702
#
# Poissons Ratio (x) = 0.10342 0.23592
# Poissons Ratio (y) = 0.37571 0.15637
# Poissons Ratio (z) = 0.36116 0.06589
#
# Static dielectric constant tensor:
#      x y z
#    x 1.516100 0.000000 0.000000 
#    y 0.000000 1.958010 0.000000 
#    z 0.000000 0.000000 1.984530 
# 
# From -- ./inp_files/20099.got.cif
#   From: 2010.05.17/outbox.cif.g08.bks.cpg/sg54_11_cif.got.tgz:20099.got - 2010.06.03 13:09:01.
