data_PCOD9424113
_publ_section_title
;
Structure prediction by ZEFSAII (Michael W. Deem and Ramdas Pophale) SiO2 
 PCOD9424113
Probable space group: P C C A
;
_chemical_formula_sum "Si O2"
_cell_formula_units_Z 40
_cell_length_a 14.123447
_cell_length_b 13.069751
_cell_length_c 8.426215
_cell_angle_alpha 90.000000
_cell_angle_beta 90.000000
_cell_angle_gamma 90.000000
_cell_volume 1555.394484
_symmetry_space_group_name_H-M "P C C A"
_symmetry_group_IT_number 54
_symmetry_cell_setting 'orthorhombic'
loop_
_space_group_symop_operation_xyz
x,y,z
1/2-x,-y,z
1/2+x,-y,1/2-z
-x,y,1/2-z
-x,-y,-z
1/2+x,y,-z
1/2-x,y,1/2+z
x,-y,1/2+z
loop_
_atom_site_type_symbol
_atom_site_label
_atom_site_fract_x
_atom_site_fract_y
_atom_site_fract_z
Si Si1 0.642207 0.378989 0.085092
Si Si2 0.721686 0.112098 0.891910
Si Si3 0.942491 0.154057 0.598265
Si Si4 0.358960 0.595144 0.292669
Si Si5 0.886795 0.199242 0.091148
O O1 0.590570 0.272492 0.124790
O O2 0.751316 0.382975 0.146132
O O3 0.604171 0.483504 0.161269
O O4 0.642159 0.391162 0.895468
O O5 0.663997 0.166147 0.752644
O O6 0.750000 0.000000 0.841090
O O7 0.652529 0.099616 0.043389
O O8 0.811036 0.178017 0.951286
O O9 0.000000 0.116994 0.750000
O O10 0.017305 0.143801 0.455622
O O11 0.414800 0.682840 0.385405
#
# Coordination Sequence:
#
# PCOD9424113 Si02
#       5
#     8   8   8   8   8
#     4  11  24  42  72 115 153 217 258 313 377 461
#     4  12  27  52  82 111 148 204 260 326 401 462
#     4  12  28  47  78 118 159 199 258 321 390 467
#     4  11  22  41  74 106 161 207 263 306 378 459
#     4  12  25  48  78 110 157 200 257 325 387 464
#
# _framework density 25.716947000000001
#
# number of rings (size 3 to 8) (size 9 to 14) (size 15 to 20)
#    0.000    0.400    4.000    4.800    5.600    1.600 
#    0.000    3.000    0.000    0.000    0.000    0.000 
#    0.000    0.000    0.000    0.000    0.000    0.000 
#
# Total GULP energy -224405.553126 kJ/mol
# GULP energy per Si atom -5610.138828 kJ/mol
# Density = 2.565841 g / cm^3
# Si number density = 25.716947 Si / 1000 Ang^3
#
#
#
# Elastic Constant Matrix: (Units=GPa)
#
#
# Indices 1 2 3 4 5 6 
#
# 1 116.4951 4.8494 36.1852 0.0000 0.0000 0.0000
# 2 4.8494 76.8701 21.0168 0.0000 0.0000 0.0000
# 3 36.1852 21.0168 110.4984 0.0000 0.0000 0.0000
# 4 0.0000 0.0000 0.0000 30.5526 0.0000 0.0000
# 5 0.0000 0.0000 0.0000 0.0000 52.3269 0.0000
# 6 0.0000 0.0000 0.0000 0.0000 0.0000 3.6847
#
#
#
# Elastic Compliance Matrix: (Units=1/GPa)
#
#
# Indices 1 2 3 4 5 6 
#
# 1 0.009561 0.000267 -0.003182 0.000000 0.000000 0.000000
# 2 0.000267 0.013730 -0.002699 0.000000 0.000000 0.000000
# 3 -0.003182 -0.002699 0.010605 0.000000 0.000000 0.000000
# 4 0.000000 0.000000 0.000000 0.032730 0.000000 0.000000
# 5 0.000000 0.000000 0.000000 0.000000 0.019111 0.000000
# 6 0.000000 0.000000 0.000000 0.000000 0.000000 0.271389
#
#
# Mechanical properties :
#
#
# Convention : Reuss Voigt Hill
#
# Bulk Modulus (GPa) = 44.11362 47.55184 45.83273
# Shear Modulus (GPa) = 13.30105 33.43367 23.36736
#
# Velocity S-wave (km/s) = 2.27669 3.60955 3.01763
# Velocity P-wave (km/s) = 4.90936 5.99186 5.47742
#
# Compressibility (1/GPa) = 0.02266873
#
# Stress axis : x y z
#
# Youngs Moduli (GPa) = 104.58866 72.83323 94.29365
#
# Poissons Ratio (x) = -0.01943 0.30002
# Poissons Ratio (y) = -0.02790 0.25448
# Poissons Ratio (z) = 0.33278 0.19656
#
# Static dielectric constant tensor:
#      x y z
#    x 1.998480 0.000000 0.000000 
#    y 0.000000 2.030000 0.000000 
#    z 0.000000 0.000000 1.998080 
# 
# From -- ./inp_files/3419.got.cif
#   From: 2010.05.17/outbox.cif.g08.bks.cpg/sg54_2_cif.got.tgz:3419.got - 2010.06.03 13:09:01.
