data_PCOD9424711
_publ_section_title
;
Structure prediction by ZEFSAII (Michael W. Deem and Ramdas Pophale) SiO2 
 PCOD9424711
Probable space group: P B A M
;
_chemical_formula_sum "Si O2"
_cell_formula_units_Z 40
_cell_length_a 14.196427
_cell_length_b 5.358543
_cell_length_c 22.196327
_cell_angle_alpha 90.000000
_cell_angle_beta 90.000000
_cell_angle_gamma 90.000000
_cell_volume 1688.522639
_symmetry_space_group_name_H-M "P B A M"
_symmetry_group_IT_number 55
_symmetry_cell_setting 'orthorhombic'
loop_
_space_group_symop_operation_xyz
x,y,z
-x,-y,z
1/2+x,1/2-y,-z
1/2-x,1/2+y,-z
-x,-y,-z
x,y,-z
1/2-x,1/2+y,z
1/2+x,1/2-y,z
loop_
_atom_site_type_symbol
_atom_site_label
_atom_site_fract_x
_atom_site_fract_y
_atom_site_fract_z
Si Si1 0.812005 0.342829 0.933088
Si Si2 0.113990 0.219509 0.617700
Si Si3 0.613242 0.471883 0.247832
Si Si4 0.899470 0.279659 0.430042
Si Si5 0.609847 0.973231 0.192128
O O1 0.761968 0.073109 0.929216
O O2 0.621261 0.883046 0.876203
O O3 0.856108 0.359656 0.000000
O O4 0.151092 0.494550 0.603923
O O5 0.001996 0.250175 0.601872
O O6 0.129622 0.129696 0.685345
O O7 0.145400 0.992524 0.575606
O O8 0.500000 0.500000 0.241035
O O9 0.647546 0.252918 0.203031
O O10 0.649508 0.750025 0.233810
O O11 0.910786 0.343335 0.500000
O O12 0.500000 0.000000 0.207369
#
# Coordination Sequence:
#
# PCOD9424711 Si02
#       5
#     8   8   8   8   8
#     4  10  21  39  61  81 105 139 175 210 261 321
#     4  10  16  24  36  51  81 124 168 215 239 298
#     4  10  18  29  44  66  99 134 170 213 253 305
#     4  10  17  23  34  53  80 122 182 219 238 291
#     4  10  21  33  52  80 107 133 174 222 253 310
#
# _framework density 23.689347999999999
#
# number of rings (size 3 to 8) (size 9 to 14) (size 15 to 20)
#    0.000    2.000    2.000    5.400    5.600    0.400 
#    0.000    0.000    0.000    7.200    0.000    0.000 
#    0.000    0.000    0.000    0.000    0.000  412.000 
#
# Total GULP energy -223385.775150 kJ/mol
# GULP energy per Si atom -5584.644379 kJ/mol
# Density = 2.363543 g / cm^3
# Si number density = 23.689348 Si / 1000 Ang^3
#
#
#
# Elastic Constant Matrix: (Units=GPa)
#
#
# Indices 1 2 3 4 5 6 
#
# 1 69.3015 -1.6994 -10.0473 0.0000 0.0000 0.0000
# 2 -1.6994 210.1999 52.5740 0.0000 0.0000 0.0000
# 3 -10.0473 52.5740 121.5899 0.0000 0.0000 0.0000
# 4 0.0000 0.0000 0.0000 44.6024 0.0000 0.0000
# 5 0.0000 0.0000 0.0000 0.0000 -1.3496 0.0000
# 6 0.0000 0.0000 0.0000 0.0000 0.0000 -11.3623
#
#
#
# Elastic Compliance Matrix: (Units=1/GPa)
#
#
# Indices 1 2 3 4 5 6 
#
# 1 0.014613 -0.000206 0.001297 0.000000 0.000000 0.000000
# 2 -0.000206 0.005337 -0.002325 0.000000 0.000000 0.000000
# 3 0.001297 -0.002325 0.009337 0.000000 0.000000 0.000000
# 4 0.000000 0.000000 0.000000 0.022420 0.000000 0.000000
# 5 0.000000 0.000000 0.000000 0.000000 -0.740947 0.000000
# 6 0.000000 0.000000 0.000000 0.000000 0.000000 -0.088010
#
#
# Mechanical properties :
#
#
# Convention : Reuss Voigt Hill
#
# Bulk Modulus (GPa) = 37.28851 53.63842 45.46346
# Shear Modulus (GPa) = -6.52875 30.39569 11.93347
#
# Velocity S-wave (km/s) = -1.66192 3.58592 2.24687
# Velocity P-wave (km/s) = 3.47738 6.31163 5.09553
#
# Compressibility (1/GPa) = 0.02681791
#
# Stress axis : x y z
#
# Youngs Moduli (GPa) = 68.43392 187.36530 107.10406
#
# Poissons Ratio (x) = 0.03863 -0.13887
# Poissons Ratio (y) = 0.01411 0.24899
# Poissons Ratio (z) = -0.08873 0.43558
#
# Static dielectric constant tensor:
#      x y z
#    x 1.647820 0.000000 0.000000 
#    y 0.000000 -1.859720 0.000000 
#    z 0.000000 0.000000 1.869920 
# 
# From -- ./inp_files/21706.got.cif
#   From: 2010.05.17/outbox.cif.g08.bks.cpg/sg55_11_cif.got.tgz:21706.got - 2010.06.03 13:27:54.
