data_PCOD9424429
_publ_section_title
;
Structure prediction by ZEFSAII (Michael W. Deem and Ramdas Pophale) SiO2 
 PCOD9424429
Probable space group: P C C A
;
_chemical_formula_sum "Si O2"
_cell_formula_units_Z 24
_cell_length_a 5.164053
_cell_length_b 7.579740
_cell_length_c 25.771963
_cell_angle_alpha 90.000000
_cell_angle_beta 90.000000
_cell_angle_gamma 90.000000
_cell_volume 1008.770791
_symmetry_space_group_name_H-M "P C C A"
_symmetry_group_IT_number 54
_symmetry_cell_setting 'orthorhombic'
loop_
_space_group_symop_operation_xyz
x,y,z
1/2-x,-y,z
1/2+x,-y,1/2-z
-x,y,1/2-z
-x,-y,-z
1/2+x,y,-z
1/2-x,y,1/2+z
x,-y,1/2+z
loop_
_atom_site_type_symbol
_atom_site_label
_atom_site_fract_x
_atom_site_fract_y
_atom_site_fract_z
Si Si1 0.786467 0.213609 0.526942
Si Si2 0.750000 0.000000 0.786993
Si Si3 0.608478 0.189476 0.143574
Si Si4 0.750000 0.500000 0.214279
O O1 0.498832 0.278894 0.514264
O O2 0.896808 0.249147 0.584103
O O3 0.750000 0.000000 0.522812
O O4 0.339201 0.845386 0.673785
O O5 0.500000 0.030282 0.750000
O O6 0.758071 0.330268 0.177713
O O7 0.750000 0.000000 0.143180
O O8 0.500000 0.489511 0.250000
#
# Coordination Sequence:
#
# PCOD9424429 Si02
#       4
#     8   4   8   4
#     4   9  20  37  66 101 133 173 229 285 346 416
#     4  12  26  40  72 102 134 192 242 276 348 424
#     4  11  27  46  74 101 142 189 232 291 357 421
#     4  12  32  46  68 106 144 184 244 298 346 424
#
# _framework density 23.791331
#
# number of rings (size 3 to 8) (size 9 to 14) (size 15 to 20)
#    0.000    1.333    1.667    1.000   21.000    0.000 
#    0.000    1.667    0.000    0.000    0.000    0.000 
#    0.000    0.000    0.000    0.000    0.000    0.000 
#
# Total GULP energy -134248.607382 kJ/mol
# GULP energy per Si atom -5593.691974 kJ/mol
# Density = 2.373718 g / cm^3
# Si number density = 23.791331 Si / 1000 Ang^3
#
#
#
# Elastic Constant Matrix: (Units=GPa)
#
#
# Indices 1 2 3 4 5 6 
#
# 1 163.0908 8.0356 79.3235 0.0000 0.0000 0.0000
# 2 8.0356 75.3556 22.0803 0.0000 0.0000 0.0000
# 3 79.3235 22.0803 173.6294 0.0000 0.0000 0.0000
# 4 0.0000 0.0000 0.0000 15.2428 0.0000 0.0000
# 5 0.0000 0.0000 0.0000 0.0000 20.2832 0.0000
# 6 0.0000 0.0000 0.0000 0.0000 0.0000 15.1121
#
#
#
# Elastic Compliance Matrix: (Units=1/GPa)
#
#
# Indices 1 2 3 4 5 6 
#
# 1 0.007887 0.000223 -0.003632 0.000000 0.000000 0.000000
# 2 0.000223 0.013790 -0.001856 0.000000 0.000000 0.000000
# 3 -0.003632 -0.001856 0.007654 0.000000 0.000000 0.000000
# 4 0.000000 0.000000 0.000000 0.065605 0.000000 0.000000
# 5 0.000000 0.000000 0.000000 0.000000 0.049302 0.000000
# 6 0.000000 0.000000 0.000000 0.000000 0.000000 0.066172
#
#
# Mechanical properties :
#
#
# Convention : Reuss Voigt Hill
#
# Bulk Modulus (GPa) = 53.18157 70.10608 61.64383
# Shear Modulus (GPa) = 22.00642 30.30338 26.15490
#
# Velocity S-wave (km/s) = 3.04464 3.57279 3.31924
# Velocity P-wave (km/s) = 5.89590 6.82281 6.37622
#
# Compressibility (1/GPa) = 0.01880351
#
# Stress axis : x y z
#
# Youngs Moduli (GPa) = 126.79338 72.51450 130.64301
#
# Poissons Ratio (x) = -0.01618 0.47443
# Poissons Ratio (y) = -0.02828 0.24242
# Poissons Ratio (z) = 0.46045 0.13456
#
# Static dielectric constant tensor:
#      x y z
#    x 1.908260 0.000000 0.000000 
#    y 0.000000 1.972140 0.000000 
#    z 0.000000 0.000000 1.900980 
# 
# From -- ./inp_files/22548.got.cif
#   From: 2010.05.17/outbox.cif.g08.bks.cpg/sg54_12_cif.got.tgz:22548.got - 2010.06.03 13:09:01.
