data_PCOD9424715
_publ_section_title
;
Structure prediction by ZEFSAII (Michael W. Deem and Ramdas Pophale) SiO2 
 PCOD9424715
Probable space group: P B A M
;
_chemical_formula_sum "Si O2"
_cell_formula_units_Z 40
_cell_length_a 5.506499
_cell_length_b 13.583157
_cell_length_c 21.975549
_cell_angle_alpha 90.000000
_cell_angle_beta 90.000000
_cell_angle_gamma 90.000000
_cell_volume 1643.675261
_symmetry_space_group_name_H-M "P B A M"
_symmetry_group_IT_number 55
_symmetry_cell_setting 'orthorhombic'
loop_
_space_group_symop_operation_xyz
x,y,z
-x,-y,z
1/2+x,1/2-y,-z
1/2-x,1/2+y,-z
-x,-y,-z
x,y,-z
1/2-x,1/2+y,z
1/2+x,1/2-y,z
loop_
_atom_site_type_symbol
_atom_site_label
_atom_site_fract_x
_atom_site_fract_y
_atom_site_fract_z
Si Si1 0.706289 0.185973 0.067627
Si Si2 0.641016 0.353208 0.243810
Si Si3 0.242967 0.405828 0.570318
Si Si4 0.140275 0.372770 0.802694
Si Si5 0.258118 0.622480 0.617284
O O1 0.457053 0.250817 0.071795
O O2 0.698502 0.116321 0.126186
O O3 0.705589 0.140308 0.000000
O O4 0.619614 0.245691 0.212305
O O5 0.376394 0.401130 0.236231
O O6 0.708191 0.341999 0.314288
O O7 0.869980 0.407918 0.213400
O O8 0.224355 0.435920 0.500000
O O9 0.249955 0.503160 0.612162
O O10 0.499483 0.354208 0.579933
O O11 0.001586 0.349557 0.589875
#
# Coordination Sequence:
#
# PCOD9424715 Si02
#       5
#     8   8   8   8   8
#     4  10  16  25  41  60  83 120 153 181 214 239
#     4  10  18  27  43  61  89 120 147 168 204 256
#     4  10  19  33  50  69  87 102 132 182 232 270
#     4  10  17  30  40  62  91 124 148 174 200 244
#     4  10  18  29  46  70  86 110 138 171 218 271
#
# _framework density 24.335706999999999
#
# number of rings (size 3 to 8) (size 9 to 14) (size 15 to 20)
#    0.000    2.000    4.000    4.200    0.000    0.000 
#    0.000    0.000    0.000    0.000    0.000   95.200 
#    0.000    0.000    0.000  122.400    0.000    0.000 
#
# Total GULP energy -223457.891917 kJ/mol
# GULP energy per Si atom -5586.447298 kJ/mol
# Density = 2.428032 g / cm^3
# Si number density = 24.335707 Si / 1000 Ang^3
#
#
#
# Elastic Constant Matrix: (Units=GPa)
#
#
# Indices 1 2 3 4 5 6 
#
# 1 249.2060 6.4867 14.6325 0.0000 0.0000 0.0000
# 2 6.4867 75.1419 -21.3543 0.0000 0.0000 0.0000
# 3 14.6325 -21.3543 132.6091 0.0000 0.0000 0.0000
# 4 0.0000 0.0000 0.0000 -1.5500 0.0000 0.0000
# 5 0.0000 0.0000 0.0000 0.0000 48.6283 0.0000
# 6 0.0000 0.0000 0.0000 0.0000 0.0000 -0.6246
#
#
#
# Elastic Compliance Matrix: (Units=1/GPa)
#
#
# Indices 1 2 3 4 5 6 
#
# 1 0.004057 -0.000500 -0.000528 0.000000 0.000000 0.000000
# 2 -0.000500 0.014008 0.002311 0.000000 0.000000 0.000000
# 3 -0.000528 0.002311 0.007971 0.000000 0.000000 0.000000
# 4 0.000000 0.000000 0.000000 -0.645170 0.000000 0.000000
# 5 0.000000 0.000000 0.000000 0.000000 0.020564 0.000000
# 6 0.000000 0.000000 0.000000 0.000000 0.000000 -1.600943
#
#
# Mechanical properties :
#
#
# Convention : Reuss Voigt Hill
#
# Bulk Modulus (GPa) = 34.96368 50.72078 42.84223
# Shear Modulus (GPa) = -2.28046 39.77022 18.74488
#
# Velocity S-wave (km/s) = -0.96908 4.04695 2.77837
# Velocity P-wave (km/s) = 3.62578 6.53639 5.28539
#
# Compressibility (1/GPa) = 0.02860111
#
# Stress axis : x y z
#
# Youngs Moduli (GPa) = 246.50086 71.38733 125.44883
#
# Poissons Ratio (x) = 0.03572 0.06626
# Poissons Ratio (y) = 0.12333 -0.28991
# Poissons Ratio (z) = 0.13020 -0.16497
#
# Static dielectric constant tensor:
#      x y z
#    x 1.948290 0.000000 0.000000 
#    y 0.000000 1.891720 0.000000 
#    z 0.000000 0.000000 1.843500 
# 
# From -- ./inp_files/22295.got.cif
#   From: 2010.05.17/outbox.cif.g08.bks.cpg/sg55_12_cif.got.tgz:22295.got - 2010.06.03 13:27:54.
