data_PCOD9424348
_publ_section_title
;
Structure prediction by ZEFSAII (Michael W. Deem and Ramdas Pophale) SiO2 
 PCOD9424348
Probable space group: P C C A
;
_chemical_formula_sum "Si O2"
_cell_formula_units_Z 28
_cell_length_a 4.860858
_cell_length_b 21.204445
_cell_length_c 11.269888
_cell_angle_alpha 90.000000
_cell_angle_beta 90.000000
_cell_angle_gamma 90.000000
_cell_volume 1161.607598
_symmetry_space_group_name_H-M "P C C A"
_symmetry_group_IT_number 54
_symmetry_cell_setting 'orthorhombic'
loop_
_space_group_symop_operation_xyz
x,y,z
1/2-x,-y,z
1/2+x,-y,1/2-z
-x,y,1/2-z
-x,-y,-z
1/2+x,y,-z
1/2-x,y,1/2+z
x,-y,1/2+z
loop_
_atom_site_type_symbol
_atom_site_label
_atom_site_fract_x
_atom_site_fract_y
_atom_site_fract_z
Si Si1 0.000000 0.395660 0.750000
Si Si2 0.500000 0.893453 0.250000
Si Si3 0.246872 0.292245 0.578771
Si Si4 0.750000 0.000000 0.911471
Si Si5 0.500000 0.188135 0.250000
Si Si6 0.250000 0.500000 0.409506
O O1 0.165540 0.351671 0.658924
O O2 0.203127 0.440368 0.824513
O O3 0.316967 0.939613 0.168651
O O4 0.255486 0.851218 0.306019
O O5 0.563583 0.293374 0.540977
O O6 0.150447 0.231287 0.652255
O O7 0.500000 0.000000 0.000000
O O8 0.500000 0.500000 0.500000
#
# Coordination Sequence:
#
# PCOD9424348 Si02
#       6
#     4   4   8   4   4   4
#     4  11  26  46  70 102 142 183 234 294 352 421
#     4  12  25  46  68 104 143 180 236 292 340 420
#     4  11  25  45  69 100 137 182 232 289 353 416
#     4  12  26  44  70 100 140 188 228 282 350 408
#     4  11  25  42  70 100 137 181 232 292 350 413
#     4  12  26  44  70 102 138 186 234 286 350 418
#
# _framework density 24.104527000000001
#
# number of rings (size 3 to 8) (size 9 to 14) (size 15 to 20)
#    0.000    0.571    0.000    7.714    0.000   14.857 
#    0.000    0.000    0.000    0.000    0.000    0.000 
#    0.000    0.000    0.000    0.000    0.000    0.000 
#
# Total GULP energy -156895.757120 kJ/mol
# GULP energy per Si atom -5603.419897 kJ/mol
# Density = 2.404966 g / cm^3
# Si number density = 24.104527 Si / 1000 Ang^3
#
#
#
# Elastic Constant Matrix: (Units=GPa)
#
#
# Indices 1 2 3 4 5 6 
#
# 1 162.2544 46.2720 30.8715 0.0000 0.0000 0.0000
# 2 46.2720 130.1101 47.2627 0.0000 0.0000 0.0000
# 3 30.8715 47.2627 88.4836 0.0000 0.0000 0.0000
# 4 0.0000 0.0000 0.0000 181.0042 0.0000 0.0000
# 5 0.0000 0.0000 0.0000 0.0000 52.5244 0.0000
# 6 0.0000 0.0000 0.0000 0.0000 0.0000 35.1553
#
#
#
# Elastic Compliance Matrix: (Units=1/GPa)
#
#
# Indices 1 2 3 4 5 6 
#
# 1 0.006992 -0.001986 -0.001379 0.000000 0.000000 0.000000
# 2 -0.001986 0.010100 -0.004702 0.000000 0.000000 0.000000
# 3 -0.001379 -0.004702 0.014294 0.000000 0.000000 0.000000
# 4 0.000000 0.000000 0.000000 0.005525 0.000000 0.000000
# 5 0.000000 0.000000 0.000000 0.000000 0.019039 0.000000
# 6 0.000000 0.000000 0.000000 0.000000 0.000000 0.028445
#
#
# Mechanical properties :
#
#
# Convention : Reuss Voigt Hill
#
# Bulk Modulus (GPa) = 65.56114 69.96228 67.76171
# Shear Modulus (GPa) = 47.34319 70.83293 59.08806
#
# Velocity S-wave (km/s) = 4.43660 5.42674 4.95646
# Velocity P-wave (km/s) = 7.31453 8.26762 7.80564
#
# Compressibility (1/GPa) = 0.01525294
#
# Stress axis : x y z
#
# Youngs Moduli (GPa) = 143.02514 99.00988 69.95893
#
# Poissons Ratio (x) = 0.19660 0.09646
# Poissons Ratio (y) = 0.28401 0.32895
# Poissons Ratio (z) = 0.19720 0.46555
#
# Static dielectric constant tensor:
#      x y z
#    x 1.859760 0.000000 0.000000 
#    y 0.000000 1.967600 0.000000 
#    z 0.000000 0.000000 1.840300 
# 
# From -- ./inp_files/6250.got.cif
#   From: 2010.05.17/outbox.cif.g08.bks.cpg/sg54_4_cif.got.tgz:6250.got - 2010.06.03 13:09:01.
