data_PCOD9424746
_publ_section_title
;
Structure prediction by ZEFSAII (Michael W. Deem and Ramdas Pophale) SiO2 
 PCOD9424746
Probable space group: P B A M
;
_chemical_formula_sum "Si O2"
_cell_formula_units_Z 52
_cell_length_a 17.166304
_cell_length_b 10.681774
_cell_length_c 16.451457
_cell_angle_alpha 90.000000
_cell_angle_beta 90.000000
_cell_angle_gamma 90.000000
_cell_volume 3016.647402
_symmetry_space_group_name_H-M "P B A M"
_symmetry_group_IT_number 55
_symmetry_cell_setting 'orthorhombic'
loop_
_space_group_symop_operation_xyz
x,y,z
-x,-y,z
1/2+x,1/2-y,-z
1/2-x,1/2+y,-z
-x,-y,-z
x,y,-z
1/2-x,1/2+y,z
1/2+x,1/2-y,z
loop_
_atom_site_type_symbol
_atom_site_label
_atom_site_fract_x
_atom_site_fract_y
_atom_site_fract_z
Si Si1 0.816031 0.565463 0.220601
Si Si2 0.875137 0.851818 0.592109
Si Si3 0.416168 0.066726 0.906797
Si Si4 0.000000 0.000000 0.702003
Si Si5 0.572737 0.749082 0.760689
Si Si6 0.244718 0.682687 0.278586
Si Si7 0.948420 0.606863 0.650387
O O1 0.857970 0.529832 0.137235
O O2 0.755238 0.453523 0.236547
O O3 0.785240 0.706153 0.227422
O O4 0.878226 0.553724 0.294621
O O5 0.866669 0.896850 0.500000
O O6 0.933384 0.938188 0.644932
O O7 0.793216 0.835013 0.638745
O O8 0.914546 0.714630 0.594135
O O9 0.417349 0.189764 0.849639
O O10 0.500000 0.000000 0.904442
O O11 0.395856 0.093294 0.000000
O O12 0.042098 0.892389 0.754635
O O13 0.655385 0.770496 0.715556
O O14 0.506624 0.828315 0.714712
O O15 0.000000 0.500000 0.609349
#
# Coordination Sequence:
#
# PCOD9424746 Si02
#       7
#     8   8   8   4   8   8   8
#     4  10  18  34  53  82 108 146 187 228 266 345
#     4  10  22  36  52  80 111 143 185 237 283 328
#     4  10  18  32  58  85 106 135 180 237 276 313
#     4  10  21  36  61  78 112 154 190 228 287 342
#     4  10  18  35  57  85 105 148 192 223 272 352
#     4  10  20  33  56  76 112 149 186 224 280 336
#     4  10  16  33  58  75 102 137 189 231 265 325
#
# _framework density 17.237679
#
# number of rings (size 3 to 8) (size 9 to 14) (size 15 to 20)
#    0.000    2.000    4.615    1.154    0.000    0.308 
#    0.000   13.462    0.000    0.000    0.000    0.000 
#    0.000    0.000    0.000    0.000    0.000    0.000 
#
# Total GULP energy -289652.266745 kJ/mol
# GULP energy per Si atom -5570.235899 kJ/mol
# Density = 1.719845 g / cm^3
# Si number density = 17.237679 Si / 1000 Ang^3
#
#
#
# Elastic Constant Matrix: (Units=GPa)
#
#
# Indices 1 2 3 4 5 6 
#
# 1 69.2780 36.0398 37.2019 0.0000 0.0000 0.0000
# 2 36.0398 99.3674 37.6891 0.0000 0.0000 0.0000
# 3 37.2019 37.6891 101.2030 0.0000 0.0000 0.0000
# 4 0.0000 0.0000 0.0000 15.8480 0.0000 0.0000
# 5 0.0000 0.0000 0.0000 0.0000 13.5327 0.0000
# 6 0.0000 0.0000 0.0000 0.0000 0.0000 35.8008
#
#
#
# Elastic Compliance Matrix: (Units=1/GPa)
#
#
# Indices 1 2 3 4 5 6 
#
# 1 0.020066 -0.005217 -0.005433 0.000000 0.000000 0.000000
# 2 -0.005217 0.013075 -0.002952 0.000000 0.000000 0.000000
# 3 -0.005433 -0.002952 0.012978 0.000000 0.000000 0.000000
# 4 0.000000 0.000000 0.000000 0.063100 0.000000 0.000000
# 5 0.000000 0.000000 0.000000 0.000000 0.073895 0.000000
# 6 0.000000 0.000000 0.000000 0.000000 0.000000 0.027932
#
#
# Mechanical properties :
#
#
# Convention : Reuss Voigt Hill
#
# Bulk Modulus (GPa) = 52.86774 54.63443 53.75109
# Shear Modulus (GPa) = 20.44526 23.63081 22.03804
#
# Velocity S-wave (km/s) = 3.44769 3.70656 3.57946
# Velocity P-wave (km/s) = 6.82533 7.07684 6.95222
#
# Compressibility (1/GPa) = 0.01891513
#
# Stress axis : x y z
#
# Youngs Moduli (GPa) = 49.83472 76.47961 77.05551
#
# Poissons Ratio (x) = 0.39900 0.41867
# Poissons Ratio (y) = 0.25999 0.22744
# Poissons Ratio (z) = 0.27077 0.22574
#
# Static dielectric constant tensor:
#      x y z
#    x 1.604900 0.000000 0.000000 
#    y 0.000000 1.622690 0.000000 
#    z 0.000000 0.000000 1.551800 
# 
# From -- ./inp_files/19444.got.cif
#   From: 2010.05.17/outbox.cif.g08.bks.cpg/sg55_10_cif.got.tgz:19444.got - 2010.06.03 13:27:54.
