data_PCOD9424284
_publ_section_title
;
Structure prediction by ZEFSAII (Michael W. Deem and Ramdas Pophale) SiO2 
 PCOD9424284
Probable space group: P C C A
;
_chemical_formula_sum "Si O2"
_cell_formula_units_Z 48
_cell_length_a 13.881431
_cell_length_b 18.113491
_cell_length_c 8.632757
_cell_angle_alpha 90.000000
_cell_angle_beta 90.000000
_cell_angle_gamma 90.000000
_cell_volume 2170.630568
_symmetry_space_group_name_H-M "P C C A"
_symmetry_group_IT_number 54
_symmetry_cell_setting 'orthorhombic'
loop_
_space_group_symop_operation_xyz
x,y,z
1/2-x,-y,z
1/2+x,-y,1/2-z
-x,y,1/2-z
-x,-y,-z
1/2+x,y,-z
1/2-x,y,1/2+z
x,-y,1/2+z
loop_
_atom_site_type_symbol
_atom_site_label
_atom_site_fract_x
_atom_site_fract_y
_atom_site_fract_z
Si Si1 0.861500 0.575368 0.413599
Si Si2 0.500000 0.295484 0.750000
Si Si3 0.000000 0.690694 0.250000
Si Si4 0.368665 0.927434 0.534710
Si Si5 0.019178 0.194409 0.988740
Si Si6 0.353475 0.581221 0.216585
Si Si7 0.845128 0.915122 0.835984
O O1 0.893625 0.494195 0.356998
O O2 0.754960 0.588238 0.344454
O O3 0.854579 0.574832 0.598179
O O4 0.931122 0.637903 0.348156
O O5 0.461006 0.243651 0.886168
O O6 0.580937 0.348711 0.820767
O O7 0.055641 0.747511 0.362528
O O8 0.449137 0.868070 0.578822
O O9 0.266694 0.911336 0.616982
O O10 0.356608 0.922115 0.348613
O O11 0.390105 0.010963 0.587134
O O12 0.100626 0.153421 0.087224
#
# Coordination Sequence:
#
# PCOD9424284 Si02
#       7
#     8   4   4   8   8   8   8
#     4  11  25  45  68 100 124 177 217 270 318 385
#     4  12  25  46  63  98 134 174 208 272 325 388
#     4  12  29  42  67  98 134 170 220 260 335 386
#     4  11  24  44  69  96 128 172 220 264 322 377
#     4  12  27  44  64  97 135 170 212 267 328 386
#     4  11  25  43  72  93 133 169 223 266 321 381
#     4  11  24  44  69  95 129 171 219 268 316 384
#
# _framework density 22.113388
#
# number of rings (size 3 to 8) (size 9 to 14) (size 15 to 20)
#    0.000    0.667    3.333    5.000    9.333    4.000 
#    0.000    0.000    0.000    0.000    0.000    0.000 
#    0.000    0.000    0.000    0.000    0.000    0.000 
#
# Total GULP energy -268718.119587 kJ/mol
# GULP energy per Si atom -5598.294158 kJ/mol
# Density = 2.206306 g / cm^3
# Si number density = 22.113388 Si / 1000 Ang^3
#
#
#
# Elastic Constant Matrix: (Units=GPa)
#
#
# Indices 1 2 3 4 5 6 
#
# 1 35.1855 17.6329 11.8525 0.0000 0.0000 0.0000
# 2 17.6329 102.0487 38.9865 0.0000 0.0000 0.0000
# 3 11.8525 38.9865 139.3984 0.0000 0.0000 0.0000
# 4 0.0000 0.0000 0.0000 23.4379 0.0000 0.0000
# 5 0.0000 0.0000 0.0000 0.0000 32.1608 0.0000
# 6 0.0000 0.0000 0.0000 0.0000 0.0000 -426.0768
#
#
#
# Elastic Compliance Matrix: (Units=1/GPa)
#
#
# Indices 1 2 3 4 5 6 
#
# 1 0.031320 -0.004920 -0.001287 0.000000 0.000000 0.000000
# 2 -0.004920 0.011744 -0.002866 0.000000 0.000000 0.000000
# 3 -0.001287 -0.002866 0.008085 0.000000 0.000000 0.000000
# 4 0.000000 0.000000 0.000000 0.042666 0.000000 0.000000
# 5 0.000000 0.000000 0.000000 0.000000 0.031094 0.000000
# 6 0.000000 0.000000 0.000000 0.000000 0.000000 -0.002347
#
#
# Mechanical properties :
#
#
# Convention : Reuss Voigt Hill
#
# Bulk Modulus (GPa) = 30.30081 45.95294 38.12687
# Shear Modulus (GPa) = 32.95773 -60.21825 -13.63026
#
# Velocity S-wave (km/s) = 3.86475 -5.22405 -2.48539
# Velocity P-wave (km/s) = 5.80063 3.94486 3.00711
#
# Compressibility (1/GPa) = 0.03300242
#
# Stress axis : x y z
#
# Youngs Moduli (GPa) = 31.92848 85.14675 123.68962
#
# Poissons Ratio (x) = 0.41893 0.15919
# Poissons Ratio (y) = 0.15709 0.35453
# Poissons Ratio (z) = 0.04109 0.24406
#
# Static dielectric constant tensor:
#      x y z
#    x 1.782520 0.000000 0.000000 
#    y 0.000000 1.832090 0.000000 
#    z 0.000000 0.000000 1.809780 
# 
# From -- ./inp_files/3617.got.cif
#   From: 2010.05.17/outbox.cif.g08.bks.cpg/sg54_2_cif.got.tgz:3617.got - 2010.06.03 13:09:01.
