data_PCOD9424816
_publ_section_title
;
Structure prediction by ZEFSAII (Michael W. Deem and Ramdas Pophale) SiO2 
 PCOD9424816
Probable space group: P B A M
;
_chemical_formula_sum "Si O2"
_cell_formula_units_Z 56
_cell_length_a 5.490721
_cell_length_b 18.843752
_cell_length_c 23.871320
_cell_angle_alpha 90.000000
_cell_angle_beta 90.000000
_cell_angle_gamma 90.000000
_cell_volume 2469.864859
_symmetry_space_group_name_H-M "P B A M"
_symmetry_group_IT_number 55
_symmetry_cell_setting 'orthorhombic'
loop_
_space_group_symop_operation_xyz
x,y,z
-x,-y,z
1/2+x,1/2-y,-z
1/2-x,1/2+y,-z
-x,-y,-z
x,y,-z
1/2-x,1/2+y,z
1/2+x,1/2-y,z
loop_
_atom_site_type_symbol
_atom_site_label
_atom_site_fract_x
_atom_site_fract_y
_atom_site_fract_z
Si Si1 0.730165 0.285650 0.567548
Si Si2 0.291062 0.205901 0.065609
Si Si3 0.388600 0.246034 0.752190
Si Si4 0.142533 0.608781 0.168176
Si Si5 0.747329 0.044621 0.672587
Si Si6 0.646399 0.601608 0.207182
Si Si7 0.574289 0.582286 0.561982
O O1 0.741135 0.277717 0.500000
O O2 0.991812 0.258295 0.587673
O O3 0.654169 0.367631 0.576749
O O4 0.541139 0.250199 0.075732
O O5 0.298550 0.139992 0.107580
O O6 0.290946 0.186018 0.000000
O O7 0.637933 0.253029 0.719056
O O8 0.389413 0.174807 0.788455
O O9 0.384150 0.312360 0.795594
O O10 0.382395 0.570738 0.191841
O O11 0.873786 0.575747 0.170459
O O12 0.782599 0.089379 0.728512
O O13 0.742679 0.086317 0.613906
O O14 0.500000 0.000000 0.678039
O O15 0.000000 0.000000 0.670614
O O16 0.500000 0.500000 0.557339
O O17 0.667790 0.604137 0.500000
#
# Coordination Sequence:
#
# PCOD9424816 Si02
#       7
#     8   8   8   8   8   8   8
#     4   9  18  34  56  83 116 150 185 232 287 341
#     4  10  18  27  43  72 113 157 191 223 269 323
#     4   8  14  24  42  66  94 127 166 204 243 300
#     4  10  17  30  50  74 106 143 183 219 261 327
#     4  11  24  41  58  81 112 138 179 246 302 350
#     4  10  19  32  51  71  98 139 177 218 274 323
#     4   9  20  40  66  92 119 159 205 246 301 376
#
# _framework density 22.673304999999999
#
# number of rings (size 3 to 8) (size 9 to 14) (size 15 to 20)
#    0.000    2.429    0.000    4.286    0.000    2.571 
#    0.000    8.571    0.000    0.000    0.000    0.000 
#    0.000   11.429    0.000    0.000    0.000    0.000 
#
# Total GULP energy -312427.302349 kJ/mol
# GULP energy per Si atom -5579.058971 kJ/mol
# Density = 2.262170 g / cm^3
# Si number density = 22.673305 Si / 1000 Ang^3
#
#
#
# Elastic Constant Matrix: (Units=GPa)
#
#
# Indices 1 2 3 4 5 6 
#
# 1 187.0074 15.6330 23.3884 0.0000 0.0000 0.0000
# 2 15.6330 65.2236 6.2915 0.0000 0.0000 0.0000
# 3 23.3884 6.2915 110.8827 0.0000 0.0000 0.0000
# 4 0.0000 0.0000 0.0000 50.2655 0.0000 0.0000
# 5 0.0000 0.0000 0.0000 0.0000 25.7344 0.0000
# 6 0.0000 0.0000 0.0000 0.0000 0.0000 32.8731
#
#
#
# Elastic Compliance Matrix: (Units=1/GPa)
#
#
# Indices 1 2 3 4 5 6 
#
# 1 0.005589 -0.001233 -0.001109 0.000000 0.000000 0.000000
# 2 -0.001233 0.015688 -0.000630 0.000000 0.000000 0.000000
# 3 -0.001109 -0.000630 0.009288 0.000000 0.000000 0.000000
# 4 0.000000 0.000000 0.000000 0.019894 0.000000 0.000000
# 5 0.000000 0.000000 0.000000 0.000000 0.038858 0.000000
# 6 0.000000 0.000000 0.000000 0.000000 0.000000 0.030420
#
#
# Mechanical properties :
#
#
# Convention : Reuss Voigt Hill
#
# Bulk Modulus (GPa) = 40.61421 50.41549 45.51485
# Shear Modulus (GPa) = 37.34434 42.96132 40.15283
#
# Velocity S-wave (km/s) = 4.06280 4.35765 4.21281
# Velocity P-wave (km/s) = 6.32141 6.89947 6.61675
#
# Compressibility (1/GPa) = 0.02462192
#
# Stress axis : x y z
#
# Youngs Moduli (GPa) = 178.91905 63.74258 107.66335
#
# Poissons Ratio (x) = 0.07857 0.11940
# Poissons Ratio (y) = 0.22054 0.06784
# Poissons Ratio (z) = 0.19842 0.04017
#
# Static dielectric constant tensor:
#      x y z
#    x 2.011680 0.000000 0.000000 
#    y 0.000000 1.902580 0.000000 
#    z 0.000000 0.000000 1.817410 
# 
# From -- ./inp_files/23341.got.cif
#   From: 2010.05.17/outbox.cif.g08.bks.cpg/sg55_12_cif.got.tgz:23341.got - 2010.06.03 13:27:54.
