data_PCOD9424506
_publ_section_title
;
Structure prediction by ZEFSAII (Michael W. Deem and Ramdas Pophale) SiO2 
 PCOD9424506
Probable space group: P C C A
;
_chemical_formula_sum "Si O2"
_cell_formula_units_Z 40
_cell_length_a 9.384147
_cell_length_b 12.441200
_cell_length_c 15.763312
_cell_angle_alpha 90.000000
_cell_angle_beta 90.000000
_cell_angle_gamma 90.000000
_cell_volume 1840.367459
_symmetry_space_group_name_H-M "P C C A"
_symmetry_group_IT_number 54
_symmetry_cell_setting 'orthorhombic'
loop_
_space_group_symop_operation_xyz
x,y,z
1/2-x,-y,z
1/2+x,-y,1/2-z
-x,y,1/2-z
-x,-y,-z
1/2+x,y,-z
1/2-x,y,1/2+z
x,-y,1/2+z
loop_
_atom_site_type_symbol
_atom_site_label
_atom_site_fract_x
_atom_site_fract_y
_atom_site_fract_z
Si Si1 0.450226 0.579054 0.921107
Si Si2 0.825583 0.884760 0.738358
Si Si3 0.296703 0.254391 0.928071
Si Si4 0.794365 0.733228 0.386520
Si Si5 0.529647 0.623479 0.343579
O O1 0.298895 0.637034 0.927374
O O2 0.552799 0.678008 0.896491
O O3 0.459498 0.492475 0.846701
O O4 0.500000 0.500000 0.000000
O O5 0.780596 0.826954 0.649707
O O6 0.752485 0.813635 0.812765
O O7 0.000000 0.894527 0.750000
O O8 0.750000 0.000000 0.740569
O O9 0.455407 0.298455 0.911605
O O10 0.272067 0.210809 0.022083
O O11 0.692959 0.630296 0.368620
O O12 0.500000 0.667133 0.250000
#
# Coordination Sequence:
#
# PCOD9424506 Si02
#       5
#     8   8   8   8   8
#     4  12  26  38  68 117 156 198 242 293 368 454
#     4  12  30  56  79 105 144 194 263 333 387 436
#     4  12  24  46  73 107 151 194 247 305 374 451
#     4  12  24  46  73 107 151 194 247 305 374 451
#     4  12  24  44  66 104 159 199 243 296 362 457
#
# _framework density 21.734788999999999
#
# number of rings (size 3 to 8) (size 9 to 14) (size 15 to 20)
#    0.000    0.000    8.000    1.200    5.600    2.400 
#    0.000    2.000    0.000    0.000    0.000    0.000 
#    0.000    0.000    0.000    0.000    0.000    0.000 
#
# Total GULP energy -223058.318153 kJ/mol
# GULP energy per Si atom -5576.457954 kJ/mol
# Density = 2.168532 g / cm^3
# Si number density = 21.734789 Si / 1000 Ang^3
#
#
#
# Elastic Constant Matrix: (Units=GPa)
#
#
# Indices 1 2 3 4 5 6 
#
# 1 61.9363 18.1374 29.2762 0.0000 0.0000 0.0000
# 2 18.1374 129.1239 48.5291 0.0000 0.0000 0.0000
# 3 29.2762 48.5291 142.6872 0.0000 0.0000 0.0000
# 4 0.0000 0.0000 0.0000 20.8825 0.0000 0.0000
# 5 0.0000 0.0000 0.0000 0.0000 25.2852 0.0000
# 6 0.0000 0.0000 0.0000 0.0000 0.0000 32.5976
#
#
#
# Elastic Compliance Matrix: (Units=1/GPa)
#
#
# Indices 1 2 3 4 5 6 
#
# 1 0.018072 -0.001313 -0.003261 0.000000 0.000000 0.000000
# 2 -0.001313 0.008975 -0.002783 0.000000 0.000000 0.000000
# 3 -0.003261 -0.002783 0.008624 0.000000 0.000000 0.000000
# 4 0.000000 0.000000 0.000000 0.047887 0.000000 0.000000
# 5 0.000000 0.000000 0.000000 0.000000 0.039549 0.000000
# 6 0.000000 0.000000 0.000000 0.000000 0.000000 0.030677
#
#
# Mechanical properties :
#
#
# Convention : Reuss Voigt Hill
#
# Bulk Modulus (GPa) = 47.71869 58.40365 53.06117
# Shear Modulus (GPa) = 28.49276 31.60672 30.04974
#
# Velocity S-wave (km/s) = 3.62460 3.81753 3.72232
# Velocity P-wave (km/s) = 6.28646 6.80888 6.55288
#
# Compressibility (1/GPa) = 0.02095615
#
# Stress axis : x y z
#
# Youngs Moduli (GPa) = 55.33533 111.42228 115.95455
#
# Poissons Ratio (x) = 0.14626 0.37818
# Poissons Ratio (y) = 0.07264 0.32271
# Poissons Ratio (z) = 0.18047 0.31010
#
# Static dielectric constant tensor:
#      x y z
#    x 1.793840 0.000000 0.000000 
#    y 0.000000 1.826940 0.000000 
#    z 0.000000 0.000000 1.897130 
# 
# From -- ./inp_files/16324.got.cif
#   From: 2010.05.17/outbox.cif.g08.bks.cpg/sg54_9_cif.got.tgz:16324.got - 2010.06.03 13:09:01.
