data_PCOD9424004
_publ_section_title
;
Structure prediction by ZEFSAII (Michael W. Deem and Ramdas Pophale) SiO2 
 PCOD9424004
Probable space group: P C C A
;
_chemical_formula_sum "Si O2"
_cell_formula_units_Z 48
_cell_length_a 20.964737
_cell_length_b 11.727136
_cell_length_c 9.244837
_cell_angle_alpha 90.000000
_cell_angle_beta 90.000000
_cell_angle_gamma 90.000000
_cell_volume 2272.901622
_symmetry_space_group_name_H-M "P C C A"
_symmetry_group_IT_number 54
_symmetry_cell_setting 'orthorhombic'
loop_
_space_group_symop_operation_xyz
x,y,z
1/2-x,-y,z
1/2+x,-y,1/2-z
-x,y,1/2-z
-x,-y,-z
1/2+x,y,-z
1/2-x,y,1/2+z
x,-y,1/2+z
loop_
_atom_site_type_symbol
_atom_site_label
_atom_site_fract_x
_atom_site_fract_y
_atom_site_fract_z
Si Si1 0.108779 0.265716 0.962873
Si Si2 0.388443 0.737353 0.304830
Si Si3 0.550589 0.508377 0.627773
Si Si4 0.137263 0.101226 0.736634
Si Si5 0.189793 0.920821 0.927940
Si Si6 0.978609 0.130299 0.979727
O O1 0.100609 0.395087 0.915121
O O2 0.153899 0.201379 0.848933
O O3 0.040298 0.204743 0.944903
O O4 0.121888 0.250877 0.132877
O O5 0.411657 0.607947 0.335642
O O6 0.324652 0.791477 0.377931
O O7 0.445422 0.809537 0.381623
O O8 0.500000 0.542972 0.750000
O O9 0.500000 0.500000 0.500000
O O10 0.183114 0.078409 0.600754
O O11 0.072511 0.129815 0.650206
O O12 0.135421 0.991481 0.840112
O O13 0.250000 0.000000 0.890583
O O14 0.000000 0.000000 0.000000
#
# Coordination Sequence:
#
# PCOD9424004 Si02
#       6
#     8   8   8   8   8   8
#     4  12  23  37  59  94 139 178 215 260 323 410
#     4  11  23  39  60  91 128 181 224 262 324 401
#     4  12  22  38  61  95 142 192 221 260 322 408
#     4  11  24  37  61  90 119 168 216 270 343 400
#     4  11  24  44  65  88 120 161 225 293 345 391
#     4  11  21  35  55  89 135 172 212 258 321 407
#
# _framework density 21.118380999999999
#
# number of rings (size 3 to 8) (size 9 to 14) (size 15 to 20)
#    0.000    0.667    3.333    6.500    2.333    2.667 
#    0.000    0.833    0.000    1.000    0.000    7.000 
#    0.000    0.000    0.000    0.000    0.000    0.000 
#
# Total GULP energy -267728.854420 kJ/mol
# GULP energy per Si atom -5577.684467 kJ/mol
# Density = 2.107031 g / cm^3
# Si number density = 21.118381 Si / 1000 Ang^3
#
#
#
# Elastic Constant Matrix: (Units=GPa)
#
#
# Indices 1 2 3 4 5 6 
#
# 1 51.1832 10.8864 11.4571 0.0000 0.0000 0.0000
# 2 10.8864 113.0423 43.9490 0.0000 0.0000 0.0000
# 3 11.4571 43.9490 187.7085 0.0000 0.0000 0.0000
# 4 0.0000 0.0000 0.0000 30.7869 0.0000 0.0000
# 5 0.0000 0.0000 0.0000 0.0000 20.6634 0.0000
# 6 0.0000 0.0000 0.0000 0.0000 0.0000 27.4112
#
#
#
# Elastic Compliance Matrix: (Units=1/GPa)
#
#
# Indices 1 2 3 4 5 6 
#
# 1 0.020069 -0.001602 -0.000850 0.000000 0.000000 0.000000
# 2 -0.001602 0.009860 -0.002211 0.000000 0.000000 0.000000
# 3 -0.000850 -0.002211 0.005897 0.000000 0.000000 0.000000
# 4 0.000000 0.000000 0.000000 0.032481 0.000000 0.000000
# 5 0.000000 0.000000 0.000000 0.000000 0.048395 0.000000
# 6 0.000000 0.000000 0.000000 0.000000 0.000000 0.036481
#
#
# Mechanical properties :
#
#
# Convention : Reuss Voigt Hill
#
# Bulk Modulus (GPa) = 37.73597 53.83544 45.78570
# Shear Modulus (GPa) = 29.18137 34.81507 31.99822
#
# Velocity S-wave (km/s) = 3.72129 4.06466 3.89676
# Velocity P-wave (km/s) = 6.03088 6.89755 6.47872
#
# Compressibility (1/GPa) = 0.02649992
#
# Stress axis : x y z
#
# Youngs Moduli (GPa) = 49.82888 101.41913 169.58073
#
# Poissons Ratio (x) = 0.16251 0.14411
# Poissons Ratio (y) = 0.07984 0.37491
# Poissons Ratio (z) = 0.04234 0.22422
#
# Static dielectric constant tensor:
#      x y z
#    x 1.833330 0.000000 0.000000 
#    y 0.000000 1.774070 0.000000 
#    z 0.000000 0.000000 1.734020 
# 
# From -- ./inp_files/5148.got.cif
#   From: 2010.05.17/outbox.cif.g08.bks.cpg/sg54_3_cif.got.tgz:5148.got - 2010.06.03 13:09:01.
