data_PCOD9424724
_publ_section_title
;
Structure prediction by ZEFSAII (Michael W. Deem and Ramdas Pophale) SiO2 
 PCOD9424724
Probable space group: P B A M
;
_chemical_formula_sum "Si O2"
_cell_formula_units_Z 48
_cell_length_a 5.490160
_cell_length_b 18.562917
_cell_length_c 21.081614
_cell_angle_alpha 90.000000
_cell_angle_beta 90.000000
_cell_angle_gamma 90.000000
_cell_volume 2148.498631
_symmetry_space_group_name_H-M "P B A M"
_symmetry_group_IT_number 55
_symmetry_cell_setting 'orthorhombic'
loop_
_space_group_symop_operation_xyz
x,y,z
-x,-y,z
1/2+x,1/2-y,-z
1/2-x,1/2+y,-z
-x,-y,-z
x,y,-z
1/2-x,1/2+y,z
1/2+x,1/2-y,z
loop_
_atom_site_type_symbol
_atom_site_label
_atom_site_fract_x
_atom_site_fract_y
_atom_site_fract_z
Si Si1 0.841540 0.903010 0.676031
Si Si2 0.940307 0.585478 0.867926
Si Si3 0.053541 0.080489 0.178628
Si Si4 0.349190 0.796351 0.500000
Si Si5 0.753875 0.547861 0.000000
Si Si6 0.341064 0.884648 0.370415
Si Si7 0.321691 0.754767 0.729089
O O1 0.086590 0.924405 0.640150
O O2 0.831728 0.814910 0.682096
O O3 0.855100 0.926347 0.749230
O O4 0.593348 0.924666 0.642445
O O5 0.723539 0.611252 0.821362
O O6 0.802434 0.592372 0.935659
O O7 0.000000 0.500000 0.856974
O O8 0.216563 0.615007 0.858925
O O9 0.000000 0.000000 0.152652
O O10 0.599863 0.750356 0.500000
O O11 0.347692 0.845232 0.437409
O O12 0.500000 0.500000 0.000000
O O13 0.000000 0.500000 0.000000
O O14 0.329256 0.824273 0.314870
O O15 0.072030 0.748494 0.766487
#
# Coordination Sequence:
#
# PCOD9424724 Si02
#       7
#     8   8   8   4   4   8   8
#     4  10  18  30  44  61  88 121 149 179 223 265
#     4   9  17  28  42  63  89 116 151 187 223 264
#     4  10  19  30  44  64  89 120 158 194 217 251
#     4  12  20  30  48  72  99 120 141 174 224 294
#     4  10  16  26  44  64  88 122 150 180 228 280
#     4  10  19  30  45  67  90 116 141 175 226 282
#     4   8  14  25  39  57  81 107 132 161 209 263
#
# _framework density 22.341183000000001
#
# number of rings (size 3 to 8) (size 9 to 14) (size 15 to 20)
#    0.000    2.333    0.000    7.500    0.000    0.000 
#    0.000    0.000    0.000    0.000    0.000    3.500 
#    0.000    0.000    0.000  135.000    0.000   15.000 
#
# Total GULP energy -267338.707791 kJ/mol
# GULP energy per Si atom -5569.556412 kJ/mol
# Density = 2.229033 g / cm^3
# Si number density = 22.341183 Si / 1000 Ang^3
#
#
#
# Elastic Constant Matrix: (Units=GPa)
#
#
# Indices 1 2 3 4 5 6 
#
# 1 300.4020 27.0701 56.7926 0.0000 0.0000 0.0000
# 2 27.0701 45.2240 12.7676 0.0000 0.0000 0.0000
# 3 56.7926 12.7676 121.6142 0.0000 0.0000 0.0000
# 4 0.0000 0.0000 0.0000 14.1639 0.0000 0.0000
# 5 0.0000 0.0000 0.0000 0.0000 33.1638 0.0000
# 6 0.0000 0.0000 0.0000 0.0000 0.0000 19.6812
#
#
#
# Elastic Compliance Matrix: (Units=1/GPa)
#
#
# Indices 1 2 3 4 5 6 
#
# 1 0.003792 -0.001824 -0.001579 0.000000 0.000000 0.000000
# 2 -0.001824 0.023665 -0.001633 0.000000 0.000000 0.000000
# 3 -0.001579 -0.001633 0.009132 0.000000 0.000000 0.000000
# 4 0.000000 0.000000 0.000000 0.070602 0.000000 0.000000
# 5 0.000000 0.000000 0.000000 0.000000 0.030153 0.000000
# 6 0.000000 0.000000 0.000000 0.000000 0.000000 0.050810
#
#
# Mechanical properties :
#
#
# Convention : Reuss Voigt Hill
#
# Bulk Modulus (GPa) = 37.71223 73.38900 55.55061
# Shear Modulus (GPa) = 24.14714 38.10910 31.12812
#
# Velocity S-wave (km/s) = 3.29117 4.13459 3.73675
# Velocity P-wave (km/s) = 5.59993 7.46415 6.59821
#
# Compressibility (1/GPa) = 0.02651660
#
# Stress axis : x y z
#
# Youngs Moduli (GPa) = 263.72772 42.25683 109.50948
#
# Poissons Ratio (x) = 0.07707 0.17294
# Poissons Ratio (y) = 0.48099 0.17880
# Poissons Ratio (z) = 0.41649 0.06899
#
# Static dielectric constant tensor:
#      x y z
#    x 1.959670 0.000000 0.000000 
#    y 0.000000 0.871180 0.000000 
#    z 0.000000 0.000000 1.818690 
# 
# From -- ./inp_files/22387.got.cif
#   From: 2010.05.17/outbox.cif.g08.bks.cpg/sg55_12_cif.got.tgz:22387.got - 2010.06.03 13:27:54.
