data_PCOD9424205
_publ_section_title
;
Structure prediction by ZEFSAII (Michael W. Deem and Ramdas Pophale) SiO2 
 PCOD9424205
Probable space group: P C C A
;
_chemical_formula_sum "Si O2"
_cell_formula_units_Z 40
_cell_length_a 17.182766
_cell_length_b 12.297624
_cell_length_c 9.768120
_cell_angle_alpha 90.000000
_cell_angle_beta 90.000000
_cell_angle_gamma 90.000000
_cell_volume 2064.074043
_symmetry_space_group_name_H-M "P C C A"
_symmetry_group_IT_number 54
_symmetry_cell_setting 'orthorhombic'
loop_
_space_group_symop_operation_xyz
x,y,z
1/2-x,-y,z
1/2+x,-y,1/2-z
-x,y,1/2-z
-x,-y,-z
1/2+x,y,-z
1/2-x,y,1/2+z
x,-y,1/2+z
loop_
_atom_site_type_symbol
_atom_site_label
_atom_site_fract_x
_atom_site_fract_y
_atom_site_fract_z
Si Si1 0.165582 0.446493 0.511633
Si Si2 0.088978 0.403634 0.797612
Si Si3 0.186438 0.806788 0.983989
Si Si4 0.337740 0.831800 0.803796
Si Si5 0.945726 0.035503 0.125579
O O1 0.250000 0.500000 0.495921
O O2 0.139959 0.444766 0.669346
O O3 0.105291 0.516191 0.422919
O O4 0.171386 0.321534 0.464752
O O5 0.117890 0.281838 0.830673
O O6 0.000000 0.400754 0.750000
O O7 0.264929 0.839751 0.905872
O O8 0.114467 0.873823 0.924044
O O9 0.191231 0.828924 0.146592
O O10 0.396098 0.931535 0.824929
O O11 0.000000 0.073471 0.250000
O O12 0.000000 0.000000 0.000000
#
# Coordination Sequence:
#
# PCOD9424205 Si02
#       5
#     8   8   8   8   8
#     4  11  23  44  67 101 135 178 228 276 336 408
#     4  11  24  42  68  98 138 178 224 285 340 398
#     4  11  26  43  71  99 133 182 228 277 338 410
#     4  11  25  45  68  97 136 180 228 277 341 399
#     4  12  26  47  69  99 138 175 224 282 340 401
#
# _framework density 19.379149999999999
#
# number of rings (size 3 to 8) (size 9 to 14) (size 15 to 20)
#    0.000    0.800    4.000    2.400    8.400    2.400 
#    0.000    0.000    0.000    0.000    0.000    0.000 
#    0.000    0.000    0.000    0.000    0.000    0.000 
#
# Total GULP energy -223853.421643 kJ/mol
# GULP energy per Si atom -5596.335541 kJ/mol
# Density = 1.933504 g / cm^3
# Si number density = 19.379150 Si / 1000 Ang^3
#
#
#
# Elastic Constant Matrix: (Units=GPa)
#
#
# Indices 1 2 3 4 5 6 
#
# 1 111.4929 49.4075 29.4415 0.0000 0.0000 0.0000
# 2 49.4075 115.9199 43.1621 0.0000 0.0000 0.0000
# 3 29.4415 43.1621 66.6779 0.0000 0.0000 0.0000
# 4 0.0000 0.0000 0.0000 22.8613 0.0000 0.0000
# 5 0.0000 0.0000 0.0000 0.0000 37.8897 0.0000
# 6 0.0000 0.0000 0.0000 0.0000 0.0000 12.2137
#
#
#
# Elastic Compliance Matrix: (Units=1/GPa)
#
#
# Indices 1 2 3 4 5 6 
#
# 1 0.011361 -0.003919 -0.002479 0.000000 0.000000 0.000000
# 2 -0.003919 0.012718 -0.006502 0.000000 0.000000 0.000000
# 3 -0.002479 -0.006502 0.020301 0.000000 0.000000 0.000000
# 4 0.000000 0.000000 0.000000 0.043742 0.000000 0.000000
# 5 0.000000 0.000000 0.000000 0.000000 0.026392 0.000000
# 6 0.000000 0.000000 0.000000 0.000000 0.000000 0.081875
#
#
# Mechanical properties :
#
#
# Convention : Reuss Voigt Hill
#
# Bulk Modulus (GPa) = 53.82511 59.79031 56.80771
# Shear Modulus (GPa) = 21.89297 26.06492 23.97894
#
# Velocity S-wave (km/s) = 3.36477 3.67140 3.52143
# Velocity P-wave (km/s) = 6.55215 6.99229 6.77579
#
# Compressibility (1/GPa) = 0.01857869
#
# Stress axis : x y z
#
# Youngs Moduli (GPa) = 88.02385 78.62834 49.25774
#
# Poissons Ratio (x) = 0.30814 0.12213
# Poissons Ratio (y) = 0.34496 0.32029
# Poissons Ratio (z) = 0.21825 0.51127
#
# Static dielectric constant tensor:
#      x y z
#    x 1.645880 0.000000 0.000000 
#    y 0.000000 1.654090 0.000000 
#    z 0.000000 0.000000 1.660550 
# 
# From -- ./inp_files/3440.got.cif
#   From: 2010.05.17/outbox.cif.g08.bks.cpg/sg54_2_cif.got.tgz:3440.got - 2010.06.03 13:09:01.
