data_PCOD9424909
_publ_section_title
;
Structure prediction by ZEFSAII (Michael W. Deem and Ramdas Pophale) SiO2 
 PCOD9424909
Probable space group: P B A M
;
_chemical_formula_sum "Si O2"
_cell_formula_units_Z 64
_cell_length_a 20.068013
_cell_length_b 21.425831
_cell_length_c 7.652016
_cell_angle_alpha 90.000000
_cell_angle_beta 90.000000
_cell_angle_gamma 90.000000
_cell_volume 3290.166818
_symmetry_space_group_name_H-M "P B A M"
_symmetry_group_IT_number 55
_symmetry_cell_setting 'orthorhombic'
loop_
_space_group_symop_operation_xyz
x,y,z
-x,-y,z
1/2+x,1/2-y,-z
1/2-x,1/2+y,-z
-x,-y,-z
x,y,-z
1/2-x,1/2+y,z
1/2+x,1/2-y,z
loop_
_atom_site_type_symbol
_atom_site_label
_atom_site_fract_x
_atom_site_fract_y
_atom_site_fract_z
Si Si1 0.663607 0.155539 0.713194
Si Si2 0.678544 0.290869 0.289973
Si Si3 0.524570 0.306284 0.710229
Si Si4 0.459858 0.558951 0.791997
Si Si5 0.192860 0.480693 0.293251
Si Si6 0.007585 0.328522 0.286989
Si Si7 0.690701 0.426583 0.206353
Si Si8 0.059661 0.546850 0.713620
O O1 0.665976 0.156645 0.500000
O O2 0.696746 0.221064 0.771473
O O3 0.694338 0.090294 0.775591
O O4 0.584799 0.157171 0.759783
O O5 0.679126 0.289587 0.500000
O O6 0.601700 0.299852 0.231345
O O7 0.713975 0.355187 0.239386
O O8 0.524161 0.305734 0.500000
O O9 0.503024 0.375020 0.765500
O O10 0.490505 0.242030 0.769939
O O11 0.500000 0.500000 0.720311
O O12 0.384381 0.564826 0.719877
O O13 0.453579 0.550287 0.000000
O O14 0.180587 0.474044 0.500000
O O15 0.258514 0.521643 0.271952
O O16 0.129341 0.518930 0.222696
O O17 0.006315 0.328875 0.500000
O O18 0.959976 0.383898 0.226259
O O19 0.686884 0.434094 0.000000
O O20 0.061608 0.548798 0.500000
O O21 0.000000 0.500000 0.760605
#
# Coordination Sequence:
#
# PCOD9424909 Si02
#       8
#     8   8   8   8   8   8   8   8
#     4   8  13  23  43  71  95 116 149 193 231 261
#     4   8  14  27  47  68  89 114 149 192 232 270
#     4   8  14  24  43  71  96 115 139 183 234 270
#     4   9  18  33  52  69  85 112 153 195 234 283
#     4  10  18  28  47  73  98 126 157 189 227 273
#     4   8  12  21  39  67  99 121 146 186 224 256
#     4  10  20  33  48  67  92 121 154 194 236 282
#     4   9  14  22  41  71 100 126 157 188 217 258
#
# _framework density 19.451899000000001
#
# number of rings (size 3 to 8) (size 9 to 14) (size 15 to 20)
#    0.000    3.250    1.250    1.875    0.000    0.750 
#    0.000    0.625    2.750    1.875    0.000    0.000 
#    0.000    0.000    0.000    0.000    0.000    0.000 
#
# Total GULP energy -356283.831175 kJ/mol
# GULP energy per Si atom -5566.934862 kJ/mol
# Density = 1.940763 g / cm^3
# Si number density = 19.451899 Si / 1000 Ang^3
#
#
#
# Elastic Constant Matrix: (Units=GPa)
#
#
# Indices 1 2 3 4 5 6 
#
# 1 44.7851 59.9021 -0.6315 0.0000 0.0000 0.0000
# 2 59.9021 224.1017 1.9498 0.0000 0.0000 0.0000
# 3 -0.6315 1.9498 28.3719 0.0000 0.0000 0.0000
# 4 0.0000 0.0000 0.0000 -362.1224 0.0000 0.0000
# 5 0.0000 0.0000 0.0000 0.0000 1.0826 0.0000
# 6 0.0000 0.0000 0.0000 0.0000 0.0000 27.0439
#
#
#
# Elastic Compliance Matrix: (Units=1/GPa)
#
#
# Indices 1 2 3 4 5 6 
#
# 1 0.034811 -0.009317 0.001415 0.000000 0.000000 0.000000
# 2 -0.009317 0.006959 -0.000686 0.000000 0.000000 0.000000
# 3 0.001415 -0.000686 0.035325 0.000000 0.000000 0.000000
# 4 0.000000 0.000000 0.000000 -0.002761 0.000000 0.000000
# 5 0.000000 0.000000 0.000000 0.000000 0.923725 0.000000
# 6 0.000000 0.000000 0.000000 0.000000 0.000000 0.036977
#
#
# Mechanical properties :
#
#
# Convention : Reuss Voigt Hill
#
# Bulk Modulus (GPa) = 16.68915 46.63327 31.66121
# Shear Modulus (GPa) = 4.66338 -51.06331 -23.19997
#
# Velocity S-wave (km/s) = 1.55003 -5.12914 -3.45727
# Velocity P-wave (km/s) = 3.43537 3.32441 0.61240
#
# Compressibility (1/GPa) = 0.05991917
#
# Stress axis : x y z
#
# Youngs Moduli (GPa) = 28.72641 143.70438 28.30878
#
# Poissons Ratio (x) = 1.33894 -0.04006
# Poissons Ratio (y) = 0.26765 0.01941
# Poissons Ratio (z) = -0.04065 0.09853
#
# Static dielectric constant tensor:
#      x y z
#    x 1.661780 0.000000 0.000000 
#    y 0.000000 1.739200 0.000000 
#    z 0.000000 0.000000 1.727700 
# 
# From -- ./inp_files/9190.got.cif
#   From: 2010.05.17/outbox.cif.g08.bks.cpg/sg55_5_cif.got.tgz:9190.got - 2010.06.03 13:27:54.
