data_PCOD9424482
_publ_section_title
;
Structure prediction by ZEFSAII (Michael W. Deem and Ramdas Pophale) SiO2 
 PCOD9424482
Probable space group: P C C A
;
_chemical_formula_sum "Si O2"
_cell_formula_units_Z 36
_cell_length_a 22.841526
_cell_length_b 11.945401
_cell_length_c 5.039844
_cell_angle_alpha 90.000000
_cell_angle_beta 90.000000
_cell_angle_gamma 90.000000
_cell_volume 1375.127420
_symmetry_space_group_name_H-M "P C C A"
_symmetry_group_IT_number 54
_symmetry_cell_setting 'orthorhombic'
loop_
_space_group_symop_operation_xyz
x,y,z
1/2-x,-y,z
1/2+x,-y,1/2-z
-x,y,1/2-z
-x,-y,-z
1/2+x,y,-z
1/2-x,y,1/2+z
x,-y,1/2+z
loop_
_atom_site_type_symbol
_atom_site_label
_atom_site_fract_x
_atom_site_fract_y
_atom_site_fract_z
Si Si1 0.788178 0.196155 0.164318
Si Si2 0.606099 0.930990 0.452690
Si Si3 0.458772 0.390915 0.042093
Si Si4 0.676162 0.563106 0.942513
Si Si5 0.000000 0.801087 0.750000
O O1 0.736486 0.163840 0.372938
O O2 0.844641 0.146678 0.316158
O O3 0.803300 0.325713 0.093574
O O4 0.541045 0.882165 0.418836
O O5 0.612256 0.959349 0.762967
O O6 0.500000 0.326383 0.250000
O O7 0.500000 0.500000 0.000000
O O8 0.394302 0.431254 0.097403
O O9 0.452088 0.293788 0.829780
O O10 0.693192 0.461345 0.138799
#
# Coordination Sequence:
#
# PCOD9424482 Si02
#       5
#     8   8   8   8   4
#     4  12  28  50  78 108 143 197 254 309 374 439
#     4  12  29  51  76 108 143 189 249 316 381 438
#     4  12  23  39  70 111 151 199 239 284 363 452
#     4  12  25  44  72 109 153 192 241 295 362 443
#     4  12  26  46  74 108 152 194 234 308 378 458
#
# _framework density 26.179392
#
# number of rings (size 3 to 8) (size 9 to 14) (size 15 to 20)
#    0.000    0.000    5.556    3.333    3.111    7.111 
#    0.000    0.000    0.000    0.000    0.000    0.000 
#    0.000    0.000    0.000    0.000    0.000    0.000 
#
# Total GULP energy -200567.718361 kJ/mol
# GULP energy per Si atom -5571.325510 kJ/mol
# Density = 2.611981 g / cm^3
# Si number density = 26.179392 Si / 1000 Ang^3
#
#
#
# Elastic Constant Matrix: (Units=GPa)
#
#
# Indices 1 2 3 4 5 6 
#
# 1 151.1781 18.9194 -8.6155 0.0000 0.0000 0.0000
# 2 18.9194 54.8229 -4.3884 0.0000 0.0000 0.0000
# 3 -8.6155 -4.3884 121.3909 0.0000 0.0000 0.0000
# 4 0.0000 0.0000 0.0000 22.2773 0.0000 0.0000
# 5 0.0000 0.0000 0.0000 0.0000 -6.1312 0.0000
# 6 0.0000 0.0000 0.0000 0.0000 0.0000 44.8416
#
#
#
# Elastic Compliance Matrix: (Units=1/GPa)
#
#
# Indices 1 2 3 4 5 6 
#
# 1 0.006933 -0.002360 0.000407 0.000000 0.000000 0.000000
# 2 -0.002360 0.019097 0.000523 0.000000 0.000000 0.000000
# 3 0.000407 0.000523 0.008286 0.000000 0.000000 0.000000
# 4 0.000000 0.000000 0.000000 0.044889 0.000000 0.000000
# 5 0.000000 0.000000 0.000000 0.000000 -0.163100 0.000000
# 6 0.000000 0.000000 0.000000 0.000000 0.000000 0.022301
#
#
# Mechanical properties :
#
#
# Convention : Reuss Voigt Hill
#
# Bulk Modulus (GPa) = 31.79167 37.69144 34.74156
# Shear Modulus (GPa) = -103.63003 33.62928 -35.00037
#
# Velocity S-wave (km/s) = -6.29845 3.58798 -3.66039
# Velocity P-wave (km/s) = 6.38153 5.62080 2.13664
#
# Compressibility (1/GPa) = 0.03145478
#
# Stress axis : x y z
#
# Youngs Moduli (GPa) = 144.23240 52.36455 120.69100
#
# Poissons Ratio (x) = 0.12359 -0.04909
# Poissons Ratio (y) = 0.34040 -0.06310
# Poissons Ratio (z) = -0.05867 -0.02738
#
# Static dielectric constant tensor:
#      x y z
#    x 2.120830 0.000000 0.000000 
#    y 0.000000 2.097050 0.000000 
#    z 0.000000 0.000000 2.048140 
# 
# From -- ./inp_files/1568.got.cif
#   From: 2010.05.17/outbox.cif.g08.bks.cpg/sg54_1_cif.got.tgz:1568.got - 2010.06.03 13:09:01.
