data_PCOD9424757
_publ_section_title
;
Structure prediction by ZEFSAII (Michael W. Deem and Ramdas Pophale) SiO2 
 PCOD9424757
Probable space group: P B A M
;
_chemical_formula_sum "Si O2"
_cell_formula_units_Z 56
_cell_length_a 14.198834
_cell_length_b 30.329211
_cell_length_c 8.511855
_cell_angle_alpha 90.000000
_cell_angle_beta 90.000000
_cell_angle_gamma 90.000000
_cell_volume 3665.540405
_symmetry_space_group_name_H-M "P B A M"
_symmetry_group_IT_number 55
_symmetry_cell_setting 'orthorhombic'
loop_
_space_group_symop_operation_xyz
x,y,z
-x,-y,z
1/2+x,1/2-y,-z
1/2-x,1/2+y,-z
-x,-y,-z
x,y,-z
1/2-x,1/2+y,z
1/2+x,1/2-y,z
loop_
_atom_site_type_symbol
_atom_site_label
_atom_site_fract_x
_atom_site_fract_y
_atom_site_fract_z
Si Si1 0.213001 0.181181 0.190957
Si Si2 0.614349 0.498020 0.681971
Si Si3 0.108100 0.905659 0.690202
Si Si4 0.604610 0.404706 0.812785
Si Si5 0.708398 0.683318 0.688285
Si Si6 0.890160 0.728886 0.189872
Si Si7 0.896246 0.269411 0.190181
O O1 0.171217 0.134840 0.245808
O O2 0.145496 0.222075 0.235534
O O3 0.317987 0.194967 0.242051
O O4 0.214289 0.179885 0.000000
O O5 0.500000 0.500000 0.685723
O O6 0.642725 0.493923 0.500000
O O7 0.643531 0.546083 0.745086
O O8 0.641370 0.453386 0.769518
O O9 0.107862 0.907425 0.500000
O O10 0.170368 0.864241 0.741374
O O11 0.000279 0.899449 0.743460
O O12 0.596875 0.401422 0.000000
O O13 0.705525 0.684559 0.500000
O O14 0.813254 0.695064 0.744855
O O15 0.641147 0.722002 0.753260
O O16 0.997267 0.721862 0.242512
O O17 0.887182 0.726807 0.000000
O O18 0.896160 0.268610 0.000000
#
# Coordination Sequence:
#
# PCOD9424757 Si02
#       7
#     8   8   8   8   8   8   8
#     4   8  15  26  40  61  85 107 133 165 204 243
#     4   8  15  28  41  54  79 112 139 163 201 253
#     4   9  18  30  41  56  83 116 140 162 203 253
#     4  10  17  25  41  64  86 107 136 174 206 237
#     4  10  19  29  43  64  87 110 139 175 211 245
#     4   9  17  30  46  61  81 112 144 171 202 244
#     4   9  17  31  47  61  83 115 145 170 202 249
#
# _framework density 15.277419999999999
#
# number of rings (size 3 to 8) (size 9 to 14) (size 15 to 20)
#    0.000    3.000    0.000    3.429    0.000    5.429 
#    0.000    7.143    0.000    0.000    0.000    1.000 
#    0.000    8.000    0.000    0.000    0.000    0.000 
#
# Total GULP energy -311823.278860 kJ/mol
# GULP energy per Si atom -5568.272837 kJ/mol
# Density = 1.524265 g / cm^3
# Si number density = 15.277420 Si / 1000 Ang^3
#
#
#
# Elastic Constant Matrix: (Units=GPa)
#
#
# Indices 1 2 3 4 5 6 
#
# 1 108.7530 72.7162 13.0518 0.0000 0.0000 0.0000
# 2 72.7162 150.6379 16.9087 0.0000 0.0000 0.0000
# 3 13.0518 16.9087 6.5972 0.0000 0.0000 0.0000
# 4 0.0000 0.0000 0.0000 21.6793 0.0000 0.0000
# 5 0.0000 0.0000 0.0000 0.0000 8.0335 0.0000
# 6 0.0000 0.0000 0.0000 0.0000 0.0000 24.7682
#
#
#
# Elastic Compliance Matrix: (Units=1/GPa)
#
#
# Indices 1 2 3 4 5 6 
#
# 1 0.014585 -0.005337 -0.015176 0.000000 0.000000 0.000000
# 2 -0.005337 0.011273 -0.018333 0.000000 0.000000 0.000000
# 3 -0.015176 -0.018333 0.228590 0.000000 0.000000 0.000000
# 4 0.000000 0.000000 0.000000 0.046127 0.000000 0.000000
# 5 0.000000 0.000000 0.000000 0.000000 0.124479 0.000000
# 6 0.000000 0.000000 0.000000 0.000000 0.000000 0.040374
#
#
# Mechanical properties :
#
#
# Convention : Reuss Voigt Hill
#
# Bulk Modulus (GPa) = 5.65752 52.37127 29.01439
# Shear Modulus (GPa) = 8.30514 21.78363 15.04438
#
# Velocity S-wave (km/s) = 2.33410 3.78017 3.14147
# Velocity P-wave (km/s) = 3.31289 7.30804 5.67374
#
# Compressibility (1/GPa) = 0.17675594
#
# Stress axis : x y z
#
# Youngs Moduli (GPa) = 68.56371 88.71092 4.37465
#
# Poissons Ratio (x) = 0.47346 0.06639
# Poissons Ratio (y) = 0.36593 0.08020
# Poissons Ratio (z) = 1.04050 1.62633
#
# Static dielectric constant tensor:
#      x y z
#    x 1.493680 0.000000 0.000000 
#    y 0.000000 1.527680 0.000000 
#    z 0.000000 0.000000 1.524290 
# 
# From -- ./inp_files/6846.got.cif
#   From: 2010.05.17/outbox.cif.g08.bks.cpg/sg55_4_cif.got.tgz:6846.got - 2010.06.03 13:27:54.
