data_PCOD9424009
_publ_section_title
;
Structure prediction by ZEFSAII (Michael W. Deem and Ramdas Pophale) SiO2 
 PCOD9424009
Probable space group: P C C A
;
_chemical_formula_sum "Si O2"
_cell_formula_units_Z 48
_cell_length_a 9.288779
_cell_length_b 8.356523
_cell_length_c 28.052872
_cell_angle_alpha 90.000000
_cell_angle_beta 90.000000
_cell_angle_gamma 90.000000
_cell_volume 2177.517095
_symmetry_space_group_name_H-M "P C C A"
_symmetry_group_IT_number 54
_symmetry_cell_setting 'orthorhombic'
loop_
_space_group_symop_operation_xyz
x,y,z
1/2-x,-y,z
1/2+x,-y,1/2-z
-x,y,1/2-z
-x,-y,-z
1/2+x,y,-z
1/2-x,y,1/2+z
x,-y,1/2+z
loop_
_atom_site_type_symbol
_atom_site_label
_atom_site_fract_x
_atom_site_fract_y
_atom_site_fract_z
Si Si1 0.374120 0.905777 0.876865
Si Si2 0.899211 0.600777 0.796122
Si Si3 0.731098 0.177260 0.521302
Si Si4 0.135161 0.863813 0.634937
Si Si5 0.918252 0.447391 0.619344
Si Si6 0.069090 0.659310 0.547968
O O1 0.308632 0.852572 0.928039
O O2 0.430051 0.733985 0.861605
O O3 0.250000 0.000000 0.848601
O O4 0.491578 0.041757 0.878743
O O5 0.750000 0.500000 0.792113
O O6 0.862093 0.779153 0.813915
O O7 0.000000 0.593944 0.750000
O O8 0.001426 0.544458 0.839508
O O9 0.568462 0.234250 0.530861
O O10 0.814656 0.316522 0.493383
O O11 0.750000 0.000000 0.497043
O O12 0.152108 0.734564 0.593283
O O13 0.250000 0.000000 0.632900
O O14 0.750000 0.500000 0.615201
O O15 0.000560 0.496540 0.570025
#
# Coordination Sequence:
#
# PCOD9424009 Si02
#       6
#     8   8   8   8   8   8
#     4  11  21  40  64  91 131 179 225 276 335 395
#     4  11  25  48  75 105 133 171 214 272 341 417
#     4  11  21  37  60  93 135 178 243 276 338 385
#     4  11  23  42  68 100 135 175 222 273 336 402
#     4  11  22  44  67  95 134 178 227 280 341 401
#     4  11  23  38  62  94 133 185 232 285 330 392
#
# _framework density 22.043455000000002
#
# number of rings (size 3 to 8) (size 9 to 14) (size 15 to 20)
#    0.000    1.000    5.000    3.500    2.333    0.667 
#    0.000    5.833    0.000    0.000    0.000    0.000 
#    0.000    0.000    0.000    0.000    0.000    0.000 
#
# Total GULP energy -267703.815367 kJ/mol
# GULP energy per Si atom -5577.162820 kJ/mol
# Density = 2.199328 g / cm^3
# Si number density = 22.043455 Si / 1000 Ang^3
#
#
#
# Elastic Constant Matrix: (Units=GPa)
#
#
# Indices 1 2 3 4 5 6 
#
# 1 102.4107 10.6776 30.2090 0.0000 0.0000 0.0000
# 2 10.6776 79.9805 10.4154 0.0000 0.0000 0.0000
# 3 30.2090 10.4154 61.3809 0.0000 0.0000 0.0000
# 4 0.0000 0.0000 0.0000 16.3635 0.0000 0.0000
# 5 0.0000 0.0000 0.0000 0.0000 15.3720 0.0000
# 6 0.0000 0.0000 0.0000 0.0000 0.0000 35.7390
#
#
#
# Elastic Compliance Matrix: (Units=1/GPa)
#
#
# Indices 1 2 3 4 5 6 
#
# 1 0.011475 -0.000814 -0.005509 0.000000 0.000000 0.000000
# 2 -0.000814 0.012843 -0.001778 0.000000 0.000000 0.000000
# 3 -0.005509 -0.001778 0.019305 0.000000 0.000000 0.000000
# 4 0.000000 0.000000 0.000000 0.061111 0.000000 0.000000
# 5 0.000000 0.000000 0.000000 0.000000 0.065053 0.000000
# 6 0.000000 0.000000 0.000000 0.000000 0.000000 0.027981
#
#
# Mechanical properties :
#
#
# Convention : Reuss Voigt Hill
#
# Bulk Modulus (GPa) = 36.47142 38.48622 37.47882
# Shear Modulus (GPa) = 22.41028 26.32625 24.36827
#
# Velocity S-wave (km/s) = 3.19194 3.45960 3.32846
# Velocity P-wave (km/s) = 5.49234 5.78408 5.64010
#
# Compressibility (1/GPa) = 0.02741873
#
# Stress axis : x y z
#
# Youngs Moduli (GPa) = 87.14911 77.86114 51.80055
#
# Poissons Ratio (x) = 0.06342 0.28537
# Poissons Ratio (y) = 0.07098 0.09213
# Poissons Ratio (z) = 0.48011 0.13847
#
# Static dielectric constant tensor:
#      x y z
#    x 1.786800 0.000000 0.000000 
#    y 0.000000 1.983880 0.000000 
#    z 0.000000 0.000000 1.818860 
# 
# From -- ./inp_files/27707.got.cif
#   From: 2010.05.17/outbox.cif.g08.bks.cpg/sg54_14_cif.got.tgz:27707.got - 2010.06.03 13:09:01.
