data_PCOD9424184
_publ_section_title
;
Structure prediction by ZEFSAII (Michael W. Deem and Ramdas Pophale) SiO2 
 PCOD9424184
Probable space group: P C C A
;
_chemical_formula_sum "Si O2"
_cell_formula_units_Z 24
_cell_length_a 7.960294
_cell_length_b 8.126543
_cell_length_c 16.061623
_cell_angle_alpha 90.000000
_cell_angle_beta 90.000000
_cell_angle_gamma 90.000000
_cell_volume 1039.021115
_symmetry_space_group_name_H-M "P C C A"
_symmetry_group_IT_number 54
_symmetry_cell_setting 'orthorhombic'
loop_
_space_group_symop_operation_xyz
x,y,z
1/2-x,-y,z
1/2+x,-y,1/2-z
-x,y,1/2-z
-x,-y,-z
1/2+x,y,-z
1/2-x,y,1/2+z
x,-y,1/2+z
loop_
_atom_site_type_symbol
_atom_site_label
_atom_site_fract_x
_atom_site_fract_y
_atom_site_fract_z
Si Si1 0.673563 0.183664 0.447449
Si Si2 0.690295 0.809694 0.280207
Si Si3 0.308246 0.312454 0.390299
O O1 0.783724 0.264497 0.372403
O O2 0.487518 0.238471 0.419487
O O3 0.684516 0.224546 0.544564
O O4 0.750000 0.000000 0.445340
O O5 0.500000 0.802293 0.250000
O O6 0.793721 0.724095 0.207037
O O7 0.750000 0.000000 0.280216
O O8 0.250000 0.500000 0.402213
#
# Coordination Sequence:
#
# PCOD9424184 Si02
#       3
#     8   8   8
#     4  11  23  43  68  95 132 182 235 283 334 415
#     4  11  23  42  67  95 127 174 229 282 336 411
#     4  12  25  41  65 100 138 176 220 285 357 418
#
# _framework density 23.098663999999999
#
# number of rings (size 3 to 8) (size 9 to 14) (size 15 to 20)
#    0.000    0.667    0.000   10.000    0.000    4.000 
#    0.000    0.000    0.000    0.000    0.000    0.000 
#    0.000    0.000    0.000    0.000    0.000    0.000 
#
# Total GULP energy -133729.029402 kJ/mol
# GULP energy per Si atom -5572.042892 kJ/mol
# Density = 2.304609 g / cm^3
# Si number density = 23.098664 Si / 1000 Ang^3
#
#
#
# Elastic Constant Matrix: (Units=GPa)
#
#
# Indices 1 2 3 4 5 6 
#
# 1 101.9915 9.0518 -16.0570 0.0000 0.0000 0.0000
# 2 9.0518 95.2838 -3.4916 0.0000 0.0000 0.0000
# 3 -16.0570 -3.4916 95.6292 0.0000 0.0000 0.0000
# 4 0.0000 0.0000 0.0000 -246.3123 0.0000 0.0000
# 5 0.0000 0.0000 0.0000 0.0000 67.7890 0.0000
# 6 0.0000 0.0000 0.0000 0.0000 0.0000 13.2333
#
#
#
# Elastic Compliance Matrix: (Units=1/GPa)
#
#
# Indices 1 2 3 4 5 6 
#
# 1 0.010148 -0.000903 0.001671 0.000000 0.000000 0.000000
# 2 -0.000903 0.010589 0.000235 0.000000 0.000000 0.000000
# 3 0.001671 0.000235 0.010746 0.000000 0.000000 0.000000
# 4 0.000000 0.000000 0.000000 -0.004060 0.000000 0.000000
# 5 0.000000 0.000000 0.000000 0.000000 0.014752 0.000000
# 6 0.000000 0.000000 0.000000 0.000000 0.000000 0.075567
#
#
# Mechanical properties :
#
#
# Convention : Reuss Voigt Hill
#
# Bulk Modulus (GPa) = 29.85973 30.21231 30.03602
# Shear Modulus (GPa) = 39.40138 -12.83126 13.28506
#
# Velocity S-wave (km/s) = 4.13460 -2.35946 2.40082
# Velocity P-wave (km/s) = 5.97899 2.38440 4.55157
#
# Compressibility (1/GPa) = 0.03348992
#
# Stress axis : x y z
#
# Youngs Moduli (GPa) = 98.54221 94.43454 93.05601
#
# Poissons Ratio (x) = 0.08526 -0.15549
# Poissons Ratio (y) = 0.08896 -0.02187
# Poissons Ratio (z) = -0.16466 -0.02220
#
# Static dielectric constant tensor:
#      x y z
#    x 1.874740 0.000000 0.000000 
#    y 0.000000 1.979130 0.000000 
#    z 0.000000 0.000000 1.901020 
# 
# From -- ./inp_files/11094.got.cif
#   From: 2010.05.17/outbox.cif.g08.bks.cpg/sg54_6_cif.got.tgz:11094.got - 2010.06.03 13:09:01.
