data_PCOD9424196
_publ_section_title
;
Structure prediction by ZEFSAII (Michael W. Deem and Ramdas Pophale) SiO2 
 PCOD9424196
Probable space group: P C C A
;
_chemical_formula_sum "Si O2"
_cell_formula_units_Z 40
_cell_length_a 9.155486
_cell_length_b 11.572035
_cell_length_c 16.397340
_cell_angle_alpha 90.000000
_cell_angle_beta 90.000000
_cell_angle_gamma 90.000000
_cell_volume 1737.258892
_symmetry_space_group_name_H-M "P C C A"
_symmetry_group_IT_number 54
_symmetry_cell_setting 'orthorhombic'
loop_
_space_group_symop_operation_xyz
x,y,z
1/2-x,-y,z
1/2+x,-y,1/2-z
-x,y,1/2-z
-x,-y,-z
1/2+x,y,-z
1/2-x,y,1/2+z
x,-y,1/2+z
loop_
_atom_site_type_symbol
_atom_site_label
_atom_site_fract_x
_atom_site_fract_y
_atom_site_fract_z
Si Si1 0.336509 0.727433 0.732379
Si Si2 0.906005 0.542956 0.404128
Si Si3 0.706086 0.131021 0.417117
Si Si4 0.078534 0.323112 0.336321
Si Si5 0.963896 0.754451 0.998659
O O1 0.500000 0.765120 0.750000
O O2 0.350716 0.617190 0.673167
O O3 0.266629 0.825255 0.674849
O O4 0.247249 0.689432 0.811737
O O5 0.750000 0.500000 0.441099
O O6 0.995876 0.629981 0.462325
O O7 0.011576 0.443955 0.368747
O O8 0.538742 0.154507 0.441073
O O9 0.798216 0.214958 0.477348
O O10 0.750000 0.000000 0.428452
O O11 0.037711 0.238255 0.409374
O O12 0.000000 0.300579 0.250000
#
# Coordination Sequence:
#
# PCOD9424196 Si02
#       5
#     8   8   8   8   8
#     4  11  26  45  65 103 148 183 237 290 343 428
#     4  11  23  43  68 105 147 189 229 279 356 437
#     4  11  25  51  74 100 137 184 246 307 355 410
#     4  12  22  43  68 100 145 185 224 285 352 422
#     4  11  25  45  72 102 142 181 240 290 352 435
#
# _framework density 23.024778000000001
#
# number of rings (size 3 to 8) (size 9 to 14) (size 15 to 20)
#    0.000    0.800    4.000    3.000    5.600    0.000 
#    7.200    0.000    0.000    0.000    0.000    0.000 
#    0.000    0.000    0.000    0.000    0.000    0.000 
#
# Total GULP energy -223635.655307 kJ/mol
# GULP energy per Si atom -5590.891383 kJ/mol
# Density = 2.297237 g / cm^3
# Si number density = 23.024778 Si / 1000 Ang^3
#
#
#
# Elastic Constant Matrix: (Units=GPa)
#
#
# Indices 1 2 3 4 5 6 
#
# 1 110.1007 15.8956 24.1765 0.0000 0.0000 0.0000
# 2 15.8956 70.3777 14.4339 0.0000 0.0000 0.0000
# 3 24.1765 14.4339 85.2141 0.0000 0.0000 0.0000
# 4 0.0000 0.0000 0.0000 17.7026 0.0000 0.0000
# 5 0.0000 0.0000 0.0000 0.0000 45.4960 0.0000
# 6 0.0000 0.0000 0.0000 0.0000 0.0000 18.1015
#
#
#
# Elastic Compliance Matrix: (Units=1/GPa)
#
#
# Indices 1 2 3 4 5 6 
#
# 1 0.009882 -0.001717 -0.002513 0.000000 0.000000 0.000000
# 2 -0.001717 0.015019 -0.002057 0.000000 0.000000 0.000000
# 3 -0.002513 -0.002057 0.012797 0.000000 0.000000 0.000000
# 4 0.000000 0.000000 0.000000 0.056489 0.000000 0.000000
# 5 0.000000 0.000000 0.000000 0.000000 0.021980 0.000000
# 6 0.000000 0.000000 0.000000 0.000000 0.000000 0.055244
#
#
# Mechanical properties :
#
#
# Convention : Reuss Voigt Hill
#
# Bulk Modulus (GPa) = 39.80190 41.63382 40.71786
# Shear Modulus (GPa) = 25.99323 30.33913 28.16618
#
# Velocity S-wave (km/s) = 3.36359 3.63391 3.50136
# Velocity P-wave (km/s) = 5.69290 5.97734 5.83685
#
# Compressibility (1/GPa) = 0.02512443
#
# Stress axis : x y z
#
# Youngs Moduli (GPa) = 101.19166 66.58402 78.14625
#
# Poissons Ratio (x) = 0.11430 0.19638
# Poissons Ratio (y) = 0.17371 0.16074
# Poissons Ratio (z) = 0.25429 0.13696
#
# Static dielectric constant tensor:
#      x y z
#    x 1.941100 0.000000 0.000000 
#    y 0.000000 1.858520 0.000000 
#    z 0.000000 0.000000 1.864780 
# 
# From -- ./inp_files/16304.got.cif
#   From: 2010.05.17/outbox.cif.g08.bks.cpg/sg54_9_cif.got.tgz:16304.got - 2010.06.03 13:09:01.
