data_PCOD9424866
_publ_section_title
;
Structure prediction by ZEFSAII (Michael W. Deem and Ramdas Pophale) SiO2 
 PCOD9424866
Probable space group: P B A M
;
_chemical_formula_sum "Si O2"
_cell_formula_units_Z 56
_cell_length_a 22.602182
_cell_length_b 18.246276
_cell_length_c 9.028948
_cell_angle_alpha 90.000000
_cell_angle_beta 90.000000
_cell_angle_gamma 90.000000
_cell_volume 3723.589178
_symmetry_space_group_name_H-M "P B A M"
_symmetry_group_IT_number 55
_symmetry_cell_setting 'orthorhombic'
loop_
_space_group_symop_operation_xyz
x,y,z
-x,-y,z
1/2+x,1/2-y,-z
1/2-x,1/2+y,-z
-x,-y,-z
x,y,-z
1/2-x,1/2+y,z
1/2+x,1/2-y,z
loop_
_atom_site_type_symbol
_atom_site_label
_atom_site_fract_x
_atom_site_fract_y
_atom_site_fract_z
Si Si1 0.214784 0.564344 0.326290
Si Si2 0.649406 0.382042 0.324759
Si Si3 0.430756 0.495203 0.176904
Si Si4 0.184853 0.260501 0.825022
Si Si5 0.307661 0.222900 0.674848
Si Si6 0.149957 0.877354 0.675115
Si Si7 0.224001 0.415617 0.176376
O O1 0.209634 0.545633 0.500000
O O2 0.283489 0.587803 0.299741
O O3 0.177161 0.638228 0.297242
O O4 0.200627 0.493973 0.229019
O O5 0.639245 0.382880 0.500000
O O6 0.604617 0.435969 0.243387
O O7 0.647018 0.299370 0.262741
O O8 0.500000 0.500000 0.213206
O O9 0.400643 0.422997 0.244992
O O10 0.423961 0.494415 0.000000
O O11 0.252286 0.241733 0.778652
O O12 0.181159 0.346844 0.788364
O O13 0.176416 0.250596 0.000000
O O14 0.288552 0.226036 0.500000
O O15 0.353272 0.289267 0.695089
O O16 0.149470 0.893407 0.500000
O O17 0.213435 0.902368 0.740794
O O18 0.234438 0.414740 0.000000
#
# Coordination Sequence:
#
# PCOD9424866 Si02
#       7
#     8   8   8   8   8   8   8
#     4   9  16  26  41  62  87 115 145 178 214 255
#     4  10  19  31  46  62  82 113 148 183 222 259
#     4  11  23  35  47  64  86 114 149 188 226 264
#     4   9  17  27  40  60  85 114 145 177 214 256
#     4   8  16  28  41  59  83 112 147 179 212 258
#     4  10  18  30  46  61  82 114 148 185 223 257
#     4  10  18  26  40  63  90 119 148 177 212 257
#
# _framework density 15.039254
#
# number of rings (size 3 to 8) (size 9 to 14) (size 15 to 20)
#    0.000    2.429    1.429    3.000    0.000    5.714 
#    0.000    0.000    0.000    0.000    0.000    0.000 
#    0.000    1.143    0.000   12.857    0.000    5.714 
#
# Total GULP energy -311886.682314 kJ/mol
# GULP energy per Si atom -5569.405041 kJ/mol
# Density = 1.500502 g / cm^3
# Si number density = 15.039254 Si / 1000 Ang^3
#
#
#
# Elastic Constant Matrix: (Units=GPa)
#
#
# Indices 1 2 3 4 5 6 
#
# 1 41.9608 36.6148 29.7580 0.0000 0.0000 0.0000
# 2 36.6148 138.7655 57.3747 0.0000 0.0000 0.0000
# 3 29.7580 57.3747 55.8239 0.0000 0.0000 0.0000
# 4 0.0000 0.0000 0.0000 27.5164 0.0000 0.0000
# 5 0.0000 0.0000 0.0000 0.0000 9.0665 0.0000
# 6 0.0000 0.0000 0.0000 0.0000 0.0000 10.0334
#
#
#
# Elastic Compliance Matrix: (Units=1/GPa)
#
#
# Indices 1 2 3 4 5 6 
#
# 1 0.038999 -0.002947 -0.017760 0.000000 0.000000 0.000000
# 2 -0.002947 0.012755 -0.011538 0.000000 0.000000 0.000000
# 3 -0.017760 -0.011538 0.039239 0.000000 0.000000 0.000000
# 4 0.000000 0.000000 0.000000 0.036342 0.000000 0.000000
# 5 0.000000 0.000000 0.000000 0.000000 0.110296 0.000000
# 6 0.000000 0.000000 0.000000 0.000000 0.000000 0.099667
#
#
# Mechanical properties :
#
#
# Convention : Reuss Voigt Hill
#
# Bulk Modulus (GPa) = 37.73243 53.78280 45.75762
# Shear Modulus (GPa) = 12.17666 16.84344 14.51005
#
# Velocity S-wave (km/s) = 2.84854 3.35022 3.10951
# Velocity P-wave (km/s) = 5.99689 7.12773 6.58662
#
# Compressibility (1/GPa) = 0.02650240
#
# Stress axis : x y z
#
# Youngs Moduli (GPa) = 25.64198 78.40353 25.48469
#
# Poissons Ratio (x) = 0.23106 0.45261
# Poissons Ratio (y) = 0.07557 0.29404
# Poissons Ratio (z) = 0.45540 0.90461
#
# Static dielectric constant tensor:
#      x y z
#    x 1.455430 0.000000 0.000000 
#    y 0.000000 1.553200 0.000000 
#    z 0.000000 0.000000 1.502120 
# 
# From -- ./inp_files/7871.got.cif
#   From: 2010.05.17/outbox.cif.g08.bks.cpg/sg55_4_cif.got.tgz:7871.got - 2010.06.03 13:27:54.
