data_PCOD9424734
_publ_section_title
;
Structure prediction by ZEFSAII (Michael W. Deem and Ramdas Pophale) SiO2 
 PCOD9424734
Probable space group: P B A M
;
_chemical_formula_sum "Si O2"
_cell_formula_units_Z 52
_cell_length_a 27.743052
_cell_length_b 5.351916
_cell_length_c 20.226753
_cell_angle_alpha 90.000000
_cell_angle_beta 90.000000
_cell_angle_gamma 90.000000
_cell_volume 3003.237619
_symmetry_space_group_name_H-M "P B A M"
_symmetry_group_IT_number 55
_symmetry_cell_setting 'orthorhombic'
loop_
_space_group_symop_operation_xyz
x,y,z
-x,-y,z
1/2+x,1/2-y,-z
1/2-x,1/2+y,-z
-x,-y,-z
x,y,-z
1/2-x,1/2+y,z
1/2+x,1/2-y,z
loop_
_atom_site_type_symbol
_atom_site_label
_atom_site_fract_x
_atom_site_fract_y
_atom_site_fract_z
Si Si1 0.782357 0.719244 0.354943
Si Si2 0.222560 0.789812 0.079493
Si Si3 0.975530 0.749862 0.271033
Si Si4 0.871519 0.263965 0.161412
Si Si5 0.719590 0.294029 0.500000
Si Si6 0.983165 0.250179 0.120993
Si Si7 0.865658 0.763707 0.247469
O O1 0.754440 0.454526 0.348916
O O2 0.804370 0.743013 0.429163
O O3 0.823041 0.741226 0.299860
O O4 0.253333 0.549265 0.102532
O O5 0.168423 0.763653 0.105039
O O6 0.223125 0.790562 0.000000
O O7 0.918639 0.749419 0.279773
O O8 0.000000 0.500000 0.297539
O O9 0.987478 0.750019 0.191614
O O10 0.000000 0.000000 0.297491
O O11 0.926543 0.252425 0.136299
O O12 0.863650 0.528196 0.197783
O O13 0.863810 0.029102 0.210165
O O14 0.738040 0.581186 0.500000
O O15 0.000000 0.500000 0.085917
O O16 0.000000 0.000000 0.086112
#
# Coordination Sequence:
#
# PCOD9424734 Si02
#       7
#     8   8   8   8   4   8   8
#     4  10  21  35  49  73 106 136 167 209 243 298
#     4  10  23  42  57  71  97 137 177 203 238 303
#     4  10  16  30  46  68 100 134 163 190 239 301
#     4  12  21  32  55  78 101 132 167 206 256 295
#     4   8  16  34  54  64  90 142 178 194 242 292
#     4  10  16  30  48  71  98 130 161 195 242 298
#     4  12  21  30  51  82 105 130 163 206 261 295
#
# _framework density 17.314647999999998
#
# number of rings (size 3 to 8) (size 9 to 14) (size 15 to 20)
#    0.000    1.538    6.154    1.846    0.000    3.692 
#    0.000    0.000    0.000    0.923    0.000    1.077 
#    0.000    0.000    0.000    0.000    0.000    0.000 
#
# Total GULP energy -289934.884118 kJ/mol
# GULP energy per Si atom -5575.670848 kJ/mol
# Density = 1.727524 g / cm^3
# Si number density = 17.314648 Si / 1000 Ang^3
#
#
#
# Elastic Constant Matrix: (Units=GPa)
#
#
# Indices 1 2 3 4 5 6 
#
# 1 76.6540 1.8573 17.1194 0.0000 0.0000 0.0000
# 2 1.8573 109.0278 2.7290 0.0000 0.0000 0.0000
# 3 17.1194 2.7290 12.3974 0.0000 0.0000 0.0000
# 4 0.0000 0.0000 0.0000 -23.6442 0.0000 0.0000
# 5 0.0000 0.0000 0.0000 0.0000 -6.0421 0.0000
# 6 0.0000 0.0000 0.0000 0.0000 0.0000 24.8974
#
#
#
# Elastic Compliance Matrix: (Units=1/GPa)
#
#
# Indices 1 2 3 4 5 6 
#
# 1 0.018875 0.000333 -0.026137 0.000000 0.000000 0.000000
# 2 0.000333 0.009229 -0.002491 0.000000 0.000000 0.000000
# 3 -0.026137 -0.002491 0.117303 0.000000 0.000000 0.000000
# 4 0.000000 0.000000 0.000000 -0.042294 0.000000 0.000000
# 5 0.000000 0.000000 0.000000 0.000000 -0.165505 0.000000
# 6 0.000000 0.000000 0.000000 0.000000 0.000000 0.040165
#
#
# Mechanical properties :
#
#
# Convention : Reuss Voigt Hill
#
# Bulk Modulus (GPa) = 11.25929 26.83227 19.04578
# Shear Modulus (GPa) = 78.16333 10.80045 44.48189
#
# Velocity S-wave (km/s) = 6.72614 2.50026 5.07406
# Velocity P-wave (km/s) = 8.17545 4.88524 6.73438
#
# Compressibility (1/GPa) = 0.08881555
#
# Stress axis : x y z
#
# Youngs Moduli (GPa) = 52.98040 108.35820 8.52494
#
# Poissons Ratio (x) = -0.03605 0.22282
# Poissons Ratio (y) = -0.01763 0.02123
# Poissons Ratio (z) = 1.38476 0.26990
#
# Static dielectric constant tensor:
#      x y z
#    x 1.559270 0.000000 0.000000 
#    y 0.000000 1.717240 0.000000 
#    z 0.000000 0.000000 1.575430 
# 
# From -- ./inp_files/20494.got.cif
#   From: 2010.05.17/outbox.cif.g08.bks.cpg/sg55_11_cif.got.tgz:20494.got - 2010.06.03 13:27:54.
