data_PCOD9424463
_publ_section_title
;
Structure prediction by ZEFSAII (Michael W. Deem and Ramdas Pophale) SiO2 
 PCOD9424463
Probable space group: P C C A
;
_chemical_formula_sum "Si O2"
_cell_formula_units_Z 32
_cell_length_a 4.963720
_cell_length_b 11.179809
_cell_length_c 25.516962
_cell_angle_alpha 90.000000
_cell_angle_beta 90.000000
_cell_angle_gamma 90.000000
_cell_volume 1416.024039
_symmetry_space_group_name_H-M "P C C A"
_symmetry_group_IT_number 54
_symmetry_cell_setting 'orthorhombic'
loop_
_space_group_symop_operation_xyz
x,y,z
1/2-x,-y,z
1/2+x,-y,1/2-z
-x,y,1/2-z
-x,-y,-z
1/2+x,y,-z
1/2-x,y,1/2+z
x,-y,1/2+z
loop_
_atom_site_type_symbol
_atom_site_label
_atom_site_fract_x
_atom_site_fract_y
_atom_site_fract_z
Si Si1 0.930960 0.262849 0.964504
Si Si2 0.750000 0.500000 0.174465
Si Si3 0.835850 0.238490 0.199200
Si Si4 0.321346 0.862226 0.641582
Si Si5 0.250000 0.500000 0.096696
O O1 0.898112 0.167798 0.917975
O O2 0.844095 0.389608 0.939179
O O3 0.731118 0.251459 0.013601
O O4 0.749963 0.376808 0.206522
O O5 0.498516 0.514985 0.135956
O O6 0.567260 0.172030 0.180187
O O7 0.000000 0.194968 0.250000
O O8 0.060287 0.217917 0.154635
O O9 0.250000 0.000000 0.648348
#
# Coordination Sequence:
#
# PCOD9424463 Si02
#       5
#     8   4   8   8   4
#     4  12  24  42  71 106 142 193 242 294 361 424
#     4  12  22  44  74 104 146 184 228 300 376 422
#     4  12  26  47  76 106 141 186 238 298 365 431
#     4  12  27  49  72 103 146 194 243 298 349 419
#     4  12  22  42  70 104 150 190 230 300 366 428
#
# _framework density 22.598486000000001
#
# number of rings (size 3 to 8) (size 9 to 14) (size 15 to 20)
#    0.000    0.000    5.000    5.250    0.000    6.000 
#    0.000    0.000    0.000    0.000    0.000    0.000 
#    0.000    0.000    0.000    0.000    0.000    0.000 
#
# Total GULP energy -179105.708143 kJ/mol
# GULP energy per Si atom -5597.053379 kJ/mol
# Density = 2.254705 g / cm^3
# Si number density = 22.598486 Si / 1000 Ang^3
#
#
#
# Elastic Constant Matrix: (Units=GPa)
#
#
# Indices 1 2 3 4 5 6 
#
# 1 98.8134 49.4300 9.5130 0.0000 0.0000 0.0000
# 2 49.4300 109.1691 31.1454 0.0000 0.0000 0.0000
# 3 9.5130 31.1454 54.7430 0.0000 0.0000 0.0000
# 4 0.0000 0.0000 0.0000 -4.9364 0.0000 0.0000
# 5 0.0000 0.0000 0.0000 0.0000 59.0240 0.0000
# 6 0.0000 0.0000 0.0000 0.0000 0.0000 22.0020
#
#
#
# Elastic Compliance Matrix: (Units=1/GPa)
#
#
# Indices 1 2 3 4 5 6 
#
# 1 0.013163 -0.006336 0.001317 0.000000 0.000000 0.000000
# 2 -0.006336 0.013985 -0.006855 0.000000 0.000000 0.000000
# 3 0.001317 -0.006855 0.021939 0.000000 0.000000 0.000000
# 4 0.000000 0.000000 0.000000 -0.202578 0.000000 0.000000
# 5 0.000000 0.000000 0.000000 0.000000 0.016942 0.000000
# 6 0.000000 0.000000 0.000000 0.000000 0.000000 0.045450
#
#
# Mechanical properties :
#
#
# Convention : Reuss Voigt Hill
#
# Bulk Modulus (GPa) = 39.46610 49.21137 44.33874
# Shear Modulus (GPa) = -84.88077 26.72707 -29.07685
#
# Velocity S-wave (km/s) = -6.13530 3.44276 -3.59091
# Velocity P-wave (km/s) = 5.71728 6.13410 1.57160
#
# Compressibility (1/GPa) = 0.02533820
#
# Stress axis : x y z
#
# Youngs Moduli (GPa) = 75.97297 71.50742 45.58181
#
# Poissons Ratio (x) = 0.45304 -0.06004
# Poissons Ratio (y) = 0.48133 0.31248
# Poissons Ratio (z) = -0.10007 0.49021
#
# Static dielectric constant tensor:
#      x y z
#    x 1.813050 0.000000 0.000000 
#    y 0.000000 1.843400 0.000000 
#    z 0.000000 0.000000 1.894450 
# 
# From -- ./inp_files/19535.got.cif
#   From: 2010.05.17/outbox.cif.g08.bks.cpg/sg54_10_cif.got.tgz:19535.got - 2010.06.03 13:09:01.
