data_PCOD9424740
_publ_section_title
;
Structure prediction by ZEFSAII (Michael W. Deem and Ramdas Pophale) SiO2 
 PCOD9424740
Probable space group: P B A M
;
_chemical_formula_sum "Si O2"
_cell_formula_units_Z 48
_cell_length_a 7.622600
_cell_length_b 14.174612
_cell_length_c 16.558435
_cell_angle_alpha 90.000000
_cell_angle_beta 90.000000
_cell_angle_gamma 90.000000
_cell_volume 1789.095807
_symmetry_space_group_name_H-M "P B A M"
_symmetry_group_IT_number 55
_symmetry_cell_setting 'orthorhombic'
loop_
_space_group_symop_operation_xyz
x,y,z
-x,-y,z
1/2+x,1/2-y,-z
1/2-x,1/2+y,-z
-x,-y,-z
x,y,-z
1/2-x,1/2+y,z
1/2+x,1/2-y,z
loop_
_atom_site_type_symbol
_atom_site_label
_atom_site_fract_x
_atom_site_fract_y
_atom_site_fract_z
Si Si1 0.165717 0.565630 0.144230
Si Si2 0.601163 0.871705 0.676491
Si Si3 0.318848 0.351590 0.326957
Si Si4 0.383467 0.125110 0.500000
Si Si5 0.888690 0.104229 0.157037
Si Si6 0.302147 0.347044 0.500000
Si Si7 0.926530 0.721215 0.908173
O O1 0.165235 0.581691 0.240888
O O2 0.328559 0.497473 0.124869
O O3 0.108513 0.662749 0.102392
O O4 0.000000 0.500000 0.122745
O O5 0.388674 0.873796 0.677488
O O6 0.656529 0.761727 0.679817
O O7 0.662730 0.912934 0.589494
O O8 0.419496 0.397358 0.252638
O O9 0.384405 0.379040 0.415986
O O10 0.315292 0.232953 0.500000
O O11 0.596008 0.128472 0.500000
O O12 0.710849 0.168181 0.148572
O O13 0.029614 0.172064 0.115690
O O14 0.867350 0.711939 0.000000
#
# Coordination Sequence:
#
# PCOD9424740 Si02
#       7
#     8   8   8   4   8   4   8
#     4  10  20  35  57  83 112 144 183 224 274 335
#     4  10  17  32  53  81 114 149 191 227 275 325
#     4  10  16  31  53  78 114 150 186 229 268 328
#     4   8  16  26  46  77 112 146 183 233 266 315
#     4  11  21  38  61  83 112 146 185 228 278 336
#     4   8  16  24  45  78 107 147 187 221 270 312
#     4  11  23  39  60  84 110 144 185 231 283 336
#
# _framework density 26.829194000000001
#
# number of rings (size 3 to 8) (size 9 to 14) (size 15 to 20)
#    0.000    2.000    5.000    0.500    0.000    3.667 
#    0.000    2.083    0.000    2.000    0.000    0.000 
#    0.000   17.333    0.000    0.000    0.000    0.000 
#
# Total GULP energy -268756.933987 kJ/mol
# GULP energy per Si atom -5599.102791 kJ/mol
# Density = 2.676813 g / cm^3
# Si number density = 26.829194 Si / 1000 Ang^3
#
#
#
# Elastic Constant Matrix: (Units=GPa)
#
#
# Indices 1 2 3 4 5 6 
#
# 1 88.7055 2.4603 -7.0216 0.0000 0.0000 0.0000
# 2 2.4603 160.9360 11.2880 0.0000 0.0000 0.0000
# 3 -7.0216 11.2880 136.7599 0.0000 0.0000 0.0000
# 4 0.0000 0.0000 0.0000 -14.7091 0.0000 0.0000
# 5 0.0000 0.0000 0.0000 0.0000 4.8655 0.0000
# 6 0.0000 0.0000 0.0000 0.0000 0.0000 40.3394
#
#
#
# Elastic Compliance Matrix: (Units=1/GPa)
#
#
# Indices 1 2 3 4 5 6 
#
# 1 0.011327 -0.000215 0.000599 0.000000 0.000000 0.000000
# 2 -0.000215 0.006254 -0.000527 0.000000 0.000000 0.000000
# 3 0.000599 -0.000527 0.007386 0.000000 0.000000 0.000000
# 4 0.000000 0.000000 0.000000 -0.067985 0.000000 0.000000
# 5 0.000000 0.000000 0.000000 0.000000 0.205528 0.000000
# 6 0.000000 0.000000 0.000000 0.000000 0.000000 0.024790
#
#
# Mechanical properties :
#
#
# Convention : Reuss Voigt Hill
#
# Bulk Modulus (GPa) = 40.51747 44.42830 42.47289
# Shear Modulus (GPa) = 25.53469 31.41082 28.47275
#
# Velocity S-wave (km/s) = 3.08839 3.42536 3.26123
# Velocity P-wave (km/s) = 5.27753 5.67801 5.48143
#
# Compressibility (1/GPa) = 0.02468071
#
# Stress axis : x y z
#
# Youngs Moduli (GPa) = 88.28719 159.89965 135.38444
#
# Poissons Ratio (x) = 0.03441 -0.08114
# Poissons Ratio (y) = 0.01900 0.07138
# Poissons Ratio (z) = -0.05291 0.08431
#
# Static dielectric constant tensor:
#      x y z
#    x 2.378320 0.000000 0.000000 
#    y 0.000000 2.103360 0.000000 
#    z 0.000000 0.000000 2.035720 
# 
# From -- ./inp_files/20857.got.cif
#   From: 2010.05.17/outbox.cif.g08.bks.cpg/sg55_11_cif.got.tgz:20857.got - 2010.06.03 13:27:54.
