data_PCOD9424616
_publ_section_title
;
Structure prediction by ZEFSAII (Michael W. Deem and Ramdas Pophale) SiO2 
 PCOD9424616
Probable space group: P C C A
;
_chemical_formula_sum "Si O2"
_cell_formula_units_Z 56
_cell_length_a 15.000000
_cell_length_b 12.000000
_cell_length_c 15.000000
_cell_angle_alpha 90.000000
_cell_angle_beta 90.000000
_cell_angle_gamma 90.000000
_cell_volume 2700.000000
_symmetry_space_group_name_H-M "P C C A"
_symmetry_group_IT_number 54
_symmetry_cell_setting 'orthorhombic'
loop_
_space_group_symop_operation_xyz
x,y,z
1/2-x,-y,z
1/2+x,-y,1/2-z
-x,y,1/2-z
-x,-y,-z
1/2+x,y,-z
1/2-x,y,1/2+z
x,-y,1/2+z
loop_
_atom_site_type_symbol
_atom_site_label
_atom_site_fract_x
_atom_site_fract_y
_atom_site_fract_z
Si Si1 0.877128 0.085668 0.098040
Si Si2 0.320252 0.147442 0.355728
Si Si3 0.159765 0.570789 0.872619
Si Si4 0.608896 0.737975 0.968613
Si Si5 0.399862 0.243766 0.744714
Si Si6 0.747917 0.130232 0.347792
Si Si7 0.453252 0.352580 0.346441
O O1 0.773801 0.129955 0.093149
O O2 0.909229 0.137916 0.190154
O O3 0.879090 0.953805 0.105647
O O4 0.926167 0.152176 0.020814
O O5 0.293468 0.124795 0.252533
O O6 0.372153 0.263751 0.358730
O O7 0.250000 0.500000 0.877790
O O8 0.159156 0.658870 0.790500
O O9 0.083577 0.477218 0.860456
O O10 0.143914 0.648135 0.959173
O O11 0.684706 0.788598 0.904384
O O12 0.529770 0.680086 0.915646
O O13 0.500000 0.291351 0.750000
O O14 0.344580 0.191357 0.662437
O O15 0.750000 0.000000 0.379502
O O16 0.500000 0.341240 0.250000
#
# Coordination Sequence:
#
# PCOD9424616 Si02
#       7
#     8   8   8   8   8   8   8
#     4   9  20  40  62  92 137 176 206 265 341 385
#     4  10  19  40  67  91 135 179 213 263 329 395
#     4  11  25  50  68  89 133 179 219 276 340 390
#     4  11  25  42  64 103 131 167 226 277 331 398
#     4  10  21  42  69  98 130 171 220 270 325 394
#     4  11  21  41  68 101 136 174 221 270 331 408
#     4  12  24  41  70  98 131 172 227 276 322 395
#
# _framework density 20.740741
#
# number of rings (size 3 to 8) (size 9 to 14) (size 15 to 20)
#    0.000    1.429    4.286    3.429    2.000    2.286 
#   15.429    0.000    0.000    0.000    0.000    0.000 
#    0.000    0.000    0.000    0.000    0.000    0.000 
#
# Total GULP energy -312489.047775 kJ/mol
# GULP energy per Si atom -5580.161567 kJ/mol
# Density = 2.069353 g / cm^3
# Si number density = 20.740741 Si / 1000 Ang^3
#
#
#
# Elastic Constant Matrix: (Units=GPa)
#
#
# Indices 1 2 3 4 5 6 
#
# 1 70.0335 34.4331 15.0486 0.0000 0.0000 0.0000
# 2 34.4331 157.2808 28.6096 0.0000 0.0000 0.0000
# 3 15.0486 28.6096 38.2025 0.0000 0.0000 0.0000
# 4 0.0000 0.0000 0.0000 10.3053 0.0000 0.0000
# 5 0.0000 0.0000 0.0000 0.0000 18.2182 0.0000
# 6 0.0000 0.0000 0.0000 0.0000 0.0000 43.6513
#
#
#
# Elastic Compliance Matrix: (Units=1/GPa)
#
#
# Indices 1 2 3 4 5 6 
#
# 1 0.016623 -0.002834 -0.004426 0.000000 0.000000 0.000000
# 2 -0.002834 0.007844 -0.004758 0.000000 0.000000 0.000000
# 3 -0.004426 -0.004758 0.031483 0.000000 0.000000 0.000000
# 4 0.000000 0.000000 0.000000 0.097037 0.000000 0.000000
# 5 0.000000 0.000000 0.000000 0.000000 0.054890 0.000000
# 6 0.000000 0.000000 0.000000 0.000000 0.000000 0.022909
#
#
# Mechanical properties :
#
#
# Convention : Reuss Voigt Hill
#
# Bulk Modulus (GPa) = 31.33367 46.85551 39.09459
# Shear Modulus (GPa) = 18.83524 26.93000 22.88262
#
# Velocity S-wave (km/s) = 3.01678 3.60726 3.32515
# Velocity P-wave (km/s) = 5.22252 6.32375 5.79933
#
# Compressibility (1/GPa) = 0.03191455
#
# Stress axis : x y z
#
# Youngs Moduli (GPa) = 60.15619 127.48565 31.76343
#
# Poissons Ratio (x) = 0.36133 0.14057
# Poissons Ratio (y) = 0.17050 0.15113
# Poissons Ratio (z) = 0.26623 0.60656
#
# Static dielectric constant tensor:
#      x y z
#    x 1.848930 0.000000 0.000000 
#    y 0.000000 1.708390 0.000000 
#    z 0.000000 0.000000 1.780410 
# 
# From -- ./inp_files/13515.got.cif
#   From: 2010.05.17/outbox.ucp.g08.bks.cvg/sg54_7_cif.got.tgz:13515.got - 2010.06.11 16:34:40.
