data_PCOD9424288
_publ_section_title
;
Structure prediction by ZEFSAII (Michael W. Deem and Ramdas Pophale) SiO2 
 PCOD9424288
Probable space group: P C C A
;
_chemical_formula_sum "Si O2"
_cell_formula_units_Z 48
_cell_length_a 7.905396
_cell_length_b 18.737316
_cell_length_c 14.464139
_cell_angle_alpha 90.000000
_cell_angle_beta 90.000000
_cell_angle_gamma 90.000000
_cell_volume 2142.513650
_symmetry_space_group_name_H-M "P C C A"
_symmetry_group_IT_number 54
_symmetry_cell_setting 'orthorhombic'
loop_
_space_group_symop_operation_xyz
x,y,z
1/2-x,-y,z
1/2+x,-y,1/2-z
-x,y,1/2-z
-x,-y,-z
1/2+x,y,-z
1/2-x,y,1/2+z
x,-y,1/2+z
loop_
_atom_site_type_symbol
_atom_site_label
_atom_site_fract_x
_atom_site_fract_y
_atom_site_fract_z
Si Si1 0.189044 0.079890 0.712594
Si Si2 0.876015 0.555344 0.550414
Si Si3 0.135967 0.345127 0.615435
Si Si4 0.251786 0.659053 0.817941
Si Si5 0.334551 0.182893 0.862482
Si Si6 0.284168 0.809502 0.064292
O O1 0.301545 0.119404 0.791033
O O2 0.194254 0.127912 0.621067
O O3 0.000000 0.078690 0.750000
O O4 0.250000 0.000000 0.695218
O O5 0.750000 0.500000 0.598903
O O6 0.807078 0.600684 0.463689
O O7 0.895317 0.616588 0.627786
O O8 0.000000 0.500000 0.500000
O O9 0.212895 0.365607 0.714226
O O10 0.195485 0.266165 0.586261
O O11 0.931400 0.347479 0.627161
O O12 0.211055 0.742680 0.813723
O O13 0.525110 0.189632 0.898509
O O14 0.222840 0.177033 0.955023
#
# Coordination Sequence:
#
# PCOD9424288 Si02
#       6
#     8   8   8   8   8   8
#     4  12  26  48  74 108 149 186 237 301 358 424
#     4  12  26  46  68  98 142 184 234 298 363 422
#     4  11  24  44  70  99 137 185 239 294 354 431
#     4  11  24  44  70  99 138 185 238 292 359 427
#     4  12  25  43  72 106 142 189 242 289 353 428
#     4  12  25  43  72 106 141 190 242 289 354 428
#
# _framework density 22.403590000000001
#
# number of rings (size 3 to 8) (size 9 to 14) (size 15 to 20)
#    0.000    0.333    5.000    4.500    2.333    1.333 
#    0.000    3.333    0.000    0.000    0.000    0.000 
#    0.000    0.000    0.000    0.000    0.000    0.000 
#
# Total GULP energy -268565.647871 kJ/mol
# GULP energy per Si atom -5595.117664 kJ/mol
# Density = 2.235260 g / cm^3
# Si number density = 22.403590 Si / 1000 Ang^3
#
#
#
# Elastic Constant Matrix: (Units=GPa)
#
#
# Indices 1 2 3 4 5 6 
#
# 1 77.7072 18.9086 0.8376 0.0000 0.0000 0.0000
# 2 18.9086 161.5451 51.6317 0.0000 0.0000 0.0000
# 3 0.8376 51.6317 113.1904 0.0000 0.0000 0.0000
# 4 0.0000 0.0000 0.0000 24.6970 0.0000 0.0000
# 5 0.0000 0.0000 0.0000 0.0000 30.5712 0.0000
# 6 0.0000 0.0000 0.0000 0.0000 0.0000 37.6850
#
#
#
# Elastic Compliance Matrix: (Units=1/GPa)
#
#
# Indices 1 2 3 4 5 6 
#
# 1 0.013295 -0.001785 0.000716 0.000000 0.000000 0.000000
# 2 -0.001785 0.007486 -0.003402 0.000000 0.000000 0.000000
# 3 0.000716 -0.003402 0.010381 0.000000 0.000000 0.000000
# 4 0.000000 0.000000 0.000000 0.040491 0.000000 0.000000
# 5 0.000000 0.000000 0.000000 0.000000 0.032711 0.000000
# 6 0.000000 0.000000 0.000000 0.000000 0.000000 0.026536
#
#
# Mechanical properties :
#
#
# Convention : Reuss Voigt Hill
#
# Bulk Modulus (GPa) = 45.00212 55.02204 50.01208
# Shear Modulus (GPa) = 33.95618 37.32831 35.64224
#
# Velocity S-wave (km/s) = 3.89737 4.08631 3.99296
# Velocity P-wave (km/s) = 6.35478 6.84666 6.60530
#
# Compressibility (1/GPa) = 0.02222117
#
# Stress axis : x y z
#
# Youngs Moduli (GPa) = 75.21370 133.57604 96.32932
#
# Poissons Ratio (x) = 0.23843 -0.06896
# Poissons Ratio (y) = 0.13426 0.32768
# Poissons Ratio (z) = -0.05384 0.45438
#
# Static dielectric constant tensor:
#      x y z
#    x 1.946090 0.000000 0.000000 
#    y 0.000000 1.816220 0.000000 
#    z 0.000000 0.000000 1.807020 
# 
# From -- ./inp_files/11695.got.cif
#   From: 2010.05.17/outbox.cif.g08.bks.cpg/sg54_6_cif.got.tgz:11695.got - 2010.06.03 13:09:01.
