data_PCOD9424621
_publ_section_title
;
Structure prediction by ZEFSAII (Michael W. Deem and Ramdas Pophale) SiO2 
 PCOD9424621
Probable space group: P C C A
;
_chemical_formula_sum "Si O2"
_cell_formula_units_Z 60
_cell_length_a 15.000000
_cell_length_b 12.000000
_cell_length_c 18.000000
_cell_angle_alpha 90.000000
_cell_angle_beta 90.000000
_cell_angle_gamma 90.000000
_cell_volume 3240.000000
_symmetry_space_group_name_H-M "P C C A"
_symmetry_group_IT_number 54
_symmetry_cell_setting 'orthorhombic'
loop_
_space_group_symop_operation_xyz
x,y,z
1/2-x,-y,z
1/2+x,-y,1/2-z
-x,y,1/2-z
-x,-y,-z
1/2+x,y,-z
1/2-x,y,1/2+z
x,-y,1/2+z
loop_
_atom_site_type_symbol
_atom_site_label
_atom_site_fract_x
_atom_site_fract_y
_atom_site_fract_z
Si Si1 0.891875 0.262878 0.136420
Si Si2 0.808651 0.385801 0.999777
Si Si3 0.856547 0.501740 0.858855
Si Si4 0.664098 0.737220 0.419271
Si Si5 0.402192 0.960234 0.714513
Si Si6 0.476482 0.075194 0.570926
Si Si7 0.274466 0.170343 0.739687
Si Si8 0.500000 0.418639 0.750000
O O1 0.866237 0.342270 0.067775
O O2 0.804105 0.236451 0.186646
O O3 0.942788 0.149703 0.107830
O O4 0.954829 0.334410 0.191084
O O5 0.750000 0.500000 0.013709
O O6 0.863111 0.409394 0.923417
O O7 0.741113 0.286833 0.978075
O O8 0.750000 0.500000 0.837597
O O9 0.876780 0.616363 0.902794
O O10 0.924225 0.506341 0.790288
O O11 0.595796 0.829214 0.446762
O O12 0.701009 0.770808 0.338024
O O13 0.500000 0.944627 0.750000
O O14 0.329284 0.864093 0.731088
O O15 0.428415 0.993358 0.630323
O O16 0.344063 0.066460 0.742053
O O17 0.500000 0.000000 0.500000
#
# Coordination Sequence:
#
# PCOD9424621 Si02
#       8
#     8   8   8   8   8   8   8   4
#     4  12  22  39  68  97 124 171 226 267 329 404
#     4   9  23  42  61  93 133 165 210 274 337 396
#     4   9  19  39  66  93 127 169 213 275 331 394
#     4   9  18  41  62  82 126 173 209 255 331 382
#     4  10  20  38  57  85 129 162 215 265 317 368
#     4  11  23  37  61  95 129 169 218 262 320 407
#     4  10  20  35  64  88 117 172 214 266 312 387
#     4  12  20  38  74  96 118 172 228 270 322 402
#
# _framework density 18.518519000000001
#
# number of rings (size 3 to 8) (size 9 to 14) (size 15 to 20)
#    0.000    2.133    4.000    0.800    1.867    2.133 
#    0.000    0.000    5.867    0.000    0.000    0.000 
#    0.000    0.000    0.000    0.000    0.000    0.000 
#
# Total GULP energy -334066.759516 kJ/mol
# GULP energy per Si atom -5567.779325 kJ/mol
# Density = 1.847637 g / cm^3
# Si number density = 18.518519 Si / 1000 Ang^3
#
#
#
# Elastic Constant Matrix: (Units=GPa)
#
#
# Indices 1 2 3 4 5 6 
#
# 1 125.3574 48.4704 76.1862 0.0000 0.0000 0.0000
# 2 48.4704 63.5184 43.3974 0.0000 0.0000 0.0000
# 3 76.1862 43.3974 118.7198 0.0000 0.0000 0.0000
# 4 0.0000 0.0000 0.0000 30.9273 0.0000 0.0000
# 5 0.0000 0.0000 0.0000 0.0000 46.2534 0.0000
# 6 0.0000 0.0000 0.0000 0.0000 0.0000 25.1831
#
#
#
# Elastic Compliance Matrix: (Units=1/GPa)
#
#
# Indices 1 2 3 4 5 6 
#
# 1 0.014805 -0.006406 -0.007159 0.000000 0.000000 0.000000
# 2 -0.006406 0.023756 -0.004573 0.000000 0.000000 0.000000
# 3 -0.007159 -0.004573 0.014689 0.000000 0.000000 0.000000
# 4 0.000000 0.000000 0.000000 0.032334 0.000000 0.000000
# 5 0.000000 0.000000 0.000000 0.000000 0.021620 0.000000
# 6 0.000000 0.000000 0.000000 0.000000 0.000000 0.039709
#
#
# Mechanical properties :
#
#
# Convention : Reuss Voigt Hill
#
# Bulk Modulus (GPa) = 58.91412 71.52263 65.21837
# Shear Modulus (GPa) = 26.47622 29.77555 28.12589
#
# Velocity S-wave (km/s) = 3.78526 4.01419 3.90140
# Velocity P-wave (km/s) = 7.14051 7.75829 7.45580
#
# Compressibility (1/GPa) = 0.01697386
#
# Stress axis : x y z
#
# Youngs Moduli (GPa) = 67.54344 42.09382 68.07812
#
# Poissons Ratio (x) = 0.26967 0.48738
# Poissons Ratio (y) = 0.43272 0.31131
# Poissons Ratio (z) = 0.48355 0.19249
#
# Static dielectric constant tensor:
#      x y z
#    x 1.669040 0.000000 0.000000 
#    y 0.000000 1.681550 0.000000 
#    z 0.000000 0.000000 1.646430 
# 
# From -- ./inp_files/18217.got.cif
#   From: 2010.05.17/outbox.ucp.g08.bks.cvg/sg54_10_cif.got.tgz:18217.got - 2010.06.11 16:34:40.
