data_PCOD9424560
_publ_section_title
;
Structure prediction by ZEFSAII (Michael W. Deem and Ramdas Pophale) SiO2 
 PCOD9424560
Probable space group: P C C A
;
_chemical_formula_sum "Si O2"
_cell_formula_units_Z 32
_cell_length_a 10.455270
_cell_length_b 9.438624
_cell_length_c 13.936510
_cell_angle_alpha 90.000000
_cell_angle_beta 90.000000
_cell_angle_gamma 90.000000
_cell_volume 1375.301666
_symmetry_space_group_name_H-M "P C C A"
_symmetry_group_IT_number 54
_symmetry_cell_setting 'orthorhombic'
loop_
_space_group_symop_operation_xyz
x,y,z
1/2-x,-y,z
1/2+x,-y,1/2-z
-x,y,1/2-z
-x,-y,-z
1/2+x,y,-z
1/2-x,y,1/2+z
x,-y,1/2+z
loop_
_atom_site_type_symbol
_atom_site_label
_atom_site_fract_x
_atom_site_fract_y
_atom_site_fract_z
Si Si1 0.516099 0.595844 0.593811
Si Si2 0.250000 0.000000 0.219557
Si Si3 0.500000 0.601028 0.250000
Si Si4 0.226079 0.752250 0.866879
Si Si5 0.899892 0.897077 0.452196
O O1 0.500000 0.500000 0.500000
O O2 0.439635 0.508865 0.674715
O O3 0.664729 0.634046 0.616457
O O4 0.457570 0.749713 0.581874
O O5 0.234083 0.866133 0.287516
O O6 0.138236 0.986899 0.141657
O O7 0.597639 0.687007 0.182314
O O8 0.199254 0.839901 0.965746
O O9 0.000000 0.000000 0.500000
#
# Coordination Sequence:
#
# PCOD9424560 Si02
#       5
#     8   4   4   8   8
#     4  12  27  49  76 115 160 212 271 335 410 489
#     4  12  26  46  80 108 160 206 266 340 394 488
#     4  12  26  48  76 112 158 204 270 324 402 480
#     4  12  27  49  75 118 158 210 271 329 414 487
#     4  12  26  48  77 112 157 209 268 330 407 481
#
# _framework density 23.267623
#
# number of rings (size 3 to 8) (size 9 to 14) (size 15 to 20)
#    0.000    0.000    2.500    7.500    3.500    2.000 
#    0.000    0.000    0.000    0.000    0.000    0.000 
#    0.000    0.000    0.000    0.000    0.000    0.000 
#
# Total GULP energy -178672.762033 kJ/mol
# GULP energy per Si atom -5583.523814 kJ/mol
# Density = 2.321466 g / cm^3
# Si number density = 23.267623 Si / 1000 Ang^3
#
#
#
# Elastic Constant Matrix: (Units=GPa)
#
#
# Indices 1 2 3 4 5 6 
#
# 1 66.6371 10.6086 26.4056 0.0000 0.0000 0.0000
# 2 10.6086 54.4109 16.4624 0.0000 0.0000 0.0000
# 3 26.4056 16.4624 132.5540 0.0000 0.0000 0.0000
# 4 0.0000 0.0000 0.0000 48.4271 0.0000 0.0000
# 5 0.0000 0.0000 0.0000 0.0000 39.5545 0.0000
# 6 0.0000 0.0000 0.0000 0.0000 0.0000 39.4520
#
#
#
# Elastic Compliance Matrix: (Units=1/GPa)
#
#
# Indices 1 2 3 4 5 6 
#
# 1 0.016570 -0.002319 -0.003013 0.000000 0.000000 0.000000
# 2 -0.002319 0.019421 -0.001950 0.000000 0.000000 0.000000
# 3 -0.003013 -0.001950 0.008386 0.000000 0.000000 0.000000
# 4 0.000000 0.000000 0.000000 0.020650 0.000000 0.000000
# 5 0.000000 0.000000 0.000000 0.000000 0.025282 0.000000
# 6 0.000000 0.000000 0.000000 0.000000 0.000000 0.025347
#
#
# Mechanical properties :
#
#
# Convention : Reuss Voigt Hill
#
# Bulk Modulus (GPa) = 33.54211 40.06170 36.80191
# Shear Modulus (GPa) = 35.67433 38.82840 37.25136
#
# Velocity S-wave (km/s) = 3.91988 4.08949 4.00559
# Velocity P-wave (km/s) = 5.91053 6.28918 6.10279
#
# Compressibility (1/GPa) = 0.02981327
#
# Stress axis : x y z
#
# Youngs Moduli (GPa) = 60.35111 51.49117 119.24017
#
# Poissons Ratio (x) = 0.11941 0.35924
# Poissons Ratio (y) = 0.13996 0.23252
# Poissons Ratio (z) = 0.18182 0.10041
#
# Static dielectric constant tensor:
#      x y z
#    x 3.917040 0.000000 0.000000 
#    y 0.000000 1.884360 0.000000 
#    z 0.000000 0.000000 1.921590 
# 
# From -- ./inp_files/12260.got.cif
#   From: 2010.05.17/outbox.cif.g08.bks.cpg/sg54_7_cif.got.tgz:12260.got - 2010.06.03 13:09:01.
