data_PCOD9424367
_publ_section_title
;
Structure prediction by ZEFSAII (Michael W. Deem and Ramdas Pophale) SiO2 
 PCOD9424367
Probable space group: P C C A
;
_chemical_formula_sum "Si O2"
_cell_formula_units_Z 48
_cell_length_a 23.493610
_cell_length_b 11.107013
_cell_length_c 8.884871
_cell_angle_alpha 90.000000
_cell_angle_beta 90.000000
_cell_angle_gamma 90.000000
_cell_volume 2318.452283
_symmetry_space_group_name_H-M "P C C A"
_symmetry_group_IT_number 54
_symmetry_cell_setting 'orthorhombic'
loop_
_space_group_symop_operation_xyz
x,y,z
1/2-x,-y,z
1/2+x,-y,1/2-z
-x,y,1/2-z
-x,-y,-z
1/2+x,y,-z
1/2-x,y,1/2+z
x,-y,1/2+z
loop_
_atom_site_type_symbol
_atom_site_label
_atom_site_fract_x
_atom_site_fract_y
_atom_site_fract_z
Si Si1 0.789703 0.854546 0.926399
Si Si2 0.469262 0.389680 0.908399
Si Si3 0.442919 0.777888 0.671935
Si Si4 0.878200 0.545037 0.229710
Si Si5 0.805501 0.419183 0.466879
Si Si6 0.173340 0.079463 0.729257
O O1 0.799995 0.713988 0.903608
O O2 0.807301 0.891615 0.098283
O O3 0.723310 0.874550 0.883737
O O4 0.824906 0.937470 0.809701
O O5 0.500000 0.367903 0.750000
O O6 0.408330 0.439018 0.859391
O O7 0.500000 0.500000 0.000000
O O8 0.461492 0.270815 0.008287
O O9 0.500000 0.826580 0.750000
O O10 0.422725 0.652784 0.750610
O O11 0.387645 0.862561 0.688560
O O12 0.855157 0.488291 0.380837
O O13 0.824199 0.593567 0.139327
O O14 0.750000 0.500000 0.455410
#
# Coordination Sequence:
#
# PCOD9424367 Si02
#       6
#     8   8   8   8   8   8
#     4  11  25  46  72  97 144 177 245 289 353 424
#     4  12  21  37  62  96 138 183 234 279 365 420
#     4  12  24  43  68 100 144 185 237 295 346 431
#     4  12  22  39  64  98 140 184 221 285 370 420
#     4  12  26  40  65 107 143 176 228 300 359 421
#     4  11  25  47  73 104 132 197 234 294 352 418
#
# _framework density 20.703468000000001
#
# number of rings (size 3 to 8) (size 9 to 14) (size 15 to 20)
#    0.000    0.333    6.667    3.500    2.333    1.333 
#    0.000    0.833    0.000    2.000    0.000    0.000 
#    0.000    0.000    0.000    0.000    0.000    0.000 
#
# Total GULP energy -267999.426040 kJ/mol
# GULP energy per Si atom -5583.321376 kJ/mol
# Density = 2.065635 g / cm^3
# Si number density = 20.703468 Si / 1000 Ang^3
#
#
#
# Elastic Constant Matrix: (Units=GPa)
#
#
# Indices 1 2 3 4 5 6 
#
# 1 133.5314 48.0567 61.1863 0.0000 0.0000 0.0000
# 2 48.0567 77.1404 8.4212 0.0000 0.0000 0.0000
# 3 61.1863 8.4212 91.5403 0.0000 0.0000 0.0000
# 4 0.0000 0.0000 0.0000 10.4647 0.0000 0.0000
# 5 0.0000 0.0000 0.0000 0.0000 32.1990 0.0000
# 6 0.0000 0.0000 0.0000 0.0000 0.0000 28.0540
#
#
#
# Elastic Compliance Matrix: (Units=1/GPa)
#
#
# Indices 1 2 3 4 5 6 
#
# 1 0.014480 -0.008045 -0.008938 0.000000 0.000000 0.000000
# 2 -0.008045 0.017564 0.003761 0.000000 0.000000 0.000000
# 3 -0.008938 0.003761 0.016553 0.000000 0.000000 0.000000
# 4 0.000000 0.000000 0.000000 0.095559 0.000000 0.000000
# 5 0.000000 0.000000 0.000000 0.000000 0.031057 0.000000
# 6 0.000000 0.000000 0.000000 0.000000 0.000000 0.035646
#
#
# Mechanical properties :
#
#
# Convention : Reuss Voigt Hill
#
# Bulk Modulus (GPa) = 45.13991 59.72672 52.43331
# Shear Modulus (GPa) = 20.43428 26.44673 23.44050
#
# Velocity S-wave (km/s) = 3.14506 3.57796 3.36847
# Velocity P-wave (km/s) = 5.91937 6.78088 6.36472
#
# Compressibility (1/GPa) = 0.02215334
#
# Stress axis : x y z
#
# Youngs Moduli (GPa) = 69.06143 56.93303 60.41338
#
# Poissons Ratio (x) = 0.45802 0.54000
# Poissons Ratio (y) = 0.55559 -0.22724
# Poissons Ratio (z) = 0.61730 -0.21415
#
# Static dielectric constant tensor:
#      x y z
#    x 1.732590 0.000000 0.000000 
#    y 0.000000 1.698930 0.000000 
#    z 0.000000 0.000000 1.891640 
# 
# From -- ./inp_files/5164.got.cif
#   From: 2010.05.17/outbox.cif.g08.bks.cpg/sg54_3_cif.got.tgz:5164.got - 2010.06.03 13:09:01.
