data_PCOD9424110
_publ_section_title
;
Structure prediction by ZEFSAII (Michael W. Deem and Ramdas Pophale) SiO2 
 PCOD9424110
Probable space group: P C C A
;
_chemical_formula_sum "Si O2"
_cell_formula_units_Z 48
_cell_length_a 13.456547
_cell_length_b 15.760823
_cell_length_c 8.957169
_cell_angle_alpha 90.000000
_cell_angle_beta 90.000000
_cell_angle_gamma 90.000000
_cell_volume 1899.692433
_symmetry_space_group_name_H-M "P C C A"
_symmetry_group_IT_number 54
_symmetry_cell_setting 'orthorhombic'
loop_
_space_group_symop_operation_xyz
x,y,z
1/2-x,-y,z
1/2+x,-y,1/2-z
-x,y,1/2-z
-x,-y,-z
1/2+x,y,-z
1/2-x,y,1/2+z
x,-y,1/2+z
loop_
_atom_site_type_symbol
_atom_site_label
_atom_site_fract_x
_atom_site_fract_y
_atom_site_fract_z
Si Si1 0.034383 0.155907 0.081960
Si Si2 0.838336 0.068392 0.001187
Si Si3 0.241745 0.153122 0.225100
Si Si4 0.833316 0.426581 0.566250
Si Si5 0.692893 0.665201 0.872361
Si Si6 0.504427 0.655097 0.069061
O O1 0.149506 0.134143 0.111278
O O2 0.027781 0.249738 0.011667
O O3 0.000000 0.171631 0.250000
O O4 0.958205 0.083665 0.023132
O O5 0.801625 0.144393 0.110902
O O6 0.750000 0.000000 0.039600
O O7 0.822930 0.084698 0.825784
O O8 0.293582 0.242280 0.197113
O O9 0.750000 0.500000 0.548330
O O10 0.830319 0.397894 0.737193
O O11 0.796469 0.356486 0.447668
O O12 0.553132 0.421332 0.013414
O O13 0.616243 0.654428 0.007257
O O14 0.500000 0.647002 0.250000
#
# Coordination Sequence:
#
# PCOD9424110 Si02
#       6
#     8   8   8   8   8   8
#     4   9  20  39  67 100 136 186 240 298 371 441
#     4  11  23  41  65 102 148 190 241 309 378 439
#     4  11  22  41  69 100 137 193 252 298 367 462
#     4  12  27  46  70 110 153 193 248 321 390 452
#     4  12  24  44  76 105 144 198 258 309 377 470
#     4  11  23  45  77 109 142 193 254 318 378 460
#
# _framework density 25.267247000000001
#
# number of rings (size 3 to 8) (size 9 to 14) (size 15 to 20)
#    0.000    1.000    3.333    3.500    2.333    1.333 
#    0.000    5.000    0.000    0.000    0.000    0.000 
#    0.000    0.000    0.000    0.000    0.000    0.000 
#
# Total GULP energy -267239.122038 kJ/mol
# GULP energy per Si atom -5567.481709 kJ/mol
# Density = 2.520974 g / cm^3
# Si number density = 25.267247 Si / 1000 Ang^3
#
#
#
# Elastic Constant Matrix: (Units=GPa)
#
#
# Indices 1 2 3 4 5 6 
#
# 1 103.0323 49.8175 5.1628 0.0000 0.0000 0.0000
# 2 49.8175 105.1587 17.0001 0.0000 0.0000 0.0000
# 3 5.1628 17.0001 91.1307 0.0000 0.0000 0.0000
# 4 0.0000 0.0000 0.0000 7.9295 0.0000 0.0000
# 5 0.0000 0.0000 0.0000 0.0000 44.5614 0.0000
# 6 0.0000 0.0000 0.0000 0.0000 0.0000 39.3253
#
#
#
# Elastic Compliance Matrix: (Units=1/GPa)
#
#
# Indices 1 2 3 4 5 6 
#
# 1 0.012604 -0.006038 0.000412 0.000000 0.000000 0.000000
# 2 -0.006038 0.012697 -0.002027 0.000000 0.000000 0.000000
# 3 0.000412 -0.002027 0.011328 0.000000 0.000000 0.000000
# 4 0.000000 0.000000 0.000000 0.126111 0.000000 0.000000
# 5 0.000000 0.000000 0.000000 0.000000 0.022441 0.000000
# 6 0.000000 0.000000 0.000000 0.000000 0.000000 0.025429
#
#
# Mechanical properties :
#
#
# Convention : Reuss Voigt Hill
#
# Bulk Modulus (GPa) = 46.89231 49.25360 48.07296
# Shear Modulus (GPa) = 21.45706 33.51932 27.48819
#
# Velocity S-wave (km/s) = 2.91727 3.64619 3.30191
# Velocity P-wave (km/s) = 5.47231 6.10423 5.79689
#
# Compressibility (1/GPa) = 0.02132546
#
# Stress axis : x y z
#
# Youngs Moduli (GPa) = 79.33732 78.75635 88.27723
#
# Poissons Ratio (x) = 0.47552 -0.03639
# Poissons Ratio (y) = 0.47902 0.17890
# Poissons Ratio (z) = -0.03271 0.15961
#
# Static dielectric constant tensor:
#      x y z
#    x 2.062840 0.000000 0.000000 
#    y 0.000000 2.148000 0.000000 
#    z 0.000000 0.000000 1.883740 
# 
# From -- ./inp_files/8341.got.cif
#   From: 2010.05.17/outbox.cif.g08.bks.cpg/sg54_5_cif.got.tgz:8341.got - 2010.06.03 13:09:01.
