data_PCOD9424844
_publ_section_title
;
Structure prediction by ZEFSAII (Michael W. Deem and Ramdas Pophale) SiO2 
 PCOD9424844
Probable space group: P B A M
;
_chemical_formula_sum "Si O2"
_cell_formula_units_Z 64
_cell_length_a 16.648742
_cell_length_b 19.836595
_cell_length_c 7.440875
_cell_angle_alpha 90.000000
_cell_angle_beta 90.000000
_cell_angle_gamma 90.000000
_cell_volume 2457.381354
_symmetry_space_group_name_H-M "P B A M"
_symmetry_group_IT_number 55
_symmetry_cell_setting 'orthorhombic'
loop_
_space_group_symop_operation_xyz
x,y,z
-x,-y,z
1/2+x,1/2-y,-z
1/2-x,1/2+y,-z
-x,-y,-z
x,y,-z
1/2-x,1/2+y,z
1/2+x,1/2-y,z
loop_
_atom_site_type_symbol
_atom_site_label
_atom_site_fract_x
_atom_site_fract_y
_atom_site_fract_z
Si Si1 0.186544 0.298751 0.792043
Si Si2 0.833759 0.545271 0.710888
Si Si3 0.600308 0.403450 0.282848
Si Si4 0.564987 0.666542 0.281362
Si Si5 0.230339 0.668144 0.210173
Si Si6 0.491005 0.796893 0.282003
Si Si7 0.577357 0.922154 0.705961
Si Si8 0.659813 0.542256 0.719655
O O1 0.172471 0.373974 0.718438
O O2 0.248853 0.243660 0.715181
O O3 0.095889 0.270586 0.774565
O O4 0.206272 0.306404 0.000000
O O5 0.835363 0.528829 0.500000
O O6 0.901554 0.495191 0.785815
O O7 0.747788 0.523306 0.785689
O O8 0.600383 0.400428 0.500000
O O9 0.518893 0.367690 0.225088
O O10 0.683859 0.369839 0.225055
O O11 0.601267 0.481944 0.230094
O O12 0.567881 0.666953 0.500000
O O13 0.558633 0.743651 0.223545
O O14 0.634195 0.616392 0.219581
O O15 0.159676 0.622874 0.294507
O O16 0.210782 0.674006 0.000000
O O17 0.490466 0.798520 0.500000
O O18 0.512069 0.871183 0.212615
O O19 0.549980 0.931482 0.500000
O O20 0.661986 0.544132 0.500000
#
# Coordination Sequence:
#
# PCOD9424844 Si02
#       8
#     8   8   8   8   8   8   8   8
#     4  11  25  42  59  83 118 157 199 238 284 346
#     4  10  21  38  61  87 117 151 192 245 298 344
#     4  10  17  32  58  84 116 151 190 238 287 343
#     4   9  17  29  52  87 117 147 187 235 289 343
#     4  11  23  38  58  84 118 158 194 233 283 346
#     4  10  21  38  62  88 113 145 192 246 294 342
#     4  10  22  40  63  92 118 146 192 247 297 346
#     4   9  17  30  52  88 121 147 184 236 292 344
#
# _framework density 26.043984999999999
#
# number of rings (size 3 to 8) (size 9 to 14) (size 15 to 20)
#    0.000    2.000    2.500    1.125    1.750    4.500 
#    0.000    2.500    0.000    3.000    0.000    0.000 
#    0.000    0.000    0.000    0.000    0.000    0.000 
#
# Total GULP energy -357727.880512 kJ/mol
# GULP energy per Si atom -5589.498133 kJ/mol
# Density = 2.598471 g / cm^3
# Si number density = 26.043985 Si / 1000 Ang^3
#
#
#
# Elastic Constant Matrix: (Units=GPa)
#
#
# Indices 1 2 3 4 5 6 
#
# 1 71.0601 14.9157 -5.8825 0.0000 0.0000 0.0000
# 2 14.9157 162.9632 2.2279 0.0000 0.0000 0.0000
# 3 -5.8825 2.2279 91.4932 0.0000 0.0000 0.0000
# 4 0.0000 0.0000 0.0000 63.5562 0.0000 0.0000
# 5 0.0000 0.0000 0.0000 0.0000 32.1519 0.0000
# 6 0.0000 0.0000 0.0000 0.0000 0.0000 55.6859
#
#
#
# Elastic Compliance Matrix: (Units=1/GPa)
#
#
# Indices 1 2 3 4 5 6 
#
# 1 0.014432 -0.001334 0.000960 0.000000 0.000000 0.000000
# 2 -0.001334 0.006262 -0.000238 0.000000 0.000000 0.000000
# 3 0.000960 -0.000238 0.010997 0.000000 0.000000 0.000000
# 4 0.000000 0.000000 0.000000 0.015734 0.000000 0.000000
# 5 0.000000 0.000000 0.000000 0.000000 0.031102 0.000000
# 6 0.000000 0.000000 0.000000 0.000000 0.000000 0.017958
#
#
# Mechanical properties :
#
#
# Convention : Reuss Voigt Hill
#
# Bulk Modulus (GPa) = 32.82208 38.67097 35.74653
# Shear Modulus (GPa) = 46.35419 51.22917 48.79168
#
# Velocity S-wave (km/s) = 4.22339 4.43993 4.33301
# Velocity P-wave (km/s) = 6.03429 6.41596 6.22805
#
# Compressibility (1/GPa) = 0.03046729
#
# Stress axis : x y z
#
# Youngs Moduli (GPa) = 69.28989 159.70062 90.93124
#
# Poissons Ratio (x) = 0.21305 -0.08733
# Poissons Ratio (y) = 0.09244 0.02166
# Poissons Ratio (z) = -0.06655 0.03805
#
# Static dielectric constant tensor:
#      x y z
#    x 2.031330 0.000000 0.000000 
#    y 0.000000 2.095730 0.000000 
#    z 0.000000 0.000000 2.081490 
# 
# From -- ./inp_files/8068.got.cif
#   From: 2010.05.17/outbox.cif.g08.bks.cpg/sg55_5_cif.got.tgz:8068.got - 2010.06.03 13:27:54.
