data_PCOD9424876
_publ_section_title
;
Structure prediction by ZEFSAII (Michael W. Deem and Ramdas Pophale) SiO2 
 PCOD9424876
Probable space group: P B A M
;
_chemical_formula_sum "Si O2"
_cell_formula_units_Z 64
_cell_length_a 35.399860
_cell_length_b 13.865167
_cell_length_c 9.090208
_cell_angle_alpha 90.000000
_cell_angle_beta 90.000000
_cell_angle_gamma 90.000000
_cell_volume 4461.701075
_symmetry_space_group_name_H-M "P B A M"
_symmetry_group_IT_number 55
_symmetry_cell_setting 'orthorhombic'
loop_
_space_group_symop_operation_xyz
x,y,z
-x,-y,z
1/2+x,1/2-y,-z
1/2-x,1/2+y,-z
-x,-y,-z
x,y,-z
1/2-x,1/2+y,z
1/2+x,1/2-y,z
loop_
_atom_site_type_symbol
_atom_site_label
_atom_site_fract_x
_atom_site_fract_y
_atom_site_fract_z
Si Si1 0.731219 0.885554 0.675274
Si Si2 0.308677 0.291914 0.175234
Si Si3 0.040180 0.119901 0.171778
Si Si4 0.543127 0.613793 0.172728
Si Si5 0.379688 0.393045 0.676087
Si Si6 0.731448 0.092299 0.174785
Si Si7 0.616948 0.380206 0.323592
Si Si8 0.807831 0.769268 0.676000
O O1 0.725244 0.888481 0.500000
O O2 0.703352 0.808569 0.750307
O O3 0.773577 0.844478 0.701801
O O4 0.727328 0.990467 0.745361
O O5 0.346048 0.335667 0.247105
O O6 0.273443 0.364506 0.201508
O O7 0.312983 0.280504 0.000000
O O8 0.077071 0.153622 0.257736
O O9 0.998212 0.150036 0.223105
O O10 0.041130 0.003014 0.180826
O O11 0.043334 0.145143 0.000000
O O12 0.579509 0.642327 0.266265
O O13 0.548031 0.638129 0.000000
O O14 0.377275 0.385124 0.500000
O O15 0.376635 0.507092 0.716039
O O16 0.702995 0.171863 0.240097
O O17 0.726398 0.082208 0.000000
O O18 0.614698 0.376836 0.500000
O O19 0.652712 0.316655 0.276931
O O20 0.809007 0.751288 0.500000
#
# Coordination Sequence:
#
# PCOD9424876 Si02
#       8
#     8   8   8   8   8   8   8   8
#     4  10  19  32  49  64  83 112 143 177 215 254
#     4  10  20  32  45  63  87 113 143 178 213 252
#     4   8  14  24  38  55  78 110 144 173 206 251
#     4   8  14  25  38  54  79 111 143 173 208 250
#     4  10  18  27  41  62  86 113 146 180 214 252
#     4  10  20  32  46  64  85 110 141 177 215 253
#     4   9  17  27  40  60  86 113 143 179 213 248
#     4   9  18  31  45  62  84 112 144 175 210 252
#
# _framework density 14.344305
#
# number of rings (size 3 to 8) (size 9 to 14) (size 15 to 20)
#    0.000    2.750    0.000    3.000    0.000    4.500 
#    0.000    2.500    0.000    0.000    0.000    0.000 
#    0.000    1.000    0.000   10.500    0.000    6.250 
#
# Total GULP energy -356564.668883 kJ/mol
# GULP energy per Si atom -5571.322951 kJ/mol
# Density = 1.431166 g / cm^3
# Si number density = 14.344305 Si / 1000 Ang^3
#
#
#
# Elastic Constant Matrix: (Units=GPa)
#
#
# Indices 1 2 3 4 5 6 
#
# 1 143.4085 59.3684 64.0639 0.0000 0.0000 0.0000
# 2 59.3684 86.5218 50.2736 0.0000 0.0000 0.0000
# 3 64.0639 50.2736 58.4297 0.0000 0.0000 0.0000
# 4 0.0000 0.0000 0.0000 19.7054 0.0000 0.0000
# 5 0.0000 0.0000 0.0000 0.0000 27.5624 0.0000
# 6 0.0000 0.0000 0.0000 0.0000 0.0000 19.5124
#
#
#
# Elastic Compliance Matrix: (Units=1/GPa)
#
#
# Indices 1 2 3 4 5 6 
#
# 1 0.013746 -0.001349 -0.013910 0.000000 0.000000 0.000000
# 2 -0.001349 0.023245 -0.018521 0.000000 0.000000 0.000000
# 3 -0.013910 -0.018521 0.048302 0.000000 0.000000 0.000000
# 4 0.000000 0.000000 0.000000 0.050748 0.000000 0.000000
# 5 0.000000 0.000000 0.000000 0.000000 0.036281 0.000000
# 6 0.000000 0.000000 0.000000 0.000000 0.000000 0.051249
#
#
# Mechanical properties :
#
#
# Convention : Reuss Voigt Hill
#
# Bulk Modulus (GPa) = 56.39635 70.64134 63.51885
# Shear Modulus (GPa) = 16.83257 20.99965 18.91611
#
# Velocity S-wave (km/s) = 3.42931 3.83034 3.63536
# Velocity P-wave (km/s) = 7.42171 8.30156 7.87393
#
# Compressibility (1/GPa) = 0.01773164
#
# Stress axis : x y z
#
# Youngs Moduli (GPa) = 72.75019 43.01931 20.70312
#
# Poissons Ratio (x) = 0.05805 0.28798
# Poissons Ratio (y) = 0.09816 0.38345
# Poissons Ratio (z) = 1.01197 0.79677
#
# Static dielectric constant tensor:
#      x y z
#    x 1.480280 0.000000 0.000000 
#    y 0.000000 1.441590 0.000000 
#    z 0.000000 0.000000 1.475650 
# 
# From -- ./inp_files/10711.got.cif
#   From: 2010.05.17/outbox.cif.g08.bks.cpg/sg55_6_cif.got.tgz:10711.got - 2010.06.03 13:27:54.
