data_PCOD9424466
_publ_section_title
;
Structure prediction by ZEFSAII (Michael W. Deem and Ramdas Pophale) SiO2 
 PCOD9424466
Probable space group: P C C A
;
_chemical_formula_sum "Si O2"
_cell_formula_units_Z 48
_cell_length_a 9.777338
_cell_length_b 16.392147
_cell_length_c 14.275684
_cell_angle_alpha 90.000000
_cell_angle_beta 90.000000
_cell_angle_gamma 90.000000
_cell_volume 2287.986170
_symmetry_space_group_name_H-M "P C C A"
_symmetry_group_IT_number 54
_symmetry_cell_setting 'orthorhombic'
loop_
_space_group_symop_operation_xyz
x,y,z
1/2-x,-y,z
1/2+x,-y,1/2-z
-x,y,1/2-z
-x,-y,-z
1/2+x,y,-z
1/2-x,y,1/2+z
x,-y,1/2+z
loop_
_atom_site_type_symbol
_atom_site_label
_atom_site_fract_x
_atom_site_fract_y
_atom_site_fract_z
Si Si1 0.770064 0.691472 0.120999
Si Si2 0.458389 0.797867 0.652039
Si Si3 0.809588 0.284279 0.404983
Si Si4 0.652600 0.570826 0.269666
Si Si5 0.448872 0.828113 0.351661
Si Si6 0.874707 0.940642 0.490414
O O1 0.732940 0.610394 0.179838
O O2 0.655165 0.753730 0.157746
O O3 0.917784 0.734795 0.132889
O O4 0.760184 0.688202 0.007806
O O5 0.500000 0.837518 0.750000
O O6 0.321528 0.744642 0.653378
O O7 0.417538 0.868734 0.580019
O O8 0.870142 0.359013 0.347068
O O9 0.919488 0.209894 0.406659
O O10 0.750000 0.500000 0.306916
O O11 0.500000 0.539274 0.250000
O O12 0.500000 0.855806 0.250000
O O13 0.365337 0.895080 0.409830
O O14 0.750000 0.000000 0.464728
O O15 0.000000 0.000000 0.500000
#
# Coordination Sequence:
#
# PCOD9424466 Si02
#       6
#     8   8   8   8   8   8
#     4  12  22  43  73 104 134 188 244 284 347 431
#     4  12  24  41  73 106 135 186 245 289 342 430
#     4  12  22  43  73 104 135 187 245 284 344 432
#     4  12  28  48  70 107 150 183 233 307 361 415
#     4  12  22  45  73  99 136 192 244 286 343 433
#     4  12  26  44  68 106 150 179 228 308 366 409
#
# _framework density 20.979149
#
# number of rings (size 3 to 8) (size 9 to 14) (size 15 to 20)
#    0.000    0.000    8.333    2.000    2.333    1.333 
#    0.000    3.333    0.000    0.000    0.000    0.000 
#    0.000    0.000    0.000    0.000    0.000    0.000 
#
# Total GULP energy -268028.249267 kJ/mol
# GULP energy per Si atom -5583.921860 kJ/mol
# Density = 2.093140 g / cm^3
# Si number density = 20.979149 Si / 1000 Ang^3
#
#
#
# Elastic Constant Matrix: (Units=GPa)
#
#
# Indices 1 2 3 4 5 6 
#
# 1 130.5939 13.3106 -7.2259 0.0000 0.0000 0.0000
# 2 13.3106 43.4266 -5.2147 0.0000 0.0000 0.0000
# 3 -7.2259 -5.2147 100.2976 0.0000 0.0000 0.0000
# 4 0.0000 0.0000 0.0000 16.8603 0.0000 0.0000
# 5 0.0000 0.0000 0.0000 0.0000 22.5259 0.0000
# 6 0.0000 0.0000 0.0000 0.0000 0.0000 43.2855
#
#
#
# Elastic Compliance Matrix: (Units=1/GPa)
#
#
# Indices 1 2 3 4 5 6 
#
# 1 0.007924 -0.002375 0.000447 0.000000 0.000000 0.000000
# 2 -0.002375 0.023884 0.001071 0.000000 0.000000 0.000000
# 3 0.000447 0.001071 0.010058 0.000000 0.000000 0.000000
# 4 0.000000 0.000000 0.000000 0.059311 0.000000 0.000000
# 5 0.000000 0.000000 0.000000 0.000000 0.044393 0.000000
# 6 0.000000 0.000000 0.000000 0.000000 0.000000 0.023102
#
#
# Mechanical properties :
#
#
# Convention : Reuss Voigt Hill
#
# Bulk Modulus (GPa) = 24.90519 30.67312 27.78915
# Shear Modulus (GPa) = 27.20777 34.76421 30.98599
#
# Velocity S-wave (km/s) = 3.60515 4.07515 3.84733
# Velocity P-wave (km/s) = 5.40617 6.06588 5.74550
#
# Compressibility (1/GPa) = 0.04015228
#
# Stress axis : x y z
#
# Youngs Moduli (GPa) = 126.19634 41.86917 99.42104
#
# Poissons Ratio (x) = 0.09944 -0.04448
# Poissons Ratio (y) = 0.29973 -0.10645
# Poissons Ratio (z) = -0.05646 -0.04483
#
# Static dielectric constant tensor:
#      x y z
#    x 1.768250 0.000000 0.000000 
#    y 0.000000 1.753690 0.000000 
#    z 0.000000 0.000000 1.789960 
# 
# From -- ./inp_files/11694.got.cif
#   From: 2010.05.17/outbox.cif.g08.bks.cpg/sg54_6_cif.got.tgz:11694.got - 2010.06.03 13:09:01.
