data_PCOD9424103
_publ_section_title
;
Structure prediction by ZEFSAII (Michael W. Deem and Ramdas Pophale) SiO2 
 PCOD9424103
Probable space group: P C C A
;
_chemical_formula_sum "Si O2"
_cell_formula_units_Z 40
_cell_length_a 26.320707
_cell_length_b 7.521799
_cell_length_c 9.330568
_cell_angle_alpha 90.000000
_cell_angle_beta 90.000000
_cell_angle_gamma 90.000000
_cell_volume 1847.257153
_symmetry_space_group_name_H-M "P C C A"
_symmetry_group_IT_number 54
_symmetry_cell_setting 'orthorhombic'
loop_
_space_group_symop_operation_xyz
x,y,z
1/2-x,-y,z
1/2+x,-y,1/2-z
-x,y,1/2-z
-x,-y,-z
1/2+x,y,-z
1/2-x,y,1/2+z
x,-y,1/2+z
loop_
_atom_site_type_symbol
_atom_site_label
_atom_site_fract_x
_atom_site_fract_y
_atom_site_fract_z
Si Si1 0.603148 0.250664 0.340783
Si Si2 0.289795 0.651716 0.990084
Si Si3 0.597517 0.415306 0.020174
Si Si4 0.215147 0.845573 0.200304
Si Si5 0.034858 0.091976 0.119486
O O1 0.583762 0.384342 0.467558
O O2 0.659942 0.168289 0.376209
O O3 0.570291 0.071043 0.326671
O O4 0.598200 0.365823 0.191011
O O5 0.250000 0.500000 0.959566
O O6 0.344800 0.595072 0.043064
O O7 0.258583 0.770857 0.097864
O O8 0.299303 0.738658 0.839696
O O9 0.565359 0.258763 0.945836
O O10 0.250000 0.000000 0.266836
O O11 0.000000 0.154797 0.250000
O O12 0.000000 0.000000 0.000000
#
# Coordination Sequence:
#
# PCOD9424103 Si02
#       5
#     8   8   8   8   8
#     4  11  26  46  71 108 139 189 245 291 367 430
#     4  11  22  41  65 100 140 181 227 281 346 427
#     4  11  26  45  73 104 145 190 233 303 358 432
#     4  11  23  40  65 100 142 183 229 284 345 424
#     4  12  27  51  72 102 142 186 246 302 363 430
#
# _framework density 21.653727
#
# number of rings (size 3 to 8) (size 9 to 14) (size 15 to 20)
#    0.000    0.800    4.000    2.400    5.600    3.200 
#    0.000    0.000    0.000    0.000    0.000    0.000 
#    0.000    0.000    0.000    0.000    0.000    0.000 
#
# Total GULP energy -222675.679652 kJ/mol
# GULP energy per Si atom -5566.891991 kJ/mol
# Density = 2.160444 g / cm^3
# Si number density = 21.653727 Si / 1000 Ang^3
#
#
#
# Elastic Constant Matrix: (Units=GPa)
#
#
# Indices 1 2 3 4 5 6 
#
# 1 76.6631 12.2258 -1.3501 0.0000 0.0000 0.0000
# 2 12.2258 64.0069 -20.4303 0.0000 0.0000 0.0000
# 3 -1.3501 -20.4303 42.8363 0.0000 0.0000 0.0000
# 4 0.0000 0.0000 0.0000 19.6877 0.0000 0.0000
# 5 0.0000 0.0000 0.0000 0.0000 29.1456 0.0000
# 6 0.0000 0.0000 0.0000 0.0000 0.0000 26.2864
#
#
#
# Elastic Compliance Matrix: (Units=1/GPa)
#
#
# Indices 1 2 3 4 5 6 
#
# 1 0.013486 -0.002879 -0.000948 0.000000 0.000000 0.000000
# 2 -0.002879 0.019043 0.008992 0.000000 0.000000 0.000000
# 3 -0.000948 0.008992 0.027603 0.000000 0.000000 0.000000
# 4 0.000000 0.000000 0.000000 0.050793 0.000000 0.000000
# 5 0.000000 0.000000 0.000000 0.000000 0.034311 0.000000
# 6 0.000000 0.000000 0.000000 0.000000 0.000000 0.038042
#
#
# Mechanical properties :
#
#
# Convention : Reuss Voigt Hill
#
# Bulk Modulus (GPa) = 14.19172 18.26635 16.22903
# Shear Modulus (GPa) = 25.45355 27.89467 26.67411
#
# Velocity S-wave (km/s) = 3.43225 3.59307 3.51358
# Velocity P-wave (km/s) = 4.71967 5.06631 4.89606
#
# Compressibility (1/GPa) = 0.07046363
#
# Stress axis : x y z
#
# Youngs Moduli (GPa) = 74.14849 52.51211 36.22756
#
# Poissons Ratio (x) = 0.15116 0.03434
# Poissons Ratio (y) = 0.21344 -0.32575
# Poissons Ratio (z) = 0.07028 -0.47217
#
# Static dielectric constant tensor:
#      x y z
#    x 1.768060 0.000000 0.000000 
#    y 0.000000 1.745130 0.000000 
#    z 0.000000 0.000000 1.791450 
# 
# From -- ./inp_files/5003.got.cif
#   From: 2010.05.17/outbox.cif.g08.bks.cpg/sg54_3_cif.got.tgz:5003.got - 2010.06.03 13:09:01.
