data_PCOD9424826
_publ_section_title
;
Structure prediction by ZEFSAII (Michael W. Deem and Ramdas Pophale) SiO2 
 PCOD9424826
Probable space group: P B A M
;
_chemical_formula_sum "Si O2"
_cell_formula_units_Z 64
_cell_length_a 23.736849
_cell_length_b 19.679334
_cell_length_c 8.750525
_cell_angle_alpha 90.000000
_cell_angle_beta 90.000000
_cell_angle_gamma 90.000000
_cell_volume 4087.592312
_symmetry_space_group_name_H-M "P B A M"
_symmetry_group_IT_number 55
_symmetry_cell_setting 'orthorhombic'
loop_
_space_group_symop_operation_xyz
x,y,z
-x,-y,z
1/2+x,1/2-y,-z
1/2-x,1/2+y,-z
-x,-y,-z
x,y,-z
1/2-x,1/2+y,z
1/2+x,1/2-y,z
loop_
_atom_site_type_symbol
_atom_site_label
_atom_site_fract_x
_atom_site_fract_y
_atom_site_fract_z
Si Si1 0.158522 0.262828 0.316648
Si Si2 0.382250 0.990580 0.683379
Si Si3 0.249275 0.998840 0.684370
Si Si4 0.276701 0.640120 0.818151
Si Si5 0.435716 0.854268 0.818701
Si Si6 0.769284 0.152081 0.685044
Si Si7 0.940817 0.366437 0.683981
Si Si8 0.831647 0.283722 0.315093
O O1 0.157948 0.259724 0.500000
O O2 0.175927 0.190002 0.250055
O O3 0.101051 0.294199 0.255310
O O4 0.209408 0.314379 0.270551
O O5 0.386144 0.980071 0.500000
O O6 0.316250 0.999868 0.719502
O O7 0.416354 0.058878 0.721901
O O8 0.408072 0.925152 0.764028
O O9 0.244122 0.004243 0.500000
O O10 0.219845 0.063093 0.760418
O O11 0.226510 0.925397 0.736840
O O12 0.217397 0.669836 0.755394
O O13 0.277390 0.643377 0.000000
O O14 0.499859 0.853472 0.762122
O O15 0.432996 0.849445 0.000000
O O16 0.768928 0.149563 0.500000
O O17 0.816972 0.206353 0.729929
O O18 0.947937 0.364268 0.500000
O O19 0.892569 0.312246 0.726992
O O20 0.826525 0.289013 0.500000
#
# Coordination Sequence:
#
# PCOD9424826 Si02
#       8
#     8   8   8   8   8   8   8   8
#     4  10  19  36  55  70  92 130 172 208 245 294
#     4  10  19  33  50  70  97 137 181 209 235 287
#     4  10  17  31  51  74  99 133 170 200 239 295
#     4  11  21  31  47  75 105 130 158 203 256 298
#     4  12  24  34  47  71 102 132 168 213 261 300
#     4   8  15  28  52  75  93 118 161 209 245 283
#     4  10  20  34  51  68  95 136 182 213 239 290
#     4   9  17  33  52  72  94 129 172 211 246 290
#
# _framework density 15.657139000000001
#
# number of rings (size 3 to 8) (size 9 to 14) (size 15 to 20)
#    0.000    2.000    2.500    3.750    0.000    3.000 
#    0.000    0.625    0.000    0.000    0.000    0.875 
#    0.000    7.000    0.000    0.000    0.000    0.000 
#
# Total GULP energy -357124.704719 kJ/mol
# GULP energy per Si atom -5580.073511 kJ/mol
# Density = 1.562150 g / cm^3
# Si number density = 15.657139 Si / 1000 Ang^3
#
#
#
# Elastic Constant Matrix: (Units=GPa)
#
#
# Indices 1 2 3 4 5 6 
#
# 1 65.9741 45.7966 32.3195 0.0000 0.0000 0.0000
# 2 45.7966 127.3113 37.6930 0.0000 0.0000 0.0000
# 3 32.3195 37.6930 42.7790 0.0000 0.0000 0.0000
# 4 0.0000 0.0000 0.0000 3.5671 0.0000 0.0000
# 5 0.0000 0.0000 0.0000 0.0000 6.0115 0.0000
# 6 0.0000 0.0000 0.0000 0.0000 0.0000 20.4859
#
#
#
# Elastic Compliance Matrix: (Units=1/GPa)
#
#
# Indices 1 2 3 4 5 6 
#
# 1 0.026063 -0.004797 -0.015464 0.000000 0.000000 0.000000
# 2 -0.004797 0.011510 -0.006517 0.000000 0.000000 0.000000
# 3 -0.015464 -0.006517 0.040801 0.000000 0.000000 0.000000
# 4 0.000000 0.000000 0.000000 0.280339 0.000000 0.000000
# 5 0.000000 0.000000 0.000000 0.000000 0.166349 0.000000
# 6 0.000000 0.000000 0.000000 0.000000 0.000000 0.048814
#
#
# Mechanical properties :
#
#
# Convention : Reuss Voigt Hill
#
# Bulk Modulus (GPa) = 40.29365 51.96474 46.12920
# Shear Modulus (GPa) = 7.86528 14.02992 10.94760
#
# Velocity S-wave (km/s) = 2.24374 2.99669 2.64712
# Velocity P-wave (km/s) = 5.70117 6.72568 6.23451
#
# Compressibility (1/GPa) = 0.02481781
#
# Stress axis : x y z
#
# Youngs Moduli (GPa) = 38.36907 86.88136 24.50904
#
# Poissons Ratio (x) = 0.41677 0.37900
# Poissons Ratio (y) = 0.18406 0.15974
# Poissons Ratio (z) = 0.59332 0.56624
#
# Static dielectric constant tensor:
#      x y z
#    x 1.499400 0.000000 0.000000 
#    y 0.000000 1.531830 0.000000 
#    z 0.000000 0.000000 1.519900 
# 
# From -- ./inp_files/8991.got.cif
#   From: 2010.05.17/outbox.cif.g08.bks.cpg/sg55_5_cif.got.tgz:8991.got - 2010.06.03 13:27:54.
