data_PCOD9424462
_publ_section_title
;
Structure prediction by ZEFSAII (Michael W. Deem and Ramdas Pophale) SiO2 
 PCOD9424462
Probable space group: P C C A
;
_chemical_formula_sum "Si O2"
_cell_formula_units_Z 40
_cell_length_a 5.050118
_cell_length_b 10.847093
_cell_length_c 27.246647
_cell_angle_alpha 90.000000
_cell_angle_beta 90.000000
_cell_angle_gamma 90.000000
_cell_volume 1492.546790
_symmetry_space_group_name_H-M "P C C A"
_symmetry_group_IT_number 54
_symmetry_cell_setting 'orthorhombic'
loop_
_space_group_symop_operation_xyz
x,y,z
1/2-x,-y,z
1/2+x,-y,1/2-z
-x,y,1/2-z
-x,-y,-z
1/2+x,y,-z
1/2-x,y,1/2+z
x,-y,1/2+z
loop_
_atom_site_type_symbol
_atom_site_label
_atom_site_fract_x
_atom_site_fract_y
_atom_site_fract_z
Si Si1 0.067442 0.249905 0.307365
Si Si2 0.750000 0.500000 0.402074
Si Si3 0.750000 0.500000 0.667710
Si Si4 0.750000 0.000000 0.922770
Si Si5 0.500000 0.072088 0.250000
Si Si6 0.500619 0.825568 0.648968
Si Si7 0.404381 0.736229 0.031453
O O1 0.182052 0.385798 0.298094
O O2 0.230066 0.240899 0.362917
O O3 0.000000 0.213359 0.250000
O O4 0.772605 0.230373 0.332348
O O5 0.501532 0.477080 0.366955
O O6 0.809080 0.376511 0.433953
O O7 0.960703 0.059784 0.885547
O O8 0.650220 0.121876 0.950895
O O9 0.368451 0.138433 0.297020
O O10 0.250000 0.000000 0.227237
O O11 0.708094 0.723585 0.015517
#
# Coordination Sequence:
#
# PCOD9424462 Si02
#       7
#     8   4   4   4   4   8   8
#     4  12  25  45  67 100 148 207 256 315 375 440
#     4  12  26  52  80 112 144 200 256 316 389 481
#     4  12  26  44  74 108 146 188 268 328 373 445
#     4  12  28  46  76 116 158 196 254 326 390 458
#     4  12  22  42  64  98 138 200 256 302 352 450
#     4  12  26  42  69 100 147 201 250 304 376 441
#     4  12  27  51  80 113 152 196 248 318 404 481
#
# _framework density 26.799831000000001
#
# number of rings (size 3 to 8) (size 9 to 14) (size 15 to 20)
#    0.000    0.000    3.000    7.200    0.000    5.600 
#    0.000    0.000    0.000    0.000    0.000    0.000 
#    0.000    0.000    0.000    0.000    0.000    0.000 
#
# Total GULP energy -222967.576103 kJ/mol
# GULP energy per Si atom -5574.189403 kJ/mol
# Density = 2.673883 g / cm^3
# Si number density = 26.799831 Si / 1000 Ang^3
#
#
#
# Elastic Constant Matrix: (Units=GPa)
#
#
# Indices 1 2 3 4 5 6 
#
# 1 184.0812 45.5821 31.5102 0.0000 0.0000 0.0000
# 2 45.5821 142.5726 32.4271 0.0000 0.0000 0.0000
# 3 31.5102 32.4271 84.1318 0.0000 0.0000 0.0000
# 4 0.0000 0.0000 0.0000 167.1293 0.0000 0.0000
# 5 0.0000 0.0000 0.0000 0.0000 -15.1329 0.0000
# 6 0.0000 0.0000 0.0000 0.0000 0.0000 38.6637
#
#
#
# Elastic Compliance Matrix: (Units=1/GPa)
#
#
# Indices 1 2 3 4 5 6 
#
# 1 0.006109 -0.001570 -0.001683 0.000000 0.000000 0.000000
# 2 -0.001570 0.008092 -0.002531 0.000000 0.000000 0.000000
# 3 -0.001683 -0.002531 0.013492 0.000000 0.000000 0.000000
# 4 0.000000 0.000000 0.000000 0.005983 0.000000 0.000000
# 5 0.000000 0.000000 0.000000 0.000000 -0.066081 0.000000
# 6 0.000000 0.000000 0.000000 0.000000 0.000000 0.025864
#
#
# Mechanical properties :
#
#
# Convention : Reuss Voigt Hill
#
# Bulk Modulus (GPa) = 62.01575 69.98049 65.99812
# Shear Modulus (GPa) = 480.69543 58.21646 269.45594
#
# Velocity S-wave (km/s) = 13.40725 4.66582 10.03804
# Velocity P-wave (km/s) = 16.21306 7.42936 12.61068
#
# Compressibility (1/GPa) = 0.01612494
#
# Stress axis : x y z
#
# Youngs Moduli (GPa) = 163.68424 123.58453 74.11937
#
# Poissons Ratio (x) = 0.19409 0.12473
# Poissons Ratio (y) = 0.25706 0.18756
# Poissons Ratio (z) = 0.27545 0.31274
#
# Static dielectric constant tensor:
#      x y z
#    x 1.991790 0.000000 0.000000 
#    y 0.000000 -0.459250 0.000000 
#    z 0.000000 0.000000 2.147010 
# 
# From -- ./inp_files/25226.got.cif
#   From: 2010.05.17/outbox.cif.g08.bks.cpg/sg54_13_cif.got.tgz:25226.got - 2010.06.03 13:09:01.
