data_PCOD9424911
_publ_section_title
;
Structure prediction by ZEFSAII (Michael W. Deem and Ramdas Pophale) SiO2 
 PCOD9424911
Probable space group: P B A M
;
_chemical_formula_sum "Si O2"
_cell_formula_units_Z 64
_cell_length_a 30.207471
_cell_length_b 9.025752
_cell_length_c 14.030826
_cell_angle_alpha 90.000000
_cell_angle_beta 90.000000
_cell_angle_gamma 90.000000
_cell_volume 3825.436544
_symmetry_space_group_name_H-M "P B A M"
_symmetry_group_IT_number 55
_symmetry_cell_setting 'orthorhombic'
loop_
_space_group_symop_operation_xyz
x,y,z
-x,-y,z
1/2+x,1/2-y,-z
1/2-x,1/2+y,-z
-x,-y,-z
x,y,-z
1/2-x,1/2+y,z
1/2+x,1/2-y,z
loop_
_atom_site_type_symbol
_atom_site_label
_atom_site_fract_x
_atom_site_fract_y
_atom_site_fract_z
Si Si1 0.570821 0.290581 0.783057
Si Si2 0.114318 0.071479 0.388154
Si Si3 0.608826 0.551478 0.109084
Si Si4 0.202706 0.579461 0.616214
Si Si5 0.983543 0.217400 0.894910
Si Si6 0.705208 0.265960 0.385049
Si Si7 0.548442 0.961488 0.231611
Si Si8 0.377164 0.261143 0.291912
O O1 0.578125 0.348259 0.676619
O O2 0.604477 0.386071 0.848094
O O3 0.521223 0.319858 0.819742
O O4 0.574559 0.113428 0.785503
O O5 0.108224 0.094906 0.500000
O O6 0.161576 0.142480 0.358084
O O7 0.114556 0.898941 0.361931
O O8 0.557984 0.608795 0.106691
O O9 0.630506 0.660726 0.187989
O O10 0.625525 0.557222 0.000000
O O11 0.197722 0.590222 0.500000
O O12 0.202723 0.405978 0.643243
O O13 0.249494 0.653733 0.643723
O O14 0.163568 0.666579 0.668498
O O15 0.964309 0.377353 0.866087
O O16 0.003570 0.217209 0.000000
O O17 0.705954 0.265988 0.500000
O O18 0.579829 0.844797 0.285054
O O19 0.500000 0.000000 0.276166
#
# Coordination Sequence:
#
# PCOD9424911 Si02
#       8
#     8   8   8   8   8   8   8   8
#     4  10  18  28  48  71  94 125 161 202 247 297
#     4  10  20  34  50  70  99 132 167 206 250 301
#     4   9  18  31  48  71  97 125 161 205 251 293
#     4  10  18  30  51  78 105 130 159 198 244 293
#     4   9  17  30  49  72  97 124 158 207 260 300
#     4   9  18  31  50  78 106 129 158 199 245 294
#     4   9  19  32  47  68  98 129 165 208 254 304
#     4  10  19  32  51  72  97 132 166 204 248 293
#
# _framework density 16.730115999999999
#
# number of rings (size 3 to 8) (size 9 to 14) (size 15 to 20)
#    0.000    2.500    0.000    2.625    0.000    6.750 
#    0.000    0.625    0.000   35.625    0.000    8.750 
#    0.000    0.000    0.000    0.000    0.000    0.000 
#
# Total GULP energy -356435.708395 kJ/mol
# GULP energy per Si atom -5569.307944 kJ/mol
# Density = 1.669204 g / cm^3
# Si number density = 16.730116 Si / 1000 Ang^3
#
#
#
# Elastic Constant Matrix: (Units=GPa)
#
#
# Indices 1 2 3 4 5 6 
#
# 1 75.8046 48.0206 45.8717 0.0000 0.0000 0.0000
# 2 48.0206 139.7529 35.6594 0.0000 0.0000 0.0000
# 3 45.8717 35.6594 90.3483 0.0000 0.0000 0.0000
# 4 0.0000 0.0000 0.0000 14.2530 0.0000 0.0000
# 5 0.0000 0.0000 0.0000 0.0000 13.2083 0.0000
# 6 0.0000 0.0000 0.0000 0.0000 0.0000 30.4913
#
#
#
# Elastic Compliance Matrix: (Units=1/GPa)
#
#
# Indices 1 2 3 4 5 6 
#
# 1 0.022029 -0.005244 -0.009115 0.000000 0.000000 0.000000
# 2 -0.005244 0.009205 -0.000971 0.000000 0.000000 0.000000
# 3 -0.009115 -0.000971 0.016079 0.000000 0.000000 0.000000
# 4 0.000000 0.000000 0.000000 0.070161 0.000000 0.000000
# 5 0.000000 0.000000 0.000000 0.000000 0.075710 0.000000
# 6 0.000000 0.000000 0.000000 0.000000 0.000000 0.032796
#
#
# Mechanical properties :
#
#
# Convention : Reuss Voigt Hill
#
# Bulk Modulus (GPa) = 60.04374 62.77879 61.41127
# Shear Modulus (GPa) = 19.07001 23.34746 21.20873
#
# Velocity S-wave (km/s) = 3.37985 3.73974 3.56434
# Velocity P-wave (km/s) = 7.15532 7.50023 7.32980
#
# Compressibility (1/GPa) = 0.01665453
#
# Stress axis : x y z
#
# Youngs Moduli (GPa) = 45.39370 108.63681 62.19139
#
# Poissons Ratio (x) = 0.56966 0.56689
# Poissons Ratio (y) = 0.23803 0.06037
# Poissons Ratio (z) = 0.41377 0.10546
#
# Static dielectric constant tensor:
#      x y z
#    x 1.559450 0.000000 0.000000 
#    y 0.000000 1.604070 0.000000 
#    z 0.000000 0.000000 1.569690 
# 
# From -- ./inp_files/17921.got.cif
#   From: 2010.05.17/outbox.cif.g08.bks.cpg/sg55_9_cif.got.tgz:17921.got - 2010.06.03 13:27:54.
