data_PCOD9424983
_publ_section_title
;
Structure prediction by ZEFSAII (Michael W. Deem and Ramdas Pophale) SiO2 
 PCOD9424983
Probable space group: P B A M
;
_chemical_formula_sum "Si O2"
_cell_formula_units_Z 48
_cell_length_a 24.545437
_cell_length_b 14.249793
_cell_length_c 7.872688
_cell_angle_alpha 90.000000
_cell_angle_beta 90.000000
_cell_angle_gamma 90.000000
_cell_volume 2753.609584
_symmetry_space_group_name_H-M "P B A M"
_symmetry_group_IT_number 55
_symmetry_cell_setting 'orthorhombic'
loop_
_space_group_symop_operation_xyz
x,y,z
-x,-y,z
1/2+x,1/2-y,-z
1/2-x,1/2+y,-z
-x,-y,-z
x,y,-z
1/2-x,1/2+y,z
1/2+x,1/2-y,z
loop_
_atom_site_type_symbol
_atom_site_label
_atom_site_fract_x
_atom_site_fract_y
_atom_site_fract_z
Si Si1 0.064046 0.588211 0.307970
Si Si2 0.555527 0.116698 0.805065
Si Si3 0.664574 0.211861 0.792280
Si Si4 0.274904 0.391621 0.207475
Si Si5 0.165706 0.706655 0.205091
Si Si6 0.275997 0.602777 0.792799
O O1 0.070677 0.555537 0.500000
O O2 0.070401 0.493999 0.197932
O O3 0.109171 0.665297 0.268045
O O4 0.002692 0.625127 0.284222
O O5 0.606403 0.174382 0.732787
O O6 0.547260 0.145493 0.000000
O O7 0.714723 0.144334 0.741953
O O8 0.681385 0.316938 0.739854
O O9 0.663409 0.209796 0.000000
O O10 0.317563 0.311422 0.260971
O O11 0.285937 0.497075 0.266205
O O12 0.275291 0.392343 0.000000
O O13 0.215961 0.639360 0.257014
O O14 0.164356 0.706570 0.000000
O O15 0.276635 0.601940 0.000000
#
# Coordination Sequence:
#
# PCOD9424983 Si02
#       6
#     8   8   8   8   8   8
#     4  11  21  31  43  62  89 117 145 178 219 258
#     4  10  18  30  48  67  87 112 145 180 217 262
#     4   8  14  23  40  68  93 112 137 174 217 257
#     4   8  13  22  40  67  94 115 136 170 215 256
#     4   9  16  27  45  67  89 115 146 175 209 256
#     4   8  13  23  42  69  95 113 137 177 219 255
#
# _framework density 17.431664999999999
#
# number of rings (size 3 to 8) (size 9 to 14) (size 15 to 20)
#    0.000    3.000    0.000    6.000    0.000    2.667 
#    0.000    0.000    0.000   14.000    0.000    7.000 
#    0.000    0.000    0.000    0.000    0.000    0.000 
#
# Total GULP energy -267512.419144 kJ/mol
# GULP energy per Si atom -5573.175399 kJ/mol
# Density = 1.739199 g / cm^3
# Si number density = 17.431665 Si / 1000 Ang^3
#
#
#
# Elastic Constant Matrix: (Units=GPa)
#
#
# Indices 1 2 3 4 5 6 
#
# 1 129.6935 86.5971 3.7421 0.0000 0.0000 0.0000
# 2 86.5971 139.8587 0.7534 0.0000 0.0000 0.0000
# 3 3.7421 0.7534 23.7607 0.0000 0.0000 0.0000
# 4 0.0000 0.0000 0.0000 -9.8551 0.0000 0.0000
# 5 0.0000 0.0000 0.0000 0.0000 -66.6607 0.0000
# 6 0.0000 0.0000 0.0000 0.0000 0.0000 25.3890
#
#
#
# Elastic Compliance Matrix: (Units=1/GPa)
#
#
# Indices 1 2 3 4 5 6 
#
# 1 0.013223 -0.008178 -0.001823 0.000000 0.000000 0.000000
# 2 -0.008178 0.012209 0.000901 0.000000 0.000000 0.000000
# 3 -0.001823 0.000901 0.042345 0.000000 0.000000 0.000000
# 4 0.000000 0.000000 0.000000 -0.101470 0.000000 0.000000
# 5 0.000000 0.000000 0.000000 0.000000 -0.015001 0.000000
# 6 0.000000 0.000000 0.000000 0.000000 0.000000 0.039387
#
#
# Mechanical properties :
#
#
# Convention : Reuss Voigt Hill
#
# Bulk Modulus (GPa) = 20.17085 52.83312 36.50199
# Shear Modulus (GPa) = 196.70375 3.25598 99.97987
#
# Velocity S-wave (km/s) = 10.63427 1.36818 7.58155
# Velocity P-wave (km/s) = 12.74285 5.73327 9.88055
#
# Compressibility (1/GPa) = 0.04957649
#
# Stress axis : x y z
#
# Youngs Moduli (GPa) = 75.62302 81.90855 23.61562
#
# Poissons Ratio (x) = 0.66983 0.04306
# Poissons Ratio (y) = 0.61843 -0.02127
# Poissons Ratio (z) = 0.13788 -0.07378
#
# Static dielectric constant tensor:
#      x y z
#    x 1.575720 0.000000 0.000000 
#    y 0.000000 1.589510 0.000000 
#    z 0.000000 0.000000 1.610140 
# 
# From -- ./inp_files/6285.got.cif
#   From: 2010.05.17/outbox.cif.g08.bks.cpg/sg55_4_cif.got.tgz:6285.got - 2010.06.03 13:27:54.
