data_PCOD9424657
_publ_section_title
;
Structure prediction by ZEFSAII (Michael W. Deem and Ramdas Pophale) SiO2 
 PCOD9424657
Probable space group: P C C A
;
_chemical_formula_sum "Si O2"
_cell_formula_units_Z 40
_cell_length_a 9.000000
_cell_length_b 18.000000
_cell_length_c 12.000000
_cell_angle_alpha 90.000000
_cell_angle_beta 90.000000
_cell_angle_gamma 90.000000
_cell_volume 1944.000000
_symmetry_space_group_name_H-M "P C C A"
_symmetry_group_IT_number 54
_symmetry_cell_setting 'orthorhombic'
loop_
_space_group_symop_operation_xyz
x,y,z
1/2-x,-y,z
1/2+x,-y,1/2-z
-x,y,1/2-z
-x,-y,-z
1/2+x,y,-z
1/2-x,y,1/2+z
x,-y,1/2+z
loop_
_atom_site_type_symbol
_atom_site_label
_atom_site_fract_x
_atom_site_fract_y
_atom_site_fract_z
Si Si1 0.755396 0.849349 0.497535
Si Si2 0.873729 0.402400 0.578744
Si Si3 0.491922 0.945123 0.112627
Si Si4 0.452849 0.433398 0.866884
Si Si5 0.998170 0.241458 0.621777
O O1 0.664655 0.902774 0.411798
O O2 0.631038 0.805642 0.564772
O O3 0.851581 0.787622 0.433697
O O4 0.865833 0.893290 0.581733
O O5 0.920226 0.478328 0.641143
O O6 0.698044 0.395059 0.592731
O O7 0.915071 0.421054 0.452339
O O8 0.962075 0.328768 0.610892
O O9 0.500000 0.965582 0.250000
O O10 0.500000 0.000000 0.000000
O O11 0.500000 0.401849 0.750000
O O12 0.000000 0.222033 0.750000
#
# Coordination Sequence:
#
# PCOD9424657 Si02
#       5
#     8   8   8   8   8
#     4  10  24  41  62  94 128 162 205 253 306 371
#     4  10  22  38  60  89 116 160 215 256 313 380
#     4  11  24  43  68  97 129 165 207 254 308 369
#     4  10  22  39  59  85 123 158 204 269 320 369
#     4  11  22  40  63  87 123 165 206 254 310 369
#
# _framework density 20.576132000000001
#
# number of rings (size 3 to 8) (size 9 to 14) (size 15 to 20)
#    0.000    1.600    0.000    3.600    0.000   16.000 
#    0.000    5.000    0.000    0.000    0.000    0.000 
#    0.000    0.000    0.000    0.000    0.000    0.000 
#
# Total GULP energy -222998.869311 kJ/mol
# GULP energy per Si atom -5574.971733 kJ/mol
# Density = 2.052930 g / cm^3
# Si number density = 20.576132 Si / 1000 Ang^3
#
#
#
# Elastic Constant Matrix: (Units=GPa)
#
#
# Indices 1 2 3 4 5 6 
#
# 1 123.2800 39.3051 55.3429 0.0000 0.0000 0.0000
# 2 39.3051 75.0315 30.1059 0.0000 0.0000 0.0000
# 3 55.3429 30.1059 127.9566 0.0000 0.0000 0.0000
# 4 0.0000 0.0000 0.0000 14.9048 0.0000 0.0000
# 5 0.0000 0.0000 0.0000 0.0000 -25.8014 0.0000
# 6 0.0000 0.0000 0.0000 0.0000 0.0000 5.8382
#
#
#
# Elastic Compliance Matrix: (Units=1/GPa)
#
#
# Indices 1 2 3 4 5 6 
#
# 1 0.011214 -0.004338 -0.003830 0.000000 0.000000 0.000000
# 2 -0.004338 0.016395 -0.001981 0.000000 0.000000 0.000000
# 3 -0.003830 -0.001981 0.009938 0.000000 0.000000 0.000000
# 4 0.000000 0.000000 0.000000 0.067092 0.000000 0.000000
# 5 0.000000 0.000000 0.000000 0.000000 -0.038758 0.000000
# 6 0.000000 0.000000 0.000000 0.000000 0.000000 0.171285
#
#
# Mechanical properties :
#
#
# Convention : Reuss Voigt Hill
#
# Bulk Modulus (GPa) = 57.97342 63.97511 60.97427
# Shear Modulus (GPa) = 18.99600 12.42262 15.70931
#
# Velocity S-wave (km/s) = 3.04173 2.45978 2.76610
# Velocity P-wave (km/s) = 6.36964 6.26312 6.31661
#
# Compressibility (1/GPa) = 0.01724928
#
# Stress axis : x y z
#
# Youngs Moduli (GPa) = 89.17623 60.99402 100.62757
#
# Poissons Ratio (x) = 0.26458 0.38535
# Poissons Ratio (y) = 0.38682 0.19938
# Poissons Ratio (z) = 0.34150 0.12085
#
# Static dielectric constant tensor:
#      x y z
#    x 1.710690 0.000000 0.000000 
#    y 0.000000 1.776500 0.000000 
#    z 0.000000 0.000000 1.745710 
# 
# From -- ./inp_files/6856.got.cif
#   From: 2010.05.17/outbox.ucp.g08.bks.cvg/sg54_4_cif.got.tgz:6856.got - 2010.06.11 16:34:40.
