data_PCOD9424921
_publ_section_title
;
Structure prediction by ZEFSAII (Michael W. Deem and Ramdas Pophale) SiO2 
 PCOD9424921
Probable space group: P B A M
;
_chemical_formula_sum "Si O2"
_cell_formula_units_Z 64
_cell_length_a 27.194214
_cell_length_b 18.854540
_cell_length_c 8.564146
_cell_angle_alpha 90.000000
_cell_angle_beta 90.000000
_cell_angle_gamma 90.000000
_cell_volume 4391.132223
_symmetry_space_group_name_H-M "P B A M"
_symmetry_group_IT_number 55
_symmetry_cell_setting 'orthorhombic'
loop_
_space_group_symop_operation_xyz
x,y,z
-x,-y,z
1/2+x,1/2-y,-z
1/2-x,1/2+y,-z
-x,-y,-z
x,y,-z
1/2-x,1/2+y,z
1/2+x,1/2-y,z
loop_
_atom_site_type_symbol
_atom_site_label
_atom_site_fract_x
_atom_site_fract_y
_atom_site_fract_z
Si Si1 0.759659 0.425284 0.185447
Si Si2 0.206768 0.786927 0.185304
Si Si3 0.444722 0.917928 0.812234
Si Si4 0.256184 0.916431 0.687427
Si Si5 0.851245 0.333681 0.685677
Si Si6 0.442335 0.081124 0.810996
Si Si7 0.701801 0.301670 0.314661
Si Si8 0.145475 0.331120 0.312097
O O1 0.754568 0.502966 0.257252
O O2 0.808120 0.386400 0.253805
O O3 0.713513 0.375025 0.229517
O O4 0.764833 0.429359 0.000000
O O5 0.213597 0.867953 0.236818
O O6 0.159005 0.742806 0.236117
O O7 0.250325 0.746418 0.277835
O O8 0.214152 0.779710 0.000000
O O9 0.501165 0.903031 0.766377
O O10 0.404822 0.863827 0.748193
O O11 0.432507 0.999064 0.765027
O O12 0.443289 0.916608 0.000000
O O13 0.252958 0.912303 0.500000
O O14 0.308563 0.881228 0.736684
O O15 0.847377 0.327613 0.500000
O O16 0.902766 0.367488 0.735344
O O17 0.438646 0.085161 0.000000
O O18 0.698598 0.313923 0.500000
O O19 0.657702 0.249760 0.262774
O O20 0.145221 0.331240 0.500000
#
# Coordination Sequence:
#
# PCOD9424921 Si02
#       8
#     8   8   8   8   8   8   8   8
#     4  11  20  29  43  64  86 112 145 180 212 252
#     4  10  18  29  44  62  83 110 142 178 212 250
#     4   9  18  30  45  61  83 112 143 180 219 251
#     4  10  19  31  44  62  88 116 143 175 212 255
#     4  11  20  30  44  62  84 115 147 178 216 256
#     4   9  18  32  44  60  84 112 145 181 216 253
#     4   9  17  30  43  58  83 114 142 175 214 253
#     4   9  18  29  43  61  83 111 144 175 209 252
#
# _framework density 14.574828
#
# number of rings (size 3 to 8) (size 9 to 14) (size 15 to 20)
#    0.000    2.250    0.000    7.875    0.000    6.000 
#    0.000    1.250    0.000    0.000    0.000    0.000 
#    0.000    1.000    0.000   10.500    0.000    5.750 
#
# Total GULP energy -356738.564826 kJ/mol
# GULP energy per Si atom -5574.040075 kJ/mol
# Density = 1.454165 g / cm^3
# Si number density = 14.574828 Si / 1000 Ang^3
#
#
#
# Elastic Constant Matrix: (Units=GPa)
#
#
# Indices 1 2 3 4 5 6 
#
# 1 73.0015 45.0277 16.7094 0.0000 0.0000 0.0000
# 2 45.0277 91.3128 18.6122 0.0000 0.0000 0.0000
# 3 16.7094 18.6122 41.7387 0.0000 0.0000 0.0000
# 4 0.0000 0.0000 0.0000 22.2762 0.0000 0.0000
# 5 0.0000 0.0000 0.0000 0.0000 23.5270 0.0000
# 6 0.0000 0.0000 0.0000 0.0000 0.0000 27.5665
#
#
#
# Elastic Compliance Matrix: (Units=1/GPa)
#
#
# Indices 1 2 3 4 5 6 
#
# 1 0.020283 -0.009181 -0.004026 0.000000 0.000000 0.000000
# 2 -0.009181 0.016202 -0.003549 0.000000 0.000000 0.000000
# 3 -0.004026 -0.003549 0.027153 0.000000 0.000000 0.000000
# 4 0.000000 0.000000 0.000000 0.044891 0.000000 0.000000
# 5 0.000000 0.000000 0.000000 0.000000 0.042504 0.000000
# 6 0.000000 0.000000 0.000000 0.000000 0.000000 0.036276
#
#
# Mechanical properties :
#
#
# Convention : Reuss Voigt Hill
#
# Bulk Modulus (GPa) = 33.19469 40.75018 36.97243
# Shear Modulus (GPa) = 21.65779 23.05418 22.35598
#
# Velocity S-wave (km/s) = 3.85901 3.98148 3.92072
# Velocity P-wave (km/s) = 6.53305 7.01115 6.77632
#
# Compressibility (1/GPa) = 0.03012530
#
# Stress axis : x y z
#
# Youngs Moduli (GPa) = 49.30280 61.71993 36.82836
#
# Poissons Ratio (x) = 0.56666 0.14826
# Poissons Ratio (y) = 0.45266 0.13072
# Poissons Ratio (z) = 0.19848 0.21907
#
# Static dielectric constant tensor:
#      x y z
#    x 1.477870 0.000000 0.000000 
#    y 0.000000 1.496330 0.000000 
#    z 0.000000 0.000000 1.490060 
# 
# From -- ./inp_files/10299.got.cif
#   From: 2010.05.17/outbox.cif.g08.bks.cpg/sg55_6_cif.got.tgz:10299.got - 2010.06.03 13:27:54.
