data_PCOD9424939
_publ_section_title
;
Structure prediction by ZEFSAII (Michael W. Deem and Ramdas Pophale) SiO2 
 PCOD9424939
Probable space group: P B A M
;
_chemical_formula_sum "Si O2"
_cell_formula_units_Z 48
_cell_length_a 16.404170
_cell_length_b 19.111732
_cell_length_c 8.282353
_cell_angle_alpha 90.000000
_cell_angle_beta 90.000000
_cell_angle_gamma 90.000000
_cell_volume 2596.617888
_symmetry_space_group_name_H-M "P B A M"
_symmetry_group_IT_number 55
_symmetry_cell_setting 'orthorhombic'
loop_
_space_group_symop_operation_xyz
x,y,z
-x,-y,z
1/2+x,1/2-y,-z
1/2-x,1/2+y,-z
-x,-y,-z
x,y,-z
1/2-x,1/2+y,z
1/2+x,1/2-y,z
loop_
_atom_site_type_symbol
_atom_site_label
_atom_site_fract_x
_atom_site_fract_y
_atom_site_fract_z
Si Si1 0.577314 0.455619 0.697165
Si Si2 0.927657 0.449832 0.191129
Si Si3 0.245004 0.539382 0.311707
Si Si4 0.079548 0.708516 0.308707
Si Si5 0.079400 0.207320 0.695276
Si Si6 0.749767 0.304305 0.811717
O O1 0.500000 0.500000 0.752308
O O2 0.578494 0.457113 0.500000
O O3 0.666080 0.484225 0.749581
O O4 0.569828 0.374178 0.743622
O O5 0.838055 0.481653 0.224227
O O6 0.931156 0.373899 0.273251
O O7 0.000000 0.500000 0.248398
O O8 0.936611 0.438978 0.000000
O O9 0.237225 0.521970 0.500000
O O10 0.249447 0.623895 0.291644
O O11 0.087469 0.719191 0.500000
O O12 0.164476 0.731886 0.227678
O O13 0.999392 0.749360 0.251805
O O14 0.084144 0.210344 0.500000
O O15 0.165689 0.233173 0.765683
O O16 0.748714 0.323362 0.000000
#
# Coordination Sequence:
#
# PCOD9424939 Si02
#       6
#     8   8   8   8   8   8
#     4   8  14  27  48  72  95 119 150 189 232 275
#     4  10  20  33  49  69  95 125 157 196 242 291
#     4   9  16  28  48  70  93 123 161 197 229 278
#     4  10  19  32  51  72  96 125 161 204 242 284
#     4   9  18  32  50  72  96 124 160 200 238 279
#     4  10  18  29  48  70  95 127 161 195 235 289
#
# _framework density 18.485583999999999
#
# number of rings (size 3 to 8) (size 9 to 14) (size 15 to 20)
#    0.000    2.667    0.000    6.000    0.000    2.667 
#    0.000    1.667    0.000   16.500    0.000    0.000 
#    0.000    0.000    0.000    0.000    0.000    0.000 
#
# Total GULP energy -267424.104673 kJ/mol
# GULP energy per Si atom -5571.335514 kJ/mol
# Density = 1.844351 g / cm^3
# Si number density = 18.485584 Si / 1000 Ang^3
#
#
#
# Elastic Constant Matrix: (Units=GPa)
#
#
# Indices 1 2 3 4 5 6 
#
# 1 211.4745 55.8224 11.6426 0.0000 0.0000 0.0000
# 2 55.8224 32.4689 4.3720 0.0000 0.0000 0.0000
# 3 11.6426 4.3720 20.9624 0.0000 0.0000 0.0000
# 4 0.0000 0.0000 0.0000 -37.2110 0.0000 0.0000
# 5 0.0000 0.0000 0.0000 0.0000 -696.7296 0.0000
# 6 0.0000 0.0000 0.0000 0.0000 0.0000 34.3757
#
#
#
# Elastic Compliance Matrix: (Units=1/GPa)
#
#
# Indices 1 2 3 4 5 6 
#
# 1 0.008721 -0.014756 -0.001766 0.000000 0.000000 0.000000
# 2 -0.014756 0.056655 -0.003621 0.000000 0.000000 0.000000
# 3 -0.001766 -0.003621 0.049440 0.000000 0.000000 0.000000
# 4 0.000000 0.000000 0.000000 -0.026874 0.000000 0.000000
# 5 0.000000 0.000000 0.000000 0.000000 -0.001435 0.000000
# 6 0.000000 0.000000 0.000000 0.000000 0.000000 0.029090
#
#
# Mechanical properties :
#
#
# Convention : Reuss Voigt Hill
#
# Bulk Modulus (GPa) = 13.41723 45.39776 29.40749
# Shear Modulus (GPa) = 27.66598 -127.04173 -49.68788
#
# Velocity S-wave (km/s) = 3.87282 -8.29903 -5.19015
# Velocity P-wave (km/s) = 5.22229 8.19879 4.46922
#
# Compressibility (1/GPa) = 0.07453105
#
# Stress axis : x y z
#
# Youngs Moduli (GPa) = 114.66595 17.65061 20.22634
#
# Poissons Ratio (x) = 0.26045 0.03572
# Poissons Ratio (y) = 1.69199 0.07324
# Poissons Ratio (z) = 0.20251 0.06391
#
# Static dielectric constant tensor:
#      x y z
#    x 1.699430 0.000000 0.000000 
#    y 0.000000 1.614100 0.000000 
#    z 0.000000 0.000000 1.629100 
# 
# From -- ./inp_files/6296.got.cif
#   From: 2010.05.17/outbox.cif.g08.bks.cpg/sg55_4_cif.got.tgz:6296.got - 2010.06.03 13:27:54.
