data_PCOD9424888
_publ_section_title
;
Structure prediction by ZEFSAII (Michael W. Deem and Ramdas Pophale) SiO2 
 PCOD9424888
Probable space group: P B A M
;
_chemical_formula_sum "Si O2"
_cell_formula_units_Z 56
_cell_length_a 21.696907
_cell_length_b 19.069868
_cell_length_c 8.230912
_cell_angle_alpha 90.000000
_cell_angle_beta 90.000000
_cell_angle_gamma 90.000000
_cell_volume 3405.598712
_symmetry_space_group_name_H-M "P B A M"
_symmetry_group_IT_number 55
_symmetry_cell_setting 'orthorhombic'
loop_
_space_group_symop_operation_xyz
x,y,z
-x,-y,z
1/2+x,1/2-y,-z
1/2-x,1/2+y,-z
-x,-y,-z
x,y,-z
1/2-x,1/2+y,z
1/2+x,1/2-y,z
loop_
_atom_site_type_symbol
_atom_site_label
_atom_site_fract_x
_atom_site_fract_y
_atom_site_fract_z
Si Si1 0.498384 0.918677 0.198773
Si Si2 0.376060 0.152318 0.195254
Si Si3 0.182723 0.214859 0.310972
Si Si4 0.250965 0.580674 0.303387
Si Si5 0.629851 0.148026 0.192258
Si Si6 0.243360 0.921597 0.306983
Si Si7 0.306504 0.284732 0.807633
O O1 0.559807 0.879003 0.256440
O O2 0.435020 0.882245 0.251992
O O3 0.500000 0.000000 0.247048
O O4 0.498558 0.916795 0.000000
O O5 0.316501 0.108726 0.253459
O O6 0.363516 0.234255 0.234050
O O7 0.376940 0.146611 0.000000
O O8 0.166037 0.211146 0.500000
O O9 0.197615 0.136967 0.246624
O O10 0.137095 0.268929 0.224576
O O11 0.249177 0.252609 0.291197
O O12 0.252778 0.581301 0.500000
O O13 0.261049 0.501359 0.246512
O O14 0.688116 0.107997 0.269847
O O15 0.634313 0.135889 0.000000
O O16 0.234647 0.921386 0.500000
O O17 0.194987 0.866780 0.230804
O O18 0.293538 0.275938 0.000000
#
# Coordination Sequence:
#
# PCOD9424888 Si02
#       7
#     8   8   8   8   8   8   8
#     4   9  17  28  42  61  85 113 141 167 198 236
#     4   9  17  29  44  61  83 112 142 171 201 239
#     4   9  16  28  43  58  81 109 136 168 208 247
#     4   9  18  29  42  62  85 110 137 169 209 249
#     4  10  18  28  43  62  84 111 143 171 198 240
#     4  10  18  28  42  61  86 111 136 168 209 249
#     4   9  16  26  41  61  82 105 137 171 204 243
#
# _framework density 16.443511000000001
#
# number of rings (size 3 to 8) (size 9 to 14) (size 15 to 20)
#    0.000    2.714    0.000    4.286    0.000    3.429 
#    0.000    1.429    0.000    3.857    0.000    1.000 
#    0.000    8.000    0.000    0.000    0.000    0.000 
#
# Total GULP energy -311825.624353 kJ/mol
# GULP energy per Si atom -5568.314721 kJ/mol
# Density = 1.640608 g / cm^3
# Si number density = 16.443511 Si / 1000 Ang^3
#
#
#
# Elastic Constant Matrix: (Units=GPa)
#
#
# Indices 1 2 3 4 5 6 
#
# 1 75.0020 62.7465 4.4534 0.0000 0.0000 0.0000
# 2 62.7465 159.2202 5.1101 0.0000 0.0000 0.0000
# 3 4.4534 5.1101 12.8334 0.0000 0.0000 0.0000
# 4 0.0000 0.0000 0.0000 6.2454 0.0000 0.0000
# 5 0.0000 0.0000 0.0000 0.0000 65.7508 0.0000
# 6 0.0000 0.0000 0.0000 0.0000 0.0000 27.3276
#
#
#
# Elastic Compliance Matrix: (Units=1/GPa)
#
#
# Indices 1 2 3 4 5 6 
#
# 1 0.020078 -0.007789 -0.003866 0.000000 0.000000 0.000000
# 2 -0.007789 0.009383 -0.001034 0.000000 0.000000 0.000000
# 3 -0.003866 -0.001034 0.079675 0.000000 0.000000 0.000000
# 4 0.000000 0.000000 0.000000 0.160118 0.000000 0.000000
# 5 0.000000 0.000000 0.000000 0.000000 0.015209 0.000000
# 6 0.000000 0.000000 0.000000 0.000000 0.000000 0.036593
#
#
# Mechanical properties :
#
#
# Convention : Reuss Voigt Hill
#
# Bulk Modulus (GPa) = 11.93889 43.51951 27.72920
# Shear Modulus (GPa) = 13.35637 31.51445 22.43541
#
# Velocity S-wave (km/s) = 2.85311 4.38257 3.69778
# Velocity P-wave (km/s) = 4.25792 7.22030 5.92717
#
# Compressibility (1/GPa) = 0.08375991
#
# Stress axis : x y z
#
# Youngs Moduli (GPa) = 49.80473 106.57417 12.55100
#
# Poissons Ratio (x) = 0.83006 0.04853
# Poissons Ratio (y) = 0.38791 0.01297
# Poissons Ratio (z) = 0.19256 0.11015
#
# Static dielectric constant tensor:
#      x y z
#    x 1.532630 0.000000 0.000000 
#    y 0.000000 1.603850 0.000000 
#    z 0.000000 0.000000 1.574080 
# 
# From -- ./inp_files/9837.got.cif
#   From: 2010.05.17/outbox.cif.g08.bks.cpg/sg55_5_cif.got.tgz:9837.got - 2010.06.03 13:27:54.
