data_PCOD9424637
_publ_section_title
;
Structure prediction by ZEFSAII (Michael W. Deem and Ramdas Pophale) SiO2 
 PCOD9424637
Probable space group: P C C A
;
_chemical_formula_sum "Si O2"
_cell_formula_units_Z 48
_cell_length_a 27.000000
_cell_length_b 6.000000
_cell_length_c 15.000000
_cell_angle_alpha 90.000000
_cell_angle_beta 90.000000
_cell_angle_gamma 90.000000
_cell_volume 2430.000000
_symmetry_space_group_name_H-M "P C C A"
_symmetry_group_IT_number 54
_symmetry_cell_setting 'orthorhombic'
loop_
_space_group_symop_operation_xyz
x,y,z
1/2-x,-y,z
1/2+x,-y,1/2-z
-x,y,1/2-z
-x,-y,-z
1/2+x,y,-z
1/2-x,y,1/2+z
x,-y,1/2+z
loop_
_atom_site_type_symbol
_atom_site_label
_atom_site_fract_x
_atom_site_fract_y
_atom_site_fract_z
Si Si1 0.897077 0.823342 0.667300
Si Si2 0.161829 0.563750 0.232616
Si Si3 0.448061 0.362821 0.007051
Si Si4 0.647262 0.675478 0.443384
Si Si5 0.302001 0.136703 0.382436
Si Si6 0.411481 0.063037 0.156498
O O1 0.870162 0.603857 0.706287
O O2 0.933018 0.763309 0.584893
O O3 0.850554 0.979157 0.636184
O O4 0.925760 0.931256 0.752639
O O5 0.176186 0.432391 0.141707
O O6 0.199709 0.691391 0.298381
O O7 0.124935 0.749551 0.194565
O O8 0.399539 0.520344 0.026239
O O9 0.449595 0.188000 0.090226
O O10 0.500000 0.500000 0.000000
O O11 0.682974 0.734334 0.526264
O O12 0.620796 0.895925 0.404329
O O13 0.250000 0.000000 0.389181
#
# Coordination Sequence:
#
# PCOD9424637 Si02
#       6
#     8   8   8   8   8   8
#     4  10  20  41  66  89 136 169 213 287 334 388
#     4   9  20  40  64  89 132 174 207 277 334 386
#     4  11  22  39  68  98 127 174 225 270 340 409
#     4  10  20  41  65  93 134 165 218 286 331 384
#     4  11  22  39  68  98 126 175 226 267 339 403
#     4   9  20  40  65  90 129 173 210 273 336 383
#
# _framework density 19.753086
#
# number of rings (size 3 to 8) (size 9 to 14) (size 15 to 20)
#    0.000    2.000    3.333    0.000    0.000    1.333 
#    0.000   18.333    3.667    0.000    0.000    0.000 
#    0.000    0.000    0.000    0.000    0.000    0.000 
#
# Total GULP energy -267786.570371 kJ/mol
# GULP energy per Si atom -5578.886883 kJ/mol
# Density = 1.970813 g / cm^3
# Si number density = 19.753086 Si / 1000 Ang^3
#
#
#
# Elastic Constant Matrix: (Units=GPa)
#
#
# Indices 1 2 3 4 5 6 
#
# 1 92.8411 29.5021 66.7110 0.0000 0.0000 0.0000
# 2 29.5021 93.9386 63.8761 0.0000 0.0000 0.0000
# 3 66.7110 63.8761 191.5793 0.0000 0.0000 0.0000
# 4 0.0000 0.0000 0.0000 58.2509 0.0000 0.0000
# 5 0.0000 0.0000 0.0000 0.0000 23.6174 0.0000
# 6 0.0000 0.0000 0.0000 0.0000 0.0000 39.0401
#
#
#
# Elastic Compliance Matrix: (Units=1/GPa)
#
#
# Indices 1 2 3 4 5 6 
#
# 1 0.014517 -0.001451 -0.004571 0.000000 0.000000 0.000000
# 2 -0.001451 0.013911 -0.004133 0.000000 0.000000 0.000000
# 3 -0.004571 -0.004133 0.008190 0.000000 0.000000 0.000000
# 4 0.000000 0.000000 0.000000 0.017167 0.000000 0.000000
# 5 0.000000 0.000000 0.000000 0.000000 0.042342 0.000000
# 6 0.000000 0.000000 0.000000 0.000000 0.000000 0.025615
#
#
# Mechanical properties :
#
#
# Convention : Reuss Voigt Hill
#
# Bulk Modulus (GPa) = 61.32170 77.61524 69.46847
# Shear Modulus (GPa) = 33.90125 38.73300 36.31712
#
# Velocity S-wave (km/s) = 4.14726 4.43296 4.29249
# Velocity P-wave (km/s) = 7.35150 8.09812 7.73382
#
# Compressibility (1/GPa) = 0.01630744
#
# Stress axis : x y z
#
# Youngs Moduli (GPa) = 68.88582 71.88407 122.10584
#
# Poissons Ratio (x) = 0.10428 0.55818
# Poissons Ratio (y) = 0.09994 0.50468
# Poissons Ratio (z) = 0.31490 0.29710
#
# Static dielectric constant tensor:
#      x y z
#    x 1.643660 0.000000 0.000000 
#    y 0.000000 1.752910 0.000000 
#    z 0.000000 0.000000 1.724090 
# 
# From -- ./inp_files/15145.got.cif
#   From: 2010.05.17/outbox.ucp.g08.bks.cvg/sg54_8_cif.got.tgz:15145.got - 2010.06.11 16:34:40.
