data_PCOD9424675
_publ_section_title
;
Structure prediction by ZEFSAII (Michael W. Deem and Ramdas Pophale) SiO2 
 PCOD9424675
Probable space group: P C C A
;
_chemical_formula_sum "Si O2"
_cell_formula_units_Z 40
_cell_length_a 18.000000
_cell_length_b 9.000000
_cell_length_c 12.000000
_cell_angle_alpha 90.000000
_cell_angle_beta 90.000000
_cell_angle_gamma 90.000000
_cell_volume 1944.000000
_symmetry_space_group_name_H-M "P C C A"
_symmetry_group_IT_number 54
_symmetry_cell_setting 'orthorhombic'
loop_
_space_group_symop_operation_xyz
x,y,z
1/2-x,-y,z
1/2+x,-y,1/2-z
-x,y,1/2-z
-x,-y,-z
1/2+x,y,-z
1/2-x,y,1/2+z
x,-y,1/2+z
loop_
_atom_site_type_symbol
_atom_site_label
_atom_site_fract_x
_atom_site_fract_y
_atom_site_fract_z
Si Si1 0.578702 0.212723 0.812953
Si Si2 0.335412 0.562031 0.350220
Si Si3 0.329182 0.077215 0.245820
Si Si4 0.123190 0.260482 0.950896
Si Si5 0.724278 0.328407 0.428962
O O1 0.500000 0.208836 0.750000
O O2 0.630342 0.336846 0.748141
O O3 0.620201 0.052997 0.806415
O O4 0.568073 0.249477 0.944337
O O5 0.250000 0.500000 0.333030
O O6 0.381778 0.415165 0.382662
O O7 0.330700 0.655021 0.465415
O O8 0.370466 0.135260 0.356745
O O9 0.309153 0.220036 0.165969
O O10 0.250000 0.000000 0.273107
O O11 0.201952 0.258264 0.017100
O O12 0.750000 0.500000 0.400505
#
# Coordination Sequence:
#
# PCOD9424675 Si02
#       5
#     8   8   8   8   8
#     4  12  28  45  66 104 149 182 224 288 358 421
#     4   9  22  43  73  98 132 180 240 293 331 412
#     4  12  24  39  70  98 140 177 234 290 342 413
#     4  10  24  40  67  97 128 181 232 283 347 396
#     4   9  21  39  70 103 131 171 238 295 333 394
#
# _framework density 20.576132000000001
#
# number of rings (size 3 to 8) (size 9 to 14) (size 15 to 20)
#    0.000    2.000    2.000    2.400   11.200    3.200 
#    0.000    1.000    0.000    0.000    0.000    0.000 
#    0.000    0.000    0.000    0.000    0.000    0.000 
#
# Total GULP energy -223349.629477 kJ/mol
# GULP energy per Si atom -5583.740737 kJ/mol
# Density = 2.052930 g / cm^3
# Si number density = 20.576132 Si / 1000 Ang^3
#
#
#
# Elastic Constant Matrix: (Units=GPa)
#
#
# Indices 1 2 3 4 5 6 
#
# 1 36.4449 15.4548 -9.2167 0.0000 0.0000 0.0000
# 2 15.4548 119.0278 55.7046 0.0000 0.0000 0.0000
# 3 -9.2167 55.7046 126.9919 0.0000 0.0000 0.0000
# 4 0.0000 0.0000 0.0000 38.8946 0.0000 0.0000
# 5 0.0000 0.0000 0.0000 0.0000 19.2461 0.0000
# 6 0.0000 0.0000 0.0000 0.0000 0.0000 19.4522
#
#
#
# Elastic Compliance Matrix: (Units=1/GPa)
#
#
# Indices 1 2 3 4 5 6 
#
# 1 0.031489 -0.006491 0.005132 0.000000 0.000000 0.000000
# 2 -0.006491 0.011909 -0.005695 0.000000 0.000000 0.000000
# 3 0.005132 -0.005695 0.010745 0.000000 0.000000 0.000000
# 4 0.000000 0.000000 0.000000 0.025711 0.000000 0.000000
# 5 0.000000 0.000000 0.000000 0.000000 0.051959 0.000000
# 6 0.000000 0.000000 0.000000 0.000000 0.000000 0.051408
#
#
# Mechanical properties :
#
#
# Convention : Reuss Voigt Hill
#
# Bulk Modulus (GPa) = 24.97678 45.15000 35.06339
# Shear Modulus (GPa) = 23.73349 30.22006 26.97678
#
# Velocity S-wave (km/s) = 3.39993 3.83651 3.62480
# Velocity P-wave (km/s) = 5.25145 6.45102 5.88190
#
# Compressibility (1/GPa) = 0.04003718
#
# Stress axis : x y z
#
# Youngs Moduli (GPa) = 31.75711 83.96708 93.06523
#
# Poissons Ratio (x) = 0.54499 -0.47765
# Poissons Ratio (y) = 0.20612 0.53002
# Poissons Ratio (z) = -0.16299 0.47820
#
# Static dielectric constant tensor:
#      x y z
#    x 1.738000 0.000000 0.000000 
#    y 0.000000 1.751890 0.000000 
#    z 0.000000 0.000000 1.803530 
# 
# From -- ./inp_files/8707.got.cif
#   From: 2010.05.17/outbox.ucp.g08.bks.cvg/sg54_5_cif.got.tgz:8707.got - 2010.06.11 16:34:40.
