data_PCOD9424085
_publ_section_title
;
Structure prediction by ZEFSAII (Michael W. Deem and Ramdas Pophale) SiO2 
 PCOD9424085
Probable space group: P C C A
;
_chemical_formula_sum "Si O2"
_cell_formula_units_Z 60
_cell_length_a 23.420651
_cell_length_b 10.043578
_cell_length_c 10.980830
_cell_angle_alpha 90.000000
_cell_angle_beta 90.000000
_cell_angle_gamma 90.000000
_cell_volume 2582.989182
_symmetry_space_group_name_H-M "P C C A"
_symmetry_group_IT_number 54
_symmetry_cell_setting 'orthorhombic'
loop_
_space_group_symop_operation_xyz
x,y,z
1/2-x,-y,z
1/2+x,-y,1/2-z
-x,y,1/2-z
-x,-y,-z
1/2+x,y,-z
1/2-x,y,1/2+z
x,-y,1/2+z
loop_
_atom_site_type_symbol
_atom_site_label
_atom_site_fract_x
_atom_site_fract_y
_atom_site_fract_z
Si Si1 0.250000 0.500000 0.279643
Si Si2 0.123571 0.172409 0.380221
Si Si3 0.321181 0.713014 0.149899
Si Si4 0.352089 0.351466 0.386689
Si Si5 0.523263 0.139078 0.445303
Si Si6 0.473347 0.578144 0.884325
Si Si7 0.878926 0.908841 0.257027
Si Si8 0.216922 0.880911 0.055742
O O1 0.295527 0.574272 0.195229
O O2 0.289399 0.407827 0.362901
O O3 0.134794 0.237259 0.250889
O O4 0.179153 0.202810 0.462175
O O5 0.067127 0.201875 0.455728
O O6 0.121081 0.014454 0.351225
O O7 0.264092 0.800948 0.130401
O O8 0.352039 0.705882 0.021816
O O9 0.405620 0.450372 0.377494
O O10 0.363123 0.236327 0.289772
O O11 0.482022 0.261799 0.409748
O O12 0.438177 0.098066 0.170706
O O13 0.500000 0.000000 0.500000
O O14 0.500000 0.550195 0.750000
O O15 0.500000 0.500000 0.000000
O O16 0.829403 0.944554 0.353227
O O17 0.250000 0.000000 0.988360
#
# Coordination Sequence:
#
# PCOD9424085 Si02
#       8
#     4   8   8   8   8   8   8   8
#     4  12  28  48  74 104 150 198 258 316 380 476
#     4  11  26  40  73 108 149 185 252 306 383 472
#     4  12  26  43  70 107 141 195 248 307 379 461
#     4  12  27  48  76 105 152 193 254 316 394 454
#     4  11  27  50  80 112 153 202 260 330 399 471
#     4  12  30  55  84 114 159 214 269 334 403 481
#     4  11  23  46  71 109 151 193 245 318 389 464
#     4  11  22  39  65 100 147 188 234 292 374 449
#
# _framework density 23.228902000000001
#
# number of rings (size 3 to 8) (size 9 to 14) (size 15 to 20)
#    0.000    0.533    4.000    2.800    9.333    0.000 
#    0.000    0.000    0.000    0.000    0.000    0.000 
#    0.000    0.000    0.000    0.000    0.000    0.000 
#
# Total GULP energy -335763.123427 kJ/mol
# GULP energy per Si atom -5596.052057 kJ/mol
# Density = 2.317603 g / cm^3
# Si number density = 23.228902 Si / 1000 Ang^3
#
#
#
# Elastic Constant Matrix: (Units=GPa)
#
#
# Indices 1 2 3 4 5 6 
#
# 1 110.0855 11.4551 41.1473 0.0000 0.0000 0.0000
# 2 11.4551 54.8352 15.3684 0.0000 0.0000 0.0000
# 3 41.1473 15.3684 105.2251 0.0000 0.0000 0.0000
# 4 0.0000 0.0000 0.0000 29.9545 0.0000 0.0000
# 5 0.0000 0.0000 0.0000 0.0000 37.1766 0.0000
# 6 0.0000 0.0000 0.0000 0.0000 0.0000 24.8124
#
#
#
# Elastic Compliance Matrix: (Units=1/GPa)
#
#
# Indices 1 2 3 4 5 6 
#
# 1 0.010703 -0.001108 -0.004023 0.000000 0.000000 0.000000
# 2 -0.001108 0.019130 -0.002361 0.000000 0.000000 0.000000
# 3 -0.004023 -0.002361 0.011422 0.000000 0.000000 0.000000
# 4 0.000000 0.000000 0.000000 0.033384 0.000000 0.000000
# 5 0.000000 0.000000 0.000000 0.000000 0.026899 0.000000
# 6 0.000000 0.000000 0.000000 0.000000 0.000000 0.040302
#
#
# Mechanical properties :
#
#
# Convention : Reuss Voigt Hill
#
# Bulk Modulus (GPa) = 38.06678 45.12083 41.59380
# Shear Modulus (GPa) = 30.19684 31.86703 31.03194
#
# Velocity S-wave (km/s) = 3.60942 3.70789 3.65899
# Velocity P-wave (km/s) = 5.81324 6.14800 5.98296
#
# Compressibility (1/GPa) = 0.02626962
#
# Stress axis : x y z
#
# Youngs Moduli (GPa) = 93.43135 52.27511 87.55383
#
# Poissons Ratio (x) = 0.05793 0.35227
# Poissons Ratio (y) = 0.10354 0.20668
# Poissons Ratio (z) = 0.37592 0.12340
#
# Static dielectric constant tensor:
#      x y z
#    x 1.881110 0.000000 0.000000 
#    y 0.000000 1.941590 0.000000 
#    z 0.000000 0.000000 1.949560 
# 
# From -- ./inp_files/9594.got.cif
#   From: 2010.05.17/outbox.cif.g08.bks.cpg/sg54_5_cif.got.tgz:9594.got - 2010.06.03 13:09:01.
