data_PCOD9424202
_publ_section_title
;
Structure prediction by ZEFSAII (Michael W. Deem and Ramdas Pophale) SiO2 
 PCOD9424202
Probable space group: P C C A
;
_chemical_formula_sum "Si O2"
_cell_formula_units_Z 40
_cell_length_a 20.718469
_cell_length_b 5.104252
_cell_length_c 17.833342
_cell_angle_alpha 90.000000
_cell_angle_beta 90.000000
_cell_angle_gamma 90.000000
_cell_volume 1885.916698
_symmetry_space_group_name_H-M "P C C A"
_symmetry_group_IT_number 54
_symmetry_cell_setting 'orthorhombic'
loop_
_space_group_symop_operation_xyz
x,y,z
1/2-x,-y,z
1/2+x,-y,1/2-z
-x,y,1/2-z
-x,-y,-z
1/2+x,y,-z
1/2-x,y,1/2+z
x,-y,1/2+z
loop_
_atom_site_type_symbol
_atom_site_label
_atom_site_fract_x
_atom_site_fract_y
_atom_site_fract_z
Si Si1 0.250000 0.000000 0.178886
Si Si2 0.750000 0.500000 0.928378
Si Si3 0.951885 0.493213 0.679686
Si Si4 0.047938 0.006995 0.429502
Si Si5 0.688017 0.176174 0.538817
Si Si6 0.312330 0.326679 0.788667
O O1 0.249713 0.750208 0.125141
O O2 0.308502 0.929113 0.235723
O O3 0.808303 0.431159 0.985598
O O4 0.963103 0.743806 0.625355
O O5 0.880103 0.526585 0.714343
O O6 0.000000 0.479925 0.750000
O O7 0.955789 0.243815 0.624862
O O8 0.119775 0.033780 0.464254
O O9 0.000000 0.000000 0.500000
O O10 0.696197 0.251624 0.625083
O O11 0.750000 0.000000 0.519597
O O12 0.250000 0.500000 0.769085
#
# Coordination Sequence:
#
# PCOD9424202 Si02
#       6
#     4   4   8   8   8   8
#     4  12  26  40  62 106 142 172 220 298 360 402
#     4  12  26  40  62 106 144 172 218 296 362 396
#     4  11  26  46  73 103 142 192 240 293 360 429
#     4  11  26  46  73 103 142 191 241 295 355 426
#     4  11  23  43  75  99 137 186 242 281 350 435
#     4  11  23  43  75  99 138 185 240 284 352 434
#
# _framework density 21.209845000000001
#
# number of rings (size 3 to 8) (size 9 to 14) (size 15 to 20)
#    0.000    0.800    4.000    2.400    5.600    3.200 
#    0.000    0.000    0.000    0.000    0.000    0.000 
#    0.000    0.000    0.000    0.000    0.000    0.000 
#
# Total GULP energy -223338.615292 kJ/mol
# GULP energy per Si atom -5583.465382 kJ/mol
# Density = 2.116157 g / cm^3
# Si number density = 21.209845 Si / 1000 Ang^3
#
#
#
# Elastic Constant Matrix: (Units=GPa)
#
#
# Indices 1 2 3 4 5 6 
#
# 1 176.0136 77.1977 92.5449 0.0000 0.0000 0.0000
# 2 77.1977 186.7158 89.2285 0.0000 0.0000 0.0000
# 3 92.5449 89.2285 174.3655 0.0000 0.0000 0.0000
# 4 0.0000 0.0000 0.0000 47.5833 0.0000 0.0000
# 5 0.0000 0.0000 0.0000 0.0000 0.6865 0.0000
# 6 0.0000 0.0000 0.0000 0.0000 0.0000 24.2790
#
#
#
# Elastic Compliance Matrix: (Units=1/GPa)
#
#
# Indices 1 2 3 4 5 6 
#
# 1 0.008293 -0.001754 -0.003504 0.000000 0.000000 0.000000
# 2 -0.001754 0.007461 -0.002887 0.000000 0.000000 0.000000
# 3 -0.003504 -0.002887 0.009072 0.000000 0.000000 0.000000
# 4 0.000000 0.000000 0.000000 0.021016 0.000000 0.000000
# 5 0.000000 0.000000 0.000000 0.000000 1.456582 0.000000
# 6 0.000000 0.000000 0.000000 0.000000 0.000000 0.041188
#
#
# Mechanical properties :
#
#
# Convention : Reuss Voigt Hill
#
# Bulk Modulus (GPa) = 117.15248 117.22634 117.18941
# Shear Modulus (GPa) = 3.19949 33.05137 18.12543
#
# Velocity S-wave (km/s) = 1.22954 3.95182 2.92649
# Velocity P-wave (km/s) = 7.57434 8.72996 8.17260
#
# Compressibility (1/GPa) = 0.00853588
#
# Stress axis : x y z
#
# Youngs Moduli (GPa) = 120.58284 134.03799 110.23006
#
# Poissons Ratio (x) = 0.23515 0.38622
# Poissons Ratio (y) = 0.21155 0.31820
# Poissons Ratio (z) = 0.42250 0.38693
#
# Static dielectric constant tensor:
#      x y z
#    x 1.860870 0.000000 0.000000 
#    y 0.000000 1.874900 0.000000 
#    z 0.000000 0.000000 1.763160 
# 
# From -- ./inp_files/14871.got.cif
#   From: 2010.05.17/outbox.cif.g08.bks.cpg/sg54_8_cif.got.tgz:14871.got - 2010.06.03 13:09:01.
