data_PCOD9424666
_publ_section_title
;
Structure prediction by ZEFSAII (Michael W. Deem and Ramdas Pophale) SiO2 
 PCOD9424666
Probable space group: P C C A
;
_chemical_formula_sum "Si O2"
_cell_formula_units_Z 56
_cell_length_a 15.000000
_cell_length_b 12.000000
_cell_length_c 15.000000
_cell_angle_alpha 90.000000
_cell_angle_beta 90.000000
_cell_angle_gamma 90.000000
_cell_volume 2700.000000
_symmetry_space_group_name_H-M "P C C A"
_symmetry_group_IT_number 54
_symmetry_cell_setting 'orthorhombic'
loop_
_space_group_symop_operation_xyz
x,y,z
1/2-x,-y,z
1/2+x,-y,1/2-z
-x,y,1/2-z
-x,-y,-z
1/2+x,y,-z
1/2-x,y,1/2+z
x,-y,1/2+z
loop_
_atom_site_type_symbol
_atom_site_label
_atom_site_fract_x
_atom_site_fract_y
_atom_site_fract_z
Si Si1 0.769577 0.745113 0.174140
Si Si2 0.397650 0.429091 0.430559
Si Si3 0.927496 0.092335 0.683417
Si Si4 0.943702 0.252685 0.926631
Si Si5 0.848133 0.464620 0.880766
Si Si6 0.592710 0.610253 0.223716
Si Si7 0.330116 0.079710 0.952107
O O1 0.826384 0.649352 0.122247
O O2 0.843840 0.830159 0.218768
O O3 0.683831 0.685130 0.221951
O O4 0.722712 0.828295 0.104675
O O5 0.484393 0.351658 0.453026
O O6 0.364160 0.475617 0.524709
O O7 0.411381 0.538356 0.367924
O O8 0.000000 0.035993 0.750000
O O9 0.993294 0.181328 0.637400
O O10 0.886429 0.002892 0.613479
O O11 0.866065 0.332919 0.888497
O O12 0.896520 0.157483 0.988259
O O13 0.750000 0.500000 0.854285
O O14 0.904750 0.517052 0.801226
O O15 0.500000 0.673465 0.250000
O O16 0.250000 0.000000 0.993279
#
# Coordination Sequence:
#
# PCOD9424666 Si02
#       7
#     8   8   8   8   8   8   8
#     4  10  23  43  69  92 141 185 215 286 356 390
#     4  11  23  43  62  99 142 179 224 280 343 412
#     4  10  24  43  70  96 130 176 231 282 345 406
#     4  11  23  39  71  91 132 177 222 276 349 400
#     4  12  25  39  65 104 135 180 230 269 337 429
#     4  12  25  40  66 102 146 182 227 273 336 429
#     4  10  22  45  67  95 125 176 233 289 349 402
#
# _framework density 20.740741
#
# number of rings (size 3 to 8) (size 9 to 14) (size 15 to 20)
#    0.000    1.143    1.429    4.714    8.000    0.571 
#    0.000    2.143    0.000    0.000    0.000    0.000 
#    0.000    0.000    0.000    0.000    0.000    0.000 
#
# Total GULP energy -312031.209685 kJ/mol
# GULP energy per Si atom -5571.985887 kJ/mol
# Density = 2.069353 g / cm^3
# Si number density = 20.740741 Si / 1000 Ang^3
#
#
#
# Elastic Constant Matrix: (Units=GPa)
#
#
# Indices 1 2 3 4 5 6 
#
# 1 153.2798 41.6503 18.9285 0.0000 0.0000 0.0000
# 2 41.6503 82.3080 -16.5660 0.0000 0.0000 0.0000
# 3 18.9285 -16.5660 24.4730 0.0000 0.0000 0.0000
# 4 0.0000 0.0000 0.0000 33.2193 0.0000 0.0000
# 5 0.0000 0.0000 0.0000 0.0000 36.2595 0.0000
# 6 0.0000 0.0000 0.0000 0.0000 0.0000 47.0267
#
#
#
# Elastic Compliance Matrix: (Units=1/GPa)
#
#
# Indices 1 2 3 4 5 6 
#
# 1 0.010318 -0.007904 -0.013331 0.000000 0.000000 0.000000
# 2 -0.007904 0.020121 0.019734 0.000000 0.000000 0.000000
# 3 -0.013331 0.019734 0.064530 0.000000 0.000000 0.000000
# 4 0.000000 0.000000 0.000000 0.030103 0.000000 0.000000
# 5 0.000000 0.000000 0.000000 0.000000 0.027579 0.000000
# 6 0.000000 0.000000 0.000000 0.000000 0.000000 0.021265
#
#
# Mechanical properties :
#
#
# Convention : Reuss Voigt Hill
#
# Bulk Modulus (GPa) = 10.87356 38.67627 24.77492
# Shear Modulus (GPa) = 24.08774 37.70432 30.89603
#
# Velocity S-wave (km/s) = 3.41159 4.26829 3.86376
# Velocity P-wave (km/s) = 4.55770 6.55584 5.64587
#
# Compressibility (1/GPa) = 0.09196617
#
# Stress axis : x y z
#
# Youngs Moduli (GPa) = 96.91709 49.69899 15.49663
#
# Poissons Ratio (x) = 0.39284 0.20659
# Poissons Ratio (y) = 0.76607 -0.30581
# Poissons Ratio (z) = 1.29200 -0.98075
#
# Static dielectric constant tensor:
#      x y z
#    x 1.839890 0.000000 0.000000 
#    y 0.000000 1.714610 0.000000 
#    z 0.000000 0.000000 1.781680 
# 
# From -- ./inp_files/13495.got.cif
#   From: 2010.05.17/outbox.ucp.g08.bks.cvg/sg54_7_cif.got.tgz:13495.got - 2010.06.11 16:34:40.
