data_PCOD9424006
_publ_section_title
;
Structure prediction by ZEFSAII (Michael W. Deem and Ramdas Pophale) SiO2 
 PCOD9424006
Probable space group: P C C A
;
_chemical_formula_sum "Si O2"
_cell_formula_units_Z 60
_cell_length_a 7.765157
_cell_length_b 15.586322
_cell_length_c 23.565611
_cell_angle_alpha 90.000000
_cell_angle_beta 90.000000
_cell_angle_gamma 90.000000
_cell_volume 2852.151493
_symmetry_space_group_name_H-M "P C C A"
_symmetry_group_IT_number 54
_symmetry_cell_setting 'orthorhombic'
loop_
_space_group_symop_operation_xyz
x,y,z
1/2-x,-y,z
1/2+x,-y,1/2-z
-x,y,1/2-z
-x,-y,-z
1/2+x,y,-z
1/2-x,y,1/2+z
x,-y,1/2+z
loop_
_atom_site_type_symbol
_atom_site_label
_atom_site_fract_x
_atom_site_fract_y
_atom_site_fract_z
Si Si1 0.500000 0.203275 0.250000
Si Si2 0.528019 0.043932 0.899469
Si Si3 0.495347 0.570516 0.928145
Si Si4 0.352998 0.870629 0.558628
Si Si5 0.992410 0.735152 0.371110
Si Si6 0.589963 0.610183 0.057086
Si Si7 0.823965 0.915325 0.775760
Si Si8 0.835580 0.796885 0.566704
O O1 0.451029 0.254477 0.306578
O O2 0.335521 0.148088 0.230218
O O3 0.669286 0.083150 0.942042
O O4 0.611575 0.050599 0.837197
O O5 0.379126 0.114854 0.900763
O O6 0.513393 0.946246 0.922019
O O7 0.563107 0.638574 0.883387
O O8 0.520304 0.469272 0.918323
O O9 0.289396 0.588640 0.929915
O O10 0.567172 0.598413 0.989455
O O11 0.347162 0.801218 0.608821
O O12 0.364157 0.822737 0.498848
O O13 0.146103 0.766823 0.413487
O O14 0.555770 0.708319 0.075133
O O15 0.000000 0.879371 0.750000
O O16 0.750000 0.000000 0.744207
#
# Coordination Sequence:
#
# PCOD9424006 Si02
#       8
#     4   8   8   8   8   8   8   8
#     4  12  24  44  64  90 124 166 226 270 314 378
#     4  11  23  39  52  82 122 162 202 253 312 363
#     4   9  18  34  55  89 119 151 193 251 311 375
#     4  11  21  37  54  83 123 159 200 249 308 368
#     4  11  22  38  60  88 120 161 209 255 315 374
#     4   9  18  32  56  87 119 152 192 245 313 377
#     4  12  23  41  63  86 118 166 224 275 308 360
#     4  11  22  35  58  89 119 161 197 252 313 385
#
# _framework density 21.036750000000001
#
# number of rings (size 3 to 8) (size 9 to 14) (size 15 to 20)
#    0.000    1.333    4.667    2.000    1.867    1.600 
#    0.000    0.000    0.000    0.000   15.600    0.000 
#    0.000    0.000    0.000    0.000    0.000    0.000 
#
# Total GULP energy -334302.825697 kJ/mol
# GULP energy per Si atom -5571.713762 kJ/mol
# Density = 2.098887 g / cm^3
# Si number density = 21.036750 Si / 1000 Ang^3
#
#
#
# Elastic Constant Matrix: (Units=GPa)
#
#
# Indices 1 2 3 4 5 6 
#
# 1 49.4793 18.3307 1.3221 0.0000 0.0000 0.0000
# 2 18.3307 134.1058 35.5957 0.0000 0.0000 0.0000
# 3 1.3221 35.5957 97.7354 0.0000 0.0000 0.0000
# 4 0.0000 0.0000 0.0000 29.6691 0.0000 0.0000
# 5 0.0000 0.0000 0.0000 0.0000 11.1151 0.0000
# 6 0.0000 0.0000 0.0000 0.0000 0.0000 19.6393
#
#
#
# Elastic Compliance Matrix: (Units=1/GPa)
#
#
# Indices 1 2 3 4 5 6 
#
# 1 0.021353 -0.003146 0.000857 0.000000 0.000000 0.000000
# 2 -0.003146 0.008718 -0.003133 0.000000 0.000000 0.000000
# 3 0.000857 -0.003133 0.011361 0.000000 0.000000 0.000000
# 4 0.000000 0.000000 0.000000 0.033705 0.000000 0.000000
# 5 0.000000 0.000000 0.000000 0.000000 0.089968 0.000000
# 6 0.000000 0.000000 0.000000 0.000000 0.000000 0.050918
#
#
# Mechanical properties :
#
#
# Convention : Reuss Voigt Hill
#
# Bulk Modulus (GPa) = 32.69173 43.53528 38.11350
# Shear Modulus (GPa) = 21.09136 27.15617 24.12376
#
# Velocity S-wave (km/s) = 3.16981 3.59680 3.39003
# Velocity P-wave (km/s) = 5.38247 6.16353 5.78619
#
# Compressibility (1/GPa) = 0.03058878
#
# Stress axis : x y z
#
# Youngs Moduli (GPa) = 46.83145 114.70048 88.02000
#
# Poissons Ratio (x) = 0.36087 -0.07543
# Poissons Ratio (y) = 0.14734 0.27574
# Poissons Ratio (z) = -0.04013 0.35932
#
# Static dielectric constant tensor:
#      x y z
#    x 9.335420 0.000000 0.000000 
#    y 0.000000 1.869080 0.000000 
#    z 0.000000 0.000000 1.784030 
# 
# From -- ./inp_files/23634.got.cif
#   From: 2010.05.17/outbox.cif.g08.bks.cpg/sg54_12_cif.got.tgz:23634.got - 2010.06.03 13:09:01.
