data_PCOD9424931
_publ_section_title
;
Structure prediction by ZEFSAII (Michael W. Deem and Ramdas Pophale) SiO2 
 PCOD9424931
Probable space group: P B A M
;
_chemical_formula_sum "Si O2"
_cell_formula_units_Z 56
_cell_length_a 19.780107
_cell_length_b 18.733297
_cell_length_c 7.530573
_cell_angle_alpha 90.000000
_cell_angle_beta 90.000000
_cell_angle_gamma 90.000000
_cell_volume 2790.428365
_symmetry_space_group_name_H-M "P B A M"
_symmetry_group_IT_number 55
_symmetry_cell_setting 'orthorhombic'
loop_
_space_group_symop_operation_xyz
x,y,z
-x,-y,z
1/2+x,1/2-y,-z
1/2-x,1/2+y,-z
-x,-y,-z
x,y,-z
1/2-x,1/2+y,z
1/2+x,1/2-y,z
loop_
_atom_site_type_symbol
_atom_site_label
_atom_site_fract_x
_atom_site_fract_y
_atom_site_fract_z
Si Si1 0.212258 0.479495 0.299791
Si Si2 0.460566 0.331796 0.282226
Si Si3 0.748115 0.862588 0.794553
Si Si4 0.105794 0.115662 0.286989
Si Si5 0.608964 0.811776 0.712160
Si Si6 0.357443 0.455681 0.282243
Si Si7 0.572805 0.971078 0.281944
O O1 0.205837 0.451014 0.500000
O O2 0.231882 0.563956 0.308218
O O3 0.279964 0.445470 0.219576
O O4 0.137168 0.481902 0.220289
O O5 0.460997 0.331179 0.500000
O O6 0.536231 0.350365 0.222363
O O7 0.432771 0.255553 0.220754
O O8 0.408744 0.394082 0.228989
O O9 0.825357 0.842620 0.757849
O O10 0.689065 0.807365 0.750152
O O11 0.742140 0.881250 0.000000
O O12 0.101374 0.112394 0.500000
O O13 0.116467 0.033867 0.224937
O O14 0.601117 0.812867 0.500000
O O15 0.584429 0.889374 0.776931
O O16 0.355238 0.456708 0.500000
O O17 0.575218 0.971607 0.500000
O O18 0.500000 0.000000 0.228288
#
# Coordination Sequence:
#
# PCOD9424931 Si02
#       7
#     8   8   8   8   8   8   8
#     4   8  14  26  45  66  86 110 142 182 225 266
#     4   9  16  26  44  70  94 115 143 183 228 272
#     4  10  18  29  46  64  84 115 153 186 218 262
#     4   9  16  28  47  69  91 115 144 180 223 268
#     4   9  17  30  46  65  90 118 150 188 228 269
#     4   8  13  23  42  68  93 115 142 176 217 267
#     4   8  13  23  41  63  85 110 143 184 224 257
#
# _framework density 20.068603
#
# number of rings (size 3 to 8) (size 9 to 14) (size 15 to 20)
#    0.000    3.286    0.000    3.429    0.000    1.714 
#    0.000    2.143    0.000   24.000    0.000    0.000 
#    0.000    0.000    0.000    0.000    0.000    0.000 
#
# Total GULP energy -312010.559617 kJ/mol
# GULP energy per Si atom -5571.617136 kJ/mol
# Density = 2.002293 g / cm^3
# Si number density = 20.068603 Si / 1000 Ang^3
#
#
#
# Elastic Constant Matrix: (Units=GPa)
#
#
# Indices 1 2 3 4 5 6 
#
# 1 233.2691 78.7537 -3.1030 0.0000 0.0000 0.0000
# 2 78.7537 68.5767 1.9700 0.0000 0.0000 0.0000
# 3 -3.1030 1.9700 54.5936 0.0000 0.0000 0.0000
# 4 0.0000 0.0000 0.0000 -12.3255 0.0000 0.0000
# 5 0.0000 0.0000 0.0000 0.0000 -21.8158 0.0000
# 6 0.0000 0.0000 0.0000 0.0000 0.0000 22.9010
#
#
#
# Elastic Compliance Matrix: (Units=1/GPa)
#
#
# Indices 1 2 3 4 5 6 
#
# 1 0.007027 -0.008090 0.000691 0.000000 0.000000 0.000000
# 2 -0.008090 0.023911 -0.001323 0.000000 0.000000 0.000000
# 3 0.000691 -0.001323 0.018404 0.000000 0.000000 0.000000
# 4 0.000000 0.000000 0.000000 -0.081133 0.000000 0.000000
# 5 0.000000 0.000000 0.000000 0.000000 -0.045838 0.000000
# 6 0.000000 0.000000 0.000000 0.000000 0.000000 0.043666
#
#
# Mechanical properties :
#
#
# Convention : Reuss Voigt Hill
#
# Bulk Modulus (GPa) = 31.34830 56.85344 44.10087
# Shear Modulus (GPa) = -849.40495 16.33987 -416.53254
#
# Velocity S-wave (km/s) = -20.59538 2.85652 -14.42238
# Velocity P-wave (km/s) = 23.45005 6.26663 15.97865
#
# Compressibility (1/GPa) = 0.03189966
#
# Stress axis : x y z
#
# Youngs Moduli (GPa) = 142.30028 41.82184 54.33550
#
# Poissons Ratio (x) = 0.33834 -0.03756
# Poissons Ratio (y) = 1.15123 0.07187
# Poissons Ratio (z) = -0.09838 0.05532
#
# Static dielectric constant tensor:
#      x y z
#    x 1.741740 0.000000 0.000000 
#    y 0.000000 1.668050 0.000000 
#    z 0.000000 0.000000 1.740710 
# 
# From -- ./inp_files/7857.got.cif
#   From: 2010.05.17/outbox.cif.g08.bks.cpg/sg55_4_cif.got.tgz:7857.got - 2010.06.03 13:27:54.
