data_PCOD9424808
_publ_section_title
;
Structure prediction by ZEFSAII (Michael W. Deem and Ramdas Pophale) SiO2 
 PCOD9424808
Probable space group: P B A M
;
_chemical_formula_sum "Si O2"
_cell_formula_units_Z 64
_cell_length_a 5.302587
_cell_length_b 27.186011
_cell_length_c 24.114978
_cell_angle_alpha 90.000000
_cell_angle_beta 90.000000
_cell_angle_gamma 90.000000
_cell_volume 3476.323314
_symmetry_space_group_name_H-M "P B A M"
_symmetry_group_IT_number 55
_symmetry_cell_setting 'orthorhombic'
loop_
_space_group_symop_operation_xyz
x,y,z
-x,-y,z
1/2+x,1/2-y,-z
1/2-x,1/2+y,-z
-x,-y,-z
x,y,-z
1/2-x,1/2+y,z
1/2+x,1/2-y,z
loop_
_atom_site_type_symbol
_atom_site_label
_atom_site_fract_x
_atom_site_fract_y
_atom_site_fract_z
Si Si1 0.910782 0.108239 0.565503
Si Si2 0.959339 0.220287 0.432548
Si Si3 0.259712 0.030810 0.272466
Si Si4 0.189262 0.137379 0.776764
Si Si5 0.305632 0.281409 0.060043
Si Si6 0.320605 0.817254 0.181333
Si Si7 0.697556 0.265275 0.280255
Si Si8 0.585137 0.946792 0.600909
O O1 0.848148 0.108644 0.500000
O O2 0.957100 0.163672 0.586256
O O3 0.667018 0.085876 0.596260
O O4 0.168604 0.077292 0.573187
O O5 0.961023 0.216943 0.500000
O O6 0.709707 0.250209 0.417976
O O7 0.224335 0.081625 0.239953
O O8 0.331032 0.044432 0.335613
O O9 0.500000 0.000000 0.250616
O O10 0.000000 0.000000 0.271402
O O11 0.409048 0.156048 0.818052
O O12 0.237053 0.177182 0.728185
O O13 0.904581 0.149352 0.794844
O O14 0.589414 0.260643 0.060425
O O15 0.255689 0.306712 0.118478
O O16 0.728585 0.692502 0.000000
O O17 0.330216 0.768230 0.222042
O O18 0.434879 0.257720 0.308907
O O19 0.500000 0.000000 0.577569
#
# Coordination Sequence:
#
# PCOD9424808 Si02
#       8
#     8   8   8   8   8   8   8   8
#     4  11  22  36  59  88 112 141 182 217 253 315
#     4   9  17  31  52  77 105 136 170 208 246 282
#     4  11  23  41  59  77 102 134 176 221 276 334
#     4  10  19  31  53  74  94 131 174 221 263 301
#     4  10  18  27  42  69 111 158 190 214 249 304
#     4  10  17  29  48  76 108 139 176 211 257 313
#     4   8  14  24  42  67  96 126 160 195 240 300
#     4  11  23  39  57  79 111 146 172 214 279 334
#
# _framework density 18.410256
#
# number of rings (size 3 to 8) (size 9 to 14) (size 15 to 20)
#    0.000    2.000    0.000    6.750    0.000    3.500 
#    0.000    0.000    0.000   13.500    0.000    0.000 
#    0.000   10.000    0.000    0.000    0.000    0.000 
#
# Total GULP energy -356880.402726 kJ/mol
# GULP energy per Si atom -5576.256293 kJ/mol
# Density = 1.836835 g / cm^3
# Si number density = 18.410256 Si / 1000 Ang^3
#
#
#
# Elastic Constant Matrix: (Units=GPa)
#
#
# Indices 1 2 3 4 5 6 
#
# 1 115.7773 47.4656 -0.2529 0.0000 0.0000 0.0000
# 2 47.4656 121.4297 25.6288 0.0000 0.0000 0.0000
# 3 -0.2529 25.6288 45.8975 0.0000 0.0000 0.0000
# 4 0.0000 0.0000 0.0000 13.0895 0.0000 0.0000
# 5 0.0000 0.0000 0.0000 0.0000 12.3155 0.0000
# 6 0.0000 0.0000 0.0000 0.0000 0.0000 28.8084
#
#
#
# Elastic Compliance Matrix: (Units=1/GPa)
#
#
# Indices 1 2 3 4 5 6 
#
# 1 0.010569 -0.004697 0.002681 0.000000 0.000000 0.000000
# 2 -0.004697 0.011423 -0.006404 0.000000 0.000000 0.000000
# 3 0.002681 -0.006404 0.025379 0.000000 0.000000 0.000000
# 4 0.000000 0.000000 0.000000 0.076397 0.000000 0.000000
# 5 0.000000 0.000000 0.000000 0.000000 0.081198 0.000000
# 6 0.000000 0.000000 0.000000 0.000000 0.000000 0.034712
#
#
# Mechanical properties :
#
#
# Convention : Reuss Voigt Hill
#
# Bulk Modulus (GPa) = 32.75512 47.64306 40.19909
# Shear Modulus (GPa) = 18.74799 24.86023 21.80411
#
# Velocity S-wave (km/s) = 3.19461 3.67869 3.44517
# Velocity P-wave (km/s) = 5.60694 6.63162 6.14069
#
# Compressibility (1/GPa) = 0.03052957
#
# Stress axis : x y z
#
# Youngs Moduli (GPa) = 94.61801 87.54289 39.40321
#
# Poissons Ratio (x) = 0.41120 -0.10564
# Poissons Ratio (y) = 0.44443 0.25235
# Poissons Ratio (z) = -0.25368 0.56066
#
# Static dielectric constant tensor:
#      x y z
#    x 1.666890 0.000000 0.000000 
#    y 0.000000 1.626460 0.000000 
#    z 0.000000 0.000000 1.682660 
# 
# From -- ./inp_files/23377.got.cif
#   From: 2010.05.17/outbox.cif.g08.bks.cpg/sg55_12_cif.got.tgz:23377.got - 2010.06.03 13:27:54.
