data_PCOD9424582
_publ_section_title
;
Structure prediction by ZEFSAII (Michael W. Deem and Ramdas Pophale) SiO2 
 PCOD9424582
Probable space group: P C C A
;
_chemical_formula_sum "Si O2"
_cell_formula_units_Z 24
_cell_length_a 8.227026
_cell_length_b 12.339846
_cell_length_c 9.061518
_cell_angle_alpha 90.000000
_cell_angle_beta 90.000000
_cell_angle_gamma 90.000000
_cell_volume 919.927427
_symmetry_space_group_name_H-M "P C C A"
_symmetry_group_IT_number 54
_symmetry_cell_setting 'orthorhombic'
loop_
_space_group_symop_operation_xyz
x,y,z
1/2-x,-y,z
1/2+x,-y,1/2-z
-x,y,1/2-z
-x,-y,-z
1/2+x,y,-z
1/2-x,y,1/2+z
x,-y,1/2+z
loop_
_atom_site_type_symbol
_atom_site_label
_atom_site_fract_x
_atom_site_fract_y
_atom_site_fract_z
Si Si1 0.895073 0.761594 0.605765
Si Si2 0.587006 0.094686 0.096776
Si Si3 0.894615 0.425194 0.892126
O O1 0.772333 0.864932 0.632941
O O2 0.823810 0.664731 0.505910
O O3 0.000000 0.730000 0.750000
O O4 0.029509 0.803668 0.494383
O O5 0.500000 0.083464 0.250000
O O6 0.500000 0.000000 0.000000
O O7 0.750000 0.500000 0.830904
O O8 0.000000 0.385639 0.750000
O O9 0.000000 0.500000 0.000000
#
# Coordination Sequence:
#
# PCOD9424582 Si02
#       3
#     8   8   8
#     4  12  27  50  79 112 155 207 259 317 387 461
#     4  12  27  49  77 112 153 201 258 323 389 461
#     4  12  27  49  78 114 158 206 259 318 384 460
#
# _framework density 26.089016000000001
#
# number of rings (size 3 to 8) (size 9 to 14) (size 15 to 20)
#    0.000    0.000    0.000    9.000    0.000   10.667 
#    0.000   11.667    0.000    0.000    0.000    0.000 
#    0.000    0.000    0.000    0.000    0.000    0.000 
#
# Total GULP energy -133840.133263 kJ/mol
# GULP energy per Si atom -5576.672219 kJ/mol
# Density = 2.602964 g / cm^3
# Si number density = 26.089016 Si / 1000 Ang^3
#
#
#
# Elastic Constant Matrix: (Units=GPa)
#
#
# Indices 1 2 3 4 5 6 
#
# 1 143.4856 59.5353 61.2007 0.0000 0.0000 0.0000
# 2 59.5353 113.3720 67.1313 0.0000 0.0000 0.0000
# 3 61.2007 67.1313 240.7385 0.0000 0.0000 0.0000
# 4 0.0000 0.0000 0.0000 20.7481 0.0000 0.0000
# 5 0.0000 0.0000 0.0000 0.0000 38.7815 0.0000
# 6 0.0000 0.0000 0.0000 0.0000 0.0000 48.1589
#
#
#
# Elastic Compliance Matrix: (Units=1/GPa)
#
#
# Indices 1 2 3 4 5 6 
#
# 1 0.009185 -0.004121 -0.001186 0.000000 0.000000 0.000000
# 2 -0.004121 0.012414 -0.002414 0.000000 0.000000 0.000000
# 3 -0.001186 -0.002414 0.005129 0.000000 0.000000 0.000000
# 4 0.000000 0.000000 0.000000 0.048197 0.000000 0.000000
# 5 0.000000 0.000000 0.000000 0.000000 0.025785 0.000000
# 6 0.000000 0.000000 0.000000 0.000000 0.000000 0.020765
#
#
# Mechanical properties :
#
#
# Convention : Reuss Voigt Hill
#
# Bulk Modulus (GPa) = 88.60872 97.03674 92.82273
# Shear Modulus (GPa) = 35.54185 42.18628 38.86406
#
# Velocity S-wave (km/s) = 3.69498 4.02557 3.86381
# Velocity P-wave (km/s) = 7.22783 7.67347 7.45398
#
# Compressibility (1/GPa) = 0.01128557
#
# Stress axis : x y z
#
# Youngs Moduli (GPa) = 108.87172 80.55318 194.98818
#
# Poissons Ratio (x) = 0.33198 0.23122
# Poissons Ratio (y) = 0.44869 0.47071
# Poissons Ratio (z) = 0.12910 0.19446
#
# Static dielectric constant tensor:
#      x y z
#    x 2.076210 0.000000 0.000000 
#    y 0.000000 2.112590 0.000000 
#    z 0.000000 0.000000 0.583380 
# 
# From -- ./inp_files/2433.got.cif
#   From: 2010.05.17/outbox.cif.g08.bks.cpg/sg54_2_cif.got.tgz:2433.got - 2010.06.03 13:09:01.
