data_PCOD9424678
_publ_section_title
;
Structure prediction by ZEFSAII (Michael W. Deem and Ramdas Pophale) SiO2 
 PCOD9424678
Probable space group: P C C A
;
_chemical_formula_sum "Si O2"
_cell_formula_units_Z 64
_cell_length_a 18.000000
_cell_length_b 12.000000
_cell_length_c 15.000000
_cell_angle_alpha 90.000000
_cell_angle_beta 90.000000
_cell_angle_gamma 90.000000
_cell_volume 3240.000000
_symmetry_space_group_name_H-M "P C C A"
_symmetry_group_IT_number 54
_symmetry_cell_setting 'orthorhombic'
loop_
_space_group_symop_operation_xyz
x,y,z
1/2-x,-y,z
1/2+x,-y,1/2-z
-x,y,1/2-z
-x,-y,-z
1/2+x,y,-z
1/2-x,y,1/2+z
x,-y,1/2+z
loop_
_atom_site_type_symbol
_atom_site_label
_atom_site_fract_x
_atom_site_fract_y
_atom_site_fract_z
Si Si1 0.659792 0.491280 0.504442
Si Si2 0.340856 0.507614 0.196781
Si Si3 0.147637 0.331019 0.853386
Si Si4 0.583055 0.901607 0.712194
Si Si5 0.817594 0.268031 0.098243
Si Si6 0.333262 0.031794 0.938934
Si Si7 0.589856 0.245723 0.768229
Si Si8 0.837421 0.968892 0.863213
O O1 0.750000 0.500000 0.503419
O O2 0.635493 0.475554 0.403161
O O3 0.629751 0.600270 0.555779
O O4 0.646760 0.379646 0.559870
O O5 0.250000 0.500000 0.199588
O O6 0.362663 0.421321 0.274259
O O7 0.377193 0.630493 0.208690
O O8 0.103408 0.219780 0.827867
O O9 0.234642 0.295546 0.866504
O O10 0.500000 0.907508 0.750000
O O11 0.608218 0.988924 0.634943
O O12 0.628514 0.936207 0.799936
O O13 0.868785 0.223608 0.176229
O O14 0.821097 0.161833 0.034288
O O15 0.250000 0.000000 0.905266
O O16 0.352950 0.973597 0.031642
O O17 0.500000 0.243712 0.750000
O O18 0.625223 0.148537 0.830685
O O19 0.750000 0.000000 0.855368
#
# Coordination Sequence:
#
# PCOD9424678 Si02
#       8
#     8   8   8   8   8   8   8   8
#     4   9  21  36  63 100 127 166 225 280 329 392
#     4  11  22  39  71  98 128 175 224 277 337 416
#     4  11  21  41  66  95 133 174 228 277 337 401
#     4  12  26  43  63  96 139 177 218 285 351 415
#     4  11  20  42  67  91 132 176 222 284 333 405
#     4  11  24  42  71 100 132 176 233 286 346 415
#     4  12  25  44  67  98 138 184 226 281 353 422
#     4  11  26  44  71 101 129 176 236 283 342 424
#
# _framework density 19.753086
#
# number of rings (size 3 to 8) (size 9 to 14) (size 15 to 20)
#    0.000    1.000    5.000    1.875    3.500    3.000 
#    0.000    0.625    0.000    0.000    0.000    0.000 
#    0.000    0.000    0.000    0.000    0.000    0.000 
#
# Total GULP energy -356575.017527 kJ/mol
# GULP energy per Si atom -5571.484649 kJ/mol
# Density = 1.970813 g / cm^3
# Si number density = 19.753086 Si / 1000 Ang^3
#
#
#
# Elastic Constant Matrix: (Units=GPa)
#
#
# Indices 1 2 3 4 5 6 
#
# 1 78.7608 28.2032 38.7828 0.0000 0.0000 0.0000
# 2 28.2032 140.3871 33.2189 0.0000 0.0000 0.0000
# 3 38.7828 33.2189 100.8438 0.0000 0.0000 0.0000
# 4 0.0000 0.0000 0.0000 425.3147 0.0000 0.0000
# 5 0.0000 0.0000 0.0000 0.0000 -72.7674 0.0000
# 6 0.0000 0.0000 0.0000 0.0000 0.0000 24.1175
#
#
#
# Elastic Compliance Matrix: (Units=1/GPa)
#
#
# Indices 1 2 3 4 5 6 
#
# 1 0.016127 -0.001922 -0.005569 0.000000 0.000000 0.000000
# 2 -0.001922 0.007954 -0.001881 0.000000 0.000000 0.000000
# 3 -0.005569 -0.001881 0.012678 0.000000 0.000000 0.000000
# 4 0.000000 0.000000 0.000000 0.002351 0.000000 0.000000
# 5 0.000000 0.000000 0.000000 0.000000 -0.013742 0.000000
# 6 0.000000 0.000000 0.000000 0.000000 0.000000 0.041464
#
#
# Mechanical properties :
#
#
# Convention : Reuss Voigt Hill
#
# Bulk Modulus (GPa) = 55.50971 57.82241 56.66606
# Shear Modulus (GPa) = 54.59625 89.98539 72.29082
#
# Velocity S-wave (km/s) = 5.26302 6.75677 6.05613
# Velocity P-wave (km/s) = 8.06816 9.49780 8.81202
#
# Compressibility (1/GPa) = 0.01801487
#
# Stress axis : x y z
#
# Youngs Moduli (GPa) = 62.00687 125.71641 78.87843
#
# Poissons Ratio (x) = 0.24164 0.43928
# Poissons Ratio (y) = 0.11918 0.14837
# Poissons Ratio (z) = 0.34532 0.23648
#
# Static dielectric constant tensor:
#      x y z
#    x 1.709840 0.000000 0.000000 
#    y 0.000000 1.781920 0.000000 
#    z 0.000000 0.000000 1.725060 
# 
# From -- ./inp_files/14323.got.cif
#   From: 2010.05.17/outbox.ucp.g08.bks.cvg/sg54_8_cif.got.tgz:14323.got - 2010.06.11 16:34:40.
