data_PCOD9424264
_publ_section_title
;
Structure prediction by ZEFSAII (Michael W. Deem and Ramdas Pophale) SiO2 
 PCOD9424264
Probable space group: P C C A
;
_chemical_formula_sum "Si O2"
_cell_formula_units_Z 24
_cell_length_a 8.639844
_cell_length_b 13.133716
_cell_length_c 9.710562
_cell_angle_alpha 90.000000
_cell_angle_beta 90.000000
_cell_angle_gamma 90.000000
_cell_volume 1101.889101
_symmetry_space_group_name_H-M "P C C A"
_symmetry_group_IT_number 54
_symmetry_cell_setting 'orthorhombic'
loop_
_space_group_symop_operation_xyz
x,y,z
1/2-x,-y,z
1/2+x,-y,1/2-z
-x,y,1/2-z
-x,-y,-z
1/2+x,y,-z
1/2-x,y,1/2+z
x,-y,1/2+z
loop_
_atom_site_type_symbol
_atom_site_label
_atom_site_fract_x
_atom_site_fract_y
_atom_site_fract_z
Si Si1 0.098584 0.063131 0.387229
Si Si2 0.069918 0.411760 0.899902
Si Si3 0.392980 0.297241 0.887619
O O1 0.153095 0.179957 0.408307
O O2 0.000000 0.067545 0.250000
O O3 0.250000 0.000000 0.361480
O O4 0.000000 0.000000 0.500000
O O5 0.250442 0.378794 0.884710
O O6 0.000000 0.429554 0.750000
O O7 0.000000 0.500000 0.000000
O O8 0.994618 0.316741 0.977191
O O9 0.500000 0.309064 0.750000
#
# Coordination Sequence:
#
# PCOD9424264 Si02
#       3
#     8   8   8
#     4  11  24  42  67 100 138 180 229 282 338 401
#     4  12  26  45  69  99 135 178 228 284 341 406
#     4  11  25  45  69  99 137 182 228 280 341 405
#
# _framework density 21.780775999999999
#
# number of rings (size 3 to 8) (size 9 to 14) (size 15 to 20)
#    0.000    0.667    0.000    7.000    0.000   13.333 
#    0.000    0.000    0.000    0.000    0.000    0.000 
#    0.000    0.000    0.000    0.000    0.000    0.000 
#
# Total GULP energy -133894.216913 kJ/mol
# GULP energy per Si atom -5578.925705 kJ/mol
# Density = 2.173120 g / cm^3
# Si number density = 21.780776 Si / 1000 Ang^3
#
#
#
# Elastic Constant Matrix: (Units=GPa)
#
#
# Indices 1 2 3 4 5 6 
#
# 1 147.1761 60.0729 27.8108 0.0000 0.0000 0.0000
# 2 60.0729 153.0541 33.8390 0.0000 0.0000 0.0000
# 3 27.8108 33.8390 130.9074 0.0000 0.0000 0.0000
# 4 0.0000 0.0000 0.0000 22.2285 0.0000 0.0000
# 5 0.0000 0.0000 0.0000 0.0000 32.3246 0.0000
# 6 0.0000 0.0000 0.0000 0.0000 0.0000 48.7178
#
#
#
# Elastic Compliance Matrix: (Units=1/GPa)
#
#
# Indices 1 2 3 4 5 6 
#
# 1 0.008204 -0.003007 -0.000966 0.000000 0.000000 0.000000
# 2 -0.003007 0.008032 -0.001437 0.000000 0.000000 0.000000
# 3 -0.000966 -0.001437 0.008216 0.000000 0.000000 0.000000
# 4 0.000000 0.000000 0.000000 0.044987 0.000000 0.000000
# 5 0.000000 0.000000 0.000000 0.000000 0.030936 0.000000
# 6 0.000000 0.000000 0.000000 0.000000 0.000000 0.020526
#
#
# Mechanical properties :
#
#
# Convention : Reuss Voigt Hill
#
# Bulk Modulus (GPa) = 73.35679 74.95366 74.15522
# Shear Modulus (GPa) = 36.69325 41.28185 38.98755
#
# Velocity S-wave (km/s) = 4.10892 4.35827 4.23543
# Velocity P-wave (km/s) = 7.50091 7.73392 7.61830
#
# Compressibility (1/GPa) = 0.01363200
#
# Stress axis : x y z
#
# Youngs Moduli (GPa) = 121.88754 124.50970 121.71799
#
# Poissons Ratio (x) = 0.37435 0.11755
# Poissons Ratio (y) = 0.36647 0.17495
# Poissons Ratio (z) = 0.11772 0.17897
#
# Static dielectric constant tensor:
#      x y z
#    x 1.702510 0.000000 0.000000 
#    y 0.000000 1.883760 0.000000 
#    z 0.000000 0.000000 1.849040 
# 
# From -- ./inp_files/2421.got.cif
#   From: 2010.05.17/outbox.cif.g08.bks.cpg/sg54_2_cif.got.tgz:2421.got - 2010.06.03 13:09:01.
