data_PCOD9424846
_publ_section_title
;
Structure prediction by ZEFSAII (Michael W. Deem and Ramdas Pophale) SiO2 
 PCOD9424846
Probable space group: P B A M
;
_chemical_formula_sum "Si O2"
_cell_formula_units_Z 52
_cell_length_a 9.373244
_cell_length_b 14.779500
_cell_length_c 16.870753
_cell_angle_alpha 90.000000
_cell_angle_beta 90.000000
_cell_angle_gamma 90.000000
_cell_volume 2337.136788
_symmetry_space_group_name_H-M "P B A M"
_symmetry_group_IT_number 55
_symmetry_cell_setting 'orthorhombic'
loop_
_space_group_symop_operation_xyz
x,y,z
-x,-y,z
1/2+x,1/2-y,-z
1/2-x,1/2+y,-z
-x,-y,-z
x,y,-z
1/2-x,1/2+y,z
1/2+x,1/2-y,z
loop_
_atom_site_type_symbol
_atom_site_label
_atom_site_fract_x
_atom_site_fract_y
_atom_site_fract_z
Si Si1 0.075387 0.372755 0.500000
Si Si2 0.500000 0.500000 0.138012
Si Si3 0.279955 0.593389 0.743082
Si Si4 0.603616 0.686937 0.088771
Si Si5 0.854596 0.237010 0.500000
Si Si6 0.343928 0.929129 0.677266
Si Si7 0.469965 0.402113 0.377190
Si Si8 0.860617 0.720730 0.192642
O O1 0.912667 0.338167 0.500000
O O2 0.188020 0.287882 0.500000
O O3 0.108823 0.420496 0.415359
O O4 0.630264 0.465106 0.193173
O O5 0.543142 0.586033 0.088052
O O6 0.149324 0.531863 0.711555
O O7 0.387841 0.613886 0.671100
O O8 0.266105 0.693496 0.777722
O O9 0.759751 0.677579 0.126369
O O10 0.499512 0.741017 0.148400
O O11 0.606680 0.725835 0.000000
O O12 0.926393 0.183728 0.572362
O O13 0.392822 0.848828 0.735812
O O14 0.170849 0.916149 0.675389
O O15 0.500000 0.500000 0.416897
#
# Coordination Sequence:
#
# PCOD9424846 Si02
#       8
#     4   4   8   8   4   8   8   8
#     4  10  22  32  56  82 121 156 202 258 296 354
#     4  10  17  36  62  89 114 154 202 251 288 354
#     4  10  17  32  58  87 114 154 204 245 294 353
#     4  11  23  40  64  95 123 155 203 252 308 366
#     4  10  19  32  46  82 114 150 194 251 310 345
#     4  10  18  36  53  86 121 157 200 249 301 357
#     4   9  16  29  54  81 111 143 205 261 291 335
#     4  11  22  37  65  89 124 164 197 252 307 364
#
# _framework density 22.249447
#
# number of rings (size 3 to 8) (size 9 to 14) (size 15 to 20)
#    0.000    1.846    3.846    2.769    0.000    3.077 
#    0.000    1.538    0.000    2.769    0.000   31.231 
#    0.000    0.000    0.000    0.000    0.000    0.000 
#
# Total GULP energy -290071.687081 kJ/mol
# GULP energy per Si atom -5578.301675 kJ/mol
# Density = 2.219881 g / cm^3
# Si number density = 22.249447 Si / 1000 Ang^3
#
#
#
# Elastic Constant Matrix: (Units=GPa)
#
#
# Indices 1 2 3 4 5 6 
#
# 1 65.3593 27.1721 20.3929 0.0000 0.0000 0.0000
# 2 27.1721 89.5376 46.0703 0.0000 0.0000 0.0000
# 3 20.3929 46.0703 116.2802 0.0000 0.0000 0.0000
# 4 0.0000 0.0000 0.0000 4.9046 0.0000 0.0000
# 5 0.0000 0.0000 0.0000 0.0000 -0.4614 0.0000
# 6 0.0000 0.0000 0.0000 0.0000 0.0000 35.6082
#
#
#
# Elastic Compliance Matrix: (Units=1/GPa)
#
#
# Indices 1 2 3 4 5 6 
#
# 1 0.017646 -0.004726 -0.001222 0.000000 0.000000 0.000000
# 2 -0.004726 0.015294 -0.005231 0.000000 0.000000 0.000000
# 3 -0.001222 -0.005231 0.010887 0.000000 0.000000 0.000000
# 4 0.000000 0.000000 0.000000 0.203892 0.000000 0.000000
# 5 0.000000 0.000000 0.000000 0.000000 -2.167502 0.000000
# 6 0.000000 0.000000 0.000000 0.000000 0.000000 0.028083
#
#
# Mechanical properties :
#
#
# Convention : Reuss Voigt Hill
#
# Bulk Modulus (GPa) = 46.57924 50.93861 48.75893
# Shear Modulus (GPa) = -2.68502 19.84640 8.58069
#
# Velocity S-wave (km/s) = -1.09973 2.98987 1.96595
# Velocity P-wave (km/s) = 4.40090 5.90450 5.20726
#
# Compressibility (1/GPa) = 0.02146879
#
# Stress axis : x y z
#
# Youngs Moduli (GPa) = 56.66924 65.38447 91.85559
#
# Poissons Ratio (x) = 0.30902 0.11227
# Poissons Ratio (y) = 0.26783 0.48047
# Poissons Ratio (z) = 0.06926 0.34200
#
# Static dielectric constant tensor:
#      x y z
#    x 2.077780 0.000000 0.000000 
#    y 0.000000 1.884840 0.000000 
#    z 0.000000 0.000000 1.874920 
# 
# From -- ./inp_files/21296.got.cif
#   From: 2010.05.17/outbox.cif.g08.bks.cpg/sg55_11_cif.got.tgz:21296.got - 2010.06.03 13:27:54.
