data_PCOD9424537
_publ_section_title
;
Structure prediction by ZEFSAII (Michael W. Deem and Ramdas Pophale) SiO2 
 PCOD9424537
Probable space group: P C C A
;
_chemical_formula_sum "Si O2"
_cell_formula_units_Z 28
_cell_length_a 7.823826
_cell_length_b 15.088813
_cell_length_c 8.572471
_cell_angle_alpha 90.000000
_cell_angle_beta 90.000000
_cell_angle_gamma 90.000000
_cell_volume 1011.999468
_symmetry_space_group_name_H-M "P C C A"
_symmetry_group_IT_number 54
_symmetry_cell_setting 'orthorhombic'
loop_
_space_group_symop_operation_xyz
x,y,z
1/2-x,-y,z
1/2+x,-y,1/2-z
-x,y,1/2-z
-x,-y,-z
1/2+x,y,-z
1/2-x,y,1/2+z
x,-y,1/2+z
loop_
_atom_site_type_symbol
_atom_site_label
_atom_site_fract_x
_atom_site_fract_y
_atom_site_fract_z
Si Si1 0.832643 0.631949 0.674584
Si Si2 0.360364 0.079377 0.640809
Si Si3 0.356045 0.204507 0.368361
Si Si4 0.000000 0.533274 0.250000
O O1 0.744647 0.708321 0.572834
O O2 0.071240 0.541007 0.874334
O O3 0.670439 0.592332 0.773354
O O4 0.000000 0.678701 0.750000
O O5 0.500000 0.034320 0.750000
O O6 0.426185 0.143633 0.505947
O O7 0.260039 0.142256 0.760208
O O8 0.250000 0.000000 0.570955
O O9 0.500000 0.235397 0.250000
#
# Coordination Sequence:
#
# PCOD9424537 Si02
#       4
#     8   8   8   4
#     4   9  17  35  68 110 160 210 270 317 395 453
#     4  12  28  52  79 110 150 205 263 330 408 488
#     4  12  25  44  76 114 158 202 265 335 395 478
#     4   8  16  34  68 108 160 218 270 324 384 472
#
# _framework density 27.667998999999998
#
# number of rings (size 3 to 8) (size 9 to 14) (size 15 to 20)
#    0.857    0.571    1.429    4.286    0.000    3.429 
#    0.000    5.714    0.000   10.286    0.000    0.000 
#    0.000    0.000    0.000    0.286    0.000    0.000 
#
# Total GULP energy -156227.410522 kJ/mol
# GULP energy per Si atom -5579.550376 kJ/mol
# Density = 2.760503 g / cm^3
# Si number density = 27.667999 Si / 1000 Ang^3
#
#
#
# Elastic Constant Matrix: (Units=GPa)
#
#
# Indices 1 2 3 4 5 6 
#
# 1 141.5317 62.5199 37.8440 0.0000 0.0000 0.0000
# 2 62.5199 174.4890 58.5091 0.0000 0.0000 0.0000
# 3 37.8440 58.5091 97.4966 0.0000 0.0000 0.0000
# 4 0.0000 0.0000 0.0000 704.1217 0.0000 0.0000
# 5 0.0000 0.0000 0.0000 0.0000 22.9273 0.0000
# 6 0.0000 0.0000 0.0000 0.0000 0.0000 58.8063
#
#
#
# Elastic Compliance Matrix: (Units=1/GPa)
#
#
# Indices 1 2 3 4 5 6 
#
# 1 0.008660 -0.002474 -0.001877 0.000000 0.000000 0.000000
# 2 -0.002474 0.007881 -0.003770 0.000000 0.000000 0.000000
# 3 -0.001877 -0.003770 0.013248 0.000000 0.000000 0.000000
# 4 0.000000 0.000000 0.000000 0.001420 0.000000 0.000000
# 5 0.000000 0.000000 0.000000 0.000000 0.043616 0.000000
# 6 0.000000 0.000000 0.000000 0.000000 0.000000 0.017005
#
#
# Mechanical properties :
#
#
# Convention : Reuss Voigt Hill
#
# Bulk Modulus (GPa) = 73.80833 81.25146 77.52990
# Shear Modulus (GPa) = 44.41017 174.14734 109.27875
#
# Velocity S-wave (km/s) = 4.01073 7.94219 6.29144
# Velocity P-wave (km/s) = 6.94134 10.65528 8.99214
#
# Compressibility (1/GPa) = 0.01354861
#
# Stress axis : x y z
#
# Youngs Moduli (GPa) = 115.47187 126.88280 75.48572
#
# Poissons Ratio (x) = 0.31385 0.14169
# Poissons Ratio (y) = 0.28562 0.28455
# Poissons Ratio (z) = 0.21675 0.47829
#
# Static dielectric constant tensor:
#      x y z
#    x 2.237160 0.000000 0.000000 
#    y 0.000000 2.045550 0.000000 
#    z 0.000000 0.000000 2.137060 
# 
# From -- ./inp_files/2455.got.cif
#   From: 2010.05.17/outbox.cif.g08.bks.cpg/sg54_2_cif.got.tgz:2455.got - 2010.06.03 13:09:01.
