data_PCOD9424967
_publ_section_title
;
Structure prediction by ZEFSAII (Michael W. Deem and Ramdas Pophale) SiO2 
 PCOD9424967
Probable space group: P B A M
;
_chemical_formula_sum "Si O2"
_cell_formula_units_Z 64
_cell_length_a 27.144792
_cell_length_b 18.948781
_cell_length_c 8.748038
_cell_angle_alpha 90.000000
_cell_angle_beta 90.000000
_cell_angle_gamma 90.000000
_cell_volume 4499.647115
_symmetry_space_group_name_H-M "P B A M"
_symmetry_group_IT_number 55
_symmetry_cell_setting 'orthorhombic'
loop_
_space_group_symop_operation_xyz
x,y,z
-x,-y,z
1/2+x,1/2-y,-z
1/2-x,1/2+y,-z
-x,-y,-z
x,y,-z
1/2-x,1/2+y,z
1/2+x,1/2-y,z
loop_
_atom_site_type_symbol
_atom_site_label
_atom_site_fract_x
_atom_site_fract_y
_atom_site_fract_z
Si Si1 0.853896 0.669113 0.683232
Si Si2 0.052308 0.420545 0.684375
Si Si3 0.258301 0.075546 0.183167
Si Si4 0.645917 0.846593 0.681421
Si Si5 0.945833 0.424129 0.817827
Si Si6 0.790859 0.218272 0.318700
Si Si7 0.697767 0.295692 0.820281
Si Si8 0.242778 0.421693 0.317470
O O1 0.853158 0.671167 0.500000
O O2 0.904923 0.633521 0.731714
O O3 0.843649 0.747914 0.741977
O O4 0.808002 0.618363 0.728353
O O5 0.049966 0.423340 0.500000
O O6 0.064730 0.498570 0.746713
O O7 0.998834 0.401964 0.750932
O O8 0.307268 0.107460 0.261954
O O9 0.211740 0.124877 0.229233
O O10 0.251854 0.995069 0.232032
O O11 0.264075 0.081491 0.000000
O O12 0.639733 0.857318 0.500000
O O13 0.597545 0.872202 0.767553
O O14 0.660647 0.764621 0.708235
O O15 0.948708 0.430061 0.000000
O O16 0.778191 0.227611 0.500000
O O17 0.748279 0.254388 0.219356
O O18 0.786415 0.135071 0.289240
O O19 0.688700 0.295809 0.000000
O O20 0.240170 0.434831 0.500000
#
# Coordination Sequence:
#
# PCOD9424967 Si02
#       8
#     8   8   8   8   8   8   8   8
#     4   9  18  30  44  60  79 106 142 174 203 240
#     4  10  19  32  47  62  82 110 142 175 207 242
#     4  10  19  28  39  61  87 111 139 170 203 244
#     4  10  18  30  46  60  78 110 144 174 207 243
#     4  11  21  31  43  62  86 110 138 174 209 244
#     4   8  16  29  43  58  78 104 138 173 204 240
#     4   9  17  27  40  58  82 108 135 167 204 242
#     4   9  16  27  42  61  83 109 138 169 204 243
#
# _framework density 14.223338
#
# number of rings (size 3 to 8) (size 9 to 14) (size 15 to 20)
#    0.000    2.500    0.000    4.875    0.000    6.000 
#    0.000    0.000    0.000    0.000    0.000    0.000 
#    0.000    1.000    0.000   11.250    0.000    5.625 
#
# Total GULP energy -356471.167589 kJ/mol
# GULP energy per Si atom -5569.861994 kJ/mol
# Density = 1.419097 g / cm^3
# Si number density = 14.223338 Si / 1000 Ang^3
#
#
#
# Elastic Constant Matrix: (Units=GPa)
#
#
# Indices 1 2 3 4 5 6 
#
# 1 79.0922 47.1063 26.7697 0.0000 0.0000 0.0000
# 2 47.1063 91.8093 26.5802 0.0000 0.0000 0.0000
# 3 26.7697 26.5802 42.8474 0.0000 0.0000 0.0000
# 4 0.0000 0.0000 0.0000 16.7044 0.0000 0.0000
# 5 0.0000 0.0000 0.0000 0.0000 15.3775 0.0000
# 6 0.0000 0.0000 0.0000 0.0000 0.0000 25.6854
#
#
#
# Elastic Compliance Matrix: (Units=1/GPa)
#
#
# Indices 1 2 3 4 5 6 
#
# 1 0.019993 -0.008096 -0.007469 0.000000 0.000000 0.000000
# 2 -0.008096 0.016555 -0.005212 0.000000 0.000000 0.000000
# 3 -0.007469 -0.005212 0.031238 0.000000 0.000000 0.000000
# 4 0.000000 0.000000 0.000000 0.059865 0.000000 0.000000
# 5 0.000000 0.000000 0.000000 0.000000 0.065030 0.000000
# 6 0.000000 0.000000 0.000000 0.000000 0.000000 0.038933
#
#
# Mechanical properties :
#
#
# Convention : Reuss Voigt Hill
#
# Bulk Modulus (GPa) = 38.11967 46.07347 42.09657
# Shear Modulus (GPa) = 17.73609 19.10629 18.42119
#
# Velocity S-wave (km/s) = 3.53508 3.66909 3.60271
# Velocity P-wave (km/s) = 6.59707 7.10020 6.85325
#
# Compressibility (1/GPa) = 0.02623318
#
# Stress axis : x y z
#
# Youngs Moduli (GPa) = 50.01685 60.40487 32.01235
#
# Poissons Ratio (x) = 0.48904 0.23910
# Poissons Ratio (y) = 0.40494 0.16684
# Poissons Ratio (z) = 0.37357 0.31481
#
# Static dielectric constant tensor:
#      x y z
#    x 1.460390 0.000000 0.000000 
#    y 0.000000 1.481190 0.000000 
#    z 0.000000 0.000000 1.481630 
# 
# From -- ./inp_files/10303.got.cif
#   From: 2010.05.17/outbox.cif.g08.bks.cpg/sg55_6_cif.got.tgz:10303.got - 2010.06.03 13:27:54.
