data_PCOD9424017
_publ_section_title
;
Structure prediction by ZEFSAII (Michael W. Deem and Ramdas Pophale) SiO2 
 PCOD9424017
Probable space group: P C C A
;
_chemical_formula_sum "Si O2"
_cell_formula_units_Z 48
_cell_length_a 13.733368
_cell_length_b 8.817415
_cell_length_c 20.141083
_cell_angle_alpha 90.000000
_cell_angle_beta 90.000000
_cell_angle_gamma 90.000000
_cell_volume 2438.940236
_symmetry_space_group_name_H-M "P C C A"
_symmetry_group_IT_number 54
_symmetry_cell_setting 'orthorhombic'
loop_
_space_group_symop_operation_xyz
x,y,z
1/2-x,-y,z
1/2+x,-y,1/2-z
-x,y,1/2-z
-x,-y,-z
1/2+x,y,-z
1/2-x,y,1/2+z
x,-y,1/2+z
loop_
_atom_site_type_symbol
_atom_site_label
_atom_site_fract_x
_atom_site_fract_y
_atom_site_fract_z
Si Si1 0.848796 0.193912 0.594444
Si Si2 0.545168 0.124800 0.614557
Si Si3 0.740286 0.321745 0.473709
Si Si4 0.023347 0.327746 0.517461
Si Si5 0.716148 0.177328 0.709402
Si Si6 0.675918 0.859011 0.356923
O O1 0.767224 0.222542 0.538199
O O2 0.801389 0.246017 0.663666
O O3 0.940679 0.285307 0.569034
O O4 0.891341 0.023890 0.596505
O O5 0.526645 0.225959 0.549291
O O6 0.614398 0.199583 0.670421
O O7 0.436995 0.088281 0.642149
O O8 0.750000 0.500000 0.489610
O O9 0.629379 0.302242 0.452205
O O10 0.808474 0.262510 0.415176
O O11 0.000000 0.500000 0.500000
O O12 0.702643 0.215113 0.786150
O O13 0.750000 0.000000 0.710245
O O14 0.750000 0.000000 0.368603
#
# Coordination Sequence:
#
# PCOD9424017 Si02
#       6
#     8   8   8   8   8   8
#     4  11  22  39  63  93 124 161 214 259 317 380
#     4  11  21  38  64  91 124 159 210 258 311 383
#     4  12  24  40  60  90 129 165 209 264 319 375
#     4  12  23  38  60  91 123 160 208 263 317 371
#     4   9  21  39  62  90 124 163 204 258 312 372
#     4  11  23  39  62  92 125 163 206 259 318 376
#
# _framework density 19.680679000000001
#
# number of rings (size 3 to 8) (size 9 to 14) (size 15 to 20)
#    0.000    1.000    5.000    2.000    2.333    0.000 
#    0.000    5.000    0.000    0.000    0.000    0.000 
#    0.000    0.000    0.000    0.000    0.000    0.000 
#
# Total GULP energy -267781.525753 kJ/mol
# GULP energy per Si atom -5578.781787 kJ/mol
# Density = 1.963588 g / cm^3
# Si number density = 19.680679 Si / 1000 Ang^3
#
#
#
# Elastic Constant Matrix: (Units=GPa)
#
#
# Indices 1 2 3 4 5 6 
#
# 1 115.5176 14.7468 9.3876 0.0000 0.0000 0.0000
# 2 14.7468 58.5186 31.0437 0.0000 0.0000 0.0000
# 3 9.3876 31.0437 96.5738 0.0000 0.0000 0.0000
# 4 0.0000 0.0000 0.0000 -2.4217 0.0000 0.0000
# 5 0.0000 0.0000 0.0000 0.0000 27.4790 0.0000
# 6 0.0000 0.0000 0.0000 0.0000 0.0000 26.1427
#
#
#
# Elastic Compliance Matrix: (Units=1/GPa)
#
#
# Indices 1 2 3 4 5 6 
#
# 1 0.008947 -0.002162 -0.000175 0.000000 0.000000 0.000000
# 2 -0.002162 0.021124 -0.006580 0.000000 0.000000 0.000000
# 3 -0.000175 -0.006580 0.012487 0.000000 0.000000 0.000000
# 4 0.000000 0.000000 0.000000 -0.412925 0.000000 0.000000
# 5 0.000000 0.000000 0.000000 0.000000 0.036391 0.000000
# 6 0.000000 0.000000 0.000000 0.000000 0.000000 0.038252
#
#
# Mechanical properties :
#
#
# Convention : Reuss Voigt Hill
#
# Bulk Modulus (GPa) = 40.44614 42.32956 41.38785
# Shear Modulus (GPa) = -18.54260 24.60214 3.02977
#
# Velocity S-wave (km/s) = -3.07281 3.53946 1.24210
# Velocity P-wave (km/s) = 2.82953 6.18535 4.80962
#
# Compressibility (1/GPa) = 0.02472424
#
# Stress axis : x y z
#
# Youngs Moduli (GPa) = 111.77080 47.33923 80.08349
#
# Poissons Ratio (x) = 0.10234 0.01399
# Poissons Ratio (y) = 0.24164 0.52697
# Poissons Ratio (z) = 0.01953 0.31150
#
# Static dielectric constant tensor:
#      x y z
#    x 1.724840 0.000000 0.000000 
#    y 0.000000 1.709210 0.000000 
#    z 0.000000 0.000000 1.735390 
# 
# From -- ./inp_files/18000.got.cif
#   From: 2010.05.17/outbox.cif.g08.bks.cpg/sg54_9_cif.got.tgz:18000.got - 2010.06.03 13:09:01.
