data_PCOD9424792
_publ_section_title
;
Structure prediction by ZEFSAII (Michael W. Deem and Ramdas Pophale) SiO2 
 PCOD9424792
Probable space group: P B A M
;
_chemical_formula_sum "Si O2"
_cell_formula_units_Z 40
_cell_length_a 5.334807
_cell_length_b 26.651406
_cell_length_c 16.751425
_cell_angle_alpha 90.000000
_cell_angle_beta 90.000000
_cell_angle_gamma 90.000000
_cell_volume 2381.719404
_symmetry_space_group_name_H-M "P B A M"
_symmetry_group_IT_number 55
_symmetry_cell_setting 'orthorhombic'
loop_
_space_group_symop_operation_xyz
x,y,z
-x,-y,z
1/2+x,1/2-y,-z
1/2-x,1/2+y,-z
-x,-y,-z
x,y,-z
1/2-x,1/2+y,z
1/2+x,1/2-y,z
loop_
_atom_site_type_symbol
_atom_site_label
_atom_site_fract_x
_atom_site_fract_y
_atom_site_fract_z
Si Si1 0.219574 0.943234 0.839601
Si Si2 0.583339 0.555728 0.653288
Si Si3 0.279757 0.057323 0.905996
Si Si4 0.040298 0.278218 0.597186
Si Si5 0.916347 0.391787 0.594775
O O1 0.152105 0.945392 0.747015
O O2 0.487912 0.919425 0.858534
O O3 0.987997 0.918915 0.886121
O O4 0.249933 0.000012 0.873969
O O5 0.500000 0.500000 0.627975
O O6 0.338362 0.589503 0.636586
O O7 0.837667 0.574409 0.611101
O O8 0.328996 0.056382 0.000000
O O9 0.043753 0.277675 0.500000
O O10 0.308452 0.256680 0.623124
O O11 0.988172 0.335445 0.620789
O O12 0.865620 0.391440 0.500000
#
# Coordination Sequence:
#
# PCOD9424792 Si02
#       5
#     8   8   8   8   8
#     4  10  18  29  43  64  88 123 164 200 229 287
#     4  12  23  35  50  64 100 144 174 206 233 279
#     4  10  17  28  47  67  85 112 169 217 233 269
#     4   9  17  33  56  75  91 109 141 207 278 318
#     4  11  24  37  51  73  93 123 178 218 248 293
#
# _framework density 16.794588999999998
#
# number of rings (size 3 to 8) (size 9 to 14) (size 15 to 20)
#    0.000    1.600    2.000    6.600    2.800    5.600 
#    0.000    0.000    0.000    0.000    0.000    0.000 
#    0.000    0.000    0.000    0.000    0.000  412.000 
#
# Total GULP energy -222994.499722 kJ/mol
# GULP energy per Si atom -5574.862493 kJ/mol
# Density = 1.675636 g / cm^3
# Si number density = 16.794589 Si / 1000 Ang^3
#
#
#
# Elastic Constant Matrix: (Units=GPa)
#
#
# Indices 1 2 3 4 5 6 
#
# 1 133.6094 4.5799 13.9555 0.0000 0.0000 0.0000
# 2 4.5799 29.9805 12.5083 0.0000 0.0000 0.0000
# 3 13.9555 12.5083 43.1292 0.0000 0.0000 0.0000
# 4 0.0000 0.0000 0.0000 -4.4036 0.0000 0.0000
# 5 0.0000 0.0000 0.0000 0.0000 32.2743 0.0000
# 6 0.0000 0.0000 0.0000 0.0000 0.0000 22.7542
#
#
#
# Elastic Compliance Matrix: (Units=1/GPa)
#
#
# Indices 1 2 3 4 5 6 
#
# 1 0.007747 -0.000157 -0.002461 0.000000 0.000000 0.000000
# 2 -0.000157 0.037950 -0.010955 0.000000 0.000000 0.000000
# 3 -0.002461 -0.010955 0.027160 0.000000 0.000000 0.000000
# 4 0.000000 0.000000 0.000000 -0.227085 0.000000 0.000000
# 5 0.000000 0.000000 0.000000 0.000000 0.030984 0.000000
# 6 0.000000 0.000000 0.000000 0.000000 0.000000 0.043948
#
#
# Mechanical properties :
#
#
# Convention : Reuss Voigt Hill
#
# Bulk Modulus (GPa) = 21.87710 29.86739 25.87225
# Shear Modulus (GPa) = -135.45555 21.83665 -56.80945
#
# Velocity S-wave (km/s) = -8.99052 3.60977 -5.82233
# Velocity P-wave (km/s) = 9.73231 5.93266 5.45534
#
# Compressibility (1/GPa) = 0.04570989
#
# Stress axis : x y z
#
# Youngs Moduli (GPa) = 129.08301 26.35063 36.81906
#
# Poissons Ratio (x) = 0.00413 0.09062
# Poissons Ratio (y) = 0.02021 0.40337
# Poissons Ratio (z) = 0.31771 0.28868
#
# Static dielectric constant tensor:
#      x y z
#    x 1.605460 0.000000 0.000000 
#    y 0.000000 1.401350 0.000000 
#    z 0.000000 0.000000 1.563550 
# 
# From -- ./inp_files/16551.got.cif
#   From: 2010.05.17/outbox.cif.g08.bks.cpg/sg55_9_cif.got.tgz:16551.got - 2010.06.03 13:27:54.
