data_PCOD9424912
_publ_section_title
;
Structure prediction by ZEFSAII (Michael W. Deem and Ramdas Pophale) SiO2 
 PCOD9424912
Probable space group: P B A M
;
_chemical_formula_sum "Si O2"
_cell_formula_units_Z 42
_cell_length_a 31.077600
_cell_length_b 6.931412
_cell_length_c 8.136894
_cell_angle_alpha 90.000000
_cell_angle_beta 90.000000
_cell_angle_gamma 90.000000
_cell_volume 1752.781759
_symmetry_space_group_name_H-M "P B A M"
_symmetry_group_IT_number 55
_symmetry_cell_setting 'orthorhombic'
loop_
_space_group_symop_operation_xyz
x,y,z
-x,-y,z
1/2+x,1/2-y,-z
1/2-x,1/2+y,-z
-x,-y,-z
x,y,-z
1/2-x,1/2+y,z
1/2+x,1/2-y,z
loop_
_atom_site_type_symbol
_atom_site_label
_atom_site_fract_x
_atom_site_fract_y
_atom_site_fract_z
Si Si1 0.000000 0.500000 0.000000
Si Si2 0.138603 0.059634 0.819148
Si Si3 0.811869 0.886379 0.500000
Si Si4 0.434158 0.062735 0.812193
Si Si5 0.547797 0.533417 0.688498
Si Si6 0.336466 0.103001 0.180728
Si Si7 0.287823 0.167024 0.500000
O O1 0.030586 0.402163 0.845922
O O2 0.162630 0.157853 0.666831
O O3 0.087936 0.052462 0.786467
O O4 0.153024 0.833377 0.820225
O O5 0.148837 0.136963 0.000000
O O6 0.763250 0.813584 0.500000
O O7 0.807170 0.118773 0.500000
O O8 0.443213 0.234822 0.690234
O O9 0.384371 0.011564 0.804007
O O10 0.445785 0.150675 0.000000
O O11 0.500000 0.500000 0.750880
O O12 0.550369 0.462707 0.500000
O O13 0.305647 0.068569 0.334559
O O14 0.318294 0.057208 0.000000
#
# Coordination Sequence:
#
# PCOD9424912 Si02
#       7
#     2   8   4   8   8   8   4
#     4   8  16  32  48  68 100 136 166 222 244 282
#     4   9  17  31  52  75 101 131 165 209 253 296
#     4  10  20  36  53  78 100 130 167 216 258 319
#     4   8  16  29  49  67  98 131 173 205 241 287
#     4  10  18  28  48  77 105 130 168 211 248 302
#     4   8  15  29  50  77  91 125 171 211 236 295
#     4  10  20  32  58  73 100 130 163 212 270 297
#
# _framework density 23.961912000000002
#
# number of rings (size 3 to 8) (size 9 to 14) (size 15 to 20)
#    0.571    2.476    0.952    1.714    4.000    2.286 
#    0.000    0.476    4.190    0.000    0.000    0.000 
#    0.000    0.000    0.000    0.000    0.000    0.000 
#
# Total GULP energy -233801.971273 kJ/mol
# GULP energy per Si atom -5566.713602 kJ/mol
# Density = 2.390737 g / cm^3
# Si number density = 23.961912 Si / 1000 Ang^3
#
#
#
# Elastic Constant Matrix: (Units=GPa)
#
#
# Indices 1 2 3 4 5 6 
#
# 1 153.0447 21.9890 112.2381 0.0000 0.0000 0.0000
# 2 21.9890 72.3224 18.6921 0.0000 0.0000 0.0000
# 3 112.2381 18.6921 183.2272 0.0000 0.0000 0.0000
# 4 0.0000 0.0000 0.0000 -12.4352 0.0000 0.0000
# 5 0.0000 0.0000 0.0000 0.0000 31.0987 0.0000
# 6 0.0000 0.0000 0.0000 0.0000 0.0000 27.2106
#
#
#
# Elastic Compliance Matrix: (Units=1/GPa)
#
#
# Indices 1 2 3 4 5 6 
#
# 1 0.012090 -0.001809 -0.007221 0.000000 0.000000 0.000000
# 2 -0.001809 0.014472 -0.000368 0.000000 0.000000 0.000000
# 3 -0.007221 -0.000368 0.009919 0.000000 0.000000 0.000000
# 4 0.000000 0.000000 0.000000 -0.080417 0.000000 0.000000
# 5 0.000000 0.000000 0.000000 0.000000 0.032156 0.000000
# 6 0.000000 0.000000 0.000000 0.000000 0.000000 0.036750
#
#
# Mechanical properties :
#
#
# Convention : Reuss Voigt Hill
#
# Bulk Modulus (GPa) = 56.55002 79.38142 67.96572
# Shear Modulus (GPa) = 100.68234 26.21986 63.45110
#
# Velocity S-wave (km/s) = 6.48913 3.31150 5.15145
# Velocity P-wave (km/s) = 8.93288 6.91531 7.98805
#
# Compressibility (1/GPa) = 0.01768346
#
# Stress axis : x y z
#
# Youngs Moduli (GPa) = 82.71456 69.09788 100.82021
#
# Poissons Ratio (x) = 0.12503 0.72804
# Poissons Ratio (y) = 0.14967 0.03710
# Poissons Ratio (z) = 0.59729 0.02543
#
# Static dielectric constant tensor:
#      x y z
#    x 2.270100 0.000000 0.000000 
#    y 0.000000 2.246770 0.000000 
#    z 0.000000 0.000000 1.920260 
# 
# From -- ./inp_files/9406.got.cif
#   From: 2010.05.17/outbox.cif.g08.bks.cpg/sg55_5_cif.got.tgz:9406.got - 2010.06.03 13:27:54.
