data_PCOD9424204
_publ_section_title
;
Structure prediction by ZEFSAII (Michael W. Deem and Ramdas Pophale) SiO2 
 PCOD9424204
Probable space group: P C C A
;
_chemical_formula_sum "Si O2"
_cell_formula_units_Z 32
_cell_length_a 23.169925
_cell_length_b 6.463410
_cell_length_c 9.429848
_cell_angle_alpha 90.000000
_cell_angle_beta 90.000000
_cell_angle_gamma 90.000000
_cell_volume 1412.183153
_symmetry_space_group_name_H-M "P C C A"
_symmetry_group_IT_number 54
_symmetry_cell_setting 'orthorhombic'
loop_
_space_group_symop_operation_xyz
x,y,z
1/2-x,-y,z
1/2+x,-y,1/2-z
-x,y,1/2-z
-x,-y,-z
1/2+x,y,-z
1/2-x,y,1/2+z
x,-y,1/2+z
loop_
_atom_site_type_symbol
_atom_site_label
_atom_site_fract_x
_atom_site_fract_y
_atom_site_fract_z
Si Si1 0.064214 0.302837 0.701310
Si Si2 0.132587 0.550804 0.476852
Si Si3 0.801314 0.163569 0.037266
Si Si4 0.134431 0.938723 0.685511
O O1 0.084404 0.413792 0.557773
O O2 0.000000 0.351586 0.750000
O O3 0.073916 0.057307 0.679886
O O4 0.107550 0.374964 0.826939
O O5 0.190700 0.413044 0.460845
O O6 0.140840 0.743852 0.582317
O O7 0.849463 0.110367 0.154837
O O8 0.750000 0.000000 0.070347
O O9 0.820304 0.101946 0.879449
#
# Coordination Sequence:
#
# PCOD9424204 Si02
#       4
#     8   8   8   8
#     4  11  24  42  69 100 142 189 230 287 346 404
#     4  11  23  44  68 102 137 180 237 287 340 424
#     4  11  24  44  69  96 133 178 228 286 353 410
#     4  11  23  44  66 100 140 173 234 289 335 420
#
# _framework density 22.659949000000001
#
# number of rings (size 3 to 8) (size 9 to 14) (size 15 to 20)
#    0.000    1.000    5.000    1.500    0.000    3.000 
#    0.000    2.500    0.000    0.000    0.000    0.000 
#    0.000    0.000    0.000    0.000    0.000    0.000 
#
# Total GULP energy -178428.286556 kJ/mol
# GULP energy per Si atom -5575.883955 kJ/mol
# Density = 2.260837 g / cm^3
# Si number density = 22.659949 Si / 1000 Ang^3
#
#
#
# Elastic Constant Matrix: (Units=GPa)
#
#
# Indices 1 2 3 4 5 6 
#
# 1 72.9213 47.3750 5.8844 0.0000 0.0000 0.0000
# 2 47.3750 132.0043 25.9673 0.0000 0.0000 0.0000
# 3 5.8844 25.9673 105.9853 0.0000 0.0000 0.0000
# 4 0.0000 0.0000 0.0000 43.0946 0.0000 0.0000
# 5 0.0000 0.0000 0.0000 0.0000 18.3689 0.0000
# 6 0.0000 0.0000 0.0000 0.0000 0.0000 15.4384
#
#
#
# Elastic Compliance Matrix: (Units=1/GPa)
#
#
# Indices 1 2 3 4 5 6 
#
# 1 0.017921 -0.006552 0.000610 0.000000 0.000000 0.000000
# 2 -0.006552 0.010354 -0.002173 0.000000 0.000000 0.000000
# 3 0.000610 -0.002173 0.009934 0.000000 0.000000 0.000000
# 4 0.000000 0.000000 0.000000 0.023205 0.000000 0.000000
# 5 0.000000 0.000000 0.000000 0.000000 0.054440 0.000000
# 6 0.000000 0.000000 0.000000 0.000000 0.000000 0.064774
#
#
# Mechanical properties :
#
#
# Convention : Reuss Voigt Hill
#
# Bulk Modulus (GPa) = 45.49647 52.15159 48.82403
# Shear Modulus (GPa) = 24.48792 30.82599 27.65696
#
# Velocity S-wave (km/s) = 3.29092 3.69233 3.49739
# Velocity P-wave (km/s) = 5.87892 6.42203 6.15647
#
# Compressibility (1/GPa) = 0.02197973
#
# Stress axis : x y z
#
# Youngs Moduli (GPa) = 55.80190 96.57834 100.66608
#
# Poissons Ratio (x) = 0.63274 -0.06143
# Poissons Ratio (y) = 0.36559 0.21876
# Poissons Ratio (z) = -0.03405 0.20988
#
# Static dielectric constant tensor:
#      x y z
#    x 1.867450 0.000000 0.000000 
#    y 0.000000 1.977890 0.000000 
#    z 0.000000 0.000000 1.749070 
# 
# From -- ./inp_files/5657.got.cif
#   From: 2010.05.17/outbox.cif.g08.bks.cpg/sg54_3_cif.got.tgz:5657.got - 2010.06.03 13:09:01.
