data_PCOD9424438
_publ_section_title
;
Structure prediction by ZEFSAII (Michael W. Deem and Ramdas Pophale) SiO2 
 PCOD9424438
Probable space group: P C C A
;
_chemical_formula_sum "Si O2"
_cell_formula_units_Z 60
_cell_length_a 23.717037
_cell_length_b 8.628509
_cell_length_c 11.853679
_cell_angle_alpha 90.000000
_cell_angle_beta 90.000000
_cell_angle_gamma 90.000000
_cell_volume 2425.768487
_symmetry_space_group_name_H-M "P C C A"
_symmetry_group_IT_number 54
_symmetry_cell_setting 'orthorhombic'
loop_
_space_group_symop_operation_xyz
x,y,z
1/2-x,-y,z
1/2+x,-y,1/2-z
-x,y,1/2-z
-x,-y,-z
1/2+x,y,-z
1/2-x,y,1/2+z
x,-y,1/2+z
loop_
_atom_site_type_symbol
_atom_site_label
_atom_site_fract_x
_atom_site_fract_y
_atom_site_fract_z
Si Si1 0.100553 0.336698 0.308559
Si Si2 0.197872 0.865277 0.411611
Si Si3 0.971345 0.889787 0.409214
Si Si4 0.707557 0.283818 0.324815
Si Si5 0.354841 0.855763 0.491029
Si Si6 0.000000 0.133994 0.250000
Si Si7 0.676212 0.625652 0.387534
Si Si8 0.523759 0.432074 0.121662
O O1 0.147476 0.255971 0.384439
O O2 0.042135 0.240402 0.321635
O O3 0.118449 0.336085 0.177839
O O4 0.086823 0.503138 0.362587
O O5 0.187851 0.786481 0.291761
O O6 0.193895 0.721158 0.500983
O O7 0.250000 0.000000 0.403116
O O8 0.145103 0.971178 0.446283
O O9 0.912467 0.817014 0.445487
O O10 0.013489 0.750119 0.384249
O O11 0.000000 0.000000 0.500000
O O12 0.959313 0.012968 0.311540
O O13 0.695088 0.157930 0.420090
O O14 0.680451 0.438928 0.380550
O O15 0.772618 0.321890 0.306987
O O16 0.500000 0.472469 0.250000
O O17 0.500000 0.500000 0.000000
#
# Coordination Sequence:
#
# PCOD9424438 Si02
#       8
#     8   8   8   8   8   4   8   8
#     4  12  27  47  80 114 161 213 269 335 418 494
#     4  12  27  51  84 111 160 212 271 344 422 498
#     4  12  26  47  72 110 158 205 270 336 406 494
#     4  11  29  50  79 115 159 207 272 340 412 502
#     4  12  27  46  75 113 156 211 269 331 411 496
#     4  12  24  46  70 110 158 198 266 330 392 496
#     4  11  28  51  78 115 157 203 271 336 410 488
#     4  12  26  51  78 112 164 215 273 342 412 511
#
# _framework density 24.734428999999999
#
# number of rings (size 3 to 8) (size 9 to 14) (size 15 to 20)
#    0.000    0.267    5.333    1.600    9.333    2.133 
#    0.000    0.000    0.000    0.000    0.000    0.000 
#    0.000    0.000    0.000    0.000    0.000    0.000 
#
# Total GULP energy -334528.824888 kJ/mol
# GULP energy per Si atom -5575.480415 kJ/mol
# Density = 2.467813 g / cm^3
# Si number density = 24.734429 Si / 1000 Ang^3
#
#
#
# Elastic Constant Matrix: (Units=GPa)
#
#
# Indices 1 2 3 4 5 6 
#
# 1 38.3844 21.7356 10.8725 0.0000 0.0000 0.0000
# 2 21.7356 144.6301 64.8681 0.0000 0.0000 0.0000
# 3 10.8725 64.8681 134.2462 0.0000 0.0000 0.0000
# 4 0.0000 0.0000 0.0000 31.7267 0.0000 0.0000
# 5 0.0000 0.0000 0.0000 0.0000 23.5060 0.0000
# 6 0.0000 0.0000 0.0000 0.0000 0.0000 32.2124
#
#
#
# Elastic Compliance Matrix: (Units=1/GPa)
#
#
# Indices 1 2 3 4 5 6 
#
# 1 0.028485 -0.004144 -0.000304 0.000000 0.000000 0.000000
# 2 -0.004144 0.009430 -0.004221 0.000000 0.000000 0.000000
# 3 -0.000304 -0.004221 0.009513 0.000000 0.000000 0.000000
# 4 0.000000 0.000000 0.000000 0.031519 0.000000 0.000000
# 5 0.000000 0.000000 0.000000 0.000000 0.042542 0.000000
# 6 0.000000 0.000000 0.000000 0.000000 0.000000 0.031044
#
#
# Mechanical properties :
#
#
# Convention : Reuss Voigt Hill
#
# Bulk Modulus (GPa) = 33.23466 56.91256 45.07361
# Shear Modulus (GPa) = 27.79268 32.14133 29.96701
#
# Velocity S-wave (km/s) = 3.35572 3.60871 3.48451
# Velocity P-wave (km/s) = 5.33669 6.35792 5.86955
#
# Compressibility (1/GPa) = 0.03008907
#
# Stress axis : x y z
#
# Youngs Moduli (GPa) = 35.10591 106.04225 105.11626
#
# Poissons Ratio (x) = 0.43947 0.03200
# Poissons Ratio (y) = 0.14549 0.44370
# Poissons Ratio (z) = 0.01069 0.44761
#
# Static dielectric constant tensor:
#      x y z
#    x 2.011140 0.000000 0.000000 
#    y 0.000000 1.980860 0.000000 
#    z 0.000000 0.000000 2.067720 
# 
# From -- ./inp_files/10352.got.cif
#   From: 2010.05.17/outbox.cif.g08.bks.cpg/sg54_6_cif.got.tgz:10352.got - 2010.06.03 13:09:01.
