data_PCOD9424871
_publ_section_title
;
Structure prediction by ZEFSAII (Michael W. Deem and Ramdas Pophale) SiO2 
 PCOD9424871
Probable space group: P B A M
;
_chemical_formula_sum "Si O2"
_cell_formula_units_Z 64
_cell_length_a 27.343026
_cell_length_b 19.229869
_cell_length_c 8.001678
_cell_angle_alpha 90.000000
_cell_angle_beta 90.000000
_cell_angle_gamma 90.000000
_cell_volume 4207.304761
_symmetry_space_group_name_H-M "P B A M"
_symmetry_group_IT_number 55
_symmetry_cell_setting 'orthorhombic'
loop_
_space_group_symop_operation_xyz
x,y,z
-x,-y,z
1/2+x,1/2-y,-z
1/2-x,1/2+y,-z
-x,-y,-z
x,y,-z
1/2-x,1/2+y,z
1/2+x,1/2-y,z
loop_
_atom_site_type_symbol
_atom_site_label
_atom_site_fract_x
_atom_site_fract_y
_atom_site_fract_z
Si Si1 0.945753 0.580271 0.798631
Si Si2 0.305211 0.697697 0.307745
Si Si3 0.650492 0.837884 0.698381
Si Si4 0.556721 0.922250 0.201769
Si Si5 0.757588 0.585595 0.702002
Si Si6 0.646044 0.169029 0.701183
Si Si7 0.287205 0.280077 0.192818
Si Si8 0.244654 0.573096 0.705017
O O1 0.932660 0.501683 0.741890
O O2 0.905356 0.635062 0.744184
O O3 0.001379 0.595070 0.742983
O O4 0.946317 0.578945 0.000000
O O5 0.319335 0.684883 0.500000
O O6 0.343679 0.752698 0.233263
O O7 0.254577 0.741978 0.302248
O O8 0.288440 0.623708 0.235047
O O9 0.654823 0.831441 0.500000
O O10 0.598249 0.869886 0.740332
O O11 0.663631 0.763005 0.775181
O O12 0.693292 0.891342 0.756100
O O13 0.556830 0.922590 0.000000
O O14 0.757663 0.585049 0.500000
O O15 0.809431 0.618997 0.758672
O O16 0.716010 0.639120 0.761504
O O17 0.752157 0.506468 0.759886
O O18 0.649962 0.172606 0.500000
O O19 0.273224 0.271648 0.000000
O O20 0.245389 0.573815 0.500000
#
# Coordination Sequence:
#
# PCOD9424871 Si02
#       8
#     8   8   8   8   8   8   8   8
#     4   9  18  30  42  56  80 109 136 167 205 241
#     4   8  15  28  41  56  79 106 134 166 199 233
#     4  10  18  29  44  60  78 105 138 170 202 238
#     4   9  18  31  42  56  79 107 136 170 206 238
#     4   9  16  27  41  58  80 106 134 165 196 231
#     4   9  16  25  39  58  81 106 136 170 200 230
#     4  10  18  27  39  57  80 106 133 163 197 236
#     4   8  14  25  42  59  77 103 134 163 196 233
#
# _framework density 15.211639
#
# number of rings (size 3 to 8) (size 9 to 14) (size 15 to 20)
#    0.000    3.000    0.000    4.500    0.000    4.000 
#    0.000    4.375    0.000    0.000    0.000    0.000 
#    0.000    1.000    0.000   11.500    0.000    2.875 
#
# Total GULP energy -356275.760647 kJ/mol
# GULP energy per Si atom -5566.808760 kJ/mol
# Density = 1.517702 g / cm^3
# Si number density = 15.211639 Si / 1000 Ang^3
#
#
#
# Elastic Constant Matrix: (Units=GPa)
#
#
# Indices 1 2 3 4 5 6 
#
# 1 82.1534 59.8297 5.9479 0.0000 0.0000 0.0000
# 2 59.8297 124.7267 10.2367 0.0000 0.0000 0.0000
# 3 5.9479 10.2367 21.1391 0.0000 0.0000 0.0000
# 4 0.0000 0.0000 0.0000 11.2433 0.0000 0.0000
# 5 0.0000 0.0000 0.0000 0.0000 23.2280 0.0000
# 6 0.0000 0.0000 0.0000 0.0000 0.0000 29.0920
#
#
#
# Elastic Compliance Matrix: (Units=1/GPa)
#
#
# Indices 1 2 3 4 5 6 
#
# 1 0.018726 -0.008904 -0.000957 0.000000 0.000000 0.000000
# 2 -0.008904 0.012583 -0.003588 0.000000 0.000000 0.000000
# 3 -0.000957 -0.003588 0.049313 0.000000 0.000000 0.000000
# 4 0.000000 0.000000 0.000000 0.088942 0.000000 0.000000
# 5 0.000000 0.000000 0.000000 0.000000 0.043051 0.000000
# 6 0.000000 0.000000 0.000000 0.000000 0.000000 0.034374
#
#
# Mechanical properties :
#
#
# Convention : Reuss Voigt Hill
#
# Bulk Modulus (GPa) = 18.61393 42.22752 30.42073
# Shear Modulus (GPa) = 17.13530 22.84634 19.99082
#
# Velocity S-wave (km/s) = 3.35992 3.87964 3.62909
# Velocity P-wave (km/s) = 5.22640 6.92019 6.13206
#
# Compressibility (1/GPa) = 0.05372320
#
# Stress axis : x y z
#
# Youngs Moduli (GPa) = 53.40088 79.47081 20.27883
#
# Poissons Ratio (x) = 0.70762 0.01941
# Poissons Ratio (y) = 0.47549 0.07276
# Poissons Ratio (z) = 0.05111 0.28515
#
# Static dielectric constant tensor:
#      x y z
#    x 1.495080 0.000000 0.000000 
#    y 0.000000 1.533500 0.000000 
#    z 0.000000 0.000000 1.544120 
# 
# From -- ./inp_files/8178.got.cif
#   From: 2010.05.17/outbox.cif.g08.bks.cpg/sg55_5_cif.got.tgz:8178.got - 2010.06.03 13:27:54.
