data_PCOD9424253
_publ_section_title
;
Structure prediction by ZEFSAII (Michael W. Deem and Ramdas Pophale) SiO2 
 PCOD9424253
Probable space group: P C C A
;
_chemical_formula_sum "Si O2"
_cell_formula_units_Z 56
_cell_length_a 9.361629
_cell_length_b 15.229072
_cell_length_c 20.053545
_cell_angle_alpha 90.000000
_cell_angle_beta 90.000000
_cell_angle_gamma 90.000000
_cell_volume 2859.012294
_symmetry_space_group_name_H-M "P C C A"
_symmetry_group_IT_number 54
_symmetry_cell_setting 'orthorhombic'
loop_
_space_group_symop_operation_xyz
x,y,z
1/2-x,-y,z
1/2+x,-y,1/2-z
-x,y,1/2-z
-x,-y,-z
1/2+x,y,-z
1/2-x,y,1/2+z
x,-y,1/2+z
loop_
_atom_site_type_symbol
_atom_site_label
_atom_site_fract_x
_atom_site_fract_y
_atom_site_fract_z
Si Si1 0.500000 0.225628 0.250000
Si Si2 0.589998 0.327342 0.623707
Si Si3 0.575015 0.334654 0.118804
Si Si4 0.200725 0.096328 0.551948
Si Si5 0.077701 0.505397 0.572128
Si Si6 0.965973 0.207853 0.491958
Si Si7 0.500000 0.215802 0.750000
Si Si8 0.257960 0.099525 0.207880
O O1 0.521596 0.283933 0.184332
O O2 0.365898 0.161120 0.246859
O O3 0.755708 0.355894 0.620783
O O4 0.481293 0.407619 0.609170
O O5 0.552692 0.257463 0.565820
O O6 0.566862 0.278751 0.693917
O O7 0.480531 0.421146 0.111057
O O8 0.552794 0.273833 0.053790
O O9 0.316226 0.171155 0.534320
O O10 0.188667 0.094300 0.631814
O O11 0.055372 0.125114 0.517741
O O12 0.250000 0.000000 0.529828
O O13 0.250000 0.500000 0.565469
O O14 0.000000 0.500000 0.500000
O O15 0.609545 0.150823 0.786975
O O16 0.250000 0.000000 0.233887
#
# Coordination Sequence:
#
# PCOD9424253 Si02
#       8
#     4   8   8   8   8   8   4   8
#     4  12  25  45  70 100 140 184 234 281 343 414
#     4  12  26  45  71 100 140 179 226 281 341 412
#     4  12  26  45  71 100 140 179 226 281 341 412
#     4  11  24  41  65 100 139 177 228 284 339 395
#     4  12  28  45  74 107 138 176 224 282 342 413
#     4  12  23  41  68  98 134 178 222 277 339 398
#     4  12  25  45  70 100 140 184 234 281 343 414
#     4  11  24  43  67 100 139 185 232 288 345 407
#
# _framework density 19.587185999999999
#
# number of rings (size 3 to 8) (size 9 to 14) (size 15 to 20)
#    0.000    0.286    7.143    2.143    4.000    0.571 
#    0.000    1.429    0.000    0.000    0.000    0.000 
#    0.000    0.000    0.000    0.000    0.000    0.000 
#
# Total GULP energy -313101.148340 kJ/mol
# GULP energy per Si atom -5591.091935 kJ/mol
# Density = 1.954260 g / cm^3
# Si number density = 19.587186 Si / 1000 Ang^3
#
#
#
# Elastic Constant Matrix: (Units=GPa)
#
#
# Indices 1 2 3 4 5 6 
#
# 1 99.2659 26.5070 10.0761 0.0000 0.0000 0.0000
# 2 26.5070 115.7845 37.3237 0.0000 0.0000 0.0000
# 3 10.0761 37.3237 92.3037 0.0000 0.0000 0.0000
# 4 0.0000 0.0000 0.0000 37.5230 0.0000 0.0000
# 5 0.0000 0.0000 0.0000 0.0000 21.3345 0.0000
# 6 0.0000 0.0000 0.0000 0.0000 0.0000 46.2249
#
#
#
# Elastic Compliance Matrix: (Units=1/GPa)
#
#
# Indices 1 2 3 4 5 6 
#
# 1 0.010733 -0.002391 -0.000205 0.000000 0.000000 0.000000
# 2 -0.002391 0.010464 -0.003970 0.000000 0.000000 0.000000
# 3 -0.000205 -0.003970 0.012462 0.000000 0.000000 0.000000
# 4 0.000000 0.000000 0.000000 0.026650 0.000000 0.000000
# 5 0.000000 0.000000 0.000000 0.000000 0.046873 0.000000
# 6 0.000000 0.000000 0.000000 0.000000 0.000000 0.021633
#
#
# Mechanical properties :
#
#
# Convention : Reuss Voigt Hill
#
# Bulk Modulus (GPa) = 48.71750 50.57417 49.64584
# Shear Modulus (GPa) = 33.60456 36.57964 35.09210
#
# Velocity S-wave (km/s) = 4.14652 4.32618 4.23730
# Velocity P-wave (km/s) = 6.91744 7.12955 7.02430
#
# Compressibility (1/GPa) = 0.02052650
#
# Stress axis : x y z
#
# Youngs Moduli (GPa) = 93.16836 95.56615 80.24703
#
# Poissons Ratio (x) = 0.22852 0.01643
# Poissons Ratio (y) = 0.22278 0.31859
# Poissons Ratio (z) = 0.01908 0.37941
#
# Static dielectric constant tensor:
#      x y z
#    x 1.662850 0.000000 0.000000 
#    y 0.000000 1.706110 0.000000 
#    z 0.000000 0.000000 1.733460 
# 
# From -- ./inp_files/20580.got.cif
#   From: 2010.05.17/outbox.cif.g08.bks.cpg/sg54_11_cif.got.tgz:20580.got - 2010.06.03 13:09:01.
