data_PCOD9424576
_publ_section_title
;
Structure prediction by ZEFSAII (Michael W. Deem and Ramdas Pophale) SiO2 
 PCOD9424576
Probable space group: P C C A
;
_chemical_formula_sum "Si O2"
_cell_formula_units_Z 24
_cell_length_a 8.814157
_cell_length_b 5.090367
_cell_length_c 21.079243
_cell_angle_alpha 90.000000
_cell_angle_beta 90.000000
_cell_angle_gamma 90.000000
_cell_volume 945.768591
_symmetry_space_group_name_H-M "P C C A"
_symmetry_group_IT_number 54
_symmetry_cell_setting 'orthorhombic'
loop_
_space_group_symop_operation_xyz
x,y,z
1/2-x,-y,z
1/2+x,-y,1/2-z
-x,y,1/2-z
-x,-y,-z
1/2+x,y,-z
1/2-x,y,1/2+z
x,-y,1/2+z
loop_
_atom_site_type_symbol
_atom_site_label
_atom_site_fract_x
_atom_site_fract_y
_atom_site_fract_z
Si Si1 0.000000 0.860278 0.250000
Si Si2 0.250000 0.500000 0.308850
Si Si3 0.496236 0.163828 0.877015
Si Si4 0.250000 0.500000 0.050967
Si Si5 0.250000 0.000000 0.463410
O O1 0.142994 0.683719 0.267707
O O2 0.953298 0.023366 0.312304
O O3 0.143414 0.334850 0.353587
O O4 0.620743 0.357494 0.906708
O O5 0.407301 0.962557 0.923793
O O6 0.209755 0.745112 0.005558
#
# Coordination Sequence:
#
# PCOD9424576 Si02
#       5
#     4   4   8   4   4
#     4  12  28  52  84 126 170 232 284 378 450 522
#     4  12  27  51  84 120 176 218 288 358 454 530
#     4  12  28  53  85 128 176 224 299 369 441 532
#     4  12  31  51  90 130 174 238 292 352 444 526
#     4  12  26  56  88 124 178 238 292 360 430 532
#
# _framework density 25.376187999999999
#
# number of rings (size 3 to 8) (size 9 to 14) (size 15 to 20)
#    0.000    0.000    3.333    4.000    4.667    8.000 
#    0.000    0.000    0.000    0.000    0.000    0.000 
#    0.000    0.000    0.000    0.000    0.000    0.000 
#
# Total GULP energy -134546.781890 kJ/mol
# GULP energy per Si atom -5606.115912 kJ/mol
# Density = 2.531843 g / cm^3
# Si number density = 25.376188 Si / 1000 Ang^3
#
#
#
# Elastic Constant Matrix: (Units=GPa)
#
#
# Indices 1 2 3 4 5 6 
#
# 1 152.2879 47.5246 84.6834 0.0000 0.0000 0.0000
# 2 47.5246 118.2111 66.9460 0.0000 0.0000 0.0000
# 3 84.6834 66.9460 149.7962 0.0000 0.0000 0.0000
# 4 0.0000 0.0000 0.0000 67.4020 0.0000 0.0000
# 5 0.0000 0.0000 0.0000 0.0000 25.6124 0.0000
# 6 0.0000 0.0000 0.0000 0.0000 0.0000 70.3709
#
#
#
# Elastic Compliance Matrix: (Units=1/GPa)
#
#
# Indices 1 2 3 4 5 6 
#
# 1 0.009676 -0.001061 -0.004996 0.000000 0.000000 0.000000
# 2 -0.001061 0.011442 -0.004514 0.000000 0.000000 0.000000
# 3 -0.004996 -0.004514 0.011517 0.000000 0.000000 0.000000
# 4 0.000000 0.000000 0.000000 0.014836 0.000000 0.000000
# 5 0.000000 0.000000 0.000000 0.000000 0.039044 0.000000
# 6 0.000000 0.000000 0.000000 0.000000 0.000000 0.014210
#
#
# Mechanical properties :
#
#
# Convention : Reuss Voigt Hill
#
# Bulk Modulus (GPa) = 87.00082 90.95591 88.97836
# Shear Modulus (GPa) = 39.77783 47.41980 43.59882
#
# Velocity S-wave (km/s) = 3.96349 4.32750 4.14949
# Velocity P-wave (km/s) = 7.43670 7.80324 7.62218
#
# Compressibility (1/GPa) = 0.01149414
#
# Stress axis : x y z
#
# Youngs Moduli (GPa) = 103.35336 87.39494 86.82498
#
# Poissons Ratio (x) = 0.09269 0.43376
# Poissons Ratio (y) = 0.10962 0.39194
# Poissons Ratio (z) = 0.51633 0.39451
#
# Static dielectric constant tensor:
#      x y z
#    x 1.945240 0.000000 0.000000 
#    y 0.000000 2.003080 0.000000 
#    z 0.000000 0.000000 2.139020 
# 
# From -- ./inp_files/23114.got.cif
#   From: 2010.05.17/outbox.cif.g08.bks.cpg/sg54_12_cif.got.tgz:23114.got - 2010.06.03 13:09:01.
