data_PCOD9424638
_publ_section_title
;
Structure prediction by ZEFSAII (Michael W. Deem and Ramdas Pophale) SiO2 
 PCOD9424638
Probable space group: P C C A
;
_chemical_formula_sum "Si O2"
_cell_formula_units_Z 56
_cell_length_a 9.000000
_cell_length_b 15.000000
_cell_length_c 21.000000
_cell_angle_alpha 90.000000
_cell_angle_beta 90.000000
_cell_angle_gamma 90.000000
_cell_volume 2835.000000
_symmetry_space_group_name_H-M "P C C A"
_symmetry_group_IT_number 54
_symmetry_cell_setting 'orthorhombic'
loop_
_space_group_symop_operation_xyz
x,y,z
1/2-x,-y,z
1/2+x,-y,1/2-z
-x,y,1/2-z
-x,-y,-z
1/2+x,y,-z
1/2-x,y,1/2+z
x,-y,1/2+z
loop_
_atom_site_type_symbol
_atom_site_label
_atom_site_fract_x
_atom_site_fract_y
_atom_site_fract_z
Si Si1 0.750000 0.000000 0.338210
Si Si2 0.051481 0.581102 0.418047
Si Si3 0.382483 0.390702 0.954482
Si Si4 0.468850 0.194254 0.954066
Si Si5 0.191631 0.169547 0.584100
Si Si6 0.730010 0.891048 0.148562
Si Si7 0.012441 0.257106 0.825818
Si Si8 0.000000 0.912235 0.750000
O O1 0.683250 0.073639 0.384271
O O2 0.886265 0.032717 0.294464
O O3 0.056322 0.473524 0.412646
O O4 0.206203 0.605072 0.451870
O O5 0.928854 0.599665 0.471750
O O6 0.049202 0.646860 0.357673
O O7 0.435003 0.294656 0.931868
O O8 0.641677 0.178446 0.941660
O O9 0.358300 0.128787 0.916349
O O10 0.424695 0.185723 0.027745
O O11 0.145198 0.233558 0.641767
O O12 0.612546 0.862163 0.203303
O O13 0.872376 0.824623 0.155814
O O14 0.750000 0.000000 0.154637
O O15 0.000000 0.260470 0.750000
#
# Coordination Sequence:
#
# PCOD9424638 Si02
#       8
#     4   8   8   8   8   8   8   4
#     4  12  26  44  64  94 134 186 236 272 334 402
#     4  10  21  40  71  99 125 171 219 272 347 397
#     4  10  20  41  69  97 130 164 214 278 336 415
#     4  12  24  44  66 101 138 168 228 281 351 401
#     4  12  27  42  67  99 136 179 223 286 343 402
#     4  12  26  43  69  95 135 185 228 279 333 402
#     4  12  26  45  68  97 136 180 229 283 330 407
#     4  12  24  46  66  92 128 186 238 272 324 408
#
# _framework density 19.753086
#
# number of rings (size 3 to 8) (size 9 to 14) (size 15 to 20)
#    0.000    0.571    5.000    3.429    3.000    0.571 
#    0.000    0.000    7.857    0.000    0.000    0.000 
#    0.000    0.000    0.000    0.000    0.000    0.000 
#
# Total GULP energy -312534.306623 kJ/mol
# GULP energy per Si atom -5580.969761 kJ/mol
# Density = 1.970813 g / cm^3
# Si number density = 19.753086 Si / 1000 Ang^3
#
#
#
# Elastic Constant Matrix: (Units=GPa)
#
#
# Indices 1 2 3 4 5 6 
#
# 1 70.6364 10.3366 38.3662 0.0000 0.0000 0.0000
# 2 10.3366 74.2286 54.2989 0.0000 0.0000 0.0000
# 3 38.3662 54.2989 115.9067 0.0000 0.0000 0.0000
# 4 0.0000 0.0000 0.0000 5.4066 0.0000 0.0000
# 5 0.0000 0.0000 0.0000 0.0000 -2.4538 0.0000
# 6 0.0000 0.0000 0.0000 0.0000 0.0000 19.2855
#
#
#
# Elastic Compliance Matrix: (Units=1/GPa)
#
#
# Indices 1 2 3 4 5 6 
#
# 1 0.017624 0.002759 -0.007126 0.000000 0.000000 0.000000
# 2 0.002759 0.020927 -0.010717 0.000000 0.000000 0.000000
# 3 -0.007126 -0.010717 0.016007 0.000000 0.000000 0.000000
# 4 0.000000 0.000000 0.000000 0.184961 0.000000 0.000000
# 5 0.000000 0.000000 0.000000 0.000000 -0.407528 0.000000
# 6 0.000000 0.000000 0.000000 0.000000 0.000000 0.051852
#
#
# Mechanical properties :
#
#
# Convention : Reuss Voigt Hill
#
# Bulk Modulus (GPa) = 41.00148 51.86389 46.43269
# Shear Modulus (GPa) = -64.21872 14.96565 -24.62654
#
# Velocity S-wave (km/s) = -5.70800 2.75550 -3.53472
# Velocity P-wave (km/s) = 4.75812 6.03629 2.62651
#
# Compressibility (1/GPa) = 0.02438936
#
# Stress axis : x y z
#
# Youngs Moduli (GPa) = 56.74146 47.78448 62.47286
#
# Poissons Ratio (x) = -0.13181 0.44518
# Poissons Ratio (y) = -0.15652 0.66952
# Poissons Ratio (z) = 0.40434 0.51210
#
# Static dielectric constant tensor:
#      x y z
#    x 1.784560 0.000000 0.000000 
#    y 0.000000 -2.860660 0.000000 
#    z 0.000000 0.000000 1.776350 
# 
# From -- ./inp_files/20584.got.cif
#   From: 2010.05.17/outbox.ucp.g08.bks.cvg/sg54_11_cif.got.tgz:20584.got - 2010.06.11 16:34:40.
