data_PCOD9424945
_publ_section_title
;
Structure prediction by ZEFSAII (Michael W. Deem and Ramdas Pophale) SiO2 
 PCOD9424945
Probable space group: P B A M
;
_chemical_formula_sum "Si O2"
_cell_formula_units_Z 64
_cell_length_a 23.838611
_cell_length_b 15.996101
_cell_length_c 7.710510
_cell_angle_alpha 90.000000
_cell_angle_beta 90.000000
_cell_angle_gamma 90.000000
_cell_volume 2940.208909
_symmetry_space_group_name_H-M "P B A M"
_symmetry_group_IT_number 55
_symmetry_cell_setting 'orthorhombic'
loop_
_space_group_symop_operation_xyz
x,y,z
-x,-y,z
1/2+x,1/2-y,-z
1/2-x,1/2+y,-z
-x,-y,-z
x,y,-z
1/2-x,1/2+y,z
1/2+x,1/2-y,z
loop_
_atom_site_type_symbol
_atom_site_label
_atom_site_fract_x
_atom_site_fract_y
_atom_site_fract_z
Si Si1 0.546642 0.209153 0.208651
Si Si2 0.577352 0.571343 0.287795
Si Si3 0.783118 0.497234 0.296313
Si Si4 0.695311 0.633417 0.708122
Si Si5 0.803143 0.317042 0.794015
Si Si6 0.408916 0.965852 0.200697
Si Si7 0.071020 0.647337 0.212257
Si Si8 0.952359 0.890248 0.293515
O O1 0.576477 0.124833 0.274915
O O2 0.481877 0.201518 0.268744
O O3 0.571252 0.298856 0.256705
O O4 0.547154 0.207112 0.000000
O O5 0.577250 0.575441 0.500000
O O6 0.631823 0.620784 0.225072
O O7 0.579997 0.473450 0.235163
O O8 0.516683 0.603739 0.226778
O O9 0.790962 0.513810 0.500000
O O10 0.735050 0.558655 0.229257
O O11 0.771515 0.398641 0.275238
O O12 0.842549 0.517077 0.208419
O O13 0.692805 0.626712 0.500000
O O14 0.718234 0.725078 0.750778
O O15 0.867848 0.322629 0.728327
O O16 0.804563 0.326020 0.000000
O O17 0.436107 0.051037 0.272219
O O18 0.427075 0.962918 0.000000
O O19 0.071740 0.647299 0.000000
O O20 0.955882 0.898461 0.500000
#
# Coordination Sequence:
#
# PCOD9424945 Si02
#       8
#     8   8   8   8   8   8   8   8
#     4  10  18  29  48  75 105 135 169 208 256 315
#     4   8  16  33  54  74  99 133 169 209 255 305
#     4  10  21  37  55  76 105 140 180 224 264 306
#     4  10  20  36  58  80 102 135 180 221 259 307
#     4  10  20  35  57  82 107 136 171 217 269 316
#     4   9  18  33  51  70 101 139 173 213 263 311
#     4   8  15  29  50  74  99 133 172 207 253 310
#     4   9  17  31  51  74 103 135 166 203 254 312
#
# _framework density 21.767160000000001
#
# number of rings (size 3 to 8) (size 9 to 14) (size 15 to 20)
#    0.000    2.750    0.000    3.375    0.000    3.000 
#    2.250    4.375    0.000    3.750    0.000    0.000 
#    0.000    0.000    0.000    0.000    0.000    0.000 
#
# Total GULP energy -357058.515628 kJ/mol
# GULP energy per Si atom -5579.039307 kJ/mol
# Density = 2.171762 g / cm^3
# Si number density = 21.767160 Si / 1000 Ang^3
#
#
#
# Elastic Constant Matrix: (Units=GPa)
#
#
# Indices 1 2 3 4 5 6 
#
# 1 17.5408 20.9060 -2.3421 0.0000 0.0000 0.0000
# 2 20.9060 165.3534 -6.9681 0.0000 0.0000 0.0000
# 3 -2.3421 -6.9681 32.0835 0.0000 0.0000 0.0000
# 4 0.0000 0.0000 0.0000 20.6003 0.0000 0.0000
# 5 0.0000 0.0000 0.0000 0.0000 3.2743 0.0000
# 6 0.0000 0.0000 0.0000 0.0000 0.0000 23.3077
#
#
#
# Elastic Compliance Matrix: (Units=1/GPa)
#
#
# Indices 1 2 3 4 5 6 
#
# 1 0.067429 -0.008395 0.003099 0.000000 0.000000 0.000000
# 2 -0.008395 0.007149 0.000940 0.000000 0.000000 0.000000
# 3 0.003099 0.000940 0.031599 0.000000 0.000000 0.000000
# 4 0.000000 0.000000 0.000000 0.048543 0.000000 0.000000
# 5 0.000000 0.000000 0.000000 0.000000 0.305405 0.000000
# 6 0.000000 0.000000 0.000000 0.000000 0.000000 0.042904
#
#
# Mechanical properties :
#
#
# Convention : Reuss Voigt Hill
#
# Bulk Modulus (GPa) = 10.26008 26.46325 18.36166
# Shear Modulus (GPa) = 9.18733 22.99526 16.09129
#
# Velocity S-wave (km/s) = 2.05667 3.25379 2.72186
# Velocity P-wave (km/s) = 3.21926 5.12835 4.28157
#
# Compressibility (1/GPa) = 0.09746510
#
# Stress axis : x y z
#
# Youngs Moduli (GPa) = 14.83047 139.88760 31.64656
#
# Poissons Ratio (x) = 1.17429 -0.09808
# Poissons Ratio (y) = 0.12450 -0.02974
# Poissons Ratio (z) = -0.04596 -0.13146
#
# Static dielectric constant tensor:
#      x y z
#    x 1.783250 0.000000 0.000000 
#    y 0.000000 1.831870 0.000000 
#    z 0.000000 0.000000 1.808970 
# 
# From -- ./inp_files/9654.got.cif
#   From: 2010.05.17/outbox.cif.g08.bks.cpg/sg55_5_cif.got.tgz:9654.got - 2010.06.03 13:27:54.
