data_PCOD9424803
_publ_section_title
;
Structure prediction by ZEFSAII (Michael W. Deem and Ramdas Pophale) SiO2 
 PCOD9424803
Probable space group: P B A M
;
_chemical_formula_sum "Si O2"
_cell_formula_units_Z 56
_cell_length_a 25.400895
_cell_length_b 15.031709
_cell_length_c 7.534390
_cell_angle_alpha 90.000000
_cell_angle_beta 90.000000
_cell_angle_gamma 90.000000
_cell_volume 2876.772216
_symmetry_space_group_name_H-M "P B A M"
_symmetry_group_IT_number 55
_symmetry_cell_setting 'orthorhombic'
loop_
_space_group_symop_operation_xyz
x,y,z
-x,-y,z
1/2+x,1/2-y,-z
1/2-x,1/2+y,-z
-x,-y,-z
x,y,-z
1/2-x,1/2+y,z
1/2+x,1/2-y,z
loop_
_atom_site_type_symbol
_atom_site_label
_atom_site_fract_x
_atom_site_fract_y
_atom_site_fract_z
Si Si1 0.793154 0.261807 0.781987
Si Si2 0.214364 0.536159 0.213706
Si Si3 0.189663 0.346528 0.792059
Si Si4 0.603552 0.289441 0.699825
Si Si5 0.993948 0.898981 0.708075
Si Si6 0.390597 0.360648 0.785593
Si Si7 0.836355 0.959926 0.787006
O O1 0.796588 0.364093 0.720635
O O2 0.739563 0.211289 0.722304
O O3 0.845372 0.207793 0.729004
O O4 0.791374 0.262866 0.000000
O O5 0.186153 0.446917 0.281253
O O6 0.275973 0.518564 0.247129
O O7 0.206323 0.541497 0.000000
O O8 0.135360 0.292813 0.779099
O O9 0.202006 0.357050 0.000000
O O10 0.589323 0.263231 0.500000
O O11 0.552467 0.337092 0.784753
O O12 0.645869 0.369008 0.700861
O O13 0.980443 0.910770 0.500000
O O14 0.049778 0.849954 0.724102
O O15 0.000000 0.000000 0.782692
O O16 0.372333 0.458780 0.727705
O O17 0.390769 0.359961 0.000000
O O18 0.841712 0.948825 0.000000
#
# Coordination Sequence:
#
# PCOD9424803 Si02
#       7
#     8   8   8   8   8   8   8
#     4   9  16  28  49  77 106 130 158 200 248 295
#     4   9  16  28  50  77 104 134 161 193 244 301
#     4  10  18  31  53  76 100 132 166 199 246 298
#     4  11  22  34  48  70 102 136 169 204 247 294
#     4  10  21  36  50  67  98 138 168 200 255 305
#     4  10  19  30  50  79 104 128 167 209 242 289
#     4  10  17  28  50  77 103 132 164 198 240 296
#
# _framework density 19.466262
#
# number of rings (size 3 to 8) (size 9 to 14) (size 15 to 20)
#    0.000    2.143    4.286    0.429    0.000    1.429 
#    0.000    1.429    0.000    0.857    0.000    6.000 
#    0.000    0.000    0.000    0.000    0.000    0.000 
#
# Total GULP energy -312284.985896 kJ/mol
# GULP energy per Si atom -5576.517605 kJ/mol
# Density = 1.942196 g / cm^3
# Si number density = 19.466262 Si / 1000 Ang^3
#
#
#
# Elastic Constant Matrix: (Units=GPa)
#
#
# Indices 1 2 3 4 5 6 
#
# 1 66.1644 16.5799 1.1403 0.0000 0.0000 0.0000
# 2 16.5799 85.2229 3.0073 0.0000 0.0000 0.0000
# 3 1.1403 3.0073 40.3369 0.0000 0.0000 0.0000
# 4 0.0000 0.0000 0.0000 -1.8018 0.0000 0.0000
# 5 0.0000 0.0000 0.0000 0.0000 23.0192 0.0000
# 6 0.0000 0.0000 0.0000 0.0000 0.0000 30.6198
#
#
#
# Elastic Compliance Matrix: (Units=1/GPa)
#
#
# Indices 1 2 3 4 5 6 
#
# 1 0.015890 -0.003084 -0.000219 0.000000 0.000000 0.000000
# 2 -0.003084 0.012363 -0.000835 0.000000 0.000000 0.000000
# 3 -0.000219 -0.000835 0.024860 0.000000 0.000000 0.000000
# 4 0.000000 0.000000 0.000000 -0.555014 0.000000 0.000000
# 5 0.000000 0.000000 0.000000 0.000000 0.043442 0.000000
# 6 0.000000 0.000000 0.000000 0.000000 0.000000 0.032659
#
#
# Mechanical properties :
#
#
# Convention : Reuss Voigt Hill
#
# Bulk Modulus (GPa) = 22.30243 25.90881 24.10562
# Shear Modulus (GPa) = -12.41992 21.76723 4.67365
#
# Velocity S-wave (km/s) = -2.52865 3.34758 1.55116
# Velocity P-wave (km/s) = 1.71942 5.31792 3.95200
#
# Compressibility (1/GPa) = 0.04483816
#
# Stress axis : x y z
#
# Youngs Moduli (GPa) = 62.93116 80.88446 40.22584
#
# Poissons Ratio (x) = 0.24942 0.00882
# Poissons Ratio (y) = 0.19406 0.03357
# Poissons Ratio (z) = 0.01380 0.06750
#
# Static dielectric constant tensor:
#      x y z
#    x 1.671600 0.000000 0.000000 
#    y 0.000000 1.693610 0.000000 
#    z 0.000000 0.000000 1.763960 
# 
# From -- ./inp_files/8669.got.cif
#   From: 2010.05.17/outbox.cif.g08.bks.cpg/sg55_5_cif.got.tgz:8669.got - 2010.06.03 13:27:54.
