data_PCOD9424571
_publ_section_title
;
Structure prediction by ZEFSAII (Michael W. Deem and Ramdas Pophale) SiO2 
 PCOD9424571
Probable space group: P C C A
;
_chemical_formula_sum "Si O2"
_cell_formula_units_Z 32
_cell_length_a 17.149512
_cell_length_b 7.460818
_cell_length_c 10.091811
_cell_angle_alpha 90.000000
_cell_angle_beta 90.000000
_cell_angle_gamma 90.000000
_cell_volume 1291.241039
_symmetry_space_group_name_H-M "P C C A"
_symmetry_group_IT_number 54
_symmetry_cell_setting 'orthorhombic'
loop_
_space_group_symop_operation_xyz
x,y,z
1/2-x,-y,z
1/2+x,-y,1/2-z
-x,y,1/2-z
-x,-y,-z
1/2+x,y,-z
1/2-x,y,1/2+z
x,-y,1/2+z
loop_
_atom_site_type_symbol
_atom_site_label
_atom_site_fract_x
_atom_site_fract_y
_atom_site_fract_z
Si Si1 0.398874 0.502771 0.570420
Si Si2 0.187391 0.628229 0.326211
Si Si3 0.750000 0.000000 0.102058
Si Si4 0.918852 0.898303 0.534344
Si Si5 0.500000 0.737078 0.250000
O O1 0.378983 0.389057 0.438188
O O2 0.337031 0.532259 0.690311
O O3 0.417839 0.707782 0.537614
O O4 0.466544 0.391821 0.639372
O O5 0.250000 0.500000 0.394164
O O6 0.226574 0.822516 0.315282
O O7 0.830793 0.027877 0.019835
O O8 0.931159 0.857737 0.690934
O O9 0.000000 0.000000 0.500000
#
# Coordination Sequence:
#
# PCOD9424571 Si02
#       5
#     8   8   4   8   4
#     4  12  26  51  80 115 167 218 270 349 415 501
#     4  12  26  51  80 119 162 215 275 337 418 494
#     4  12  28  52  82 124 162 226 278 350 414 510
#     4  12  29  50  81 119 165 214 283 344 416 501
#     4  12  26  50  80 116 160 220 272 342 422 494
#
# _framework density 24.782361000000002
#
# number of rings (size 3 to 8) (size 9 to 14) (size 15 to 20)
#    0.000    0.000    5.000    3.000    7.000    1.000 
#    0.000    0.000    0.000    0.000    0.000    0.000 
#    0.000    0.000    0.000    0.000    0.000    0.000 
#
# Total GULP energy -178640.299114 kJ/mol
# GULP energy per Si atom -5582.509347 kJ/mol
# Density = 2.472595 g / cm^3
# Si number density = 24.782361 Si / 1000 Ang^3
#
#
#
# Elastic Constant Matrix: (Units=GPa)
#
#
# Indices 1 2 3 4 5 6 
#
# 1 172.8161 41.7134 32.7108 0.0000 0.0000 0.0000
# 2 41.7134 106.5652 0.5924 0.0000 0.0000 0.0000
# 3 32.7108 0.5924 78.7533 0.0000 0.0000 0.0000
# 4 0.0000 0.0000 0.0000 18.8726 0.0000 0.0000
# 5 0.0000 0.0000 0.0000 0.0000 26.4828 0.0000
# 6 0.0000 0.0000 0.0000 0.0000 0.0000 53.6402
#
#
#
# Elastic Compliance Matrix: (Units=1/GPa)
#
#
# Indices 1 2 3 4 5 6 
#
# 1 0.006988 -0.002720 -0.002882 0.000000 0.000000 0.000000
# 2 -0.002720 0.010443 0.001051 0.000000 0.000000 0.000000
# 3 -0.002882 0.001051 0.013887 0.000000 0.000000 0.000000
# 4 0.000000 0.000000 0.000000 0.052987 0.000000 0.000000
# 5 0.000000 0.000000 0.000000 0.000000 0.037760 0.000000
# 6 0.000000 0.000000 0.000000 0.000000 0.000000 0.018643
#
#
# Mechanical properties :
#
#
# Convention : Reuss Voigt Hill
#
# Bulk Modulus (GPa) = 45.01116 56.46309 50.73713
# Shear Modulus (GPa) = 31.80354 38.67367 35.23860
#
# Velocity S-wave (km/s) = 3.58622 3.95464 3.77493
# Velocity P-wave (km/s) = 5.94559 6.60949 6.28631
#
# Compressibility (1/GPa) = 0.02221671
#
# Stress axis : x y z
#
# Youngs Moduli (GPa) = 143.09271 95.76165 72.00902
#
# Poissons Ratio (x) = 0.26043 0.20755
# Poissons Ratio (y) = 0.38914 -0.07568
# Poissons Ratio (z) = 0.41243 -0.10065
#
# Static dielectric constant tensor:
#      x y z
#    x 1.297200 0.000000 0.000000 
#    y 0.000000 1.955990 0.000000 
#    z 0.000000 0.000000 2.041540 
# 
# From -- ./inp_files/7991.got.cif
#   From: 2010.05.17/outbox.cif.g08.bks.cpg/sg54_4_cif.got.tgz:7991.got - 2010.06.03 13:09:01.
