data_PCOD9424984
_publ_section_title
;
Structure prediction by ZEFSAII (Michael W. Deem and Ramdas Pophale) SiO2 
 PCOD9424984
Probable space group: P B A M
;
_chemical_formula_sum "Si O2"
_cell_formula_units_Z 64
_cell_length_a 25.704522
_cell_length_b 7.674346
_cell_length_c 19.555120
_cell_angle_alpha 90.000000
_cell_angle_beta 90.000000
_cell_angle_gamma 90.000000
_cell_volume 3857.548483
_symmetry_space_group_name_H-M "P B A M"
_symmetry_group_IT_number 55
_symmetry_cell_setting 'orthorhombic'
loop_
_space_group_symop_operation_xyz
x,y,z
-x,-y,z
1/2+x,1/2-y,-z
1/2-x,1/2+y,-z
-x,-y,-z
x,y,-z
1/2-x,1/2+y,z
1/2+x,1/2-y,z
loop_
_atom_site_type_symbol
_atom_site_label
_atom_site_fract_x
_atom_site_fract_y
_atom_site_fract_z
Si Si1 0.411257 0.766131 0.829705
Si Si2 0.936887 0.004205 0.422134
Si Si3 0.816398 0.833383 0.076592
Si Si4 0.006642 0.712904 0.078250
Si Si5 0.697034 0.745816 0.922942
Si Si6 0.102009 0.675943 0.831969
Si Si7 0.935263 0.300045 0.685245
Si Si8 0.439252 0.791067 0.317902
O O1 0.358594 0.720575 0.868283
O O2 0.460147 0.711508 0.875968
O O3 0.415214 0.710705 0.751251
O O4 0.414468 0.975246 0.824887
O O5 0.917807 0.011281 0.500000
O O6 0.921227 0.170905 0.376499
O O7 0.923386 0.828100 0.381515
O O8 0.000000 0.000000 0.424689
O O9 0.757924 0.770926 0.091732
O O10 0.814223 0.041364 0.074549
O O11 0.830610 0.769072 0.000000
O O12 0.000000 0.500000 0.077096
O O13 0.061295 0.755752 0.114055
O O14 0.004552 0.771296 0.000000
O O15 0.658745 0.819914 0.865644
O O16 0.687306 0.819127 0.000000
O O17 0.093032 0.750906 0.756257
O O18 0.925126 0.505496 0.671635
O O19 0.998057 0.284733 0.693664
#
# Coordination Sequence:
#
# PCOD9424984 Si02
#       8
#     8   8   8   8   8   8   8   8
#     4  10  18  30  48  69  94 128 164 202 248 295
#     4   9  18  30  46  70  98 132 168 200 240 293
#     4  10  21  35  49  66  90 125 167 212 258 297
#     4   9  16  26  43  67  93 124 164 201 238 292
#     4  10  21  35  49  66  90 125 167 212 258 297
#     4  10  18  30  48  69  94 128 164 202 248 295
#     4   9  17  30  47  69  99 134 166 198 244 295
#     4   9  17  30  47  69  99 134 166 198 244 295
#
# _framework density 16.590847
#
# number of rings (size 3 to 8) (size 9 to 14) (size 15 to 20)
#    0.000    2.500    1.250    1.500    1.750    3.000 
#    0.000    3.125    0.000    2.250    0.000    0.000 
#    0.000    1.000    0.500    0.000    0.000    0.000 
#
# Total GULP energy -356825.319888 kJ/mol
# GULP energy per Si atom -5575.395623 kJ/mol
# Density = 1.655309 g / cm^3
# Si number density = 16.590847 Si / 1000 Ang^3
#
#
#
# Elastic Constant Matrix: (Units=GPa)
#
#
# Indices 1 2 3 4 5 6 
#
# 1 40.3699 -2.9162 33.1908 0.0000 0.0000 0.0000
# 2 -2.9162 38.2719 23.4514 0.0000 0.0000 0.0000
# 3 33.1908 23.4514 125.0964 0.0000 0.0000 0.0000
# 4 0.0000 0.0000 0.0000 19.3082 0.0000 0.0000
# 5 0.0000 0.0000 0.0000 0.0000 15.7312 0.0000
# 6 0.0000 0.0000 0.0000 0.0000 0.0000 13.8644
#
#
#
# Elastic Compliance Matrix: (Units=1/GPa)
#
#
# Indices 1 2 3 4 5 6 
#
# 1 0.034366 0.009271 -0.010856 0.000000 0.000000 0.000000
# 2 0.009271 0.032021 -0.008463 0.000000 0.000000 0.000000
# 3 -0.010856 -0.008463 0.012461 0.000000 0.000000 0.000000
# 4 0.000000 0.000000 0.000000 0.051791 0.000000 0.000000
# 5 0.000000 0.000000 0.000000 0.000000 0.063568 0.000000
# 6 0.000000 0.000000 0.000000 0.000000 0.000000 0.072127
#
#
# Mechanical properties :
#
#
# Convention : Reuss Voigt Hill
#
# Bulk Modulus (GPa) = 17.02079 34.57671 25.79875
# Shear Modulus (GPa) = 16.33914 19.78157 18.06035
#
# Velocity S-wave (km/s) = 3.14160 3.45674 3.30293
# Velocity P-wave (km/s) = 4.84159 6.06780 5.48904
#
# Compressibility (1/GPa) = 0.05875168
#
# Stress axis : x y z
#
# Youngs Moduli (GPa) = 29.09848 31.22974 80.25277
#
# Poissons Ratio (x) = -0.28952 0.87123
# Poissons Ratio (y) = -0.26976 0.67914
# Poissons Ratio (z) = 0.31589 0.26428
#
# Static dielectric constant tensor:
#      x y z
#    x 1.537970 0.000000 0.000000 
#    y 0.000000 1.604270 0.000000 
#    z 0.000000 0.000000 1.572490 
# 
# From -- ./inp_files/22119.got.cif
#   From: 2010.05.17/outbox.cif.g08.bks.cpg/sg55_12_cif.got.tgz:22119.got - 2010.06.03 13:27:54.
