data_PCOD9424268
_publ_section_title
;
Structure prediction by ZEFSAII (Michael W. Deem and Ramdas Pophale) SiO2 
 PCOD9424268
Probable space group: P C C A
;
_chemical_formula_sum "Si O2"
_cell_formula_units_Z 40
_cell_length_a 9.113659
_cell_length_b 22.418794
_cell_length_c 9.434261
_cell_angle_alpha 90.000000
_cell_angle_beta 90.000000
_cell_angle_gamma 90.000000
_cell_volume 1927.582204
_symmetry_space_group_name_H-M "P C C A"
_symmetry_group_IT_number 54
_symmetry_cell_setting 'orthorhombic'
loop_
_space_group_symop_operation_xyz
x,y,z
1/2-x,-y,z
1/2+x,-y,1/2-z
-x,y,1/2-z
-x,-y,-z
1/2+x,y,-z
1/2-x,y,1/2+z
x,-y,1/2+z
loop_
_atom_site_type_symbol
_atom_site_label
_atom_site_fract_x
_atom_site_fract_y
_atom_site_fract_z
Si Si1 0.102000 0.740940 0.386923
Si Si2 0.644826 0.056669 0.836084
Si Si3 0.367374 0.878482 0.862914
Si Si4 0.401244 0.535387 0.389879
Si Si5 0.903894 0.671026 0.609350
O O1 0.140057 0.810014 0.414063
O O2 0.250614 0.704103 0.366364
O O3 0.000000 0.740238 0.250000
O O4 0.003514 0.709590 0.504863
O O5 0.500000 0.038637 0.750000
O O6 0.726483 0.103068 0.730559
O O7 0.750000 0.000000 0.851860
O O8 0.616221 0.082684 0.993562
O O9 0.500000 0.884960 0.750000
O O10 0.250000 0.500000 0.366128
O O11 0.500000 0.537897 0.250000
O O12 0.500000 0.500000 0.500000
O O13 0.373396 0.603269 0.440579
O O14 0.000000 0.666916 0.750000
#
# Coordination Sequence:
#
# PCOD9424268 Si02
#       5
#     8   8   8   8   8
#     4  11  26  43  68 102 139 182 236 286 353 427
#     4  12  27  48  75 103 146 185 238 298 354 430
#     4  11  27  45  72 107 138 189 236 291 364 425
#     4  11  24  42  67  99 136 182 234 289 353 418
#     4  11  25  43  68  99 140 184 230 291 353 417
#
# _framework density 20.751384000000002
#
# number of rings (size 3 to 8) (size 9 to 14) (size 15 to 20)
#    0.000    0.800    0.000    5.400   11.200    8.800 
#    0.000    1.000    0.000    0.000    0.000    0.000 
#    0.000    0.000    0.000    0.000    0.000    0.000 
#
# Total GULP energy -223826.669919 kJ/mol
# GULP energy per Si atom -5595.666748 kJ/mol
# Density = 2.070415 g / cm^3
# Si number density = 20.751384 Si / 1000 Ang^3
#
#
#
# Elastic Constant Matrix: (Units=GPa)
#
#
# Indices 1 2 3 4 5 6 
#
# 1 145.4709 77.2165 27.3462 0.0000 0.0000 0.0000
# 2 77.2165 194.5772 64.8013 0.0000 0.0000 0.0000
# 3 27.3462 64.8013 112.8133 0.0000 0.0000 0.0000
# 4 0.0000 0.0000 0.0000 29.2155 0.0000 0.0000
# 5 0.0000 0.0000 0.0000 0.0000 34.6320 0.0000
# 6 0.0000 0.0000 0.0000 0.0000 0.0000 33.5933
#
#
#
# Elastic Compliance Matrix: (Units=1/GPa)
#
#
# Indices 1 2 3 4 5 6 
#
# 1 0.008711 -0.003405 -0.000156 0.000000 0.000000 0.000000
# 2 -0.003405 0.007686 -0.003590 0.000000 0.000000 0.000000
# 3 -0.000156 -0.003590 0.010964 0.000000 0.000000 0.000000
# 4 0.000000 0.000000 0.000000 0.034228 0.000000 0.000000
# 5 0.000000 0.000000 0.000000 0.000000 0.028875 0.000000
# 6 0.000000 0.000000 0.000000 0.000000 0.000000 0.029768
#
#
# Mechanical properties :
#
#
# Convention : Reuss Voigt Hill
#
# Bulk Modulus (GPa) = 76.56803 87.95437 82.26120
# Shear Modulus (GPa) = 36.00076 38.38799 37.19438
#
# Velocity S-wave (km/s) = 4.16968 4.30571 4.23824
# Velocity P-wave (km/s) = 7.75626 8.19730 7.97983
#
# Compressibility (1/GPa) = 0.01306028
#
# Stress axis : x y z
#
# Youngs Moduli (GPa) = 114.79892 130.10551 91.20888
#
# Poissons Ratio (x) = 0.44301 0.01420
# Poissons Ratio (y) = 0.39089 0.32740
# Poissons Ratio (z) = 0.01787 0.46703
#
# Static dielectric constant tensor:
#      x y z
#    x 1.726100 0.000000 0.000000 
#    y 0.000000 1.770650 0.000000 
#    z 0.000000 0.000000 1.655030 
# 
# From -- ./inp_files/2529.got.cif
#   From: 2010.05.17/outbox.cif.g08.bks.cpg/sg54_2_cif.got.tgz:2529.got - 2010.06.03 13:09:01.
