data_PCOD9424052
_publ_section_title
;
Structure prediction by ZEFSAII (Michael W. Deem and Ramdas Pophale) SiO2 
 PCOD9424052
Probable space group: P C C A
;
_chemical_formula_sum "Si O2"
_cell_formula_units_Z 52
_cell_length_a 18.280783
_cell_length_b 8.248018
_cell_length_c 14.612253
_cell_angle_alpha 90.000000
_cell_angle_beta 90.000000
_cell_angle_gamma 90.000000
_cell_volume 2203.238828
_symmetry_space_group_name_H-M "P C C A"
_symmetry_group_IT_number 54
_symmetry_cell_setting 'orthorhombic'
loop_
_space_group_symop_operation_xyz
x,y,z
1/2-x,-y,z
1/2+x,-y,1/2-z
-x,y,1/2-z
-x,-y,-z
1/2+x,y,-z
1/2-x,y,1/2+z
x,-y,1/2+z
loop_
_atom_site_type_symbol
_atom_site_label
_atom_site_fract_x
_atom_site_fract_y
_atom_site_fract_z
Si Si1 0.931884 0.591058 0.541849
Si Si2 0.093998 0.884368 0.846551
Si Si3 0.666012 0.045364 0.976482
Si Si4 0.261317 0.193030 0.765858
Si Si5 0.190871 0.369508 0.940429
Si Si6 0.369355 0.241364 0.134833
Si Si7 0.500000 0.841610 0.750000
O O1 0.951897 0.742241 0.605544
O O2 0.879413 0.466709 0.594297
O O3 0.882863 0.657751 0.457014
O O4 0.000000 0.500000 0.500000
O O5 0.150561 0.800145 0.775156
O O6 0.047015 0.033513 0.810990
O O7 0.141258 0.964072 0.928563
O O8 0.663002 0.237841 0.986364
O O9 0.750000 0.000000 0.962789
O O10 0.625198 0.948228 0.896952
O O11 0.229569 0.272361 0.858344
O O12 0.208528 0.262904 0.685826
O O13 0.250000 0.000000 0.763930
O O14 0.250000 0.500000 0.973811
O O15 0.439487 0.265035 0.198748
#
# Coordination Sequence:
#
# PCOD9424052 Si02
#       7
#     8   8   8   8   8   8   4
#     4  11  28  47  69 103 148 191 227 289 371 438
#     4  11  23  47  71 103 138 188 240 291 356 414
#     4  11  21  42  76  99 128 182 246 292 327 417
#     4  12  21  46  75 102 135 186 241 300 343 407
#     4  12  22  42  71 100 139 187 229 282 364 422
#     4  11  27  44  73 105 138 188 249 292 345 421
#     4  12  26  42  72 110 142 184 244 290 358 414
#
# _framework density 23.601618999999999
#
# number of rings (size 3 to 8) (size 9 to 14) (size 15 to 20)
#    0.000    0.615    6.154    1.385    6.462    1.231 
#    2.769    3.846    0.000    0.000    0.000    0.000 
#    0.000    0.000    0.000    0.000    0.000    0.000 
#
# Total GULP energy -290661.210481 kJ/mol
# GULP energy per Si atom -5589.638663 kJ/mol
# Density = 2.354790 g / cm^3
# Si number density = 23.601619 Si / 1000 Ang^3
#
#
#
# Elastic Constant Matrix: (Units=GPa)
#
#
# Indices 1 2 3 4 5 6 
#
# 1 68.5169 -2.2295 23.1753 0.0000 0.0000 0.0000
# 2 -2.2295 67.8392 4.1409 0.0000 0.0000 0.0000
# 3 23.1753 4.1409 64.2626 0.0000 0.0000 0.0000
# 4 0.0000 0.0000 0.0000 26.9746 0.0000 0.0000
# 5 0.0000 0.0000 0.0000 0.0000 30.2016 0.0000
# 6 0.0000 0.0000 0.0000 0.0000 0.0000 34.0869
#
#
#
# Elastic Compliance Matrix: (Units=1/GPa)
#
#
# Indices 1 2 3 4 5 6 
#
# 1 0.016679 0.000919 -0.006074 0.000000 0.000000 0.000000
# 2 0.000919 0.014850 -0.001288 0.000000 0.000000 0.000000
# 3 -0.006074 -0.001288 0.017835 0.000000 0.000000 0.000000
# 4 0.000000 0.000000 0.000000 0.037072 0.000000 0.000000
# 5 0.000000 0.000000 0.000000 0.000000 0.033111 0.000000
# 6 0.000000 0.000000 0.000000 0.000000 0.000000 0.029337
#
#
# Mechanical properties :
#
#
# Convention : Reuss Voigt Hill
#
# Bulk Modulus (GPa) = 27.41497 27.86577 27.64037
# Shear Modulus (GPa) = 28.74727 29.95476 29.35101
#
# Velocity S-wave (km/s) = 3.49380 3.56642 3.53030
# Velocity P-wave (km/s) = 5.28360 5.36577 5.32485
#
# Compressibility (1/GPa) = 0.03647642
#
# Stress axis : x y z
#
# Youngs Moduli (GPa) = 59.95403 67.34194 56.07017
#
# Poissons Ratio (x) = -0.06188 0.34059
# Poissons Ratio (y) = -0.05509 0.07223
# Poissons Ratio (z) = 0.36418 0.08675
#
# Static dielectric constant tensor:
#      x y z
#    x 1.931320 0.000000 0.000000 
#    y 0.000000 1.903330 0.000000 
#    z 0.000000 0.000000 1.929090 
# 
# From -- ./inp_files/18625.got.cif
#   From: 2010.05.17/outbox.cif.g08.bks.cpg/sg54_10_cif.got.tgz:18625.got - 2010.06.03 13:09:01.
