data_PCOD9424050
_publ_section_title
;
Structure prediction by ZEFSAII (Michael W. Deem and Ramdas Pophale) SiO2 
 PCOD9424050
Probable space group: P C C A
;
_chemical_formula_sum "Si O2"
_cell_formula_units_Z 40
_cell_length_a 14.376145
_cell_length_b 8.062224
_cell_length_c 15.060590
_cell_angle_alpha 90.000000
_cell_angle_beta 90.000000
_cell_angle_gamma 90.000000
_cell_volume 1745.578124
_symmetry_space_group_name_H-M "P C C A"
_symmetry_group_IT_number 54
_symmetry_cell_setting 'orthorhombic'
loop_
_space_group_symop_operation_xyz
x,y,z
1/2-x,-y,z
1/2+x,-y,1/2-z
-x,y,1/2-z
-x,-y,-z
1/2+x,y,-z
1/2-x,y,1/2+z
x,-y,1/2+z
loop_
_atom_site_type_symbol
_atom_site_label
_atom_site_fract_x
_atom_site_fract_y
_atom_site_fract_z
Si Si1 0.616925 0.286885 0.624327
Si Si2 0.565021 0.350353 0.166007
Si Si3 0.240990 0.703727 0.235477
Si Si4 0.751856 0.297207 0.465808
Si Si5 0.462355 0.816466 0.009071
O O1 0.613296 0.485071 0.629442
O O2 0.667010 0.231182 0.714417
O O3 0.680548 0.237155 0.540784
O O4 0.512142 0.244094 0.598791
O O5 0.500000 0.389074 0.250000
O O6 0.651538 0.247415 0.205689
O O7 0.510018 0.274828 0.083168
O O8 0.250000 0.500000 0.233257
O O9 0.228417 0.755371 0.134352
O O10 0.750000 0.500000 0.468140
O O11 0.853509 0.223173 0.485188
O O12 0.500000 0.000000 0.000000
#
# Coordination Sequence:
#
# PCOD9424050 Si02
#       5
#     8   8   8   8   8
#     4  11  22  42  70  98 136 181 235 296 356 424
#     4  11  22  42  69 106 136 179 244 308 357 427
#     4   9  20  36  66 103 130 165 230 303 348 410
#     4  11  21  42  71 100 134 178 238 294 357 426
#     4  12  27  43  67 102 146 194 234 293 379 455
#
# _framework density 22.915044999999999
#
# number of rings (size 3 to 8) (size 9 to 14) (size 15 to 20)
#    0.000    1.200    4.000    2.400    8.400    0.800 
#    3.600    0.000    0.000    0.000    0.000    0.000 
#    0.000    0.000    0.000    0.000    0.000    0.000 
#
# Total GULP energy -223370.019862 kJ/mol
# GULP energy per Si atom -5584.250497 kJ/mol
# Density = 2.286289 g / cm^3
# Si number density = 22.915045 Si / 1000 Ang^3
#
#
#
# Elastic Constant Matrix: (Units=GPa)
#
#
# Indices 1 2 3 4 5 6 
#
# 1 106.0529 11.2762 23.4618 0.0000 0.0000 0.0000
# 2 11.2762 28.2310 5.7465 0.0000 0.0000 0.0000
# 3 23.4618 5.7465 95.7104 0.0000 0.0000 0.0000
# 4 0.0000 0.0000 0.0000 -13.3739 0.0000 0.0000
# 5 0.0000 0.0000 0.0000 0.0000 46.4609 0.0000
# 6 0.0000 0.0000 0.0000 0.0000 0.0000 16.7937
#
#
#
# Elastic Compliance Matrix: (Units=1/GPa)
#
#
# Indices 1 2 3 4 5 6 
#
# 1 0.010330 -0.003655 -0.002313 0.000000 0.000000 0.000000
# 2 -0.003655 0.037154 -0.001335 0.000000 0.000000 0.000000
# 3 -0.002313 -0.001335 0.011095 0.000000 0.000000 0.000000
# 4 0.000000 0.000000 0.000000 -0.074773 0.000000 0.000000
# 5 0.000000 0.000000 0.000000 0.000000 0.021523 0.000000
# 6 0.000000 0.000000 0.000000 0.000000 0.000000 0.059546
#
#
# Mechanical properties :
#
#
# Convention : Reuss Voigt Hill
#
# Bulk Modulus (GPa) = 22.74103 34.55149 28.64626
# Shear Modulus (GPa) = 53.11339 22.61013 37.86176
#
# Velocity S-wave (km/s) = 4.81962 3.14458 4.06922
# Velocity P-wave (km/s) = 6.39666 5.31933 5.88271
#
# Compressibility (1/GPa) = 0.04397337
#
# Stress axis : x y z
#
# Youngs Moduli (GPa) = 96.80998 26.91525 90.12882
#
# Poissons Ratio (x) = 0.09838 0.20844
# Poissons Ratio (y) = 0.35385 0.12030
# Poissons Ratio (z) = 0.22389 0.03593
#
# Static dielectric constant tensor:
#      x y z
#    x 1.949640 0.000000 0.000000 
#    y 0.000000 1.995030 0.000000 
#    z 0.000000 0.000000 1.942580 
# 
# From -- ./inp_files/13167.got.cif
#   From: 2010.05.17/outbox.cif.g08.bks.cpg/sg54_7_cif.got.tgz:13167.got - 2010.06.03 13:09:01.
