data_PCOD9424937
_publ_section_title
;
Structure prediction by ZEFSAII (Michael W. Deem and Ramdas Pophale) SiO2 
 PCOD9424937
Probable space group: P B A M
;
_chemical_formula_sum "Si O2"
_cell_formula_units_Z 48
_cell_length_a 9.559366
_cell_length_b 32.812339
_cell_length_c 8.252101
_cell_angle_alpha 90.000000
_cell_angle_beta 90.000000
_cell_angle_gamma 90.000000
_cell_volume 2588.396562
_symmetry_space_group_name_H-M "P B A M"
_symmetry_group_IT_number 55
_symmetry_cell_setting 'orthorhombic'
loop_
_space_group_symop_operation_xyz
x,y,z
-x,-y,z
1/2+x,1/2-y,-z
1/2-x,1/2+y,-z
-x,-y,-z
x,y,-z
1/2-x,1/2+y,z
1/2+x,1/2-y,z
loop_
_atom_site_type_symbol
_atom_site_label
_atom_site_fract_x
_atom_site_fract_y
_atom_site_fract_z
Si Si1 0.089671 0.211307 0.302186
Si Si2 0.585096 0.789547 0.696117
Si Si3 0.082004 0.539754 0.691948
Si Si4 0.391072 0.125249 0.188835
Si Si5 0.421491 0.622570 0.688690
Si Si6 0.899013 0.964001 0.191740
O O1 0.087118 0.210385 0.500000
O O2 0.252258 0.215033 0.254538
O O3 0.031837 0.167031 0.248933
O O4 0.002239 0.250391 0.249467
O O5 0.579713 0.791351 0.500000
O O6 0.533267 0.832887 0.764374
O O7 0.059602 0.543474 0.500000
O O8 0.036486 0.582348 0.772945
O O9 0.247100 0.534287 0.725929
O O10 0.000000 0.500000 0.751899
O O11 0.247647 0.124831 0.292744
O O12 0.352515 0.126040 0.000000
O O13 0.457618 0.618767 0.500000
O O14 0.462400 0.580901 0.776195
O O15 0.877134 0.968699 0.000000
O O16 0.000000 0.000000 0.249534
#
# Coordination Sequence:
#
# PCOD9424937 Si02
#       6
#     8   8   8   8   8   8
#     4   8  15  27  47  69  89 116 151 192 232 270
#     4   9  16  30  48  67  91 120 155 192 231 276
#     4  10  20  34  53  75  96 123 163 206 244 283
#     4  10  18  29  47  70  95 125 157 189 233 287
#     4   9  16  29  49  70  92 123 162 198 233 277
#     4  10  20  33  50  73 101 132 162 194 239 292
#
# _framework density 18.544298999999999
#
# number of rings (size 3 to 8) (size 9 to 14) (size 15 to 20)
#    0.000    2.667    0.000    6.000    0.000    2.667 
#    0.000    5.833    0.000    4.000    0.000    0.000 
#    0.000    0.000    0.000    0.000    0.000    0.000 
#
# Total GULP energy -267423.648607 kJ/mol
# GULP energy per Si atom -5571.326013 kJ/mol
# Density = 1.850209 g / cm^3
# Si number density = 18.544299 Si / 1000 Ang^3
#
#
#
# Elastic Constant Matrix: (Units=GPa)
#
#
# Indices 1 2 3 4 5 6 
#
# 1 32.6834 55.8384 3.4004 0.0000 0.0000 0.0000
# 2 55.8384 211.6497 8.6164 0.0000 0.0000 0.0000
# 3 3.4004 8.6164 20.6428 0.0000 0.0000 0.0000
# 4 0.0000 0.0000 0.0000 31.1376 0.0000 0.0000
# 5 0.0000 0.0000 0.0000 0.0000 18.5617 0.0000
# 6 0.0000 0.0000 0.0000 0.0000 0.0000 34.5485
#
#
#
# Elastic Compliance Matrix: (Units=1/GPa)
#
#
# Indices 1 2 3 4 5 6 
#
# 1 0.055900 -0.014621 -0.003105 0.000000 0.000000 0.000000
# 2 -0.014621 0.008631 -0.001194 0.000000 0.000000 0.000000
# 3 -0.003105 -0.001194 0.049453 0.000000 0.000000 0.000000
# 4 0.000000 0.000000 0.000000 0.032115 0.000000 0.000000
# 5 0.000000 0.000000 0.000000 0.000000 0.053874 0.000000
# 6 0.000000 0.000000 0.000000 0.000000 0.000000 0.028945
#
#
# Mechanical properties :
#
#
# Convention : Reuss Voigt Hill
#
# Bulk Modulus (GPa) = 13.13326 44.52072 28.82699
# Shear Modulus (GPa) = 17.11511 29.99095 23.55303
#
# Velocity S-wave (km/s) = 3.04127 4.02588 3.56771
# Velocity P-wave (km/s) = 4.40794 6.75797 5.70526
#
# Compressibility (1/GPa) = 0.07614256
#
# Stress axis : x y z
#
# Youngs Moduli (GPa) = 17.88924 115.86342 20.22126
#
# Poissons Ratio (x) = 1.69407 0.06279
# Poissons Ratio (y) = 0.26156 0.02415
# Poissons Ratio (z) = 0.05555 0.13835
#
# Static dielectric constant tensor:
#      x y z
#    x 1.615990 0.000000 0.000000 
#    y 0.000000 1.703510 0.000000 
#    z 0.000000 0.000000 1.629930 
# 
# From -- ./inp_files/4174.got.cif
#   From: 2010.05.17/outbox.cif.g08.bks.cpg/sg55_3_cif.got.tgz:4174.got - 2010.06.03 13:27:54.
