data_PCOD9424938
_publ_section_title
;
Structure prediction by ZEFSAII (Michael W. Deem and Ramdas Pophale) SiO2 
 PCOD9424938
Probable space group: P B A M
;
_chemical_formula_sum "Si O2"
_cell_formula_units_Z 48
_cell_length_a 14.243193
_cell_length_b 24.616411
_cell_length_c 8.344234
_cell_angle_alpha 90.000000
_cell_angle_beta 90.000000
_cell_angle_gamma 90.000000
_cell_volume 2925.624392
_symmetry_space_group_name_H-M "P B A M"
_symmetry_group_IT_number 55
_symmetry_cell_setting 'orthorhombic'
loop_
_space_group_symop_operation_xyz
x,y,z
-x,-y,z
1/2+x,1/2-y,-z
1/2-x,1/2+y,-z
-x,-y,-z
x,y,-z
1/2-x,1/2+y,z
1/2+x,1/2-y,z
loop_
_atom_site_type_symbol
_atom_site_label
_atom_site_fract_x
_atom_site_fract_y
_atom_site_fract_z
Si Si1 0.785644 0.835504 0.304592
Si Si2 0.388104 0.556652 0.308743
Si Si3 0.390510 0.774186 0.693615
Si Si4 0.102535 0.724868 0.693638
Si Si5 0.599875 0.562038 0.191311
Si Si6 0.708743 0.668406 0.808169
O O1 0.786519 0.836477 0.500000
O O2 0.824947 0.893232 0.249631
O O3 0.853030 0.785464 0.255729
O O4 0.680744 0.818796 0.253082
O O5 0.379005 0.552538 0.500000
O O6 0.496935 0.568505 0.268187
O O7 0.365013 0.498105 0.235056
O O8 0.390634 0.774515 0.500000
O O9 0.496449 0.783881 0.750770
O O10 0.313162 0.817188 0.750101
O O11 0.101308 0.723857 0.500000
O O12 0.141604 0.783576 0.744714
O O13 0.668328 0.610336 0.244915
O O14 0.588505 0.565266 0.000000
O O15 0.707735 0.669926 0.000000
#
# Coordination Sequence:
#
# PCOD9424938 Si02
#       6
#     8   8   8   8   8   8
#     4   8  15  27  44  69  94 113 141 183 225 264
#     4  10  18  29  48  70  90 116 151 187 224 271
#     4   9  17  30  49  69  91 120 150 184 225 268
#     4   9  17  31  50  70  93 120 150 186 229 272
#     4  10  20  32  44  63  93 123 150 184 226 266
#     4  10  20  31  45  67  95 124 152 186 225 269
#
# _framework density 16.406755
#
# number of rings (size 3 to 8) (size 9 to 14) (size 15 to 20)
#    0.000    2.667    0.000    4.500    0.000    4.667 
#    0.000    8.333    0.000    1.000    0.000    7.000 
#    0.000    0.000    0.000    0.000    0.000    0.000 
#
# Total GULP energy -267573.554008 kJ/mol
# GULP energy per Si atom -5574.449042 kJ/mol
# Density = 1.636941 g / cm^3
# Si number density = 16.406755 Si / 1000 Ang^3
#
#
#
# Elastic Constant Matrix: (Units=GPa)
#
#
# Indices 1 2 3 4 5 6 
#
# 1 134.1166 80.7033 4.7219 0.0000 0.0000 0.0000
# 2 80.7033 125.3859 -1.2591 0.0000 0.0000 0.0000
# 3 4.7219 -1.2591 6.0299 0.0000 0.0000 0.0000
# 4 0.0000 0.0000 0.0000 17.7771 0.0000 0.0000
# 5 0.0000 0.0000 0.0000 0.0000 0.5918 0.0000
# 6 0.0000 0.0000 0.0000 0.0000 0.0000 23.8988
#
#
#
# Elastic Compliance Matrix: (Units=1/GPa)
#
#
# Indices 1 2 3 4 5 6 
#
# 1 0.012972 -0.008469 -0.011927 0.000000 0.000000 0.000000
# 2 -0.008469 0.013522 0.009456 0.000000 0.000000 0.000000
# 3 -0.011927 0.009456 0.177155 0.000000 0.000000 0.000000
# 4 0.000000 0.000000 0.000000 0.056252 0.000000 0.000000
# 5 0.000000 0.000000 0.000000 0.000000 1.689648 0.000000
# 6 0.000000 0.000000 0.000000 0.000000 0.000000 0.041843
#
#
# Mechanical properties :
#
#
# Convention : Reuss Voigt Hill
#
# Bulk Modulus (GPa) = 5.50153 48.20716 26.85435
# Shear Modulus (GPa) = 2.41096 20.54464 11.47780
#
# Velocity S-wave (km/s) = 1.21354 3.54249 2.64782
# Velocity P-wave (km/s) = 2.30739 6.79549 5.07458
#
# Compressibility (1/GPa) = 0.18176756
#
# Stress axis : x y z
#
# Youngs Moduli (GPa) = 77.08625 73.95597 5.64478
#
# Poissons Ratio (x) = 0.62636 0.06733
# Poissons Ratio (y) = 0.65287 -0.05338
# Poissons Ratio (z) = 0.91941 -0.69931
#
# Static dielectric constant tensor:
#      x y z
#    x 1.550040 0.000000 0.000000 
#    y 0.000000 1.544880 0.000000 
#    z 0.000000 0.000000 1.565210 
# 
# From -- ./inp_files/5800.got.cif
#   From: 2010.05.17/outbox.cif.g08.bks.cpg/sg55_3_cif.got.tgz:5800.got - 2010.06.03 13:27:54.
