data_PCOD9424399
_publ_section_title
;
Structure prediction by ZEFSAII (Michael W. Deem and Ramdas Pophale) SiO2 
 PCOD9424399
Probable space group: P C C A
;
_chemical_formula_sum "Si O2"
_cell_formula_units_Z 36
_cell_length_a 11.868910
_cell_length_b 4.997997
_cell_length_c 19.309154
_cell_angle_alpha 90.000000
_cell_angle_beta 90.000000
_cell_angle_gamma 90.000000
_cell_volume 1145.434010
_symmetry_space_group_name_H-M "P C C A"
_symmetry_group_IT_number 54
_symmetry_cell_setting 'orthorhombic'
loop_
_space_group_symop_operation_xyz
x,y,z
1/2-x,-y,z
1/2+x,-y,1/2-z
-x,y,1/2-z
-x,-y,-z
1/2+x,y,-z
1/2-x,y,1/2+z
x,-y,1/2+z
loop_
_atom_site_type_symbol
_atom_site_label
_atom_site_fract_x
_atom_site_fract_y
_atom_site_fract_z
Si Si1 0.083842 0.282446 0.962527
Si Si2 0.000000 0.563061 0.250000
Si Si3 0.554221 0.108792 0.649712
Si Si4 0.750000 0.500000 0.940203
Si Si5 0.750000 0.500000 0.163149
Si Si6 0.653709 0.788687 0.815590
O O1 0.184098 0.277121 0.017808
O O2 0.956972 0.001728 0.070685
O O3 0.149392 0.397504 0.895372
O O4 0.000000 0.500000 0.000000
O O5 0.018031 0.347561 0.184797
O O6 0.854306 0.618029 0.245253
O O7 0.676800 0.204861 0.670247
O O8 0.479960 0.864714 0.687909
O O9 0.668870 0.651239 0.887886
O O10 0.750000 0.000000 0.812192
#
# Coordination Sequence:
#
# PCOD9424399 Si02
#       6
#     8   4   8   4   4   8
#     4  11  25  51  86 126 175 229 307 393 472 561
#     4  12  30  54  82 126 180 246 316 372 480 586
#     4  12  27  53  86 122 180 240 301 391 461 568
#     4  11  26  51  88 138 175 228 324 397 484 565
#     4  11  28  47  76 130 169 230 300 363 482 549
#     4  12  28  52  87 129 178 247 314 397 481 569
#
# _framework density 31.429134999999999
#
# number of rings (size 3 to 8) (size 9 to 14) (size 15 to 20)
#    0.000    0.444    2.222    4.000    3.111    8.889 
#    0.000    2.222    0.000    0.000    0.000    0.000 
#    0.000    0.000    0.000    0.000    0.000    0.000 
#
# Total GULP energy -200411.042814 kJ/mol
# GULP energy per Si atom -5566.973412 kJ/mol
# Density = 3.135760 g / cm^3
# Si number density = 31.429135 Si / 1000 Ang^3
#
#
#
# Elastic Constant Matrix: (Units=GPa)
#
#
# Indices 1 2 3 4 5 6 
#
# 1 218.3986 94.7029 69.9181 0.0000 0.0000 0.0000
# 2 94.7029 200.3816 78.6080 0.0000 0.0000 0.0000
# 3 69.9181 78.6080 238.5522 0.0000 0.0000 0.0000
# 4 0.0000 0.0000 0.0000 64.6542 0.0000 0.0000
# 5 0.0000 0.0000 0.0000 0.0000 184.2390 0.0000
# 6 0.0000 0.0000 0.0000 0.0000 0.0000 74.7901
#
#
#
# Elastic Compliance Matrix: (Units=1/GPa)
#
#
# Indices 1 2 3 4 5 6 
#
# 1 0.005936 -0.002438 -0.000936 0.000000 0.000000 0.000000
# 2 -0.002438 0.006733 -0.001504 0.000000 0.000000 0.000000
# 3 -0.000936 -0.001504 0.004962 0.000000 0.000000 0.000000
# 4 0.000000 0.000000 0.000000 0.015467 0.000000 0.000000
# 5 0.000000 0.000000 0.000000 0.000000 0.005428 0.000000
# 6 0.000000 0.000000 0.000000 0.000000 0.000000 0.013371
#
#
# Mechanical properties :
#
#
# Convention : Reuss Voigt Hill
#
# Bulk Modulus (GPa) = 127.00455 127.08785 127.04620
# Shear Modulus (GPa) = 77.78825 92.34355 85.06590
#
# Velocity S-wave (km/s) = 4.98037 5.42635 5.20814
# Velocity P-wave (km/s) = 8.57728 8.93222 8.75654
#
# Compressibility (1/GPa) = 0.00787373
#
# Stress axis : x y z
#
# Youngs Moduli (GPa) = 168.47181 148.52870 201.53163
#
# Poissons Ratio (x) = 0.36211 0.18871
# Poissons Ratio (y) = 0.41073 0.30311
# Poissons Ratio (z) = 0.15775 0.22339
#
# Static dielectric constant tensor:
#      x y z
#    x 1.799860 0.000000 0.000000 
#    y 0.000000 3.621560 0.000000 
#    z 0.000000 0.000000 2.520380 
# 
# From -- ./inp_files/23892.got.cif
#   From: 2010.05.17/outbox.cif.g08.bks.cpg/sg54_12_cif.got.tgz:23892.got - 2010.06.03 13:09:01.
