data_PCOD9424698
_publ_section_title
;
Structure prediction by ZEFSAII (Michael W. Deem and Ramdas Pophale) SiO2 
 PCOD9424698
Probable space group: P B A M
;
_chemical_formula_sum "Si O2"
_cell_formula_units_Z 52
_cell_length_a 14.114958
_cell_length_b 5.329944
_cell_length_c 31.353996
_cell_angle_alpha 90.000000
_cell_angle_beta 90.000000
_cell_angle_gamma 90.000000
_cell_volume 2358.821811
_symmetry_space_group_name_H-M "P B A M"
_symmetry_group_IT_number 55
_symmetry_cell_setting 'orthorhombic'
loop_
_space_group_symop_operation_xyz
x,y,z
-x,-y,z
1/2+x,1/2-y,-z
1/2-x,1/2+y,-z
-x,-y,-z
x,y,-z
1/2-x,1/2+y,z
1/2+x,1/2-y,z
loop_
_atom_site_type_symbol
_atom_site_label
_atom_site_fract_x
_atom_site_fract_y
_atom_site_fract_z
Si Si1 0.888353 0.501238 0.138897
Si Si2 0.311871 0.092415 0.953351
Si Si3 0.850770 0.885179 0.718125
Si Si4 0.384455 0.498527 0.185942
Si Si5 0.812498 0.402138 0.500000
Si Si6 0.813505 0.493678 0.408732
Si Si7 0.364969 0.114046 0.683393
O O1 0.870360 0.448519 0.089367
O O2 0.853163 0.268478 0.167222
O O3 0.000000 0.500000 0.145707
O O4 0.856646 0.775391 0.154247
O O5 0.265554 0.368460 0.951995
O O6 0.360101 0.068100 0.000000
O O7 0.842634 0.950760 0.767569
O O8 0.747323 0.861314 0.696005
O O9 0.902230 0.114873 0.695218
O O10 0.899300 0.617923 0.711411
O O11 0.500000 0.500000 0.190108
O O12 0.770301 0.118870 0.500000
O O13 0.862190 0.452162 0.454720
O O14 0.734505 0.269265 0.407214
O O15 0.873312 0.453373 0.366122
#
# Coordination Sequence:
#
# PCOD9424698 Si02
#       7
#     8   8   8   8   4   8   8
#     4  10  21  39  58  79 104 138 176 208 250 299
#     4  10  21  39  59  84 115 139 165 207 259 301
#     4  10  18  30  43  64  88 121 157 186 237 281
#     4  10  21  37  53  70 100 132 165 211 246 279
#     4   8  16  20  34  52  74 114 152 174 214 292
#     4  10  14  25  36  54  83 117 147 181 232 275
#     4  10  17  28  43  63  93 120 146 199 234 283
#
# _framework density 22.044905
#
# number of rings (size 3 to 8) (size 9 to 14) (size 15 to 20)
#    0.000    2.154    3.077    1.846    0.000    0.308 
#   16.615    0.000    0.000    5.538    0.000    0.000 
#    0.000    0.000    0.000    7.615    0.000    0.000 
#
# Total GULP energy -290225.765870 kJ/mol
# GULP energy per Si atom -5581.264728 kJ/mol
# Density = 2.199473 g / cm^3
# Si number density = 22.044905 Si / 1000 Ang^3
#
#
#
# Elastic Constant Matrix: (Units=GPa)
#
#
# Indices 1 2 3 4 5 6 
#
# 1 55.1706 10.8261 -0.3673 0.0000 0.0000 0.0000
# 2 10.8261 123.6644 8.6913 0.0000 0.0000 0.0000
# 3 -0.3673 8.6913 146.1976 0.0000 0.0000 0.0000
# 4 0.0000 0.0000 0.0000 35.4097 0.0000 0.0000
# 5 0.0000 0.0000 0.0000 0.0000 -43.1687 0.0000
# 6 0.0000 0.0000 0.0000 0.0000 0.0000 3.2568
#
#
#
# Elastic Compliance Matrix: (Units=1/GPa)
#
#
# Indices 1 2 3 4 5 6 
#
# 1 0.018445 -0.001625 0.000143 0.000000 0.000000 0.000000
# 2 -0.001625 0.008263 -0.000495 0.000000 0.000000 0.000000
# 3 0.000143 -0.000495 0.006870 0.000000 0.000000 0.000000
# 4 0.000000 0.000000 0.000000 0.028241 0.000000 0.000000
# 5 0.000000 0.000000 0.000000 0.000000 -0.023165 0.000000
# 6 0.000000 0.000000 0.000000 0.000000 0.000000 0.307047
#
#
# Mechanical properties :
#
#
# Convention : Reuss Voigt Hill
#
# Bulk Modulus (GPa) = 33.75611 40.37029 37.06320
# Shear Modulus (GPa) = 13.90700 19.49174 16.69937
#
# Velocity S-wave (km/s) = 2.51440 2.97675 2.75529
# Velocity P-wave (km/s) = 4.87599 5.49247 5.19338
#
# Compressibility (1/GPa) = 0.02962427
#
# Stress axis : x y z
#
# Youngs Moduli (GPa) = 54.21405 121.01470 145.56329
#
# Poissons Ratio (x) = 0.19663 -0.02081
# Poissons Ratio (y) = 0.08809 0.07210
# Poissons Ratio (z) = -0.00775 0.05994
#
# Static dielectric constant tensor:
#      x y z
#    x 1.824530 0.000000 0.000000 
#    y 0.000000 1.858050 0.000000 
#    z 0.000000 0.000000 1.856480 
# 
# From -- ./inp_files/24003.got.cif
#   From: 2010.05.17/outbox.cif.g08.bks.cpg/sg55_13_cif.got.tgz:24003.got - 2010.06.03 13:27:54.
