data_PCOD9424441
_publ_section_title
;
Structure prediction by ZEFSAII (Michael W. Deem and Ramdas Pophale) SiO2 
 PCOD9424441
Probable space group: P C C A
;
_chemical_formula_sum "Si O2"
_cell_formula_units_Z 24
_cell_length_a 12.171322
_cell_length_b 6.357327
_cell_length_c 13.869426
_cell_angle_alpha 90.000000
_cell_angle_beta 90.000000
_cell_angle_gamma 90.000000
_cell_volume 1073.175602
_symmetry_space_group_name_H-M "P C C A"
_symmetry_group_IT_number 54
_symmetry_cell_setting 'orthorhombic'
loop_
_space_group_symop_operation_xyz
x,y,z
1/2-x,-y,z
1/2+x,-y,1/2-z
-x,y,1/2-z
-x,-y,-z
1/2+x,y,-z
1/2-x,y,1/2+z
x,-y,1/2+z
loop_
_atom_site_type_symbol
_atom_site_label
_atom_site_fract_x
_atom_site_fract_y
_atom_site_fract_z
Si Si1 0.250000 0.500000 0.537509
Si Si2 0.000000 0.847964 0.250000
Si Si3 0.413678 0.463808 0.866047
Si Si4 0.136734 0.228523 0.180492
O O1 0.148576 0.462886 0.465975
O O2 0.270475 0.298447 0.605944
O O3 0.904697 0.995433 0.294970
O O4 0.944736 0.695538 0.171387
O O5 0.527610 0.337254 0.864226
O O6 0.344467 0.343578 0.782940
#
# Coordination Sequence:
#
# PCOD9424441 Si02
#       4
#     4   4   8   8
#     4  12  20  34  62  90 116 148 192 246 294 338
#     4   8  18  42  62  74 120 168 190 230 294 350
#     4   9  20  39  57  81 117 155 193 239 289 344
#     4   9  20  39  57  81 117 155 193 239 289 344
#
# _framework density 22.363534999999999
#
# number of rings (size 3 to 8) (size 9 to 14) (size 15 to 20)
#    0.000    3.333    0.000    2.000    0.000    1.333 
#    0.000   43.333    0.000    0.000    0.000    0.000 
#    0.000    0.000    0.000    0.000    0.000    0.000 
#
# Total GULP energy -134057.971844 kJ/mol
# GULP energy per Si atom -5585.748827 kJ/mol
# Density = 2.231263 g / cm^3
# Si number density = 22.363535 Si / 1000 Ang^3
#
#
#
# Elastic Constant Matrix: (Units=GPa)
#
#
# Indices 1 2 3 4 5 6 
#
# 1 49.6778 48.1660 47.8355 0.0000 0.0000 0.0000
# 2 48.1660 147.6800 47.9419 0.0000 0.0000 0.0000
# 3 47.8355 47.9419 144.0761 0.0000 0.0000 0.0000
# 4 0.0000 0.0000 0.0000 0.4491 0.0000 0.0000
# 5 0.0000 0.0000 0.0000 0.0000 55.6934 0.0000
# 6 0.0000 0.0000 0.0000 0.0000 0.0000 29.8812
#
#
#
# Elastic Compliance Matrix: (Units=1/GPa)
#
#
# Indices 1 2 3 4 5 6 
#
# 1 0.038609 -0.009452 -0.009674 0.000000 0.000000 0.000000
# 2 -0.009452 0.009905 -0.000158 0.000000 0.000000 0.000000
# 3 -0.009674 -0.000158 0.010205 0.000000 0.000000 0.000000
# 4 0.000000 0.000000 0.000000 2.226722 0.000000 0.000000
# 5 0.000000 0.000000 0.000000 0.000000 0.017955 0.000000
# 6 0.000000 0.000000 0.000000 0.000000 0.000000 0.033466
#
#
# Mechanical properties :
#
#
# Convention : Reuss Voigt Hill
#
# Bulk Modulus (GPa) = 49.62149 69.92453 59.77301
# Shear Modulus (GPa) = 2.09895 30.37077 16.23486
#
# Velocity S-wave (km/s) = 0.96984 3.68917 2.69727
# Velocity P-wave (km/s) = 4.84674 7.03432 6.04039
#
# Compressibility (1/GPa) = 0.02015256
#
# Stress axis : x y z
#
# Youngs Moduli (GPa) = 25.90081 100.95496 97.99038
#
# Poissons Ratio (x) = 0.95422 0.94792
# Poissons Ratio (y) = 0.24481 0.01547
# Poissons Ratio (z) = 0.25055 0.01594
#
# Static dielectric constant tensor:
#      x y z
#    x 1.932260 0.000000 0.000000 
#    y 0.000000 1.823220 0.000000 
#    z 0.000000 0.000000 1.808570 
# 
# From -- ./inp_files/12030.got.cif
#   From: 2010.05.17/outbox.cif.g08.bks.cpg/sg54_7_cif.got.tgz:12030.got - 2010.06.03 13:09:01.
