data_PCOD9424031
_publ_section_title
;
Structure prediction by ZEFSAII (Michael W. Deem and Ramdas Pophale) SiO2 
 PCOD9424031
Probable space group: P C C A
;
_chemical_formula_sum "Si O2"
_cell_formula_units_Z 40
_cell_length_a 8.922399
_cell_length_b 9.584169
_cell_length_c 21.204945
_cell_angle_alpha 90.000000
_cell_angle_beta 90.000000
_cell_angle_gamma 90.000000
_cell_volume 1813.315000
_symmetry_space_group_name_H-M "P C C A"
_symmetry_group_IT_number 54
_symmetry_cell_setting 'orthorhombic'
loop_
_space_group_symop_operation_xyz
x,y,z
1/2-x,-y,z
1/2+x,-y,1/2-z
-x,y,1/2-z
-x,-y,-z
1/2+x,y,-z
1/2-x,y,1/2+z
x,-y,1/2+z
loop_
_atom_site_type_symbol
_atom_site_label
_atom_site_fract_x
_atom_site_fract_y
_atom_site_fract_z
Si Si1 0.938595 0.603716 0.447411
Si Si2 0.319470 0.786260 0.006898
Si Si3 0.489819 0.112933 0.319132
Si Si4 0.581679 0.436017 0.185122
Si Si5 0.750000 0.000000 0.089386
Si Si6 0.750000 0.000000 0.893356
O O1 0.771331 0.658277 0.461394
O O2 0.000000 0.500000 0.500000
O O3 0.041418 0.738112 0.464563
O O4 0.982663 0.543700 0.378737
O O5 0.347038 0.900453 0.060870
O O6 0.220135 0.868223 0.955555
O O7 0.500000 0.049144 0.250000
O O8 0.418738 0.266848 0.311501
O O9 0.386769 0.026655 0.365032
O O10 0.652798 0.104649 0.350786
O O11 0.750000 0.500000 0.179223
O O12 0.500000 0.484818 0.250000
#
# Coordination Sequence:
#
# PCOD9424031 Si02
#       6
#     8   8   8   8   4   4
#     4  12  24  42  68  99 133 176 229 283 332 410
#     4  11  22  39  65  99 133 172 216 278 349 396
#     4  11  23  42  67  95 132 173 224 276 338 413
#     4  11  25  48  68  94 136 180 229 288 347 407
#     4  11  21  40  66  94 139 169 218 280 342 403
#     4  11  21  42  66  98 133 169 220 274 342 403
#
# _framework density 22.059045999999999
#
# number of rings (size 3 to 8) (size 9 to 14) (size 15 to 20)
#    0.000    0.800    4.000    3.600    0.000    4.800 
#    0.000    1.000    0.000    0.000    0.000    0.000 
#    0.000    0.000    0.000    0.000    0.000    0.000 
#
# Total GULP energy -223229.676010 kJ/mol
# GULP energy per Si atom -5580.741900 kJ/mol
# Density = 2.200884 g / cm^3
# Si number density = 22.059046 Si / 1000 Ang^3
#
#
#
# Elastic Constant Matrix: (Units=GPa)
#
#
# Indices 1 2 3 4 5 6 
#
# 1 87.9078 9.5954 39.3187 0.0000 0.0000 0.0000
# 2 9.5954 55.2328 16.5972 0.0000 0.0000 0.0000
# 3 39.3187 16.5972 179.7288 0.0000 0.0000 0.0000
# 4 0.0000 0.0000 0.0000 24.4181 0.0000 0.0000
# 5 0.0000 0.0000 0.0000 0.0000 29.4479 0.0000
# 6 0.0000 0.0000 0.0000 0.0000 0.0000 9.1105
#
#
#
# Elastic Compliance Matrix: (Units=1/GPa)
#
#
# Indices 1 2 3 4 5 6 
#
# 1 0.012716 -0.001412 -0.002651 0.000000 0.000000 0.000000
# 2 -0.001412 0.018779 -0.001425 0.000000 0.000000 0.000000
# 3 -0.002651 -0.001425 0.006276 0.000000 0.000000 0.000000
# 4 0.000000 0.000000 0.000000 0.040953 0.000000 0.000000
# 5 0.000000 0.000000 0.000000 0.000000 0.033958 0.000000
# 6 0.000000 0.000000 0.000000 0.000000 0.000000 0.109763
#
#
# Mechanical properties :
#
#
# Convention : Reuss Voigt Hill
#
# Bulk Modulus (GPa) = 37.32414 50.43245 43.87830
# Shear Modulus (GPa) = 20.63108 29.75252 25.19180
#
# Velocity S-wave (km/s) = 3.06153 3.67654 3.38304
# Velocity P-wave (km/s) = 5.42717 6.39802 5.93249
#
# Compressibility (1/GPa) = 0.02679231
#
# Stress axis : x y z
#
# Youngs Moduli (GPa) = 78.64375 53.25154 159.34809
#
# Poissons Ratio (x) = 0.07521 0.42248
# Poissons Ratio (y) = 0.11107 0.22710
# Poissons Ratio (z) = 0.20851 0.07589
#
# Static dielectric constant tensor:
#      x y z
#    x 1.861360 0.000000 0.000000 
#    y 0.000000 1.890640 0.000000 
#    z 0.000000 0.000000 1.797160 
# 
# From -- ./inp_files/20331.got.cif
#   From: 2010.05.17/outbox.cif.g08.bks.cpg/sg54_11_cif.got.tgz:20331.got - 2010.06.03 13:09:01.
