data_PCOD9424304
_publ_section_title
;
Structure prediction by ZEFSAII (Michael W. Deem and Ramdas Pophale) SiO2 
 PCOD9424304
Probable space group: P C C A
;
_chemical_formula_sum "Si O2"
_cell_formula_units_Z 32
_cell_length_a 28.019563
_cell_length_b 5.108857
_cell_length_c 8.221896
_cell_angle_alpha 90.000000
_cell_angle_beta 90.000000
_cell_angle_gamma 90.000000
_cell_volume 1176.947480
_symmetry_space_group_name_H-M "P C C A"
_symmetry_group_IT_number 54
_symmetry_cell_setting 'orthorhombic'
loop_
_space_group_symop_operation_xyz
x,y,z
1/2-x,-y,z
1/2+x,-y,1/2-z
-x,y,1/2-z
-x,-y,-z
1/2+x,y,-z
1/2-x,y,1/2+z
x,-y,1/2+z
loop_
_atom_site_type_symbol
_atom_site_label
_atom_site_fract_x
_atom_site_fract_y
_atom_site_fract_z
Si Si1 0.582671 0.750647 0.188637
Si Si2 0.452314 0.746576 0.643933
Si Si3 0.722991 0.776421 0.657720
Si Si4 0.318956 0.696384 0.498000
O O1 0.578316 0.501601 0.302317
O O2 0.630932 0.746081 0.085844
O O3 0.575764 0.998296 0.300625
O O4 0.541352 0.746912 0.049780
O O5 0.500000 0.739431 0.750000
O O6 0.750000 0.500000 0.219774
O O7 0.693232 0.614139 0.518228
O O8 0.781548 0.886368 0.605040
O O9 0.690171 0.799873 0.821636
#
# Coordination Sequence:
#
# PCOD9424304 Si02
#       4
#     8   8   8   8
#     4  12  27  46  80 112 153 197 256 312 372 466
#     4  12  26  51  78 115 153 199 247 319 391 453
#     4  11  24  45  68  96 146 193 237 307 358 434
#     4  11  25  42  69 104 139 191 252 288 369 426
#
# _framework density 27.188980999999998
#
# number of rings (size 3 to 8) (size 9 to 14) (size 15 to 20)
#    0.000    0.500    0.000    9.000    7.000    0.000 
#    0.000    1.250    0.000    0.000    0.000    0.000 
#    0.000    0.000    0.000    0.000    0.000    0.000 
#
# Total GULP energy -179023.118275 kJ/mol
# GULP energy per Si atom -5594.472446 kJ/mol
# Density = 2.712710 g / cm^3
# Si number density = 27.188981 Si / 1000 Ang^3
#
#
#
# Elastic Constant Matrix: (Units=GPa)
#
#
# Indices 1 2 3 4 5 6 
#
# 1 76.6899 32.4821 -22.1378 0.0000 0.0000 0.0000
# 2 32.4821 260.5152 75.1617 0.0000 0.0000 0.0000
# 3 -22.1378 75.1617 128.6122 0.0000 0.0000 0.0000
# 4 0.0000 0.0000 0.0000 60.6127 0.0000 0.0000
# 5 0.0000 0.0000 0.0000 0.0000 43.8362 0.0000
# 6 0.0000 0.0000 0.0000 0.0000 0.0000 -188.9765
#
#
#
# Elastic Compliance Matrix: (Units=1/GPa)
#
#
# Indices 1 2 3 4 5 6 
#
# 1 0.015784 -0.003310 0.004651 0.000000 0.000000 0.000000
# 2 -0.003310 0.005311 -0.003674 0.000000 0.000000 0.000000
# 3 0.004651 -0.003674 0.010723 0.000000 0.000000 0.000000
# 4 0.000000 0.000000 0.000000 0.016498 0.000000 0.000000
# 5 0.000000 0.000000 0.000000 0.000000 0.022812 0.000000
# 6 0.000000 0.000000 0.000000 0.000000 0.000000 -0.005292
#
#
# Mechanical properties :
#
#
# Convention : Reuss Voigt Hill
#
# Bulk Modulus (GPa) = 36.82772 70.75879 53.79325
# Shear Modulus (GPa) = 62.85157 8.44858 35.65007
#
# Velocity S-wave (km/s) = 4.81318 1.76468 3.62497
# Velocity P-wave (km/s) = 6.66809 5.49849 6.11134
#
# Compressibility (1/GPa) = 0.02715346
#
# Stress axis : x y z
#
# Youngs Moduli (GPa) = 63.35474 188.28420 93.25930
#
# Poissons Ratio (x) = 0.62322 -0.43377
# Poissons Ratio (y) = 0.20970 0.34260
# Poissons Ratio (z) = -0.29468 0.69168
#
# Static dielectric constant tensor:
#      x y z
#    x 2.270900 0.000000 0.000000 
#    y 0.000000 2.081200 0.000000 
#    z 0.000000 0.000000 2.034960 
# 
# From -- ./inp_files/5700.got.cif
#   From: 2010.05.17/outbox.cif.g08.bks.cpg/sg54_3_cif.got.tgz:5700.got - 2010.06.03 13:09:01.
