data_PCOD9424337
_publ_section_title
;
Structure prediction by ZEFSAII (Michael W. Deem and Ramdas Pophale) SiO2 
 PCOD9424337
Probable space group: P C C A
;
_chemical_formula_sum "Si O2"
_cell_formula_units_Z 28
_cell_length_a 11.381455
_cell_length_b 8.025921
_cell_length_c 14.287485
_cell_angle_alpha 90.000000
_cell_angle_beta 90.000000
_cell_angle_gamma 90.000000
_cell_volume 1305.114016
_symmetry_space_group_name_H-M "P C C A"
_symmetry_group_IT_number 54
_symmetry_cell_setting 'orthorhombic'
loop_
_space_group_symop_operation_xyz
x,y,z
1/2-x,-y,z
1/2+x,-y,1/2-z
-x,y,1/2-z
-x,-y,-z
1/2+x,y,-z
1/2-x,y,1/2+z
x,-y,1/2+z
loop_
_atom_site_type_symbol
_atom_site_label
_atom_site_fract_x
_atom_site_fract_y
_atom_site_fract_z
Si Si1 0.250000 0.500000 0.796759
Si Si2 0.084522 0.357889 0.956938
Si Si3 0.440144 0.907367 0.651226
Si Si4 0.181394 0.754631 0.643405
O O1 0.155938 0.414060 0.865366
O O2 0.178674 0.623291 0.727749
O O3 0.012739 0.191602 0.927554
O O4 0.173723 0.323010 0.040927
O O5 0.000000 0.500000 0.000000
O O6 0.500000 0.871091 0.750000
O O7 0.309084 0.835859 0.652289
O O8 0.420626 0.105924 0.644809
#
# Coordination Sequence:
#
# PCOD9424337 Si02
#       4
#     4   8   8   8
#     4  12  24  46  72 106 150 190 248 306 368 450
#     4  12  26  44  75 107 145 194 248 307 373 443
#     4  11  24  49  71 103 146 192 239 305 374 439
#     4  11  26  46  72 105 144 189 250 298 369 453
#
# _framework density 21.454063000000001
#
# number of rings (size 3 to 8) (size 9 to 14) (size 15 to 20)
#    0.000    0.571    2.857    5.143    4.000    0.000 
#   10.286    0.000    0.000    0.000    0.000    0.000 
#    0.000    0.000    0.000    0.000    0.000    0.000 
#
# Total GULP energy -156527.272518 kJ/mol
# GULP energy per Si atom -5590.259733 kJ/mol
# Density = 2.140523 g / cm^3
# Si number density = 21.454063 Si / 1000 Ang^3
#
#
#
# Elastic Constant Matrix: (Units=GPa)
#
#
# Indices 1 2 3 4 5 6 
#
# 1 74.6205 48.7265 55.0312 0.0000 0.0000 0.0000
# 2 48.7265 133.2921 87.7432 0.0000 0.0000 0.0000
# 3 55.0312 87.7432 193.0018 0.0000 0.0000 0.0000
# 4 0.0000 0.0000 0.0000 34.8101 0.0000 0.0000
# 5 0.0000 0.0000 0.0000 0.0000 -34.4068 0.0000
# 6 0.0000 0.0000 0.0000 0.0000 0.0000 41.4947
#
#
#
# Elastic Compliance Matrix: (Units=1/GPa)
#
#
# Indices 1 2 3 4 5 6 
#
# 1 0.018899 -0.004797 -0.003208 0.000000 0.000000 0.000000
# 2 -0.004797 0.011924 -0.004053 0.000000 0.000000 0.000000
# 3 -0.003208 -0.004053 0.007939 0.000000 0.000000 0.000000
# 4 0.000000 0.000000 0.000000 0.028727 0.000000 0.000000
# 5 0.000000 0.000000 0.000000 0.000000 -0.029064 0.000000
# 6 0.000000 0.000000 0.000000 0.000000 0.000000 0.024099
#
#
# Mechanical properties :
#
#
# Convention : Reuss Voigt Hill
#
# Bulk Modulus (GPa) = 68.27970 87.10180 77.69075
# Shear Modulus (GPa) = 54.63091 22.34052 38.48571
#
# Velocity S-wave (km/s) = 5.05167 3.23045 4.24000
# Velocity P-wave (km/s) = 8.11917 7.38930 7.76282
#
# Compressibility (1/GPa) = 0.01464564
#
# Stress axis : x y z
#
# Youngs Moduli (GPa) = 52.91150 83.86393 125.96621
#
# Poissons Ratio (x) = 0.40231 0.40409
# Poissons Ratio (y) = 0.25383 0.51056
# Poissons Ratio (z) = 0.16974 0.33991
#
# Static dielectric constant tensor:
#      x y z
#    x 1.746060 0.000000 0.000000 
#    y 0.000000 1.938830 0.000000 
#    z 0.000000 0.000000 1.680830 
# 
# From -- ./inp_files/12102.got.cif
#   From: 2010.05.17/outbox.cif.g08.bks.cpg/sg54_7_cif.got.tgz:12102.got - 2010.06.03 13:09:01.
