data_PCOD9424671
_publ_section_title
;
Structure prediction by ZEFSAII (Michael W. Deem and Ramdas Pophale) SiO2 
 PCOD9424671
Probable space group: P C C A
;
_chemical_formula_sum "Si O2"
_cell_formula_units_Z 60
_cell_length_a 27.000000
_cell_length_b 12.000000
_cell_length_c 9.000000
_cell_angle_alpha 90.000000
_cell_angle_beta 90.000000
_cell_angle_gamma 90.000000
_cell_volume 2916.000000
_symmetry_space_group_name_H-M "P C C A"
_symmetry_group_IT_number 54
_symmetry_cell_setting 'orthorhombic'
loop_
_space_group_symop_operation_xyz
x,y,z
1/2-x,-y,z
1/2+x,-y,1/2-z
-x,y,1/2-z
-x,-y,-z
1/2+x,y,-z
1/2-x,y,1/2+z
x,-y,1/2+z
loop_
_atom_site_type_symbol
_atom_site_label
_atom_site_fract_x
_atom_site_fract_y
_atom_site_fract_z
Si Si1 0.637278 0.030024 0.457279
Si Si2 0.721223 0.682438 0.341292
Si Si3 0.051802 0.559429 0.043013
Si Si4 0.706153 0.082509 0.708311
Si Si5 0.401279 0.152007 0.310113
Si Si6 0.877546 0.560578 0.724458
Si Si7 0.000000 0.737637 0.250000
Si Si8 0.183276 0.342476 0.829856
O O1 0.674380 0.974923 0.338208
O O2 0.613089 0.936250 0.561980
O O3 0.670244 0.104003 0.568966
O O4 0.599442 0.096079 0.353319
O O5 0.727392 0.806471 0.278458
O O6 0.669282 0.636270 0.272600
O O7 0.712618 0.677956 0.517051
O O8 0.774156 0.631270 0.292735
O O9 0.084704 0.600508 0.903714
O O10 0.087257 0.477615 0.139031
O O11 0.033451 0.660531 0.144192
O O12 0.000000 0.500000 0.000000
O O13 0.750000 0.000000 0.660546
O O14 0.456805 0.196419 0.336722
O O15 0.355938 0.241761 0.305494
O O16 0.851196 0.450244 0.661395
#
# Coordination Sequence:
#
# PCOD9424671 Si02
#       8
#     8   8   8   8   8   8   4   8
#     4  10  23  42  66  92 136 175 226 293 351 405
#     4  12  28  41  70 102 139 192 229 282 348 418
#     4  12  23  45  70 103 132 184 234 295 348 418
#     4  11  23  39  65  99 134 180 232 281 335 417
#     4  11  24  47  69  99 137 180 234 298 357 425
#     4  12  26  45  70  97 147 177 235 286 348 425
#     4  12  26  42  78  96 136 184 236 296 370 416
#     4  12  26  45  65 104 145 182 231 283 350 420
#
# _framework density 20.576132000000001
#
# number of rings (size 3 to 8) (size 9 to 14) (size 15 to 20)
#    0.000    0.533    5.333    2.400    7.467    1.600 
#    0.000    0.000    0.000    0.000    0.000    0.000 
#    0.000    0.000    0.000    0.000    0.000    0.000 
#
# Total GULP energy -335315.548645 kJ/mol
# GULP energy per Si atom -5588.592477 kJ/mol
# Density = 2.052930 g / cm^3
# Si number density = 20.576132 Si / 1000 Ang^3
#
#
#
# Elastic Constant Matrix: (Units=GPa)
#
#
# Indices 1 2 3 4 5 6 
#
# 1 134.4002 16.9040 24.7072 0.0000 0.0000 0.0000
# 2 16.9040 47.9687 3.0279 0.0000 0.0000 0.0000
# 3 24.7072 3.0279 88.4116 0.0000 0.0000 0.0000
# 4 0.0000 0.0000 0.0000 14.7945 0.0000 0.0000
# 5 0.0000 0.0000 0.0000 0.0000 45.4782 0.0000
# 6 0.0000 0.0000 0.0000 0.0000 0.0000 20.6973
#
#
#
# Elastic Compliance Matrix: (Units=1/GPa)
#
#
# Indices 1 2 3 4 5 6 
#
# 1 0.008189 -0.002747 -0.002195 0.000000 0.000000 0.000000
# 2 -0.002747 0.021814 0.000021 0.000000 0.000000 0.000000
# 3 -0.002195 0.000021 0.011923 0.000000 0.000000 0.000000
# 4 0.000000 0.000000 0.000000 0.067593 0.000000 0.000000
# 5 0.000000 0.000000 0.000000 0.000000 0.021989 0.000000
# 6 0.000000 0.000000 0.000000 0.000000 0.000000 0.048315
#
#
# Mechanical properties :
#
#
# Convention : Reuss Voigt Hill
#
# Bulk Modulus (GPa) = 31.16805 40.00652 35.58728
# Shear Modulus (GPa) = 24.95507 31.27011 28.11259
#
# Velocity S-wave (km/s) = 3.48633 3.90260 3.70032
# Velocity P-wave (km/s) = 5.60237 6.30812 5.96569
#
# Compressibility (1/GPa) = 0.03208414
#
# Stress axis : x y z
#
# Youngs Moduli (GPa) = 122.10855 45.84255 83.86941
#
# Poissons Ratio (x) = 0.12595 0.18405
# Poissons Ratio (y) = 0.33548 -0.00174
# Poissons Ratio (z) = 0.26797 -0.00095
#
# Static dielectric constant tensor:
#      x y z
#    x 1.942150 0.000000 0.000000 
#    y 0.000000 1.799630 0.000000 
#    z 0.000000 0.000000 1.752430 
# 
# From -- ./inp_files/5594.got.cif
#   From: 2010.05.17/outbox.ucp.g08.bks.cvg/sg54_3_cif.got.tgz:5594.got - 2010.06.11 16:34:40.
