data_PCOD9424716
_publ_section_title
;
Structure prediction by ZEFSAII (Michael W. Deem and Ramdas Pophale) SiO2 
 PCOD9424716
Probable space group: P B A M
;
_chemical_formula_sum "Si O2"
_cell_formula_units_Z 48
_cell_length_a 14.118270
_cell_length_b 5.382859
_cell_length_c 28.514373
_cell_angle_alpha 90.000000
_cell_angle_beta 90.000000
_cell_angle_gamma 90.000000
_cell_volume 2166.997017
_symmetry_space_group_name_H-M "P B A M"
_symmetry_group_IT_number 55
_symmetry_cell_setting 'orthorhombic'
loop_
_space_group_symop_operation_xyz
x,y,z
-x,-y,z
1/2+x,1/2-y,-z
1/2-x,1/2+y,-z
-x,-y,-z
x,y,-z
1/2-x,1/2+y,z
1/2+x,1/2-y,z
loop_
_atom_site_type_symbol
_atom_site_label
_atom_site_fract_x
_atom_site_fract_y
_atom_site_fract_z
Si Si1 0.888589 0.998638 0.152896
Si Si2 0.649483 0.888498 0.309269
Si Si3 0.115583 0.501521 0.203586
Si Si4 0.186228 0.041361 0.448296
Si Si5 0.365792 0.611191 0.347064
Si Si6 0.188225 0.082228 0.948643
O O1 0.853358 0.763550 0.182946
O O2 0.871452 0.949633 0.098231
O O3 0.856630 0.270981 0.169490
O O4 0.000000 0.000000 0.161172
O O5 0.597913 0.120715 0.332867
O O6 0.752872 0.869013 0.333903
O O7 0.657907 0.948151 0.254644
O O8 0.600944 0.624071 0.317419
O O9 0.000000 0.500000 0.208134
O O10 0.140336 0.046566 0.500000
O O11 0.253330 0.286223 0.445649
O O12 0.123380 0.055738 0.401897
O O13 0.238225 0.351490 0.947041
O O14 0.139915 0.064241 0.000000
#
# Coordination Sequence:
#
# PCOD9424716 Si02
#       6
#     8   8   8   8   8   8
#     4  10  21  39  58  79 106 140 181 221 254 307
#     4  10  18  30  45  64  95 129 156 198 245 289
#     4  10  21  37  53  72 102 136 174 216 250 291
#     4  10  16  25  41  61  92 127 154 187 247 308
#     4  10  17  30  43  68 100 121 154 208 242 298
#     4  10  21  39  59  84 115 141 169 216 269 315
#
# _framework density 22.150468
#
# number of rings (size 3 to 8) (size 9 to 14) (size 15 to 20)
#    0.000    2.000    3.333    2.000    0.000    0.333 
#   18.000    0.000    0.000    6.000    0.000    0.000 
#    0.000    7.333    0.000    0.000    0.000    0.000 
#
# Total GULP energy -268036.775171 kJ/mol
# GULP energy per Si atom -5584.099483 kJ/mol
# Density = 2.210005 g / cm^3
# Si number density = 22.150468 Si / 1000 Ang^3
#
#
#
# Elastic Constant Matrix: (Units=GPa)
#
#
# Indices 1 2 3 4 5 6 
#
# 1 59.1482 11.6272 -4.5065 0.0000 0.0000 0.0000
# 2 11.6272 154.8000 22.9480 0.0000 0.0000 0.0000
# 3 -4.5065 22.9480 145.1491 0.0000 0.0000 0.0000
# 4 0.0000 0.0000 0.0000 89.0235 0.0000 0.0000
# 5 0.0000 0.0000 0.0000 0.0000 -56.3691 0.0000
# 6 0.0000 0.0000 0.0000 0.0000 0.0000 4.7705
#
#
#
# Elastic Compliance Matrix: (Units=1/GPa)
#
#
# Indices 1 2 3 4 5 6 
#
# 1 0.017241 -0.001407 0.000758 0.000000 0.000000 0.000000
# 2 -0.001407 0.006730 -0.001108 0.000000 0.000000 0.000000
# 3 0.000758 -0.001108 0.007088 0.000000 0.000000 0.000000
# 4 0.000000 0.000000 0.000000 0.011233 0.000000 0.000000
# 5 0.000000 0.000000 0.000000 0.000000 -0.017740 0.000000
# 6 0.000000 0.000000 0.000000 0.000000 0.000000 0.209623
#
#
# Mechanical properties :
#
#
# Convention : Reuss Voigt Hill
#
# Bulk Modulus (GPa) = 36.30476 46.58163 41.44319
# Shear Modulus (GPa) = 20.25350 29.42020 24.83685
#
# Velocity S-wave (km/s) = 3.02712 3.64840 3.35218
# Velocity P-wave (km/s) = 5.35197 6.23081 5.80804
#
# Compressibility (1/GPa) = 0.02754460
#
# Stress axis : x y z
#
# Youngs Moduli (GPa) = 58.00108 148.59144 141.08112
#
# Poissons Ratio (x) = 0.20912 -0.10691
# Poissons Ratio (y) = 0.08163 0.15627
# Poissons Ratio (z) = -0.04395 0.16459
#
# Static dielectric constant tensor:
#      x y z
#    x 1.842600 0.000000 0.000000 
#    y 0.000000 1.852020 0.000000 
#    z 0.000000 0.000000 1.784940 
# 
# From -- ./inp_files/23308.got.cif
#   From: 2010.05.17/outbox.cif.g08.bks.cpg/sg55_12_cif.got.tgz:23308.got - 2010.06.03 13:27:54.
