data_PCOD9424045
_publ_section_title
;
Structure prediction by ZEFSAII (Michael W. Deem and Ramdas Pophale) SiO2 
 PCOD9424045
Probable space group: P C C A
;
_chemical_formula_sum "Si O2"
_cell_formula_units_Z 56
_cell_length_a 8.960964
_cell_length_b 14.815728
_cell_length_c 20.504460
_cell_angle_alpha 90.000000
_cell_angle_beta 90.000000
_cell_angle_gamma 90.000000
_cell_volume 2722.237831
_symmetry_space_group_name_H-M "P C C A"
_symmetry_group_IT_number 54
_symmetry_cell_setting 'orthorhombic'
loop_
_space_group_symop_operation_xyz
x,y,z
1/2-x,-y,z
1/2+x,-y,1/2-z
-x,y,1/2-z
-x,-y,-z
1/2+x,y,-z
1/2-x,y,1/2+z
x,-y,1/2+z
loop_
_atom_site_type_symbol
_atom_site_label
_atom_site_fract_x
_atom_site_fract_y
_atom_site_fract_z
Si Si1 0.848833 0.591588 0.621903
Si Si2 0.222915 0.728695 0.994765
Si Si3 0.093035 0.338482 0.685765
Si Si4 0.170178 0.251191 0.270786
Si Si5 0.370867 0.080421 0.306133
Si Si6 0.971733 0.195298 0.586816
Si Si7 0.684814 0.581764 0.409481
O O1 0.750000 0.500000 0.626339
O O2 0.823561 0.651196 0.556780
O O3 0.828304 0.660847 0.682322
O O4 0.022378 0.566488 0.618668
O O5 0.320475 0.796172 0.952893
O O6 0.315003 0.673536 0.049287
O O7 0.098646 0.783488 0.033968
O O8 0.227816 0.274872 0.709098
O O9 0.184779 0.410399 0.644525
O O10 0.000000 0.366711 0.750000
O O11 0.990862 0.279373 0.637649
O O12 0.260170 0.166810 0.299564
O O13 0.000000 0.231679 0.250000
O O14 0.500000 0.073621 0.250000
O O15 0.465483 0.104188 0.371292
O O16 0.250000 0.000000 0.307262
O O17 0.750000 0.500000 0.452877
#
# Coordination Sequence:
#
# PCOD9424045 Si02
#       7
#     8   8   8   8   8   8   8
#     4  12  26  40  63  98 137 189 242 290 342 401
#     4  11  23  42  68  93 133 188 240 280 336 400
#     4  11  21  42  66  88 131 183 228 282 358 404
#     4  12  23  44  68  99 140 181 232 292 353 421
#     4  12  25  48  78 112 137 173 221 281 355 426
#     4  11  22  43  71  99 135 179 227 282 344 408
#     4  11  26  40  58  93 137 185 243 295 335 402
#
# _framework density 20.57131
#
# number of rings (size 3 to 8) (size 9 to 14) (size 15 to 20)
#    0.000    0.571    7.143    0.857    6.000    1.714 
#    0.000    0.714    0.000    0.000    0.000    0.000 
#    0.000    0.000    0.000    0.000    0.000    0.000 
#
# Total GULP energy -312316.815474 kJ/mol
# GULP energy per Si atom -5577.085991 kJ/mol
# Density = 2.052449 g / cm^3
# Si number density = 20.571310 Si / 1000 Ang^3
#
#
#
# Elastic Constant Matrix: (Units=GPa)
#
#
# Indices 1 2 3 4 5 6 
#
# 1 130.3301 50.4786 50.2323 0.0000 0.0000 0.0000
# 2 50.4786 92.9632 34.1538 0.0000 0.0000 0.0000
# 3 50.2323 34.1538 107.9378 0.0000 0.0000 0.0000
# 4 0.0000 0.0000 0.0000 11.9746 0.0000 0.0000
# 5 0.0000 0.0000 0.0000 0.0000 34.0443 0.0000
# 6 0.0000 0.0000 0.0000 0.0000 0.0000 36.0177
#
#
#
# Elastic Compliance Matrix: (Units=1/GPa)
#
#
# Indices 1 2 3 4 5 6 
#
# 1 0.010823 -0.004556 -0.003595 0.000000 0.000000 0.000000
# 2 -0.004556 0.014090 -0.002338 0.000000 0.000000 0.000000
# 3 -0.003595 -0.002338 0.011678 0.000000 0.000000 0.000000
# 4 0.000000 0.000000 0.000000 0.083510 0.000000 0.000000
# 5 0.000000 0.000000 0.000000 0.000000 0.029374 0.000000
# 6 0.000000 0.000000 0.000000 0.000000 0.000000 0.027764
#
#
# Mechanical properties :
#
#
# Convention : Reuss Voigt Hill
#
# Bulk Modulus (GPa) = 64.05383 66.77340 65.41361
# Shear Modulus (GPa) = 24.57957 29.49839 27.03898
#
# Velocity S-wave (km/s) = 3.46041 3.79087 3.62940
# Velocity P-wave (km/s) = 6.86811 7.18964 7.03071
#
# Compressibility (1/GPa) = 0.01561187
#
# Stress axis : x y z
#
# Youngs Moduli (GPa) = 92.39451 70.97316 85.63425
#
# Poissons Ratio (x) = 0.32336 0.30788
# Poissons Ratio (y) = 0.42095 0.20021
# Poissons Ratio (z) = 0.33218 0.16594
#
# Static dielectric constant tensor:
#      x y z
#    x 1.776150 0.000000 0.000000 
#    y 0.000000 1.881270 0.000000 
#    z 0.000000 0.000000 1.793450 
# 
# From -- ./inp_files/20516.got.cif
#   From: 2010.05.17/outbox.cif.g08.bks.cpg/sg54_11_cif.got.tgz:20516.got - 2010.06.03 13:09:01.
