data_PCOD9424221
_publ_section_title
;
Structure prediction by ZEFSAII (Michael W. Deem and Ramdas Pophale) SiO2 
 PCOD9424221
Probable space group: P C C A
;
_chemical_formula_sum "Si O2"
_cell_formula_units_Z 32
_cell_length_a 11.142815
_cell_length_b 8.528428
_cell_length_c 15.011289
_cell_angle_alpha 90.000000
_cell_angle_beta 90.000000
_cell_angle_gamma 90.000000
_cell_volume 1426.533233
_symmetry_space_group_name_H-M "P C C A"
_symmetry_group_IT_number 54
_symmetry_cell_setting 'orthorhombic'
loop_
_space_group_symop_operation_xyz
x,y,z
1/2-x,-y,z
1/2+x,-y,1/2-z
-x,y,1/2-z
-x,-y,-z
1/2+x,y,-z
1/2-x,y,1/2+z
x,-y,1/2+z
loop_
_atom_site_type_symbol
_atom_site_label
_atom_site_fract_x
_atom_site_fract_y
_atom_site_fract_z
Si Si1 0.361270 0.111390 0.857086
Si Si2 0.979737 0.322261 0.472150
Si Si3 0.483136 0.811424 0.650427
Si Si4 0.717260 0.183332 0.843522
O O1 0.402653 0.239416 0.928504
O O2 0.321509 0.181758 0.761012
O O3 0.250000 0.000000 0.884159
O O4 0.476763 0.994875 0.845816
O O5 0.877914 0.278030 0.400956
O O6 0.000000 0.500000 0.500000
O O7 0.943955 0.244618 0.565810
O O8 0.500000 0.751978 0.750000
O O9 0.348592 0.752204 0.635009
O O10 0.750000 0.000000 0.863964
#
# Coordination Sequence:
#
# PCOD9424221 Si02
#       4
#     8   8   8   8
#     4  11  23  45  80 108 144 191 262 321 373 442
#     4  12  29  46  70 112 160 197 244 309 398 468
#     4  12  24  44  71 111 145 197 259 312 377 451
#     4  11  23  45  79 109 145 194 260 324 372 446
#
# _framework density 22.432006000000001
#
# number of rings (size 3 to 8) (size 9 to 14) (size 15 to 20)
#    0.000    0.500    7.500    1.500    3.500    3.000 
#    0.000    0.000    0.000    0.000    0.000    0.000 
#    0.000    0.000    0.000    0.000    0.000    0.000 
#
# Total GULP energy -178368.193709 kJ/mol
# GULP energy per Si atom -5574.006053 kJ/mol
# Density = 2.238095 g / cm^3
# Si number density = 22.432006 Si / 1000 Ang^3
#
#
#
# Elastic Constant Matrix: (Units=GPa)
#
#
# Indices 1 2 3 4 5 6 
#
# 1 119.0206 46.1732 47.3366 0.0000 0.0000 0.0000
# 2 46.1732 108.8430 81.4902 0.0000 0.0000 0.0000
# 3 47.3366 81.4902 145.0951 0.0000 0.0000 0.0000
# 4 0.0000 0.0000 0.0000 -238.2380 0.0000 0.0000
# 5 0.0000 0.0000 0.0000 0.0000 29.5480 0.0000
# 6 0.0000 0.0000 0.0000 0.0000 0.0000 3.1638
#
#
#
# Elastic Compliance Matrix: (Units=1/GPa)
#
#
# Indices 1 2 3 4 5 6 
#
# 1 0.010257 -0.003185 -0.001557 0.000000 0.000000 0.000000
# 2 -0.003185 0.016843 -0.008421 0.000000 0.000000 0.000000
# 3 -0.001557 -0.008421 0.012129 0.000000 0.000000 0.000000
# 4 0.000000 0.000000 0.000000 -0.004197 0.000000 0.000000
# 5 0.000000 0.000000 0.000000 0.000000 0.033843 0.000000
# 6 0.000000 0.000000 0.000000 0.000000 0.000000 0.316071
#
#
# Mechanical properties :
#
#
# Convention : Reuss Voigt Hill
#
# Bulk Modulus (GPa) = 77.49949 80.32874 78.91412
# Shear Modulus (GPa) = 12.03156 -27.90797 -7.93820
#
# Velocity S-wave (km/s) = 2.31845 -3.53103 -1.88321
# Velocity P-wave (km/s) = 6.46456 4.38901 5.52512
#
# Compressibility (1/GPa) = 0.01290331
#
# Stress axis : x y z
#
# Youngs Moduli (GPa) = 97.49463 59.37130 82.44452
#
# Poissons Ratio (x) = 0.18911 0.12840
# Poissons Ratio (y) = 0.31054 0.69423
# Poissons Ratio (z) = 0.15184 0.49994
#
# Static dielectric constant tensor:
#      x y z
#    x 2.024850 0.000000 0.000000 
#    y 0.000000 1.893230 0.000000 
#    z 0.000000 0.000000 1.911070 
# 
# From -- ./inp_files/12210.got.cif
#   From: 2010.05.17/outbox.cif.g08.bks.cpg/sg54_7_cif.got.tgz:12210.got - 2010.06.03 13:09:01.
