data_PCOD9424019
_publ_section_title
;
Structure prediction by ZEFSAII (Michael W. Deem and Ramdas Pophale) SiO2 
 PCOD9424019
Probable space group: P C C A
;
_chemical_formula_sum "Si O2"
_cell_formula_units_Z 48
_cell_length_a 8.106617
_cell_length_b 15.647497
_cell_length_c 19.249000
_cell_angle_alpha 90.000000
_cell_angle_beta 90.000000
_cell_angle_gamma 90.000000
_cell_volume 2441.702257
_symmetry_space_group_name_H-M "P C C A"
_symmetry_group_IT_number 54
_symmetry_cell_setting 'orthorhombic'
loop_
_space_group_symop_operation_xyz
x,y,z
1/2-x,-y,z
1/2+x,-y,1/2-z
-x,y,1/2-z
-x,-y,-z
1/2+x,y,-z
1/2-x,y,1/2+z
x,-y,1/2+z
loop_
_atom_site_type_symbol
_atom_site_label
_atom_site_fract_x
_atom_site_fract_y
_atom_site_fract_z
Si Si1 0.250000 0.000000 0.545488
Si Si2 0.841208 0.411319 0.005443
Si Si3 0.202313 0.760805 0.434278
Si Si4 0.849907 0.655917 0.195361
Si Si5 0.995326 0.495635 0.879909
Si Si6 0.009406 0.124675 0.459993
Si Si7 0.000000 0.605699 0.750000
O O1 0.367849 0.941407 0.498051
O O2 0.126553 0.931824 0.580630
O O3 0.750000 0.500000 0.021815
O O4 0.895469 0.426223 0.926302
O O5 0.750317 0.324032 0.021775
O O6 0.981025 0.426791 0.064203
O O7 0.128458 0.729528 0.361967
O O8 0.371190 0.811782 0.419552
O O9 0.083445 0.819089 0.481164
O O10 0.866338 0.566718 0.153186
O O11 0.663157 0.656330 0.224989
O O12 0.000000 0.658222 0.250000
O O13 0.933883 0.545018 0.812117
#
# Coordination Sequence:
#
# PCOD9424019 Si02
#       7
#     4   8   8   8   8   8   4
#     4   8  16  38  62 100 122 154 186 230 342 408
#     4  11  22  35  56  85 128 171 217 269 318 364
#     4  11  21  39  55  97 129 163 208 266 319 378
#     4  12  26  42  58  83 123 173 229 277 309 367
#     4  11  23  38  56  82 112 174 238 272 309 367
#     4   9  19  35  66  92 134 151 188 255 322 407
#     4  12  24  44  60  76 114 182 246 276 314 362
#
# _framework density 19.658418000000001
#
# number of rings (size 3 to 8) (size 9 to 14) (size 15 to 20)
#    0.000    1.333    4.167    1.500    4.667    0.000 
#    6.000    0.000    0.000    0.000    0.000    7.000 
#    0.000    0.000    0.000    0.000    0.000    0.000 
#
# Total GULP energy -267266.375635 kJ/mol
# GULP energy per Si atom -5568.049492 kJ/mol
# Density = 1.961367 g / cm^3
# Si number density = 19.658418 Si / 1000 Ang^3
#
#
#
# Elastic Constant Matrix: (Units=GPa)
#
#
# Indices 1 2 3 4 5 6 
#
# 1 96.4132 46.5910 33.5246 0.0000 0.0000 0.0000
# 2 46.5910 104.3406 30.7871 0.0000 0.0000 0.0000
# 3 33.5246 30.7871 104.2020 0.0000 0.0000 0.0000
# 4 0.0000 0.0000 0.0000 1.2548 0.0000 0.0000
# 5 0.0000 0.0000 0.0000 0.0000 26.0130 0.0000
# 6 0.0000 0.0000 0.0000 0.0000 0.0000 52.5141
#
#
#
# Elastic Compliance Matrix: (Units=1/GPa)
#
#
# Indices 1 2 3 4 5 6 
#
# 1 0.013987 -0.005387 -0.002908 0.000000 0.000000 0.000000
# 2 -0.005387 0.012574 -0.001982 0.000000 0.000000 0.000000
# 3 -0.002908 -0.001982 0.011118 0.000000 0.000000 0.000000
# 4 0.000000 0.000000 0.000000 0.796956 0.000000 0.000000
# 5 0.000000 0.000000 0.000000 0.000000 0.038442 0.000000
# 6 0.000000 0.000000 0.000000 0.000000 0.000000 0.019043
#
#
# Mechanical properties :
#
#
# Convention : Reuss Voigt Hill
#
# Bulk Modulus (GPa) = 58.39710 58.52900 58.46305
# Shear Modulus (GPa) = 5.44435 28.89324 17.16880
#
# Velocity S-wave (km/s) = 1.66598 3.83791 2.95847
# Velocity P-wave (km/s) = 5.78542 7.03399 6.44003
#
# Compressibility (1/GPa) = 0.01712414
#
# Stress axis : x y z
#
# Youngs Moduli (GPa) = 71.49683 79.52677 89.94461
#
# Poissons Ratio (x) = 0.42844 0.26157
# Poissons Ratio (y) = 0.38518 0.17826
# Poissons Ratio (z) = 0.20792 0.15762
#
# Static dielectric constant tensor:
#      x y z
#    x 2.025380 0.000000 0.000000 
#    y 0.000000 1.701430 0.000000 
#    z 0.000000 0.000000 1.701130 
# 
# From -- ./inp_files/16689.got.cif
#   From: 2010.05.17/outbox.cif.g08.bks.cpg/sg54_9_cif.got.tgz:16689.got - 2010.06.03 13:09:01.
