data_PCOD9424595
_publ_section_title
;
Structure prediction by ZEFSAII (Michael W. Deem and Ramdas Pophale) SiO2 
 PCOD9424595
Probable space group: P C C A
;
_chemical_formula_sum "Si O2"
_cell_formula_units_Z 24
_cell_length_a 20.353194
_cell_length_b 4.773566
_cell_length_c 9.338087
_cell_angle_alpha 90.000000
_cell_angle_beta 90.000000
_cell_angle_gamma 90.000000
_cell_volume 907.263459
_symmetry_space_group_name_H-M "P C C A"
_symmetry_group_IT_number 54
_symmetry_cell_setting 'orthorhombic'
loop_
_space_group_symop_operation_xyz
x,y,z
1/2-x,-y,z
1/2+x,-y,1/2-z
-x,y,1/2-z
-x,-y,-z
1/2+x,y,-z
1/2-x,y,1/2+z
x,-y,1/2+z
loop_
_atom_site_type_symbol
_atom_site_label
_atom_site_fract_x
_atom_site_fract_y
_atom_site_fract_z
Si Si1 0.637909 0.076292 0.728640
Si Si2 0.750000 0.500000 0.104438
Si Si3 0.051377 0.241959 0.007021
Si Si4 0.750000 0.000000 0.411607
O O1 0.687978 0.318228 0.668231
O O2 0.589293 0.224387 0.841368
O O3 0.690083 0.888559 0.817432
O O4 0.599424 0.869065 0.621497
O O5 0.722708 0.254638 0.002692
O O6 0.000000 0.500000 0.000000
O O7 0.000000 0.000000 0.000000
#
# Coordination Sequence:
#
# PCOD9424595 Si02
#       4
#     8   4   8   4
#     4  12  29  59  91 137 184 234 315 376 472 543
#     4  12  28  52  94 136 178 236 292 402 466 540
#     4  12  32  56  91 130 186 248 306 372 444 561
#     4  12  28  52  90 136 180 232 294 400 460 542
#
# _framework density 26.453175999999999
#
# number of rings (size 3 to 8) (size 9 to 14) (size 15 to 20)
#    0.000    0.000    3.333    3.000    4.667   13.333 
#    0.000    0.000    0.000    0.000    0.000    0.000 
#    0.000    0.000    0.000    0.000    0.000    0.000 
#
# Total GULP energy -133936.024369 kJ/mol
# GULP energy per Si atom -5580.667682 kJ/mol
# Density = 2.639297 g / cm^3
# Si number density = 26.453176 Si / 1000 Ang^3
#
#
#
# Elastic Constant Matrix: (Units=GPa)
#
#
# Indices 1 2 3 4 5 6 
#
# 1 249.6679 96.7321 125.6096 0.0000 0.0000 0.0000
# 2 96.7321 223.2662 75.5619 0.0000 0.0000 0.0000
# 3 125.6096 75.5619 170.6049 0.0000 0.0000 0.0000
# 4 0.0000 0.0000 0.0000 20.0225 0.0000 0.0000
# 5 0.0000 0.0000 0.0000 0.0000 57.6259 0.0000
# 6 0.0000 0.0000 0.0000 0.0000 0.0000 67.5809
#
#
#
# Elastic Compliance Matrix: (Units=1/GPa)
#
#
# Indices 1 2 3 4 5 6 
#
# 1 0.006744 -0.001460 -0.004318 0.000000 0.000000 0.000000
# 2 -0.001460 0.005585 -0.001398 0.000000 0.000000 0.000000
# 3 -0.004318 -0.001398 0.009660 0.000000 0.000000 0.000000
# 4 0.000000 0.000000 0.000000 0.049944 0.000000 0.000000
# 5 0.000000 0.000000 0.000000 0.000000 0.017353 0.000000
# 6 0.000000 0.000000 0.000000 0.000000 0.000000 0.014797
#
#
# Mechanical properties :
#
#
# Convention : Reuss Voigt Hill
#
# Bulk Modulus (GPa) = 130.97969 137.70516 134.34243
# Shear Modulus (GPa) = 41.32840 52.08822 46.70831
#
# Velocity S-wave (km/s) = 3.95691 4.44224 4.20658
# Velocity P-wave (km/s) = 8.39628 8.85892 8.63070
#
# Compressibility (1/GPa) = 0.00763477
#
# Stress axis : x y z
#
# Youngs Moduli (GPa) = 148.28701 179.05345 103.51640
#
# Poissons Ratio (x) = 0.26147 0.44702
# Poissons Ratio (y) = 0.21654 0.14476
# Poissons Ratio (z) = 0.64035 0.25040
#
# Static dielectric constant tensor:
#      x y z
#    x 1.904720 0.000000 0.000000 
#    y 0.000000 1.997920 0.000000 
#    z 0.000000 0.000000 2.139200 
# 
# From -- ./inp_files/9110.got.cif
#   From: 2010.05.17/outbox.cif.g08.bks.cpg/sg54_5_cif.got.tgz:9110.got - 2010.06.03 13:09:01.
