data_PCOD9424572
_publ_section_title
;
Structure prediction by ZEFSAII (Michael W. Deem and Ramdas Pophale) SiO2 
 PCOD9424572
Probable space group: P C C A
;
_chemical_formula_sum "Si O2"
_cell_formula_units_Z 32
_cell_length_a 18.363390
_cell_length_b 5.003725
_cell_length_c 13.878738
_cell_angle_alpha 90.000000
_cell_angle_beta 90.000000
_cell_angle_gamma 90.000000
_cell_volume 1275.252749
_symmetry_space_group_name_H-M "P C C A"
_symmetry_group_IT_number 54
_symmetry_cell_setting 'orthorhombic'
loop_
_space_group_symop_operation_xyz
x,y,z
1/2-x,-y,z
1/2+x,-y,1/2-z
-x,y,1/2-z
-x,-y,-z
1/2+x,y,-z
1/2-x,y,1/2+z
x,-y,1/2+z
loop_
_atom_site_type_symbol
_atom_site_label
_atom_site_fract_x
_atom_site_fract_y
_atom_site_fract_z
Si Si1 0.390612 0.657568 0.642693
Si Si2 0.366656 0.850263 0.264553
Si Si3 0.330442 0.443559 0.945239
Si Si4 0.959952 0.870194 0.091919
O O1 0.352619 0.866895 0.714614
O O2 0.317054 0.278257 0.847142
O O3 0.365545 0.713428 0.534214
O O4 0.374367 0.362276 0.679712
O O5 0.477267 0.305129 0.140908
O O6 0.437286 0.904607 0.331529
O O7 0.250000 0.500000 0.981893
O O8 0.388058 0.687560 0.927924
O O9 0.000000 0.000000 0.000000
#
# Coordination Sequence:
#
# PCOD9424572 Si02
#       4
#     8   8   8   8
#     4  12  28  49  85 116 155 211 274 332 394 486
#     4  12  28  50  82 118 155 207 271 331 405 474
#     4  12  30  55  76 119 171 215 265 343 417 495
#     4  12  26  50  85 116 160 209 277 335 406 475
#
# _framework density 25.093064999999999
#
# number of rings (size 3 to 8) (size 9 to 14) (size 15 to 20)
#    0.000    0.000    5.000    3.000    7.000    2.000 
#    4.500    0.000    0.000    0.000    0.000    0.000 
#    0.000    0.000    0.000    0.000    0.000    0.000 
#
# Total GULP energy -179039.660307 kJ/mol
# GULP energy per Si atom -5594.989385 kJ/mol
# Density = 2.503595 g / cm^3
# Si number density = 25.093065 Si / 1000 Ang^3
#
#
#
# Elastic Constant Matrix: (Units=GPa)
#
#
# Indices 1 2 3 4 5 6 
#
# 1 96.8307 19.7713 -2.0540 0.0000 0.0000 0.0000
# 2 19.7713 98.5558 22.9459 0.0000 0.0000 0.0000
# 3 -2.0540 22.9459 113.5122 0.0000 0.0000 0.0000
# 4 0.0000 0.0000 0.0000 49.6368 0.0000 0.0000
# 5 0.0000 0.0000 0.0000 0.0000 16.7601 0.0000
# 6 0.0000 0.0000 0.0000 0.0000 0.0000 13.7210
#
#
#
# Elastic Compliance Matrix: (Units=1/GPa)
#
#
# Indices 1 2 3 4 5 6 
#
# 1 0.010816 -0.002325 0.000666 0.000000 0.000000 0.000000
# 2 -0.002325 0.011147 -0.002295 0.000000 0.000000 0.000000
# 3 0.000666 -0.002295 0.009286 0.000000 0.000000 0.000000
# 4 0.000000 0.000000 0.000000 0.020146 0.000000 0.000000
# 5 0.000000 0.000000 0.000000 0.000000 0.059665 0.000000
# 6 0.000000 0.000000 0.000000 0.000000 0.000000 0.072881
#
#
# Mechanical properties :
#
#
# Convention : Reuss Voigt Hill
#
# Bulk Modulus (GPa) = 42.84496 43.35835 43.10165
# Shear Modulus (GPa) = 25.04617 33.90594 29.47606
#
# Velocity S-wave (km/s) = 3.16275 3.67987 3.43106
# Velocity P-wave (km/s) = 5.51804 5.94741 5.73675
#
# Compressibility (1/GPa) = 0.02333997
#
# Stress axis : x y z
#
# Youngs Moduli (GPa) = 92.45464 89.70745 107.69263
#
# Poissons Ratio (x) = 0.20855 -0.07169
# Poissons Ratio (y) = 0.21494 0.24720
# Poissons Ratio (z) = -0.06154 0.20592
#
# Static dielectric constant tensor:
#      x y z
#    x 2.149710 0.000000 0.000000 
#    y 0.000000 2.030500 0.000000 
#    z 0.000000 0.000000 2.015450 
# 
# From -- ./inp_files/9213.got.cif
#   From: 2010.05.17/outbox.cif.g08.bks.cpg/sg54_5_cif.got.tgz:9213.got - 2010.06.03 13:09:01.
