data_PCOD9424770
_publ_section_title
;
Structure prediction by ZEFSAII (Michael W. Deem and Ramdas Pophale) SiO2 
 PCOD9424770
Probable space group: P B A M
;
_chemical_formula_sum "Si O2"
_cell_formula_units_Z 56
_cell_length_a 21.156035
_cell_length_b 9.638995
_cell_length_c 16.648257
_cell_angle_alpha 90.000000
_cell_angle_beta 90.000000
_cell_angle_gamma 90.000000
_cell_volume 3394.961107
_symmetry_space_group_name_H-M "P B A M"
_symmetry_group_IT_number 55
_symmetry_cell_setting 'orthorhombic'
loop_
_space_group_symop_operation_xyz
x,y,z
-x,-y,z
1/2+x,1/2-y,-z
1/2-x,1/2+y,-z
-x,-y,-z
x,y,-z
1/2-x,1/2+y,z
1/2+x,1/2-y,z
loop_
_atom_site_type_symbol
_atom_site_label
_atom_site_fract_x
_atom_site_fract_y
_atom_site_fract_z
Si Si1 0.312461 0.015506 0.905653
Si Si2 0.712840 0.010934 0.407348
Si Si3 0.144589 0.256860 0.699315
Si Si4 0.246020 0.764057 0.183687
Si Si5 0.365540 0.499018 0.406331
Si Si6 0.141321 0.729155 0.314577
Si Si7 0.073467 0.498211 0.787675
O O1 0.272190 0.901693 0.857115
O O2 0.381664 0.012503 0.865303
O O3 0.279761 0.160332 0.883290
O O4 0.313839 0.989741 0.000000
O O5 0.694587 0.026557 0.500000
O O6 0.685113 0.138616 0.356848
O O7 0.788585 0.006087 0.403086
O O8 0.683410 0.870304 0.371623
O O9 0.195100 0.202545 0.765178
O O10 0.094206 0.355809 0.743306
O O11 0.116786 0.133183 0.646190
O O12 0.188896 0.786415 0.246241
O O13 0.383771 0.508994 0.500000
O O14 0.386941 0.356015 0.364794
O O15 0.092474 0.625924 0.270911
O O16 0.000000 0.500000 0.806110
#
# Coordination Sequence:
#
# PCOD9424770 Si02
#       7
#     8   8   8   8   8   8   8
#     4  10  20  32  53  79 104 125 148 197 248 303
#     4  10  17  26  43  72 109 137 159 195 248 297
#     4  10  18  30  49  71 103 135 166 203 238 294
#     4  10  17  30  47  74 106 130 156 182 245 304
#     4  11  18  26  45  76 106 128 159 206 254 291
#     4  10  18  30  49  71 103 135 166 203 238 294
#     4   9  21  38  54  68  89 134 178 205 237 284
#
# _framework density 16.495035000000001
#
# number of rings (size 3 to 8) (size 9 to 14) (size 15 to 20)
#    0.000    2.000    2.857    3.000    0.000    2.571 
#    0.000    0.714    0.000   16.286    0.000    0.000 
#    0.000   13.714    0.000    0.000    0.000    0.000 
#
# Total GULP energy -312408.408827 kJ/mol
# GULP energy per Si atom -5578.721586 kJ/mol
# Density = 1.645749 g / cm^3
# Si number density = 16.495035 Si / 1000 Ang^3
#
#
#
# Elastic Constant Matrix: (Units=GPa)
#
#
# Indices 1 2 3 4 5 6 
#
# 1 64.7223 12.2609 8.1239 0.0000 0.0000 0.0000
# 2 12.2609 63.4636 11.1959 0.0000 0.0000 0.0000
# 3 8.1239 11.1959 61.5989 0.0000 0.0000 0.0000
# 4 0.0000 0.0000 0.0000 17.8488 0.0000 0.0000
# 5 0.0000 0.0000 0.0000 0.0000 7.6614 0.0000
# 6 0.0000 0.0000 0.0000 0.0000 0.0000 7.8295
#
#
#
# Elastic Compliance Matrix: (Units=1/GPa)
#
#
# Indices 1 2 3 4 5 6 
#
# 1 0.016192 -0.002843 -0.001619 0.000000 0.000000 0.000000
# 2 -0.002843 0.016778 -0.002675 0.000000 0.000000 0.000000
# 3 -0.001619 -0.002675 0.016934 0.000000 0.000000 0.000000
# 4 0.000000 0.000000 0.000000 0.056026 0.000000 0.000000
# 5 0.000000 0.000000 0.000000 0.000000 0.130524 0.000000
# 6 0.000000 0.000000 0.000000 0.000000 0.000000 0.127723
#
#
# Mechanical properties :
#
#
# Convention : Reuss Voigt Hill
#
# Bulk Modulus (GPa) = 28.06475 28.10511 28.08493
# Shear Modulus (GPa) = 12.80979 17.21488 15.01233
#
# Velocity S-wave (km/s) = 2.78975 3.23405 3.02008
# Velocity P-wave (km/s) = 5.23717 5.56964 5.40596
#
# Compressibility (1/GPa) = 0.03563188
#
# Stress axis : x y z
#
# Youngs Moduli (GPa) = 61.75766 59.60152 59.05394
#
# Poissons Ratio (x) = 0.16943 0.09560
# Poissons Ratio (y) = 0.17556 0.15794
# Poissons Ratio (z) = 0.09997 0.15941
#
# Static dielectric constant tensor:
#      x y z
#    x 1.525620 0.000000 0.000000 
#    y 0.000000 1.564910 0.000000 
#    z 0.000000 0.000000 1.549350 
# 
# From -- ./inp_files/21048.got.cif
#   From: 2010.05.17/outbox.cif.g08.bks.cpg/sg55_11_cif.got.tgz:21048.got - 2010.06.03 13:27:54.
