data_PCOD9424720
_publ_section_title
;
Structure prediction by ZEFSAII (Michael W. Deem and Ramdas Pophale) SiO2 
 PCOD9424720
Probable space group: P B A M
;
_chemical_formula_sum "Si O2"
_cell_formula_units_Z 60
_cell_length_a 5.211391
_cell_length_b 19.532957
_cell_length_c 27.576102
_cell_angle_alpha 90.000000
_cell_angle_beta 90.000000
_cell_angle_gamma 90.000000
_cell_volume 2807.078316
_symmetry_space_group_name_H-M "P B A M"
_symmetry_group_IT_number 55
_symmetry_cell_setting 'orthorhombic'
loop_
_space_group_symop_operation_xyz
x,y,z
-x,-y,z
1/2+x,1/2-y,-z
1/2-x,1/2+y,-z
-x,-y,-z
x,y,-z
1/2-x,1/2+y,z
1/2+x,1/2-y,z
loop_
_atom_site_type_symbol
_atom_site_label
_atom_site_fract_x
_atom_site_fract_y
_atom_site_fract_z
Si Si1 0.867535 0.297916 0.000000
Si Si2 0.119754 0.643287 0.194657
Si Si3 0.297890 0.333382 0.657659
Si Si4 0.073207 0.796764 0.446671
Si Si5 0.298331 0.177416 0.302038
Si Si6 0.528033 0.208853 0.095684
Si Si7 0.749145 0.548464 0.053616
Si Si8 0.638237 0.573579 0.837595
O O1 0.918236 0.337143 0.949179
O O2 0.593529 0.260219 0.000000
O O3 0.122907 0.680398 0.246246
O O4 0.022517 0.688786 0.150464
O O5 0.409376 0.622272 0.180810
O O6 0.900775 0.583801 0.192930
O O7 0.378864 0.339124 0.601933
O O8 0.526236 0.358961 0.691391
O O9 0.266860 0.252624 0.673509
O O10 0.019820 0.361776 0.669072
O O11 0.098792 0.829799 0.500000
O O12 0.294469 0.738453 0.444288
O O13 0.822286 0.229145 0.089087
O O14 0.500000 0.500000 0.053849
O O15 0.720831 0.585473 0.105966
O O16 0.000000 0.500000 0.055913
O O17 0.734962 0.582639 0.000000
O O18 0.500000 0.500000 0.834664
#
# Coordination Sequence:
#
# PCOD9424720 Si02
#       8
#     4   8   8   8   8   8   8   8
#     4   8  16  34  52  68  93 134 157 190 244 292
#     4  12  24  36  55  84  96 134 182 210 264 315
#     4  10  17  32  45  69  99 148 167 212 268 278
#     4  10  16  25  41  65  95 135 194 217 234 302
#     4  10  20  29  47  66 100 125 176 211 246 299
#     4  10  21  36  55  75 104 129 163 207 251 298
#     4   9  17  33  58  80  97 121 148 189 259 326
#     4  11  23  42  57  75 104 132 164 218 265 327
#
# _framework density 21.374537
#
# number of rings (size 3 to 8) (size 9 to 14) (size 15 to 20)
#    0.000    1.867    2.667    3.600    3.733    0.000 
#    2.400    0.000    0.000    0.000    0.000    0.000 
#    0.000    0.000    0.000    0.000    0.000   77.333 
#
# Total GULP energy -334497.076555 kJ/mol
# GULP energy per Si atom -5574.951276 kJ/mol
# Density = 2.132589 g / cm^3
# Si number density = 21.374537 Si / 1000 Ang^3
#
#
#
# Elastic Constant Matrix: (Units=GPa)
#
#
# Indices 1 2 3 4 5 6 
#
# 1 116.3661 1.5823 -12.2082 0.0000 0.0000 0.0000
# 2 1.5823 19.1790 8.7428 0.0000 0.0000 0.0000
# 3 -12.2082 8.7428 120.5479 0.0000 0.0000 0.0000
# 4 0.0000 0.0000 0.0000 -2.2028 0.0000 0.0000
# 5 0.0000 0.0000 0.0000 0.0000 35.8857 0.0000
# 6 0.0000 0.0000 0.0000 0.0000 0.0000 12.0289
#
#
#
# Elastic Compliance Matrix: (Units=1/GPa)
#
#
# Indices 1 2 3 4 5 6 
#
# 1 0.008711 -0.001159 0.000966 0.000000 0.000000 0.000000
# 2 -0.001159 0.054077 -0.004039 0.000000 0.000000 0.000000
# 3 0.000966 -0.004039 0.008686 0.000000 0.000000 0.000000
# 4 0.000000 0.000000 0.000000 -0.453973 0.000000 0.000000
# 5 0.000000 0.000000 0.000000 0.000000 0.027866 0.000000
# 6 0.000000 0.000000 0.000000 0.000000 0.000000 0.083133
#
#
# Mechanical properties :
#
#
# Convention : Reuss Voigt Hill
#
# Bulk Modulus (GPa) = 15.87052 28.03629 21.95340
# Shear Modulus (GPa) = -20.65851 26.34077 2.84113
#
# Velocity S-wave (km/s) = -3.11223 3.51428 1.15417
# Velocity P-wave (km/s) = 2.33957 5.44170 3.47408
#
# Compressibility (1/GPa) = 0.06300991
#
# Stress axis : x y z
#
# Youngs Moduli (GPa) = 114.80137 18.49201 115.12430
#
# Poissons Ratio (x) = 0.02143 -0.11124
# Poissons Ratio (y) = 0.13307 0.46503
# Poissons Ratio (z) = -0.11092 0.07470
#
# Static dielectric constant tensor:
#      x y z
#    x 1.801240 0.000000 0.000000 
#    y 0.000000 1.654720 0.000000 
#    z 0.000000 0.000000 1.815090 
# 
# From -- ./inp_files/23357.got.cif
#   From: 2010.05.17/outbox.cif.g08.bks.cpg/sg55_12_cif.got.tgz:23357.got - 2010.06.03 13:27:54.
