data_PCOD9424191
_publ_section_title
;
Structure prediction by ZEFSAII (Michael W. Deem and Ramdas Pophale) SiO2 
 PCOD9424191
Probable space group: P C C A
;
_chemical_formula_sum "Si O2"
_cell_formula_units_Z 56
_cell_length_a 7.113305
_cell_length_b 14.044638
_cell_length_c 23.841233
_cell_angle_alpha 90.000000
_cell_angle_beta 90.000000
_cell_angle_gamma 90.000000
_cell_volume 2381.829623
_symmetry_space_group_name_H-M "P C C A"
_symmetry_group_IT_number 54
_symmetry_cell_setting 'orthorhombic'
loop_
_space_group_symop_operation_xyz
x,y,z
1/2-x,-y,z
1/2+x,-y,1/2-z
-x,y,1/2-z
-x,-y,-z
1/2+x,y,-z
1/2-x,y,1/2+z
x,-y,1/2+z
loop_
_atom_site_type_symbol
_atom_site_label
_atom_site_fract_x
_atom_site_fract_y
_atom_site_fract_z
Si Si1 0.269159 0.388770 0.596629
Si Si2 0.443780 0.321505 0.811446
Si Si3 0.731744 0.748426 0.507842
Si Si4 0.010824 0.890516 0.982859
Si Si5 0.607655 0.713828 0.629484
Si Si6 0.479217 0.097411 0.184296
Si Si7 0.541744 0.110972 0.848453
O O1 0.250000 0.500000 0.586772
O O2 0.435409 0.369697 0.640145
O O3 0.286641 0.332454 0.538693
O O4 0.087475 0.338867 0.623545
O O5 0.500000 0.351109 0.750000
O O6 0.226229 0.336979 0.822799
O O7 0.473188 0.207232 0.819310
O O8 0.478838 0.775396 0.502714
O O9 0.723547 0.712269 0.571594
O O10 0.735681 0.869098 0.503279
O O11 0.992643 0.884729 0.915061
O O12 0.000000 0.000000 0.000000
O O13 0.580427 0.824537 0.645963
O O14 0.500000 0.120438 0.250000
O O15 0.263364 0.105348 0.164701
O O16 0.539625 0.988322 0.174436
#
# Coordination Sequence:
#
# PCOD9424191 Si02
#       7
#     8   8   8   8   8   8   8
#     4  12  29  54  78 110 151 193 255 327 390 454
#     4  12  26  50  78 110 149 197 252 314 379 462
#     4  12  23  46  69 110 147 192 250 304 380 454
#     4  12  24  38  67 105 153 196 238 300 372 450
#     4  12  25  47  78 107 151 196 250 316 387 448
#     4  11  24  41  69 105 149 210 251 301 373 447
#     4  11  23  43  65 105 156 194 254 300 364 453
#
# _framework density 23.511337000000001
#
# number of rings (size 3 to 8) (size 9 to 14) (size 15 to 20)
#    0.000    0.286    5.714    2.571    4.000    2.857 
#    2.571    0.000    0.000    0.000    0.000    0.000 
#    0.000    0.000    0.000    0.000    0.000    0.000 
#
# Total GULP energy -313036.060216 kJ/mol
# GULP energy per Si atom -5589.929647 kJ/mol
# Density = 2.345782 g / cm^3
# Si number density = 23.511337 Si / 1000 Ang^3
#
#
#
# Elastic Constant Matrix: (Units=GPa)
#
#
# Indices 1 2 3 4 5 6 
#
# 1 86.6531 25.4863 11.3426 0.0000 0.0000 0.0000
# 2 25.4863 149.9286 33.3741 0.0000 0.0000 0.0000
# 3 11.3426 33.3741 141.0034 0.0000 0.0000 0.0000
# 4 0.0000 0.0000 0.0000 -8.4580 0.0000 0.0000
# 5 0.0000 0.0000 0.0000 0.0000 21.8566 0.0000
# 6 0.0000 0.0000 0.0000 0.0000 0.0000 -20.3392
#
#
#
# Elastic Compliance Matrix: (Units=1/GPa)
#
#
# Indices 1 2 3 4 5 6 
#
# 1 0.012183 -0.001956 -0.000517 0.000000 0.000000 0.000000
# 2 -0.001956 0.007355 -0.001583 0.000000 0.000000 0.000000
# 3 -0.000517 -0.001583 0.007508 0.000000 0.000000 0.000000
# 4 0.000000 0.000000 0.000000 -0.118231 0.000000 0.000000
# 5 0.000000 0.000000 0.000000 0.000000 0.045753 0.000000
# 6 0.000000 0.000000 0.000000 0.000000 0.000000 -0.049166
#
#
# Mechanical properties :
#
#
# Convention : Reuss Voigt Hill
#
# Bulk Modulus (GPa) = 52.81650 57.55457 55.18553
# Shear Modulus (GPa) = -62.36457 19.10401 -21.63028
#
# Velocity S-wave (km/s) = -5.15586 2.85361 -3.03643
# Velocity P-wave (km/s) = 3.59595 5.94896 3.35106
#
# Compressibility (1/GPa) = 0.01893348
#
# Stress axis : x y z
#
# Youngs Moduli (GPa) = 82.08011 135.96547 133.18384
#
# Poissons Ratio (x) = 0.26594 0.06887
# Poissons Ratio (y) = 0.16054 0.21089
# Poissons Ratio (z) = 0.04244 0.21530
#
# Static dielectric constant tensor:
#      x y z
#    x 2.884270 0.000000 0.000000 
#    y 0.000000 1.810790 0.000000 
#    z 0.000000 0.000000 1.818680 
# 
# From -- ./inp_files/20535.got.cif
#   From: 2010.05.17/outbox.cif.g08.bks.cpg/sg54_11_cif.got.tgz:20535.got - 2010.06.03 13:09:01.
