data_PCOD9424628
_publ_section_title
;
Structure prediction by ZEFSAII (Michael W. Deem and Ramdas Pophale) SiO2 
 PCOD9424628
Probable space group: P C C A
;
_chemical_formula_sum "Si O2"
_cell_formula_units_Z 48
_cell_length_a 9.000000
_cell_length_b 18.000000
_cell_length_c 15.000000
_cell_angle_alpha 90.000000
_cell_angle_beta 90.000000
_cell_angle_gamma 90.000000
_cell_volume 2430.000000
_symmetry_space_group_name_H-M "P C C A"
_symmetry_group_IT_number 54
_symmetry_cell_setting 'orthorhombic'
loop_
_space_group_symop_operation_xyz
x,y,z
1/2-x,-y,z
1/2+x,-y,1/2-z
-x,y,1/2-z
-x,-y,-z
1/2+x,y,-z
1/2-x,y,1/2+z
x,-y,1/2+z
loop_
_atom_site_type_symbol
_atom_site_label
_atom_site_fract_x
_atom_site_fract_y
_atom_site_fract_z
Si Si1 0.330313 0.806669 0.279238
Si Si2 0.855311 0.927780 0.569361
Si Si3 0.492122 0.590535 0.519789
Si Si4 0.793655 0.918683 0.882118
Si Si5 0.655991 0.430879 0.299408
Si Si6 0.277985 0.649454 0.372431
O O1 0.500000 0.788815 0.250000
O O2 0.315809 0.867775 0.356243
O O3 0.276257 0.851610 0.189477
O O4 0.269781 0.732543 0.329579
O O5 0.809814 0.904869 0.468702
O O6 0.035348 0.931720 0.582722
O O7 0.750000 0.000000 0.585344
O O8 0.500000 0.500000 0.500000
O O9 0.387603 0.607559 0.606880
O O10 0.426018 0.629618 0.430377
O O11 0.648061 0.623621 0.557738
O O12 0.750000 0.000000 0.843076
O O13 0.750000 0.500000 0.330816
O O14 0.500000 0.448271 0.250000
O O15 0.753708 0.396299 0.219311
#
# Coordination Sequence:
#
# PCOD9424628 Si02
#       6
#     8   8   8   8   8   8
#     4  10  24  40  59  90 129 168 208 259 323 384
#     4  10  20  38  63  93 124 165 216 263 311 373
#     4  11  23  42  66  92 122 162 213 264 318 385
#     4  10  20  39  64  91 123 163 213 265 314 374
#     4  10  21  38  61  91 121 156 205 258 315 385
#     4  11  24  41  63  93 127 164 207 261 324 389
#
# _framework density 19.753086
#
# number of rings (size 3 to 8) (size 9 to 14) (size 15 to 20)
#    0.000    1.667    0.000    6.000    0.000    7.333 
#    0.000   10.833    0.000    0.000    0.000    0.000 
#    0.000    0.000    0.000    0.000    0.000    0.000 
#
# Total GULP energy -267210.063414 kJ/mol
# GULP energy per Si atom -5566.876321 kJ/mol
# Density = 1.970813 g / cm^3
# Si number density = 19.753086 Si / 1000 Ang^3
#
#
#
# Elastic Constant Matrix: (Units=GPa)
#
#
# Indices 1 2 3 4 5 6 
#
# 1 46.2474 40.8646 32.2520 0.0000 0.0000 0.0000
# 2 40.8646 95.4652 46.4269 0.0000 0.0000 0.0000
# 3 32.2520 46.4269 117.2253 0.0000 0.0000 0.0000
# 4 0.0000 0.0000 0.0000 42.1080 0.0000 0.0000
# 5 0.0000 0.0000 0.0000 0.0000 41.1582 0.0000
# 6 0.0000 0.0000 0.0000 0.0000 0.0000 23.3486
#
#
#
# Elastic Compliance Matrix: (Units=1/GPa)
#
#
# Indices 1 2 3 4 5 6 
#
# 1 0.036851 -0.013431 -0.004820 0.000000 0.000000 0.000000
# 2 -0.013431 0.017869 -0.003382 0.000000 0.000000 0.000000
# 3 -0.004820 -0.003382 0.011196 0.000000 0.000000 0.000000
# 4 0.000000 0.000000 0.000000 0.023748 0.000000 0.000000
# 5 0.000000 0.000000 0.000000 0.000000 0.024296 0.000000
# 6 0.000000 0.000000 0.000000 0.000000 0.000000 0.042829
#
#
# Mechanical properties :
#
#
# Convention : Reuss Voigt Hill
#
# Bulk Modulus (GPa) = 44.14625 55.33610 49.74117
# Shear Modulus (GPa) = 24.08425 30.61594 27.35010
#
# Velocity S-wave (km/s) = 3.49559 3.94119 3.72506
# Velocity P-wave (km/s) = 6.22011 6.98465 6.61344
#
# Compressibility (1/GPa) = 0.02265198
#
# Stress axis : x y z
#
# Youngs Moduli (GPa) = 27.13608 55.96384 89.31807
#
# Poissons Ratio (x) = 0.75163 0.43048
# Poissons Ratio (y) = 0.36445 0.30205
# Poissons Ratio (z) = 0.13079 0.18926
#
# Static dielectric constant tensor:
#      x y z
#    x 1.761280 0.000000 0.000000 
#    y 0.000000 1.755570 0.000000 
#    z 0.000000 0.000000 1.679130 
# 
# From -- ./inp_files/11698.got.cif
#   From: 2010.05.17/outbox.ucp.g08.bks.cvg/sg54_6_cif.got.tgz:11698.got - 2010.06.11 16:34:40.
