data_PCOD9424759
_publ_section_title
;
Structure prediction by ZEFSAII (Michael W. Deem and Ramdas Pophale) SiO2 
 PCOD9424759
Probable space group: P B A M
;
_chemical_formula_sum "Si O2"
_cell_formula_units_Z 64
_cell_length_a 14.445665
_cell_length_b 21.627283
_cell_length_c 9.407661
_cell_angle_alpha 90.000000
_cell_angle_beta 90.000000
_cell_angle_gamma 90.000000
_cell_volume 2939.146013
_symmetry_space_group_name_H-M "P B A M"
_symmetry_group_IT_number 55
_symmetry_cell_setting 'orthorhombic'
loop_
_space_group_symop_operation_xyz
x,y,z
-x,-y,z
1/2+x,1/2-y,-z
1/2-x,1/2+y,-z
-x,-y,-z
x,y,-z
1/2-x,1/2+y,z
1/2+x,1/2-y,z
loop_
_atom_site_type_symbol
_atom_site_label
_atom_site_fract_x
_atom_site_fract_y
_atom_site_fract_z
Si Si1 0.515562 0.430446 0.339704
Si Si2 0.976760 0.568775 0.162510
Si Si3 0.230787 0.308361 0.828797
Si Si4 0.522032 0.312459 0.836487
Si Si5 0.251425 0.675119 0.160126
Si Si6 0.265304 0.561183 0.655975
Si Si7 0.535417 0.189746 0.329467
Si Si8 0.754752 0.558658 0.842729
O O1 0.500000 0.500000 0.284634
O O2 0.474609 0.426518 0.500000
O O3 0.487602 0.375270 0.236740
O O4 0.625920 0.424104 0.354911
O O5 0.004014 0.626785 0.259562
O O6 0.865348 0.568889 0.151963
O O7 0.000000 0.500000 0.216669
O O8 0.013190 0.574700 0.000000
O O9 0.281903 0.243864 0.801029
O O10 0.142510 0.309654 0.724698
O O11 0.282249 0.373134 0.807357
O O12 0.204553 0.306833 0.000000
O O13 0.635512 0.317998 0.839393
O O14 0.498178 0.252454 0.742936
O O15 0.491465 0.305868 0.000000
O O16 0.223894 0.618597 0.258719
O O17 0.222981 0.660748 0.000000
O O18 0.223952 0.556152 0.500000
O O19 0.261230 0.496236 0.735285
O O20 0.528605 0.190377 0.500000
O O21 0.722071 0.540173 0.000000
#
# Coordination Sequence:
#
# PCOD9424759 Si02
#       8
#     8   8   8   8   8   8   8   8
#     4   9  18  32  48  67  93 123 155 192 233 274
#     4   9  18  33  51  69  91 121 156 191 226 267
#     4   8  15  28  45  65  88 116 152 191 228 266
#     4   9  16  27  44  66  91 118 153 193 228 268
#     4   8  14  26  44  64  86 113 148 191 229 260
#     4  10  19  29  44  68  95 122 151 184 225 274
#     4  10  17  25  42  68  95 120 148 186 231 273
#     4   9  17  30  48  69  93 120 149 185 228 270
#
# _framework density 21.775031999999999
#
# number of rings (size 3 to 8) (size 9 to 14) (size 15 to 20)
#    0.000    3.000    0.000    3.375    0.000    6.000 
#    0.000    0.000    0.000    1.500    0.000    5.250 
#    0.000    0.000    0.000    0.000    0.000    0.000 
#
# Total GULP energy -356958.399430 kJ/mol
# GULP energy per Si atom -5577.474991 kJ/mol
# Density = 2.172547 g / cm^3
# Si number density = 21.775032 Si / 1000 Ang^3
#
#
#
# Elastic Constant Matrix: (Units=GPa)
#
#
# Indices 1 2 3 4 5 6 
#
# 1 50.2203 0.9072 6.5594 0.0000 0.0000 0.0000
# 2 0.9072 238.7949 147.3683 0.0000 0.0000 0.0000
# 3 6.5594 147.3683 162.4433 0.0000 0.0000 0.0000
# 4 0.0000 0.0000 0.0000 -77.6122 0.0000 0.0000
# 5 0.0000 0.0000 0.0000 0.0000 0.5082 0.0000
# 6 0.0000 0.0000 0.0000 0.0000 0.0000 18.0492
#
#
#
# Elastic Compliance Matrix: (Units=1/GPa)
#
#
# Indices 1 2 3 4 5 6 
#
# 1 0.020115 0.000965 -0.001688 0.000000 0.000000 0.000000
# 2 0.000965 0.009561 -0.008713 0.000000 0.000000 0.000000
# 3 -0.001688 -0.008713 0.014128 0.000000 0.000000 0.000000
# 4 0.000000 0.000000 0.000000 -0.012885 0.000000 0.000000
# 5 0.000000 0.000000 0.000000 0.000000 1.967799 0.000000
# 6 0.000000 0.000000 0.000000 0.000000 0.000000 0.055404
#
#
# Mechanical properties :
#
#
# Convention : Reuss Voigt Hill
#
# Bulk Modulus (GPa) = 40.10615 84.56985 62.33800
# Shear Modulus (GPa) = 2.40234 7.96394 5.18314
#
# Velocity S-wave (km/s) = 1.05150 1.91450 1.54450
# Velocity P-wave (km/s) = 4.46459 6.61887 5.64544
#
# Compressibility (1/GPa) = 0.02493383
#
# Stress axis : x y z
#
# Youngs Moduli (GPa) = 49.71344 104.59343 70.78061
#
# Poissons Ratio (x) = -0.10096 0.11947
# Poissons Ratio (y) = -0.04799 0.61668
# Poissons Ratio (z) = 0.08391 0.91128
#
# Static dielectric constant tensor:
#      x y z
#    x 1.889220 0.000000 0.000000 
#    y 0.000000 1.814810 0.000000 
#    z 0.000000 0.000000 1.770080 
# 
# From -- ./inp_files/9131.got.cif
#   From: 2010.05.17/outbox.cif.g08.bks.cpg/sg55_5_cif.got.tgz:9131.got - 2010.06.03 13:27:54.
