data_PCOD9424282
_publ_section_title
;
Structure prediction by ZEFSAII (Michael W. Deem and Ramdas Pophale) SiO2 
 PCOD9424282
Probable space group: P C C A
;
_chemical_formula_sum "Si O2"
_cell_formula_units_Z 32
_cell_length_a 8.966177
_cell_length_b 15.090464
_cell_length_c 10.550349
_cell_angle_alpha 90.000000
_cell_angle_beta 90.000000
_cell_angle_gamma 90.000000
_cell_volume 1427.502008
_symmetry_space_group_name_H-M "P C C A"
_symmetry_group_IT_number 54
_symmetry_cell_setting 'orthorhombic'
loop_
_space_group_symop_operation_xyz
x,y,z
1/2-x,-y,z
1/2+x,-y,1/2-z
-x,y,1/2-z
-x,-y,-z
1/2+x,y,-z
1/2-x,y,1/2+z
x,-y,1/2+z
loop_
_atom_site_type_symbol
_atom_site_label
_atom_site_fract_x
_atom_site_fract_y
_atom_site_fract_z
Si Si1 0.893785 0.360378 0.438195
Si Si2 0.410031 0.955016 0.616939
Si Si3 0.899035 0.252067 0.876702
Si Si4 0.893471 0.483079 0.661606
O O1 0.758486 0.307530 0.370936
O O2 0.829824 0.423241 0.549635
O O3 0.002657 0.292355 0.509184
O O4 0.008225 0.432072 0.375646
O O5 0.500000 0.963374 0.750000
O O6 0.376012 0.851284 0.592169
O O7 0.250000 0.000000 0.630791
O O8 0.500000 0.000000 0.500000
O O9 0.000000 0.250424 0.750000
O O10 0.750000 0.500000 0.746200
O O11 0.000000 0.426737 0.750000
#
# Coordination Sequence:
#
# PCOD9424282 Si02
#       4
#     8   8   8   8
#     4  11  24  44  66  96 136 179 231 290 344 406
#     4  11  24  46  74 108 147 191 239 299 370 445
#     4  11  25  44  72 104 138 180 237 292 350 428
#     4  11  25  41  65  96 135 183 226 281 347 416
#
# _framework density 22.416778999999998
#
# number of rings (size 3 to 8) (size 9 to 14) (size 15 to 20)
#    0.000    1.000    2.500    3.000    7.000    2.000 
#    0.000    2.500    0.000    0.000    0.000    0.000 
#    0.000    0.000    0.000    0.000    0.000    0.000 
#
# Total GULP energy -178450.196382 kJ/mol
# GULP energy per Si atom -5576.568637 kJ/mol
# Density = 2.236576 g / cm^3
# Si number density = 22.416779 Si / 1000 Ang^3
#
#
#
# Elastic Constant Matrix: (Units=GPa)
#
#
# Indices 1 2 3 4 5 6 
#
# 1 184.9862 74.3464 37.0896 0.0000 0.0000 0.0000
# 2 74.3464 208.2439 40.2366 0.0000 0.0000 0.0000
# 3 37.0896 40.2366 81.3316 0.0000 0.0000 0.0000
# 4 0.0000 0.0000 0.0000 33.0165 0.0000 0.0000
# 5 0.0000 0.0000 0.0000 0.0000 39.3245 0.0000
# 6 0.0000 0.0000 0.0000 0.0000 0.0000 40.4080
#
#
#
# Elastic Compliance Matrix: (Units=1/GPa)
#
#
# Indices 1 2 3 4 5 6 
#
# 1 0.006604 -0.001964 -0.002040 0.000000 0.000000 0.000000
# 2 -0.001964 0.005893 -0.002020 0.000000 0.000000 0.000000
# 3 -0.002040 -0.002020 0.014225 0.000000 0.000000 0.000000
# 4 0.000000 0.000000 0.000000 0.030288 0.000000 0.000000
# 5 0.000000 0.000000 0.000000 0.000000 0.025429 0.000000
# 6 0.000000 0.000000 0.000000 0.000000 0.000000 0.024748
#
#
# Mechanical properties :
#
#
# Convention : Reuss Voigt Hill
#
# Bulk Modulus (GPa) = 68.14433 86.43412 77.28922
# Shear Modulus (GPa) = 40.28134 44.07574 42.17854
#
# Velocity S-wave (km/s) = 4.24362 4.43899 4.34240
# Velocity P-wave (km/s) = 7.38078 8.05694 7.72626
#
# Compressibility (1/GPa) = 0.01467473
#
# Stress axis : x y z
#
# Youngs Moduli (GPa) = 151.42283 169.68114 70.29795
#
# Poissons Ratio (x) = 0.33317 0.14342
# Poissons Ratio (y) = 0.29732 0.14201
# Poissons Ratio (z) = 0.30894 0.34278
#
# Static dielectric constant tensor:
#      x y z
#    x 2.099010 0.000000 0.000000 
#    y 0.000000 1.853030 0.000000 
#    z 0.000000 0.000000 2.042990 
# 
# From -- ./inp_files/6728.got.cif
#   From: 2010.05.17/outbox.cif.g08.bks.cpg/sg54_4_cif.got.tgz:6728.got - 2010.06.03 13:09:01.
