data_PCOD9424175
_publ_section_title
;
Structure prediction by ZEFSAII (Michael W. Deem and Ramdas Pophale) SiO2 
 PCOD9424175
Probable space group: P C C A
;
_chemical_formula_sum "Si O2"
_cell_formula_units_Z 60
_cell_length_a 19.820780
_cell_length_b 8.206095
_cell_length_c 17.589950
_cell_angle_alpha 90.000000
_cell_angle_beta 90.000000
_cell_angle_gamma 90.000000
_cell_volume 2861.026540
_symmetry_space_group_name_H-M "P C C A"
_symmetry_group_IT_number 54
_symmetry_cell_setting 'orthorhombic'
loop_
_space_group_symop_operation_xyz
x,y,z
1/2-x,-y,z
1/2+x,-y,1/2-z
-x,y,1/2-z
-x,-y,-z
1/2+x,y,-z
1/2-x,y,1/2+z
x,-y,1/2+z
loop_
_atom_site_type_symbol
_atom_site_label
_atom_site_fract_x
_atom_site_fract_y
_atom_site_fract_z
Si Si1 0.803817 0.141476 0.970281
Si Si2 0.432578 0.217581 0.298833
Si Si3 0.527972 0.850460 0.170008
Si Si4 0.065243 0.071150 0.040926
Si Si5 0.150542 0.645885 0.902919
Si Si6 0.709936 0.821398 0.794787
Si Si7 0.937414 0.403083 0.539767
Si Si8 0.250000 0.500000 0.287076
O O1 0.794590 0.211462 0.885299
O O2 0.750000 0.000000 0.976162
O O3 0.877520 0.060948 0.965826
O O4 0.800211 0.238282 0.049660
O O5 0.500000 0.251780 0.250000
O O6 0.363824 0.201244 0.247357
O O7 0.439450 0.341211 0.371477
O O8 0.440509 0.030866 0.326395
O O9 0.500000 0.788223 0.250000
O O10 0.459406 0.879813 0.123641
O O11 0.585253 0.737424 0.132539
O O12 0.082462 0.239725 0.002309
O O13 0.000000 0.000000 0.000000
O O14 0.121939 0.530667 0.967925
O O15 0.186853 0.533111 0.841918
O O16 0.748574 0.667324 0.759696
O O17 0.750000 0.000000 0.783835
O O18 0.000000 0.500000 0.500000
#
# Coordination Sequence:
#
# PCOD9424175 Si02
#       8
#     8   8   8   8   8   8   8   4
#     4  11  26  47  75 105 138 195 246 302 367 445
#     4  11  23  41  72 102 137 189 241 302 369 434
#     4  11  23  42  71 103 135 184 243 296 362 431
#     4  12  22  44  70  97 140 187 238 291 358 432
#     4  12  26  46  69 107 146 185 239 300 371 434
#     4  11  26  51  74 105 150 194 250 305 375 442
#     4  12  24  42  66 104 142 183 228 300 364 428
#     4  12  28  48  74 104 148 198 242 300 368 454
#
# _framework density 20.971494
#
# number of rings (size 3 to 8) (size 9 to 14) (size 15 to 20)
#    0.000    0.533    5.333    2.400    3.733    3.733 
#    4.800    0.000    0.000    0.000    0.000    0.000 
#    0.000    0.000    0.000    0.000    0.000    0.000 
#
# Total GULP energy -334255.322007 kJ/mol
# GULP energy per Si atom -5570.922033 kJ/mol
# Density = 2.092376 g / cm^3
# Si number density = 20.971494 Si / 1000 Ang^3
#
#
#
# Elastic Constant Matrix: (Units=GPa)
#
#
# Indices 1 2 3 4 5 6 
#
# 1 51.0573 2.0432 -1.8821 0.0000 0.0000 0.0000
# 2 2.0432 64.0305 24.7483 0.0000 0.0000 0.0000
# 3 -1.8821 24.7483 66.4937 0.0000 0.0000 0.0000
# 4 0.0000 0.0000 0.0000 30.0600 0.0000 0.0000
# 5 0.0000 0.0000 0.0000 0.0000 12.5121 0.0000
# 6 0.0000 0.0000 0.0000 0.0000 0.0000 21.6850
#
#
#
# Elastic Compliance Matrix: (Units=1/GPa)
#
#
# Indices 1 2 3 4 5 6 
#
# 1 0.019659 -0.000984 0.000923 0.000000 0.000000 0.000000
# 2 -0.000984 0.018291 -0.006836 0.000000 0.000000 0.000000
# 3 0.000923 -0.006836 0.017609 0.000000 0.000000 0.000000
# 4 0.000000 0.000000 0.000000 0.033267 0.000000 0.000000
# 5 0.000000 0.000000 0.000000 0.000000 0.079923 0.000000
# 6 0.000000 0.000000 0.000000 0.000000 0.000000 0.046115
#
#
# Mechanical properties :
#
#
# Convention : Reuss Voigt Hill
#
# Bulk Modulus (GPa) = 23.94305 25.71114 24.82710
# Shear Modulus (GPa) = 20.61179 23.29621 21.95400
#
# Velocity S-wave (km/s) = 3.13844 3.33656 3.23902
# Velocity P-wave (km/s) = 4.95730 5.20866 5.08453
#
# Compressibility (1/GPa) = 0.04176577
#
# Stress axis : x y z
#
# Youngs Moduli (GPa) = 50.86674 54.67179 56.78825
#
# Poissons Ratio (x) = 0.05379 -0.05240
# Poissons Ratio (y) = 0.05005 0.38818
# Poissons Ratio (z) = -0.04693 0.37371
#
# Static dielectric constant tensor:
#      x y z
#    x 1.791700 0.000000 0.000000 
#    y 0.000000 1.708570 0.000000 
#    z 0.000000 0.000000 1.832900 
# 
# From -- ./inp_files/18685.got.cif
#   From: 2010.05.17/outbox.cif.g08.bks.cpg/sg54_10_cif.got.tgz:18685.got - 2010.06.03 13:09:01.
