data_PCOD9424291
_publ_section_title
;
Structure prediction by ZEFSAII (Michael W. Deem and Ramdas Pophale) SiO2 
 PCOD9424291
Probable space group: P C C A
;
_chemical_formula_sum "Si O2"
_cell_formula_units_Z 48
_cell_length_a 24.524464
_cell_length_b 8.703315
_cell_length_c 8.994923
_cell_angle_alpha 90.000000
_cell_angle_beta 90.000000
_cell_angle_gamma 90.000000
_cell_volume 1919.913563
_symmetry_space_group_name_H-M "P C C A"
_symmetry_group_IT_number 54
_symmetry_cell_setting 'orthorhombic'
loop_
_space_group_symop_operation_xyz
x,y,z
1/2-x,-y,z
1/2+x,-y,1/2-z
-x,y,1/2-z
-x,-y,-z
1/2+x,y,-z
1/2-x,y,1/2+z
x,-y,1/2+z
loop_
_atom_site_type_symbol
_atom_site_label
_atom_site_fract_x
_atom_site_fract_y
_atom_site_fract_z
Si Si1 0.444462 0.856038 0.173833
Si Si2 0.708664 0.642710 0.310964
Si Si3 0.707096 0.791476 0.989365
Si Si4 0.611868 0.308274 0.269930
Si Si5 0.407462 0.443255 0.541286
Si Si6 0.617312 0.995088 0.086863
O O1 0.500000 0.906064 0.250000
O O2 0.447863 0.691075 0.095264
O O3 0.401777 0.856010 0.309341
O O4 0.421045 0.976025 0.054192
O O5 0.750000 0.500000 0.329129
O O6 0.734911 0.779823 0.408824
O O7 0.650241 0.601142 0.379766
O O8 0.708696 0.690026 0.138718
O O9 0.666277 0.723332 0.864828
O O10 0.678205 0.950659 0.037676
O O11 0.575146 0.390436 0.396509
O O12 0.605358 0.427158 0.132546
O O13 0.607442 0.147781 0.183059
#
# Coordination Sequence:
#
# PCOD9424291 Si02
#       6
#     8   8   8   8   8   8
#     4  11  24  46  76 107 141 190 246 305 374 438
#     4  12  24  39  70 106 139 194 239 289 361 434
#     4  12  24  43  69 102 147 188 247 287 361 432
#     4  11  24  44  72 104 141 194 236 296 363 424
#     4  11  24  44  71 102 147 185 245 300 358 429
#     4  11  24  47  73 105 146 194 237 305 367 438
#
# _framework density 25.001124999999998
#
# number of rings (size 3 to 8) (size 9 to 14) (size 15 to 20)
#    0.000    0.667    5.000    3.000    0.000    0.000 
#    0.000   16.667    0.000    0.000    0.000    0.000 
#    0.000    0.000    0.000    0.000    0.000    0.000 
#
# Total GULP energy -268120.364974 kJ/mol
# GULP energy per Si atom -5585.840937 kJ/mol
# Density = 2.494422 g / cm^3
# Si number density = 25.001125 Si / 1000 Ang^3
#
#
#
# Elastic Constant Matrix: (Units=GPa)
#
#
# Indices 1 2 3 4 5 6 
#
# 1 32.1240 5.8141 19.0251 0.0000 0.0000 0.0000
# 2 5.8141 95.5251 31.3336 0.0000 0.0000 0.0000
# 3 19.0251 31.3336 149.2481 0.0000 0.0000 0.0000
# 4 0.0000 0.0000 0.0000 31.2027 0.0000 0.0000
# 5 0.0000 0.0000 0.0000 0.0000 31.0347 0.0000
# 6 0.0000 0.0000 0.0000 0.0000 0.0000 6.9991
#
#
#
# Elastic Compliance Matrix: (Units=1/GPa)
#
#
# Indices 1 2 3 4 5 6 
#
# 1 0.033714 -0.000690 -0.004153 0.000000 0.000000 0.000000
# 2 -0.000690 0.011257 -0.002275 0.000000 0.000000 0.000000
# 3 -0.004153 -0.002275 0.007707 0.000000 0.000000 0.000000
# 4 0.000000 0.000000 0.000000 0.032048 0.000000 0.000000
# 5 0.000000 0.000000 0.000000 0.000000 0.032222 0.000000
# 6 0.000000 0.000000 0.000000 0.000000 0.000000 0.142875
#
#
# Mechanical properties :
#
#
# Convention : Reuss Voigt Hill
#
# Bulk Modulus (GPa) = 26.01327 43.24920 34.63124
# Shear Modulus (GPa) = 17.42932 28.56226 22.99579
#
# Velocity S-wave (km/s) = 2.64321 3.38367 3.03609
# Velocity P-wave (km/s) = 4.44329 5.70982 5.11590
#
# Compressibility (1/GPa) = 0.03844191
#
# Stress axis : x y z
#
# Youngs Moduli (GPa) = 29.66156 88.83525 129.74688
#
# Poissons Ratio (x) = 0.06128 0.53881
# Poissons Ratio (y) = 0.02046 0.29522
# Poissons Ratio (z) = 0.12318 0.20213
#
# Static dielectric constant tensor:
#      x y z
#    x 2.009100 0.000000 0.000000 
#    y 0.000000 2.099760 0.000000 
#    z 0.000000 0.000000 1.924050 
# 
# From -- ./inp_files/5839.got.cif
#   From: 2010.05.17/outbox.cif.g08.bks.cpg/sg54_3_cif.got.tgz:5839.got - 2010.06.03 13:09:01.
