data_PCOD9424265
_publ_section_title
;
Structure prediction by ZEFSAII (Michael W. Deem and Ramdas Pophale) SiO2 
 PCOD9424265
Probable space group: P C C A
;
_chemical_formula_sum "Si O2"
_cell_formula_units_Z 24
_cell_length_a 8.474105
_cell_length_b 13.126758
_cell_length_c 9.605913
_cell_angle_alpha 90.000000
_cell_angle_beta 90.000000
_cell_angle_gamma 90.000000
_cell_volume 1068.537993
_symmetry_space_group_name_H-M "P C C A"
_symmetry_group_IT_number 54
_symmetry_cell_setting 'orthorhombic'
loop_
_space_group_symop_operation_xyz
x,y,z
1/2-x,-y,z
1/2+x,-y,1/2-z
-x,y,1/2-z
-x,-y,-z
1/2+x,y,-z
1/2-x,y,1/2+z
x,-y,1/2+z
loop_
_atom_site_type_symbol
_atom_site_label
_atom_site_fract_x
_atom_site_fract_y
_atom_site_fract_z
Si Si1 0.390648 0.582735 0.118243
Si Si2 0.403784 0.704264 0.607506
Si Si3 0.095108 0.933896 0.107871
O O1 0.250000 0.500000 0.088340
O O2 0.500000 0.553542 0.250000
O O3 0.274981 0.676415 0.148683
O O4 0.505491 0.624852 0.996205
O O5 0.500000 0.701893 0.750000
O O6 0.390922 0.818790 0.549514
O O7 0.000000 0.923719 0.250000
O O8 0.250000 0.000000 0.136509
O O9 0.000000 0.000000 0.000000
#
# Coordination Sequence:
#
# PCOD9424265 Si02
#       3
#     8   8   8
#     4  12  26  46  70  99 136 178 226 284 343 407
#     4  11  25  44  68 101 138 180 229 280 336 402
#     4  11  24  42  67 100 139 182 228 278 336 401
#
# _framework density 22.460595000000001
#
# number of rings (size 3 to 8) (size 9 to 14) (size 15 to 20)
#    0.000    0.667    0.000    7.000    0.000   13.333 
#    0.000    0.000    0.000    0.000    0.000    0.000 
#    0.000    0.000    0.000    0.000    0.000    0.000 
#
# Total GULP energy -133941.104595 kJ/mol
# GULP energy per Si atom -5580.879358 kJ/mol
# Density = 2.240947 g / cm^3
# Si number density = 22.460595 Si / 1000 Ang^3
#
#
#
# Elastic Constant Matrix: (Units=GPa)
#
#
# Indices 1 2 3 4 5 6 
#
# 1 164.9988 54.9029 35.9747 0.0000 0.0000 0.0000
# 2 54.9029 157.7969 39.0978 0.0000 0.0000 0.0000
# 3 35.9747 39.0978 74.1556 0.0000 0.0000 0.0000
# 4 0.0000 0.0000 0.0000 31.0268 0.0000 0.0000
# 5 0.0000 0.0000 0.0000 0.0000 53.4983 0.0000
# 6 0.0000 0.0000 0.0000 0.0000 0.0000 22.2642
#
#
#
# Elastic Compliance Matrix: (Units=1/GPa)
#
#
# Indices 1 2 3 4 5 6 
#
# 1 0.007239 -0.001896 -0.002512 0.000000 0.000000 0.000000
# 2 -0.001896 0.007786 -0.003185 0.000000 0.000000 0.000000
# 3 -0.002512 -0.003185 0.016383 0.000000 0.000000 0.000000
# 4 0.000000 0.000000 0.000000 0.032230 0.000000 0.000000
# 5 0.000000 0.000000 0.000000 0.000000 0.018692 0.000000
# 6 0.000000 0.000000 0.000000 0.000000 0.000000 0.044915
#
#
# Mechanical properties :
#
#
# Convention : Reuss Voigt Hill
#
# Bulk Modulus (GPa) = 61.64715 72.98911 67.31813
# Shear Modulus (GPa) = 33.82008 39.15627 36.48817
#
# Velocity S-wave (km/s) = 3.88461 4.17985 4.03493
# Velocity P-wave (km/s) = 6.90121 7.47408 7.19335
#
# Compressibility (1/GPa) = 0.01622135
#
# Stress axis : x y z
#
# Youngs Moduli (GPa) = 138.13317 128.43068 61.03785
#
# Poissons Ratio (x) = 0.24355 0.15334
# Poissons Ratio (y) = 0.26195 0.19442
# Poissons Ratio (z) = 0.34701 0.40909
#
# Static dielectric constant tensor:
#      x y z
#    x 1.910680 0.000000 0.000000 
#    y 0.000000 2.038600 0.000000 
#    z 0.000000 0.000000 1.737950 
# 
# From -- ./inp_files/2422.got.cif
#   From: 2010.05.17/outbox.cif.g08.bks.cpg/sg54_2_cif.got.tgz:2422.got - 2010.06.03 13:09:01.
