data_PCOD9424014
_publ_section_title
;
Structure prediction by ZEFSAII (Michael W. Deem and Ramdas Pophale) SiO2 
 PCOD9424014
Probable space group: P C C A
;
_chemical_formula_sum "Si O2"
_cell_formula_units_Z 52
_cell_length_a 8.191123
_cell_length_b 20.396936
_cell_length_c 14.702591
_cell_angle_alpha 90.000000
_cell_angle_beta 90.000000
_cell_angle_gamma 90.000000
_cell_volume 2456.417919
_symmetry_space_group_name_H-M "P C C A"
_symmetry_group_IT_number 54
_symmetry_cell_setting 'orthorhombic'
loop_
_space_group_symop_operation_xyz
x,y,z
1/2-x,-y,z
1/2+x,-y,1/2-z
-x,y,1/2-z
-x,-y,-z
1/2+x,y,-z
1/2-x,y,1/2+z
x,-y,1/2+z
loop_
_atom_site_type_symbol
_atom_site_label
_atom_site_fract_x
_atom_site_fract_y
_atom_site_fract_z
Si Si1 0.000000 0.938567 0.750000
Si Si2 0.880217 0.454381 0.939473
Si Si3 0.133560 0.358667 0.963805
Si Si4 0.069957 0.973248 0.092531
Si Si5 0.056771 0.181748 0.608753
Si Si6 0.724257 0.815976 0.226452
Si Si7 0.583593 0.733900 0.076149
O O1 0.030416 0.989049 0.831095
O O2 0.848160 0.887784 0.748513
O O3 0.750000 0.500000 0.884962
O O4 0.760117 0.413404 0.003815
O O5 0.000000 0.500000 0.000000
O O6 0.998375 0.396512 0.903069
O O7 0.048147 0.322631 0.050491
O O8 0.244227 0.304215 0.917867
O O9 0.250000 0.000000 0.106336
O O10 0.078210 0.895377 0.092715
O O11 0.000000 0.000000 0.000000
O O12 0.195875 0.208190 0.678426
O O13 0.071669 0.219833 0.513277
O O14 0.881097 0.183526 0.658782
O O15 0.586924 0.777112 0.167337
#
# Coordination Sequence:
#
# PCOD9424014 Si02
#       7
#     4   8   8   8   8   8   8
#     4  12  26  46  66  90 120 156 216 270 332 402
#     4   8  14  28  51  88 134 168 201 259 304 344
#     4   9  18  30  55  87 127 175 206 253 302 373
#     4  12  28  44  67  91 117 156 213 269 337 402
#     4  11  25  43  61  87 122 162 210 266 330 383
#     4  11  25  42  64  86 120 166 205 270 324 381
#     4  11  21  38  59  88 128 167 211 258 318 376
#
# _framework density 21.169038
#
# number of rings (size 3 to 8) (size 9 to 14) (size 15 to 20)
#    0.000    1.538    3.077    1.846    6.462    0.000 
#    0.000    0.000    0.000    0.000    0.000    0.000 
#    0.000  258.462    0.000    0.000    0.000    0.000 
#
# Total GULP energy -289528.405737 kJ/mol
# GULP energy per Si atom -5567.853956 kJ/mol
# Density = 2.112086 g / cm^3
# Si number density = 21.169038 Si / 1000 Ang^3
#
#
#
# Elastic Constant Matrix: (Units=GPa)
#
#
# Indices 1 2 3 4 5 6 
#
# 1 79.2276 43.1317 14.3290 0.0000 0.0000 0.0000
# 2 43.1317 121.1628 38.0827 0.0000 0.0000 0.0000
# 3 14.3290 38.0827 109.4948 0.0000 0.0000 0.0000
# 4 0.0000 0.0000 0.0000 -1.6658 0.0000 0.0000
# 5 0.0000 0.0000 0.0000 0.0000 14.8306 0.0000
# 6 0.0000 0.0000 0.0000 0.0000 0.0000 48.5495
#
#
#
# Elastic Compliance Matrix: (Units=1/GPa)
#
#
# Indices 1 2 3 4 5 6 
#
# 1 0.015657 -0.005535 -0.000124 0.000000 0.000000 0.000000
# 2 -0.005535 0.011223 -0.003179 0.000000 0.000000 0.000000
# 3 -0.000124 -0.003179 0.010255 0.000000 0.000000 0.000000
# 4 0.000000 0.000000 0.000000 -0.600324 0.000000 0.000000
# 5 0.000000 0.000000 0.000000 0.000000 0.067428 0.000000
# 6 0.000000 0.000000 0.000000 0.000000 0.000000 0.020598
#
#
# Mechanical properties :
#
#
# Convention : Reuss Voigt Hill
#
# Bulk Modulus (GPa) = 51.38899 55.66356 53.52628
# Shear Modulus (GPa) = -11.08644 26.63232 7.77294
#
# Velocity S-wave (km/s) = -2.29095 3.55079 1.91828
# Velocity P-wave (km/s) = 4.16297 6.56983 5.49968
#
# Compressibility (1/GPa) = 0.01945942
#
# Stress axis : x y z
#
# Youngs Moduli (GPa) = 63.86740 89.10397 97.51564
#
# Poissons Ratio (x) = 0.49317 0.01209
# Poissons Ratio (y) = 0.35349 0.31001
# Poissons Ratio (z) = 0.00792 0.28327
#
# Static dielectric constant tensor:
#      x y z
#    x 2.030130 0.000000 0.000000 
#    y 0.000000 1.772530 0.000000 
#    z 0.000000 0.000000 1.700510 
# 
# From -- ./inp_files/11837.got.cif
#   From: 2010.05.17/outbox.cif.g08.bks.cpg/sg54_6_cif.got.tgz:11837.got - 2010.06.03 13:09:01.
