data_PCOD9424949
_publ_section_title
;
Structure prediction by ZEFSAII (Michael W. Deem and Ramdas Pophale) SiO2 
 PCOD9424949
Probable space group: P B A M
;
_chemical_formula_sum "Si O2"
_cell_formula_units_Z 58
_cell_length_a 16.150575
_cell_length_b 18.323227
_cell_length_c 7.410122
_cell_angle_alpha 90.000000
_cell_angle_beta 90.000000
_cell_angle_gamma 90.000000
_cell_volume 2192.882234
_symmetry_space_group_name_H-M "P B A M"
_symmetry_group_IT_number 55
_symmetry_cell_setting 'orthorhombic'
loop_
_space_group_symop_operation_xyz
x,y,z
-x,-y,z
1/2+x,1/2-y,-z
1/2-x,1/2+y,-z
-x,-y,-z
x,y,-z
1/2-x,1/2+y,z
1/2+x,1/2-y,z
loop_
_atom_site_type_symbol
_atom_site_label
_atom_site_fract_x
_atom_site_fract_y
_atom_site_fract_z
Si Si1 0.548764 0.198972 0.703092
Si Si2 0.204014 0.217488 0.721063
Si Si3 0.874636 0.338584 0.706961
Si Si4 0.385054 0.566199 0.714278
Si Si5 0.840873 0.500290 0.203652
Si Si6 0.538225 0.653006 0.785139
Si Si7 0.000000 0.500000 0.000000
Si Si8 0.196822 0.915280 0.203756
O O1 0.560139 0.169252 0.500000
O O2 0.640311 0.218295 0.780922
O O3 0.467127 0.161079 0.792587
O O4 0.509315 0.280466 0.695604
O O5 0.204473 0.220669 0.500000
O O6 0.299667 0.210632 0.782880
O O7 0.163661 0.139475 0.773194
O O8 0.886121 0.316201 0.500000
O O9 0.843320 0.421851 0.706261
O O10 0.373440 0.558893 0.500000
O O11 0.480199 0.583475 0.754085
O O12 0.350617 0.493011 0.799322
O O13 0.932875 0.524490 0.157023
O O14 0.783781 0.561778 0.288814
O O15 0.807077 0.485164 0.000000
O O16 0.629935 0.638522 0.712167
O O17 0.542372 0.666542 0.000000
O O18 0.212157 0.889021 0.000000
#
# Coordination Sequence:
#
# PCOD9424949 Si02
#       8
#     8   8   8   8   8   8   2   8
#     4   9  19  34  51  74 109 146 179 224 279 329
#     4   8  15  29  48  73 103 133 170 219 264 315
#     4  10  18  33  58  82 105 137 184 231 276 328
#     4  10  18  29  48  76 109 139 171 213 264 320
#     4   9  19  36  58  78 104 138 182 227 279 321
#     4  10  20  32  46  69 110 148 178 211 263 324
#     4   8  20  40  58  76 102 140 166 228 278 326
#     4  10  19  31  49  75 102 140 178 221 261 318
#
# _framework density 26.449207999999999
#
# number of rings (size 3 to 8) (size 9 to 14) (size 15 to 20)
#    0.414    2.207    1.379    2.069    0.000    3.310 
#    0.000    1.724    0.000    0.000    0.000    0.000 
#    0.000    0.000    0.000    0.000    0.000    0.000 
#
# Total GULP energy -323101.433445 kJ/mol
# GULP energy per Si atom -5570.714370 kJ/mol
# Density = 2.638901 g / cm^3
# Si number density = 26.449208 Si / 1000 Ang^3
#
#
#
# Elastic Constant Matrix: (Units=GPa)
#
#
# Indices 1 2 3 4 5 6 
#
# 1 195.0826 45.6683 10.0400 0.0000 0.0000 0.0000
# 2 45.6683 75.8208 -7.1472 0.0000 0.0000 0.0000
# 3 10.0400 -7.1472 105.6005 0.0000 0.0000 0.0000
# 4 0.0000 0.0000 0.0000 9.9047 0.0000 0.0000
# 5 0.0000 0.0000 0.0000 0.0000 -5.1261 0.0000
# 6 0.0000 0.0000 0.0000 0.0000 0.0000 36.2350
#
#
#
# Elastic Compliance Matrix: (Units=1/GPa)
#
#
# Indices 1 2 3 4 5 6 
#
# 1 0.006038 -0.003715 -0.000825 0.000000 0.000000 0.000000
# 2 -0.003715 0.015559 0.001406 0.000000 0.000000 0.000000
# 3 -0.000825 0.001406 0.009643 0.000000 0.000000 0.000000
# 4 0.000000 0.000000 0.000000 0.100962 0.000000 0.000000
# 5 0.000000 0.000000 0.000000 0.000000 -0.195081 0.000000
# 6 0.000000 0.000000 0.000000 0.000000 0.000000 0.027598
#
#
# Mechanical properties :
#
#
# Convention : Reuss Voigt Hill
#
# Bulk Modulus (GPa) = 40.04404 52.62512 46.33458
# Shear Modulus (GPa) = -241.67240 30.06557 -105.80341
#
# Velocity S-wave (km/s) = -9.56925 3.37520 -6.33161
# Velocity P-wave (km/s) = 10.34028 5.92699 5.99133
#
# Compressibility (1/GPa) = 0.02497250
#
# Stress axis : x y z
#
# Youngs Moduli (GPa) = 165.61460 64.27159 103.69879
#
# Poissons Ratio (x) = 0.23875 0.08560
# Poissons Ratio (y) = 0.61521 -0.14582
# Poissons Ratio (z) = 0.13671 -0.09038
#
# Static dielectric constant tensor:
#      x y z
#    x 2.191670 0.000000 0.000000 
#    y 0.000000 2.111220 0.000000 
#    z 0.000000 0.000000 1.994000 
# 
# From -- ./inp_files/6813.got.cif
#   From: 2010.05.17/outbox.cif.g08.bks.cpg/sg55_4_cif.got.tgz:6813.got - 2010.06.03 13:27:54.
