data_PCOD9424104
_publ_section_title
;
Structure prediction by ZEFSAII (Michael W. Deem and Ramdas Pophale) SiO2 
 PCOD9424104
Probable space group: P C C A
;
_chemical_formula_sum "Si O2"
_cell_formula_units_Z 40
_cell_length_a 25.396556
_cell_length_b 7.623617
_cell_length_c 9.743805
_cell_angle_alpha 90.000000
_cell_angle_beta 90.000000
_cell_angle_gamma 90.000000
_cell_volume 1886.533320
_symmetry_space_group_name_H-M "P C C A"
_symmetry_group_IT_number 54
_symmetry_cell_setting 'orthorhombic'
loop_
_space_group_symop_operation_xyz
x,y,z
1/2-x,-y,z
1/2+x,-y,1/2-z
-x,y,1/2-z
-x,-y,-z
1/2+x,y,-z
1/2-x,y,1/2+z
x,-y,1/2+z
loop_
_atom_site_type_symbol
_atom_site_label
_atom_site_fract_x
_atom_site_fract_y
_atom_site_fract_z
Si Si1 0.894119 0.787854 0.446965
Si Si2 0.962333 0.466874 0.372914
Si Si3 0.909993 0.115008 0.262555
Si Si4 0.226505 0.313107 0.481847
Si Si5 0.786440 0.158359 0.293750
O O1 0.914205 0.597085 0.400887
O O2 0.915185 0.853465 0.597455
O O3 0.830570 0.757003 0.463517
O O4 0.917262 0.924915 0.334020
O O5 0.942048 0.270179 0.339003
O O6 0.000000 0.522994 0.250000
O O7 0.000000 0.500000 0.500000
O O8 0.848067 0.134661 0.289132
O O9 0.250000 0.500000 0.525004
O O10 0.224828 0.307378 0.318166
O O11 0.269210 0.189236 0.551647
O O12 0.750000 0.000000 0.243051
#
# Coordination Sequence:
#
# PCOD9424104 Si02
#       5
#     8   8   8   8   8
#     4  11  26  46  71 107 140 191 239 303 363 435
#     4  12  27  51  72 102 142 186 246 305 368 431
#     4  11  26  45  73 105 144 189 241 295 366 433
#     4  11  23  40  65 100 141 186 233 285 350 421
#     4  11  22  41  65 100 141 182 228 280 348 426
#
# _framework density 21.202912999999999
#
# number of rings (size 3 to 8) (size 9 to 14) (size 15 to 20)
#    0.000    0.800    4.000    2.400    5.600    3.200 
#    0.000    0.000    0.000    0.000    0.000    0.000 
#    0.000    0.000    0.000    0.000    0.000    0.000 
#
# Total GULP energy -222794.121000 kJ/mol
# GULP energy per Si atom -5569.853025 kJ/mol
# Density = 2.115465 g / cm^3
# Si number density = 21.202913 Si / 1000 Ang^3
#
#
#
# Elastic Constant Matrix: (Units=GPa)
#
#
# Indices 1 2 3 4 5 6 
#
# 1 60.5830 0.1824 9.1976 0.0000 0.0000 0.0000
# 2 0.1824 76.7315 -4.0818 0.0000 0.0000 0.0000
# 3 9.1976 -4.0818 68.2237 0.0000 0.0000 0.0000
# 4 0.0000 0.0000 0.0000 -94.9603 0.0000 0.0000
# 5 0.0000 0.0000 0.0000 0.0000 -417.6962 0.0000
# 6 0.0000 0.0000 0.0000 0.0000 0.0000 33.9326
#
#
#
# Elastic Compliance Matrix: (Units=1/GPa)
#
#
# Indices 1 2 3 4 5 6 
#
# 1 0.016853 -0.000161 -0.002282 0.000000 0.000000 0.000000
# 2 -0.000161 0.013076 0.000804 0.000000 0.000000 0.000000
# 3 -0.002282 0.000804 0.015013 0.000000 0.000000 0.000000
# 4 0.000000 0.000000 0.000000 -0.010531 0.000000 0.000000
# 5 0.000000 0.000000 0.000000 0.000000 -0.002394 0.000000
# 6 0.000000 0.000000 0.000000 0.000000 0.000000 0.029470
#
#
# Mechanical properties :
#
#
# Convention : Reuss Voigt Hill
#
# Bulk Modulus (GPa) = 24.00154 24.01495 24.00825
# Shear Modulus (GPa) = 63.56982 -82.39543 -9.41281
#
# Velocity S-wave (km/s) = 5.48149 -6.24058 -2.10927
# Velocity P-wave (km/s) = 7.16985 6.36989 2.32715
#
# Compressibility (1/GPa) = 0.04166399
#
# Stress axis : x y z
#
# Youngs Moduli (GPa) = 59.33602 76.47829 66.60730
#
# Poissons Ratio (x) = 0.01235 0.15198
# Poissons Ratio (y) = 0.00958 -0.05356
# Poissons Ratio (z) = 0.13539 -0.06149
#
# Static dielectric constant tensor:
#      x y z
#    x 1.701500 0.000000 0.000000 
#    y 0.000000 1.949210 0.000000 
#    z 0.000000 0.000000 1.727010 
# 
# From -- ./inp_files/5002.got.cif
#   From: 2010.05.17/outbox.cif.g08.bks.cpg/sg54_3_cif.got.tgz:5002.got - 2010.06.03 13:09:01.
