data_PCOD9424673
_publ_section_title
;
Structure prediction by ZEFSAII (Michael W. Deem and Ramdas Pophale) SiO2 
 PCOD9424673
Probable space group: P C C A
;
_chemical_formula_sum "Si O2"
_cell_formula_units_Z 64
_cell_length_a 30.000000
_cell_length_b 12.000000
_cell_length_c 9.000000
_cell_angle_alpha 90.000000
_cell_angle_beta 90.000000
_cell_angle_gamma 90.000000
_cell_volume 3240.000000
_symmetry_space_group_name_H-M "P C C A"
_symmetry_group_IT_number 54
_symmetry_cell_setting 'orthorhombic'
loop_
_space_group_symop_operation_xyz
x,y,z
1/2-x,-y,z
1/2+x,-y,1/2-z
-x,y,1/2-z
-x,-y,-z
1/2+x,y,-z
1/2-x,y,1/2+z
x,-y,1/2+z
loop_
_atom_site_type_symbol
_atom_site_label
_atom_site_fract_x
_atom_site_fract_y
_atom_site_fract_z
Si Si1 0.450638 0.125964 0.565459
Si Si2 0.777157 0.760246 0.083670
Si Si3 0.382192 0.290900 0.414151
Si Si4 0.868833 0.241926 0.918556
Si Si5 0.845950 0.496551 0.474863
Si Si6 0.213604 0.574228 0.776160
Si Si7 0.275989 0.114964 0.136413
Si Si8 0.946876 0.884600 0.580583
O O1 0.415379 0.218642 0.513525
O O2 0.502924 0.153320 0.533984
O O3 0.446335 0.109725 0.741697
O O4 0.440539 0.008382 0.485903
O O5 0.828772 0.728802 0.068972
O O6 0.741162 0.677039 0.158049
O O7 0.777850 0.869340 0.187617
O O8 0.756796 0.791384 0.927628
O O9 0.389490 0.250945 0.245994
O O10 0.384934 0.423003 0.449955
O O11 0.855705 0.371769 0.949325
O O12 0.825350 0.158027 0.919070
O O13 0.906938 0.193915 0.024873
O O14 0.804703 0.502663 0.587037
O O15 0.829509 0.427784 0.330110
O O16 0.250000 0.500000 0.692415
O O17 0.250000 0.000000 0.102751
#
# Coordination Sequence:
#
# PCOD9424673 Si02
#       8
#     8   8   8   8   8   8   8   8
#     4  10  23  45  73 101 129 169 219 277 340 410
#     4  11  23  39  58  87 123 173 219 266 325 377
#     4  11  24  39  63  97 130 169 222 274 334 395
#     4  11  24  42  61  97 134 173 223 277 336 400
#     4  12  23  40  60  94 128 174 225 274 328 391
#     4  12  22  37  61  85 125 170 228 274 314 379
#     4  11  24  40  56  84 129 171 217 261 322 388
#     4  10  23  45  73 101 130 169 220 273 341 410
#
# _framework density 19.753086
#
# number of rings (size 3 to 8) (size 9 to 14) (size 15 to 20)
#    0.000    1.000    3.750    3.000    3.500    2.500 
#    0.000    0.625    0.000    0.000    0.000    0.000 
#    0.000    0.000    0.000    0.000    0.000    0.000 
#
# Total GULP energy -356366.020998 kJ/mol
# GULP energy per Si atom -5568.219078 kJ/mol
# Density = 1.970813 g / cm^3
# Si number density = 19.753086 Si / 1000 Ang^3
#
#
#
# Elastic Constant Matrix: (Units=GPa)
#
#
# Indices 1 2 3 4 5 6 
#
# 1 94.3718 59.2657 37.0567 0.0000 0.0000 0.0000
# 2 59.2657 117.3785 35.0522 0.0000 0.0000 0.0000
# 3 37.0567 35.0522 86.1787 0.0000 0.0000 0.0000
# 4 0.0000 0.0000 0.0000 31.1637 0.0000 0.0000
# 5 0.0000 0.0000 0.0000 0.0000 30.5447 0.0000
# 6 0.0000 0.0000 0.0000 0.0000 0.0000 35.8849
#
#
#
# Elastic Compliance Matrix: (Units=1/GPa)
#
#
# Indices 1 2 3 4 5 6 
#
# 1 0.016807 -0.007203 -0.004297 0.000000 0.000000 0.000000
# 2 -0.007203 0.012784 -0.002103 0.000000 0.000000 0.000000
# 3 -0.004297 -0.002103 0.014307 0.000000 0.000000 0.000000
# 4 0.000000 0.000000 0.000000 0.032089 0.000000 0.000000
# 5 0.000000 0.000000 0.000000 0.000000 0.032739 0.000000
# 6 0.000000 0.000000 0.000000 0.000000 0.000000 0.027867
#
#
# Mechanical properties :
#
#
# Convention : Reuss Voigt Hill
#
# Bulk Modulus (GPa) = 59.90691 62.29757 61.10224
# Shear Modulus (GPa) = 29.52247 30.62229 30.07238
#
# Velocity S-wave (km/s) = 3.87017 3.94160 3.90605
# Velocity P-wave (km/s) = 7.09680 7.23336 7.16541
#
# Compressibility (1/GPa) = 0.01669257
#
# Stress axis : x y z
#
# Youngs Moduli (GPa) = 59.49814 78.22198 69.89646
#
# Poissons Ratio (x) = 0.56342 0.30037
# Poissons Ratio (y) = 0.42856 0.14696
# Poissons Ratio (z) = 0.25569 0.16447
#
# Static dielectric constant tensor:
#      x y z
#    x 1.681410 0.000000 0.000000 
#    y 0.000000 1.771860 0.000000 
#    z 0.000000 0.000000 1.749840 
# 
# From -- ./inp_files/5977.got.cif
#   From: 2010.05.17/outbox.ucp.g08.bks.cvg/sg54_3_cif.got.tgz:5977.got - 2010.06.11 16:34:40.
