data_PCOD9424164
_publ_section_title
;
Structure prediction by ZEFSAII (Michael W. Deem and Ramdas Pophale) SiO2 
 PCOD9424164
Probable space group: P C C A
;
_chemical_formula_sum "Si O2"
_cell_formula_units_Z 48
_cell_length_a 30.931165
_cell_length_b 5.011441
_cell_length_c 14.809567
_cell_angle_alpha 90.000000
_cell_angle_beta 90.000000
_cell_angle_gamma 90.000000
_cell_volume 2295.626663
_symmetry_space_group_name_H-M "P C C A"
_symmetry_group_IT_number 54
_symmetry_cell_setting 'orthorhombic'
loop_
_space_group_symop_operation_xyz
x,y,z
1/2-x,-y,z
1/2+x,-y,1/2-z
-x,y,1/2-z
-x,-y,-z
1/2+x,y,-z
1/2-x,y,1/2+z
x,-y,1/2+z
loop_
_atom_site_type_symbol
_atom_site_label
_atom_site_fract_x
_atom_site_fract_y
_atom_site_fract_z
Si Si1 0.419569 0.231938 0.579720
Si Si2 0.298150 0.600626 0.155812
Si Si3 0.494707 0.951280 0.857418
Si Si4 0.941839 0.453063 0.092746
Si Si5 0.343999 0.893716 0.607780
Si Si6 0.622437 0.539201 0.752540
O O1 0.461613 0.054462 0.596993
O O2 0.428792 0.459035 0.506815
O O3 0.404892 0.377365 0.672057
O O4 0.379982 0.040712 0.549170
O O5 0.250000 0.500000 0.168654
O O6 0.176958 0.606776 0.088184
O O7 0.328689 0.574950 0.244512
O O8 0.305295 0.898844 0.122439
O O9 0.500000 0.974819 0.750000
O O10 0.457348 0.152417 0.891305
O O11 0.481538 0.650217 0.880812
O O12 0.903046 0.524981 0.160713
O O13 0.369719 0.829090 0.702020
#
# Coordination Sequence:
#
# PCOD9424164 Si02
#       6
#     8   8   8   8   8   8
#     4  11  23  41  59  86 124 158 208 247 300 354
#     4   9  18  34  62  91 111 149 196 233 299 368
#     4  12  25  40  60  82 124 158 210 258 293 347
#     4  12  26  38  61  87 117 168 203 248 301 355
#     4   9  20  34  60  85 116 150 191 247 289 350
#     4   9  22  39  59  88 119 153 197 247 297 351
#
# _framework density 20.909322
#
# number of rings (size 3 to 8) (size 9 to 14) (size 15 to 20)
#    1.000    0.667    1.667    3.000    7.000    0.000 
#    0.000    0.000    0.000    4.000    8.667    0.000 
#    0.000    0.000    0.000    0.000    0.000    0.000 
#
# Total GULP energy -267845.317862 kJ/mol
# GULP energy per Si atom -5580.110789 kJ/mol
# Density = 2.086173 g / cm^3
# Si number density = 20.909322 Si / 1000 Ang^3
#
#
#
# Elastic Constant Matrix: (Units=GPa)
#
#
# Indices 1 2 3 4 5 6 
#
# 1 86.0484 -4.3705 5.4486 0.0000 0.0000 0.0000
# 2 -4.3705 86.5608 -0.8574 0.0000 0.0000 0.0000
# 3 5.4486 -0.8574 60.5406 0.0000 0.0000 0.0000
# 4 0.0000 0.0000 0.0000 4.0888 0.0000 0.0000
# 5 0.0000 0.0000 0.0000 0.0000 8.8323 0.0000
# 6 0.0000 0.0000 0.0000 0.0000 0.0000 29.8143
#
#
#
# Elastic Compliance Matrix: (Units=1/GPa)
#
#
# Indices 1 2 3 4 5 6 
#
# 1 0.011717 0.000581 -0.001046 0.000000 0.000000 0.000000
# 2 0.000581 0.011583 0.000112 0.000000 0.000000 0.000000
# 3 -0.001046 0.000112 0.016614 0.000000 0.000000 0.000000
# 4 0.000000 0.000000 0.000000 0.244572 0.000000 0.000000
# 5 0.000000 0.000000 0.000000 0.000000 0.113221 0.000000
# 6 0.000000 0.000000 0.000000 0.000000 0.000000 0.033541
#
#
# Mechanical properties :
#
#
# Convention : Reuss Voigt Hill
#
# Bulk Modulus (GPa) = 25.50559 25.95458 25.73008
# Shear Modulus (GPa) = 11.23536 24.07568 17.65552
#
# Velocity S-wave (km/s) = 2.32057 3.39696 2.90898
# Velocity P-wave (km/s) = 4.40508 5.27500 4.85955
#
# Compressibility (1/GPa) = 0.03920710
#
# Stress axis : x y z
#
# Youngs Moduli (GPa) = 85.34505 86.33322 60.19167
#
# Poissons Ratio (x) = -0.05018 0.06298
# Poissons Ratio (y) = -0.04961 -0.00673
# Poissons Ratio (z) = 0.08930 -0.00965
#
# Static dielectric constant tensor:
#      x y z
#    x 1.780210 0.000000 0.000000 
#    y 0.000000 1.789460 0.000000 
#    z 0.000000 0.000000 1.745880 
# 
# From -- ./inp_files/15151.got.cif
#   From: 2010.05.17/outbox.cif.g08.bks.cpg/sg54_8_cif.got.tgz:15151.got - 2010.06.03 13:09:01.
