data_PCOD9424645
_publ_section_title
;
Structure prediction by ZEFSAII (Michael W. Deem and Ramdas Pophale) SiO2 
 PCOD9424645
Probable space group: P C C A
;
_chemical_formula_sum "Si O2"
_cell_formula_units_Z 60
_cell_length_a 27.000000
_cell_length_b 12.000000
_cell_length_c 9.000000
_cell_angle_alpha 90.000000
_cell_angle_beta 90.000000
_cell_angle_gamma 90.000000
_cell_volume 2916.000000
_symmetry_space_group_name_H-M "P C C A"
_symmetry_group_IT_number 54
_symmetry_cell_setting 'orthorhombic'
loop_
_space_group_symop_operation_xyz
x,y,z
1/2-x,-y,z
1/2+x,-y,1/2-z
-x,y,1/2-z
-x,-y,-z
1/2+x,y,-z
1/2-x,y,1/2+z
x,-y,1/2+z
loop_
_atom_site_type_symbol
_atom_site_label
_atom_site_fract_x
_atom_site_fract_y
_atom_site_fract_z
Si Si1 0.909436 0.899326 0.123864
Si Si2 0.947634 0.665402 0.821418
Si Si3 0.750000 0.000000 0.266612
Si Si4 0.552689 0.070089 0.818675
Si Si5 0.134393 0.506238 0.782240
Si Si6 0.796290 0.418334 0.467428
Si Si7 0.053177 0.338046 0.820319
Si Si8 0.300506 0.847773 0.984701
O O1 0.935632 0.792799 0.195739
O O2 0.904705 0.997864 0.241165
O O3 0.942995 0.948079 0.992844
O O4 0.858860 0.856938 0.049458
O O5 0.941947 0.797681 0.800332
O O6 0.903883 0.607504 0.730088
O O7 0.000000 0.632010 0.750000
O O8 0.946506 0.640187 0.999641
O O9 0.715449 0.924921 0.375561
O O10 0.775430 0.908401 0.158100
O O11 0.500000 0.037314 0.750000
O O12 0.182205 0.548921 0.692801
O O13 0.097210 0.405051 0.738155
O O14 0.158116 0.459025 0.931329
O O15 0.750000 0.500000 0.496658
O O16 0.787754 0.284726 0.491180
O O17 0.000000 0.364714 0.750000
#
# Coordination Sequence:
#
# PCOD9424645 Si02
#       8
#     8   8   4   8   8   8   8   8
#     4  11  21  41  63  94 132 173 220 280 335 412
#     4  10  23  42  64  96 138 178 228 280 337 413
#     4  10  26  46  76 102 132 180 220 300 354 414
#     4  10  21  38  60  94 133 173 220 272 336 398
#     4  12  24  47  66  99 133 182 228 283 341 408
#     4  12  28  46  72 102 139 182 235 290 349 414
#     4  11  24  41  66  96 136 180 225 280 337 408
#     4  11  24  49  71 103 137 172 234 282 356 413
#
# _framework density 20.576132000000001
#
# number of rings (size 3 to 8) (size 9 to 14) (size 15 to 20)
#    0.000    1.067    2.667    3.200    5.600    3.200 
#    2.400    0.000    0.000    0.000    0.000    0.000 
#    0.000    0.000    0.000    0.000    0.000    0.000 
#
# Total GULP energy -334693.436710 kJ/mol
# GULP energy per Si atom -5578.223945 kJ/mol
# Density = 2.052930 g / cm^3
# Si number density = 20.576132 Si / 1000 Ang^3
#
#
#
# Elastic Constant Matrix: (Units=GPa)
#
#
# Indices 1 2 3 4 5 6 
#
# 1 101.4969 39.7093 15.2970 0.0000 0.0000 0.0000
# 2 39.7093 114.9930 65.1718 0.0000 0.0000 0.0000
# 3 15.2970 65.1718 46.4460 0.0000 0.0000 0.0000
# 4 0.0000 0.0000 0.0000 20.7251 0.0000 0.0000
# 5 0.0000 0.0000 0.0000 0.0000 36.0506 0.0000
# 6 0.0000 0.0000 0.0000 0.0000 0.0000 13.9006
#
#
#
# Elastic Compliance Matrix: (Units=1/GPa)
#
#
# Indices 1 2 3 4 5 6 
#
# 1 0.012148 -0.009413 0.009207 0.000000 0.000000 0.000000
# 2 -0.009413 0.049765 -0.066729 0.000000 0.000000 0.000000
# 3 0.009207 -0.066729 0.112130 0.000000 0.000000 0.000000
# 4 0.000000 0.000000 0.000000 0.048251 0.000000 0.000000
# 5 0.000000 0.000000 0.000000 0.000000 0.027739 0.000000
# 6 0.000000 0.000000 0.000000 0.000000 0.000000 0.071939
#
#
# Mechanical properties :
#
#
# Convention : Reuss Voigt Hill
#
# Bulk Modulus (GPa) = 24.89199 55.92136 40.40668
# Shear Modulus (GPa) = 10.65573 23.65245 17.15409
#
# Velocity S-wave (km/s) = 2.27814 3.39412 2.89050
# Velocity P-wave (km/s) = 4.36391 6.52663 5.55160
#
# Compressibility (1/GPa) = 0.04017356
#
# Stress axis : x y z
#
# Youngs Moduli (GPa) = 82.32119 20.09450 8.91822
#
# Poissons Ratio (x) = 0.18915 -0.08211
# Poissons Ratio (y) = 0.77488 0.59510
# Poissons Ratio (z) = -0.75794 1.34088
#
# Static dielectric constant tensor:
#      x y z
#    x 1.759860 0.000000 0.000000 
#    y 0.000000 1.729320 0.000000 
#    z 0.000000 0.000000 1.784900 
# 
# From -- ./inp_files/5586.got.cif
#   From: 2010.05.17/outbox.ucp.g08.bks.cvg/sg54_3_cif.got.tgz:5586.got - 2010.06.11 16:34:40.
