data_PCOD9424779
_publ_section_title
;
Structure prediction by ZEFSAII (Michael W. Deem and Ramdas Pophale) SiO2 
 PCOD9424779
Probable space group: P B A M
;
_chemical_formula_sum "Si O2"
_cell_formula_units_Z 40
_cell_length_a 14.681893
_cell_length_b 13.151783
_cell_length_c 7.471623
_cell_angle_alpha 90.000000
_cell_angle_beta 90.000000
_cell_angle_gamma 90.000000
_cell_volume 1442.718629
_symmetry_space_group_name_H-M "P B A M"
_symmetry_group_IT_number 55
_symmetry_cell_setting 'orthorhombic'
loop_
_space_group_symop_operation_xyz
x,y,z
-x,-y,z
1/2+x,1/2-y,-z
1/2-x,1/2+y,-z
-x,-y,-z
x,y,-z
1/2-x,1/2+y,z
1/2+x,1/2-y,z
loop_
_atom_site_type_symbol
_atom_site_label
_atom_site_fract_x
_atom_site_fract_y
_atom_site_fract_z
Si Si1 0.904202 0.573543 0.791122
Si Si2 0.046884 0.105918 0.780870
Si Si3 0.260828 0.312017 0.289042
Si Si4 0.267787 0.532739 0.792729
Si Si5 0.566120 0.800865 0.785230
O O1 0.841236 0.676400 0.786482
O O2 0.831721 0.492964 0.711662
O O3 0.002560 0.605821 0.720590
O O4 0.912228 0.546500 0.000000
O O5 0.986701 0.200432 0.718888
O O6 0.151733 0.100053 0.714421
O O7 0.050115 0.108745 0.000000
O O8 0.000000 0.000000 0.729354
O O9 0.254353 0.323020 0.500000
O O10 0.305909 0.415264 0.209140
O O11 0.327389 0.218402 0.251768
O O12 0.255480 0.561461 0.000000
O O13 0.558648 0.804444 0.000000
#
# Coordination Sequence:
#
# PCOD9424779 Si02
#       5
#     8   8   8   8   8
#     4   8  16  29  43  58  80 110 145 174 198 242
#     4   9  13  21  41  63  84 106 131 167 210 251
#     4  10  18  27  40  59  87 115 137 169 205 242
#     4   8  14  27  41  55  80 112 137 162 199 240
#     4  10  17  27  45  66  83 109 143 172 207 248
#
# _framework density 27.725434
#
# number of rings (size 3 to 8) (size 9 to 14) (size 15 to 20)
#    1.200    1.800    2.000    1.200    0.000    0.800 
#    0.000    2.000    0.000    0.000    0.000    1.400 
#    0.000   11.200    0.000    0.000    0.000    0.000 
#
# Total GULP energy -223364.872967 kJ/mol
# GULP energy per Si atom -5584.121824 kJ/mol
# Density = 2.766233 g / cm^3
# Si number density = 27.725434 Si / 1000 Ang^3
#
#
#
# Elastic Constant Matrix: (Units=GPa)
#
#
# Indices 1 2 3 4 5 6 
#
# 1 248.0803 44.0397 3.8880 0.0000 0.0000 0.0000
# 2 44.0397 128.4635 3.9833 0.0000 0.0000 0.0000
# 3 3.8880 3.9833 118.4857 0.0000 0.0000 0.0000
# 4 0.0000 0.0000 0.0000 -17.2078 0.0000 0.0000
# 5 0.0000 0.0000 0.0000 0.0000 -20.6466 0.0000
# 6 0.0000 0.0000 0.0000 0.0000 0.0000 63.7444
#
#
#
# Elastic Compliance Matrix: (Units=1/GPa)
#
#
# Indices 1 2 3 4 5 6 
#
# 1 0.004293 -0.001469 -0.000091 0.000000 0.000000 0.000000
# 2 -0.001469 0.008295 -0.000231 0.000000 0.000000 0.000000
# 3 -0.000091 -0.000231 0.008451 0.000000 0.000000 0.000000
# 4 0.000000 0.000000 0.000000 -0.058113 0.000000 0.000000
# 5 0.000000 0.000000 0.000000 0.000000 -0.048434 0.000000
# 6 0.000000 0.000000 0.000000 0.000000 0.000000 0.015688
#
#
# Mechanical properties :
#
#
# Convention : Reuss Voigt Hill
#
# Bulk Modulus (GPa) = 57.28492 66.53907 61.91199
# Shear Modulus (GPa) = -82.75438 34.71923 -24.01758
#
# Velocity S-wave (km/s) = -5.46924 3.54256 -2.94643
# Velocity P-wave (km/s) = 4.37917 6.38626 3.28688
#
# Compressibility (1/GPa) = 0.01745660
#
# Stress axis : x y z
#
# Youngs Moduli (GPa) = 232.92890 120.55393 118.33486
#
# Poissons Ratio (x) = 0.17709 0.01083
# Poissons Ratio (y) = 0.34216 0.02730
# Poissons Ratio (z) = 0.02131 0.02781
#
# Static dielectric constant tensor:
#      x y z
#    x 2.212140 0.000000 0.000000 
#    y 0.000000 2.319610 0.000000 
#    z 0.000000 0.000000 2.038410 
# 
# From -- ./inp_files/7277.got.cif
#   From: 2010.05.17/outbox.cif.g08.bks.cpg/sg55_4_cif.got.tgz:7277.got - 2010.06.03 13:27:54.
