data_PCOD9424690
_publ_section_title
;
Structure prediction by ZEFSAII (Michael W. Deem and Ramdas Pophale) SiO2 
 PCOD9424690
Probable space group: P B A M
;
_chemical_formula_sum "Si O2"
_cell_formula_units_Z 52
_cell_length_a 13.609780
_cell_length_b 5.234172
_cell_length_c 30.540843
_cell_angle_alpha 90.000000
_cell_angle_beta 90.000000
_cell_angle_gamma 90.000000
_cell_volume 2175.605336
_symmetry_space_group_name_H-M "P B A M"
_symmetry_group_IT_number 55
_symmetry_cell_setting 'orthorhombic'
loop_
_space_group_symop_operation_xyz
x,y,z
-x,-y,z
1/2+x,1/2-y,-z
1/2-x,1/2+y,-z
-x,-y,-z
x,y,-z
1/2-x,1/2+y,z
1/2+x,1/2-y,z
loop_
_atom_site_type_symbol
_atom_site_label
_atom_site_fract_x
_atom_site_fract_y
_atom_site_fract_z
Si Si1 0.636882 0.345113 0.593700
Si Si2 0.687352 0.165096 0.500000
Si Si3 0.865416 0.343712 0.372074
Si Si4 0.619201 0.022792 0.049117
Si Si5 0.385104 0.476595 0.905343
Si Si6 0.184918 0.864504 0.280937
Si Si7 0.686509 0.712789 0.813592
O O1 0.634532 0.230122 0.545271
O O2 0.595082 0.629118 0.595256
O O3 0.750548 0.381915 0.611579
O O4 0.594195 0.128681 0.625359
O O5 0.776518 0.373250 0.500000
O O6 0.871941 0.215662 0.324457
O O7 0.650003 0.236480 0.084544
O O8 0.500000 0.000000 0.049805
O O9 0.653190 0.739065 0.061548
O O10 0.647197 0.099006 0.000000
O O11 0.500000 0.500000 0.913504
O O12 0.371198 0.366240 0.856819
O O13 0.273478 0.652794 0.282183
O O14 0.135547 0.827261 0.233573
O O15 0.775366 0.503924 0.814213
#
# Coordination Sequence:
#
# PCOD9424690 Si02
#       7
#     8   4   8   8   8   8   8
#     4  10  16  20  29  40  60  84 119 161 202 242
#     4  12  16  20  24  38  56  82 112 156 202 242
#     4  10  14  22  31  43  58  84 119 162 201 232
#     4   9  17  30  52  78  97 118 155 195 222 256
#     4  10  19  33  53  74  98 125 154 187 227 273
#     4  10  16  25  39  54  73  99 136 172 214 247
#     4  10  21  33  48  69  95 125 152 191 233 268
#
# _framework density 23.901392000000001
#
# number of rings (size 3 to 8) (size 9 to 14) (size 15 to 20)
#    0.000    2.000    6.154    1.385    0.000    1.846 
#    0.000    0.000    0.000    9.231    0.000    0.000 
#    0.000    0.000    0.000    0.000    0.000    0.000 
#
# Total GULP energy -290165.892685 kJ/mol
# GULP energy per Si atom -5580.113321 kJ/mol
# Density = 2.384699 g / cm^3
# Si number density = 23.901392 Si / 1000 Ang^3
#
#
#
# Elastic Constant Matrix: (Units=GPa)
#
#
# Indices 1 2 3 4 5 6 
#
# 1 50.5993 -2.8375 -17.3651 0.0000 0.0000 0.0000
# 2 -2.8375 119.3219 28.8286 0.0000 0.0000 0.0000
# 3 -17.3651 28.8286 122.6567 0.0000 0.0000 0.0000
# 4 0.0000 0.0000 0.0000 38.0813 0.0000 0.0000
# 5 0.0000 0.0000 0.0000 0.0000 -305.2571 0.0000
# 6 0.0000 0.0000 0.0000 0.0000 0.0000 12.7918
#
#
#
# Elastic Compliance Matrix: (Units=1/GPa)
#
#
# Indices 1 2 3 4 5 6 
#
# 1 0.020778 -0.000230 0.002996 0.000000 0.000000 0.000000
# 2 -0.000230 0.008888 -0.002121 0.000000 0.000000 0.000000
# 3 0.002996 -0.002121 0.009076 0.000000 0.000000 0.000000
# 4 0.000000 0.000000 0.000000 0.026260 0.000000 0.000000
# 5 0.000000 0.000000 0.000000 0.000000 -0.003276 0.000000
# 6 0.000000 0.000000 0.000000 0.000000 0.000000 0.078175
#
#
# Mechanical properties :
#
#
# Convention : Reuss Voigt Hill
#
# Bulk Modulus (GPa) = 24.98079 34.42554 29.70317
# Shear Modulus (GPa) = 32.90445 -31.94666 0.47889
#
# Velocity S-wave (km/s) = 3.71438 -3.65992 0.44810
# Velocity P-wave (km/s) = 5.37306 1.85085 3.56680
#
# Compressibility (1/GPa) = 0.04003076
#
# Stress axis : x y z
#
# Youngs Moduli (GPa) = 48.12714 112.51404 110.18609
#
# Poissons Ratio (x) = 0.02584 -0.33008
# Poissons Ratio (y) = 0.01105 0.23375
# Poissons Ratio (z) = -0.14417 0.23869
#
# Static dielectric constant tensor:
#      x y z
#    x 2.049510 0.000000 0.000000 
#    y 0.000000 1.927800 0.000000 
#    z 0.000000 0.000000 1.920690 
# 
# From -- ./inp_files/24005.got.cif
#   From: 2010.05.17/outbox.cif.g08.bks.cpg/sg55_13_cif.got.tgz:24005.got - 2010.06.03 13:27:54.
