data_PCOD9424610
_publ_section_title
;
Structure prediction by ZEFSAII (Michael W. Deem and Ramdas Pophale) SiO2 
 PCOD9424610
Probable space group: P C C A
;
_chemical_formula_sum "Si O2"
_cell_formula_units_Z 60
_cell_length_a 12.000000
_cell_length_b 15.000000
_cell_length_c 18.000000
_cell_angle_alpha 90.000000
_cell_angle_beta 90.000000
_cell_angle_gamma 90.000000
_cell_volume 3240.000000
_symmetry_space_group_name_H-M "P C C A"
_symmetry_group_IT_number 54
_symmetry_cell_setting 'orthorhombic'
loop_
_space_group_symop_operation_xyz
x,y,z
1/2-x,-y,z
1/2+x,-y,1/2-z
-x,y,1/2-z
-x,-y,-z
1/2+x,y,-z
1/2-x,y,1/2+z
x,-y,1/2+z
loop_
_atom_site_type_symbol
_atom_site_label
_atom_site_fract_x
_atom_site_fract_y
_atom_site_fract_z
Si Si1 0.974969 0.614819 0.931174
Si Si2 0.789681 0.099853 0.646718
Si Si3 0.362959 0.228743 0.945143
Si Si4 0.244358 0.699094 0.088896
Si Si5 0.162192 0.152592 0.685240
Si Si6 0.986127 0.408602 0.895525
Si Si7 0.500000 0.304175 0.250000
Si Si8 0.014728 0.911472 0.052500
O O1 0.856729 0.646099 0.902064
O O2 0.994927 0.515800 0.899306
O O3 0.068488 0.688169 0.912687
O O4 0.969309 0.616345 0.022029
O O5 0.699170 0.169881 0.616320
O O6 0.806357 0.108154 0.736118
O O7 0.901227 0.111955 0.596878
O O8 0.750000 0.000000 0.630696
O O9 0.275268 0.267829 0.004646
O O10 0.443264 0.165890 0.996279
O O11 0.250387 0.788831 0.138786
O O12 0.139749 0.632605 0.104791
O O13 0.103157 0.089493 0.622610
O O14 0.083883 0.233857 0.712786
O O15 0.038666 0.365316 0.820359
O O16 0.000000 0.000000 0.000000
#
# Coordination Sequence:
#
# PCOD9424610 Si02
#       8
#     8   8   8   8   8   8   4   8
#     4  10  19  38  58  88 126 155 205 258 308 366
#     4  12  23  41  60  90 126 156 205 260 312 383
#     4  10  22  36  61  91 114 163 205 250 316 363
#     4   9  19  37  61  88 117 160 208 247 305 376
#     4  10  22  40  64  89 117 163 202 251 316 371
#     4   9  20  34  62  90 117 164 200 255 312 366
#     4  10  18  38  64  84 116 158 206 236 306 370
#     4  11  21  42  66  90 117 158 212 259 305 371
#
# _framework density 18.518519000000001
#
# number of rings (size 3 to 8) (size 9 to 14) (size 15 to 20)
#    0.000    1.867    2.667    2.000    1.867    0.000 
#    9.600    0.000    0.000    0.000    0.000    0.000 
#    0.000    0.000    0.000    0.000    0.000    0.000 
#
# Total GULP energy -334103.062261 kJ/mol
# GULP energy per Si atom -5568.384371 kJ/mol
# Density = 1.847637 g / cm^3
# Si number density = 18.518519 Si / 1000 Ang^3
#
#
#
# Elastic Constant Matrix: (Units=GPa)
#
#
# Indices 1 2 3 4 5 6 
#
# 1 47.5684 23.4672 18.5728 0.0000 0.0000 0.0000
# 2 23.4672 106.2355 31.8232 0.0000 0.0000 0.0000
# 3 18.5728 31.8232 91.9989 0.0000 0.0000 0.0000
# 4 0.0000 0.0000 0.0000 31.4307 0.0000 0.0000
# 5 0.0000 0.0000 0.0000 0.0000 20.4065 0.0000
# 6 0.0000 0.0000 0.0000 0.0000 0.0000 17.3964
#
#
#
# Elastic Compliance Matrix: (Units=1/GPa)
#
#
# Indices 1 2 3 4 5 6 
#
# 1 0.024529 -0.004390 -0.003433 0.000000 0.000000 0.000000
# 2 -0.004390 0.011287 -0.003018 0.000000 0.000000 0.000000
# 3 -0.003433 -0.003018 0.012607 0.000000 0.000000 0.000000
# 4 0.000000 0.000000 0.000000 0.031816 0.000000 0.000000
# 5 0.000000 0.000000 0.000000 0.000000 0.049004 0.000000
# 6 0.000000 0.000000 0.000000 0.000000 0.000000 0.057483
#
#
# Mechanical properties :
#
#
# Convention : Reuss Voigt Hill
#
# Bulk Modulus (GPa) = 37.39744 43.72546 40.56145
# Shear Modulus (GPa) = 23.00746 25.30936 24.15841
#
# Velocity S-wave (km/s) = 3.52860 3.70091 3.61578
# Velocity P-wave (km/s) = 6.06958 6.47498 6.27555
#
# Compressibility (1/GPa) = 0.02673980
#
# Stress axis : x y z
#
# Youngs Moduli (GPa) = 40.76881 88.59905 79.32250
#
# Poissons Ratio (x) = 0.38893 0.27234
# Poissons Ratio (y) = 0.17897 0.23939
# Poissons Ratio (z) = 0.13997 0.26739
#
# Static dielectric constant tensor:
#      x y z
#    x 1.683840 0.000000 0.000000 
#    y 0.000000 1.663680 0.000000 
#    z 0.000000 0.000000 1.668630 
# 
# From -- ./inp_files/17434.got.cif
#   From: 2010.05.17/outbox.ucp.g08.bks.cvg/sg54_9_cif.got.tgz:17434.got - 2010.06.11 16:34:40.
