data_PCOD9424276
_publ_section_title
;
Structure prediction by ZEFSAII (Michael W. Deem and Ramdas Pophale) SiO2 
 PCOD9424276
Probable space group: P C C A
;
_chemical_formula_sum "Si O2"
_cell_formula_units_Z 56
_cell_length_a 15.741975
_cell_length_b 13.893746
_cell_length_c 11.004940
_cell_angle_alpha 90.000000
_cell_angle_beta 90.000000
_cell_angle_gamma 90.000000
_cell_volume 2406.945476
_symmetry_space_group_name_H-M "P C C A"
_symmetry_group_IT_number 54
_symmetry_cell_setting 'orthorhombic'
loop_
_space_group_symop_operation_xyz
x,y,z
1/2-x,-y,z
1/2+x,-y,1/2-z
-x,y,1/2-z
-x,-y,-z
1/2+x,y,-z
1/2-x,y,1/2+z
x,-y,1/2+z
loop_
_atom_site_type_symbol
_atom_site_label
_atom_site_fract_x
_atom_site_fract_y
_atom_site_fract_z
Si Si1 0.343517 0.708085 0.683119
Si Si2 0.651378 0.651336 0.343099
Si Si3 0.832465 0.064484 0.405704
Si Si4 0.427766 0.121310 0.071919
Si Si5 0.106598 0.222813 0.934200
Si Si6 0.050311 0.467635 0.621851
Si Si7 0.905487 0.811373 0.698965
O O1 0.250715 0.673129 0.646753
O O2 0.360918 0.818519 0.650747
O O3 0.359310 0.709508 0.827657
O O4 0.412846 0.640344 0.617840
O O5 0.599533 0.709940 0.446833
O O6 0.628113 0.541311 0.359521
O O7 0.620571 0.699950 0.217070
O O8 0.832863 0.136745 0.519955
O O9 0.843314 0.128051 0.285507
O O10 0.750000 0.000000 0.406031
O O11 0.913194 0.991678 0.410095
O O12 0.519859 0.167051 0.099023
O O13 0.405115 0.148874 0.934899
O O14 0.000000 0.474941 0.750000
O O15 0.000000 0.500000 0.500000
O O16 0.000000 0.823363 0.750000
#
# Coordination Sequence:
#
# PCOD9424276 Si02
#       7
#     8   8   8   8   8   8   8
#     4  12  28  45  73 110 144 186 236 309 360 431
#     4  11  25  46  73 103 144 190 231 299 360 434
#     4  11  26  44  67 104 142 195 238 305 364 425
#     4  12  24  44  72 100 140 191 237 294 364 428
#     4  11  25  49  68 105 147 184 249 291 363 442
#     4  12  27  48  78 109 146 191 243 295 368 443
#     4  11  24  43  69 101 139 184 247 286 356 435
#
# _framework density 23.266003000000001
#
# number of rings (size 3 to 8) (size 9 to 14) (size 15 to 20)
#    0.000    0.571    2.857    6.000    8.000    0.571 
#    0.000    2.857    0.000    0.000    0.000    0.000 
#    0.000    0.000    0.000    0.000    0.000    0.000 
#
# Total GULP energy -313470.250296 kJ/mol
# GULP energy per Si atom -5597.683041 kJ/mol
# Density = 2.321305 g / cm^3
# Si number density = 23.266003 Si / 1000 Ang^3
#
#
#
# Elastic Constant Matrix: (Units=GPa)
#
#
# Indices 1 2 3 4 5 6 
#
# 1 94.8375 1.0912 10.6950 0.0000 0.0000 0.0000
# 2 1.0912 91.2531 3.0826 0.0000 0.0000 0.0000
# 3 10.6950 3.0826 88.7254 0.0000 0.0000 0.0000
# 4 0.0000 0.0000 0.0000 25.5115 0.0000 0.0000
# 5 0.0000 0.0000 0.0000 0.0000 21.8711 0.0000
# 6 0.0000 0.0000 0.0000 0.0000 0.0000 50.8536
#
#
#
# Elastic Compliance Matrix: (Units=1/GPa)
#
#
# Indices 1 2 3 4 5 6 
#
# 1 0.010690 -0.000084 -0.001286 0.000000 0.000000 0.000000
# 2 -0.000084 0.010972 -0.000371 0.000000 0.000000 0.000000
# 3 -0.001286 -0.000371 0.011439 0.000000 0.000000 0.000000
# 4 0.000000 0.000000 0.000000 0.039198 0.000000 0.000000
# 5 0.000000 0.000000 0.000000 0.000000 0.045722 0.000000
# 6 0.000000 0.000000 0.000000 0.000000 0.000000 0.019664
#
#
# Mechanical properties :
#
#
# Convention : Reuss Voigt Hill
#
# Bulk Modulus (GPa) = 33.76238 33.83927 33.80082
# Shear Modulus (GPa) = 33.10364 36.97705 35.04035
#
# Velocity S-wave (km/s) = 3.77614 3.99095 3.88503
# Velocity P-wave (km/s) = 5.79269 5.98440 5.88932
#
# Compressibility (1/GPa) = 0.02961877
#
# Stress axis : x y z
#
# Youngs Moduli (GPa) = 93.54261 91.14044 87.42327
#
# Poissons Ratio (x) = 0.00769 0.11240
# Poissons Ratio (y) = 0.00790 0.03244
# Poissons Ratio (z) = 0.12027 0.03382
#
# Static dielectric constant tensor:
#      x y z
#    x 1.969210 0.000000 0.000000 
#    y 0.000000 1.853410 0.000000 
#    z 0.000000 0.000000 1.926510 
# 
# From -- ./inp_files/8415.got.cif
#   From: 2010.05.17/outbox.cif.g08.bks.cpg/sg54_5_cif.got.tgz:8415.got - 2010.06.03 13:09:01.
