data_PCOD9424721
_publ_section_title
;
Structure prediction by ZEFSAII (Michael W. Deem and Ramdas Pophale) SiO2 
 PCOD9424721
Probable space group: P B A M
;
_chemical_formula_sum "Si O2"
_cell_formula_units_Z 28
_cell_length_a 14.495364
_cell_length_b 5.450716
_cell_length_c 16.556046
_cell_angle_alpha 90.000000
_cell_angle_beta 90.000000
_cell_angle_gamma 90.000000
_cell_volume 1308.095057
_symmetry_space_group_name_H-M "P B A M"
_symmetry_group_IT_number 55
_symmetry_cell_setting 'orthorhombic'
loop_
_space_group_symop_operation_xyz
x,y,z
-x,-y,z
1/2+x,1/2-y,-z
1/2-x,1/2+y,-z
-x,-y,-z
x,y,-z
1/2-x,1/2+y,z
1/2+x,1/2-y,z
loop_
_atom_site_type_symbol
_atom_site_label
_atom_site_fract_x
_atom_site_fract_y
_atom_site_fract_z
Si Si1 0.150388 0.250000 0.404111
Si Si2 0.860628 0.250000 0.662948
Si Si3 0.440409 0.250000 0.000000
Si Si4 0.689422 0.750000 0.843704
O O1 0.163029 0.250000 0.500000
O O2 0.251463 0.250000 0.361970
O O3 0.103444 0.000780 0.375072
O O4 0.103444 0.499220 0.375072
O O5 0.865558 0.250000 0.759233
O O6 0.500000 0.500000 0.000000
O O7 0.376624 0.250000 0.079300
O O8 0.500000 0.000000 0.000000
O O9 0.750000 0.500000 0.844892
#
# Coordination Sequence:
#
# PCOD9424721 Si02
#       4
#     8   8   4   8
#     4  10  16  25  41  72 125 154 171 222 301 341
#     4  10  16  27  44  76 110 149 184 227 278 340
#     4  12  28  46  62  88 122 156 196 248 310 364
#     4  12  21  40  65  90 116 154 203 249 291 356
#
# _framework density 21.405169999999998
#
# number of rings (size 3 to 8) (size 9 to 14) (size 15 to 20)
#    0.000    1.143    5.714    6.857    0.000    0.000 
#    0.000    0.000    0.000    0.000    0.000    0.000 
#    0.000   38.857    0.000    0.000    0.000    0.000 
#
# Total GULP energy -156496.266215 kJ/mol
# GULP energy per Si atom -5589.152365 kJ/mol
# Density = 2.135645 g / cm^3
# Si number density = 21.405170 Si / 1000 Ang^3
#
#
#
# Elastic Constant Matrix: (Units=GPa)
#
#
# Indices 1 2 3 4 5 6 
#
# 1 40.9099 9.1781 5.6670 0.0000 0.0000 0.0000
# 2 9.1781 233.7707 35.4244 0.0000 0.0000 0.0000
# 3 5.6670 35.4244 203.3589 0.0000 0.0000 0.0000
# 4 0.0000 0.0000 0.0000 39.2488 0.0000 0.0000
# 5 0.0000 0.0000 0.0000 0.0000 -27.4775 0.0000
# 6 0.0000 0.0000 0.0000 0.0000 0.0000 -6.5411
#
#
#
# Elastic Compliance Matrix: (Units=1/GPa)
#
#
# Indices 1 2 3 4 5 6 
#
# 1 0.024718 -0.000890 -0.000534 0.000000 0.000000 0.000000
# 2 -0.000890 0.004426 -0.000746 0.000000 0.000000 0.000000
# 3 -0.000534 -0.000746 0.005062 0.000000 0.000000 0.000000
# 4 0.000000 0.000000 0.000000 0.025479 0.000000 0.000000
# 5 0.000000 0.000000 0.000000 0.000000 -0.036393 0.000000
# 6 0.000000 0.000000 0.000000 0.000000 0.000000 -0.152880
#
#
# Mechanical properties :
#
#
# Convention : Reuss Voigt Hill
#
# Bulk Modulus (GPa) = 33.48247 64.28651 48.88449
# Shear Modulus (GPa) = -43.36705 29.56403 -6.90151
#
# Velocity S-wave (km/s) = -4.50600 3.72043 -1.79756
# Velocity P-wave (km/s) = 3.37578 6.96806 4.31033
#
# Compressibility (1/GPa) = 0.02986637
#
# Stress axis : x y z
#
# Youngs Moduli (GPa) = 40.45715 225.95360 197.53990
#
# Poissons Ratio (x) = 0.20100 0.10546
# Poissons Ratio (y) = 0.03599 0.14739
# Poissons Ratio (z) = 0.02160 0.16860
#
# Static dielectric constant tensor:
#      x y z
#    x 1.753620 0.000000 0.000000 
#    y 0.000000 1.773550 0.000000 
#    z 0.000000 0.000000 1.701770 
# 
# From -- ./inp_files/19157.got.cif
#   From: 2010.05.17/outbox.cif.g08.bks.cpg/sg55_10_cif.got.tgz:19157.got - 2010.06.03 13:27:54.
