data_PCOD9424452
_publ_section_title
;
Structure prediction by ZEFSAII (Michael W. Deem and Ramdas Pophale) SiO2 
 PCOD9424452
Probable space group: P C C A
;
_chemical_formula_sum "Si O2"
_cell_formula_units_Z 28
_cell_length_a 6.050553
_cell_length_b 10.628593
_cell_length_c 18.511208
_cell_angle_alpha 90.000000
_cell_angle_beta 90.000000
_cell_angle_gamma 90.000000
_cell_volume 1190.434781
_symmetry_space_group_name_H-M "P C C A"
_symmetry_group_IT_number 54
_symmetry_cell_setting 'orthorhombic'
loop_
_space_group_symop_operation_xyz
x,y,z
1/2-x,-y,z
1/2+x,-y,1/2-z
-x,y,1/2-z
-x,-y,-z
1/2+x,y,-z
1/2-x,y,1/2+z
x,-y,1/2+z
loop_
_atom_site_type_symbol
_atom_site_label
_atom_site_fract_x
_atom_site_fract_y
_atom_site_fract_z
Si Si1 0.750000 0.000000 0.462477
Si Si2 0.819011 0.365146 0.302559
Si Si3 0.133611 0.363988 0.437700
Si Si4 0.954308 0.244084 0.907450
O O1 0.790302 0.873064 0.417790
O O2 0.500000 0.000000 0.500000
O O3 0.750000 0.500000 0.271299
O O4 0.600214 0.296807 0.328755
O O5 0.000000 0.306177 0.250000
O O6 0.936796 0.379978 0.380834
O O7 0.250000 0.500000 0.435027
O O8 0.077691 0.329198 0.520007
O O9 0.279617 0.243985 0.410919
#
# Coordination Sequence:
#
# PCOD9424452 Si02
#       4
#     4   8   8   8
#     4  12  24  44  72 108 146 186 244 308 364 430
#     4  12  26  42  64  98 141 183 227 288 370 449
#     4  12  21  39  66 102 135 170 229 294 360 427
#     4  12  24  40  70 102 134 184 236 296 359 436
#
# _framework density 23.520817999999998
#
# number of rings (size 3 to 8) (size 9 to 14) (size 15 to 20)
#    0.000    0.000    8.571    2.571    0.000    0.000 
#    0.000    0.000    6.286    0.000    0.000    0.000 
#    0.000    0.000    0.000    0.000    0.000    0.000 
#
# Total GULP energy -155958.354000 kJ/mol
# GULP energy per Si atom -5569.941214 kJ/mol
# Density = 2.346728 g / cm^3
# Si number density = 23.520818 Si / 1000 Ang^3
#
#
#
# Elastic Constant Matrix: (Units=GPa)
#
#
# Indices 1 2 3 4 5 6 
#
# 1 98.6228 7.5080 16.6532 0.0000 0.0000 0.0000
# 2 7.5080 60.1502 -3.8869 0.0000 0.0000 0.0000
# 3 16.6532 -3.8869 92.0087 0.0000 0.0000 0.0000
# 4 0.0000 0.0000 0.0000 8.8560 0.0000 0.0000
# 5 0.0000 0.0000 0.0000 0.0000 48.0178 0.0000
# 6 0.0000 0.0000 0.0000 0.0000 0.0000 48.7206
#
#
#
# Elastic Compliance Matrix: (Units=1/GPa)
#
#
# Indices 1 2 3 4 5 6 
#
# 1 0.010584 -0.001449 -0.001977 0.000000 0.000000 0.000000
# 2 -0.001449 0.016869 0.000975 0.000000 0.000000 0.000000
# 3 -0.001977 0.000975 0.011268 0.000000 0.000000 0.000000
# 4 0.000000 0.000000 0.000000 0.112918 0.000000 0.000000
# 5 0.000000 0.000000 0.000000 0.000000 0.020826 0.000000
# 6 0.000000 0.000000 0.000000 0.000000 0.000000 0.020525
#
#
# Mechanical properties :
#
#
# Convention : Reuss Voigt Hill
#
# Bulk Modulus (GPa) = 29.56956 32.37004 30.96980
# Shear Modulus (GPa) = 23.90473 36.48601 30.19537
#
# Velocity S-wave (km/s) = 3.19144 3.94283 3.58686
# Velocity P-wave (km/s) = 5.11657 5.87538 5.50905
#
# Compressibility (1/GPa) = 0.03381857
#
# Stress axis : x y z
#
# Youngs Moduli (GPa) = 94.48454 59.28073 88.75073
#
# Poissons Ratio (x) = 0.08589 0.17544
# Poissons Ratio (y) = 0.13689 -0.08652
# Poissons Ratio (z) = 0.18678 -0.05779
#
# Static dielectric constant tensor:
#      x y z
#    x 2.179440 0.000000 0.000000 
#    y 0.000000 2.036050 0.000000 
#    z 0.000000 0.000000 1.849180 
# 
# From -- ./inp_files/19455.got.cif
#   From: 2010.05.17/outbox.cif.g08.bks.cpg/sg54_10_cif.got.tgz:19455.got - 2010.06.03 13:09:01.
