data_PCOD9424925
_publ_section_title
;
Structure prediction by ZEFSAII (Michael W. Deem and Ramdas Pophale) SiO2 
 PCOD9424925
Probable space group: P B A M
;
_chemical_formula_sum "Si O2"
_cell_formula_units_Z 56
_cell_length_a 14.071044
_cell_length_b 29.978316
_cell_length_c 8.841162
_cell_angle_alpha 90.000000
_cell_angle_beta 90.000000
_cell_angle_gamma 90.000000
_cell_volume 3729.433801
_symmetry_space_group_name_H-M "P B A M"
_symmetry_group_IT_number 55
_symmetry_cell_setting 'orthorhombic'
loop_
_space_group_symop_operation_xyz
x,y,z
-x,-y,z
1/2+x,1/2-y,-z
1/2-x,1/2+y,-z
-x,-y,-z
x,y,-z
1/2-x,1/2+y,z
1/2+x,1/2-y,z
loop_
_atom_site_type_symbol
_atom_site_label
_atom_site_fract_x
_atom_site_fract_y
_atom_site_fract_z
Si Si1 0.219288 0.180065 0.316868
Si Si2 0.615227 0.502720 0.825715
Si Si3 0.105998 0.904059 0.680258
Si Si4 0.618347 0.409357 0.682221
Si Si5 0.697751 0.683172 0.819768
Si Si6 0.878736 0.727593 0.317449
Si Si7 0.904089 0.268735 0.682953
O O1 0.217854 0.177912 0.500000
O O2 0.179363 0.132890 0.262974
O O3 0.152086 0.221834 0.275328
O O4 0.325655 0.194433 0.271967
O O5 0.500000 0.500000 0.821000
O O6 0.640535 0.547434 0.735500
O O7 0.648727 0.456347 0.753439
O O8 0.644341 0.506428 0.000000
O O9 0.115424 0.900285 0.500000
O O10 0.161203 0.864090 0.759767
O O11 0.993151 0.900990 0.717318
O O12 0.625146 0.412806 0.500000
O O13 0.802703 0.695126 0.758745
O O14 0.630035 0.722119 0.753390
O O15 0.696152 0.684492 0.000000
O O16 0.869481 0.723908 0.500000
O O17 0.988079 0.720030 0.275669
O O18 0.900196 0.264010 0.500000
#
# Coordination Sequence:
#
# PCOD9424925 Si02
#       7
#     8   8   8   8   8   8   8
#     4   8  14  25  43  66  87 110 145 183 215 250
#     4   9  17  28  41  61  89 116 143 179 222 263
#     4  10  18  29  45  63  86 119 155 184 214 259
#     4   9  16  27  44  65  89 117 147 178 214 261
#     4  11  21  30  43  66  94 120 147 182 226 271
#     4   9  17  31  48  64  86 118 155 189 218 254
#     4   9  17  31  49  66  87 118 154 189 220 255
#
# _framework density 15.015684
#
# number of rings (size 3 to 8) (size 9 to 14) (size 15 to 20)
#    0.000    2.714    0.000    3.857    0.000    5.143 
#    0.000    2.857    0.000    0.000    0.000    1.000 
#    0.000    8.000    0.000    0.000    0.000    0.000 
#
# Total GULP energy -312065.826335 kJ/mol
# GULP energy per Si atom -5572.604042 kJ/mol
# Density = 1.498151 g / cm^3
# Si number density = 15.015684 Si / 1000 Ang^3
#
#
#
# Elastic Constant Matrix: (Units=GPa)
#
#
# Indices 1 2 3 4 5 6 
#
# 1 95.3660 62.3045 37.3254 0.0000 0.0000 0.0000
# 2 62.3045 133.2975 41.9473 0.0000 0.0000 0.0000
# 3 37.3254 41.9473 40.2556 0.0000 0.0000 0.0000
# 4 0.0000 0.0000 0.0000 9.4536 0.0000 0.0000
# 5 0.0000 0.0000 0.0000 0.0000 10.3091 0.0000
# 6 0.0000 0.0000 0.0000 0.0000 0.0000 22.9357
#
#
#
# Elastic Compliance Matrix: (Units=1/GPa)
#
#
# Indices 1 2 3 4 5 6 
#
# 1 0.018302 -0.004782 -0.011986 0.000000 0.000000 0.000000
# 2 -0.004782 0.012412 -0.008499 0.000000 0.000000 0.000000
# 3 -0.011986 -0.008499 0.044811 0.000000 0.000000 0.000000
# 4 0.000000 0.000000 0.000000 0.105780 0.000000 0.000000
# 5 0.000000 0.000000 0.000000 0.000000 0.097002 0.000000
# 6 0.000000 0.000000 0.000000 0.000000 0.000000 0.043600
#
#
# Mechanical properties :
#
#
# Convention : Reuss Voigt Hill
#
# Bulk Modulus (GPa) = 40.01698 61.34151 50.67925
# Shear Modulus (GPa) = 13.13122 17.02913 15.08017
#
# Velocity S-wave (km/s) = 2.96040 3.37128 3.17250
# Velocity P-wave (km/s) = 6.19623 7.48961 6.87341
#
# Compressibility (1/GPa) = 0.02498939
#
# Stress axis : x y z
#
# Youngs Moduli (GPa) = 54.63996 80.56705 22.31586
#
# Poissons Ratio (x) = 0.38531 0.26748
# Poissons Ratio (y) = 0.26132 0.18967
# Poissons Ratio (z) = 0.65491 0.68476
#
# Static dielectric constant tensor:
#      x y z
#    x 1.489680 0.000000 0.000000 
#    y 0.000000 1.486840 0.000000 
#    z 0.000000 0.000000 1.499380 
# 
# From -- ./inp_files/6848.got.cif
#   From: 2010.05.17/outbox.cif.g08.bks.cpg/sg55_4_cif.got.tgz:6848.got - 2010.06.03 13:27:54.
