data_PCOD9424046
_publ_section_title
;
Structure prediction by ZEFSAII (Michael W. Deem and Ramdas Pophale) SiO2 
 PCOD9424046
Probable space group: P C C A
;
_chemical_formula_sum "Si O2"
_cell_formula_units_Z 56
_cell_length_a 15.566598
_cell_length_b 5.326865
_cell_length_c 30.113010
_cell_angle_alpha 90.000000
_cell_angle_beta 90.000000
_cell_angle_gamma 90.000000
_cell_volume 2497.005903
_symmetry_space_group_name_H-M "P C C A"
_symmetry_group_IT_number 54
_symmetry_cell_setting 'orthorhombic'
loop_
_space_group_symop_operation_xyz
x,y,z
1/2-x,-y,z
1/2+x,-y,1/2-z
-x,y,1/2-z
-x,-y,-z
1/2+x,y,-z
1/2-x,y,1/2+z
x,-y,1/2+z
loop_
_atom_site_type_symbol
_atom_site_label
_atom_site_fract_x
_atom_site_fract_y
_atom_site_fract_z
Si Si1 0.852134 0.495286 0.987525
Si Si2 0.750000 0.500000 0.347871
Si Si3 0.912872 0.388448 0.585193
Si Si4 0.409693 0.970331 0.275268
Si Si5 0.750000 0.000000 0.790531
Si Si6 0.411042 0.670012 0.097997
Si Si7 0.041797 0.033370 0.549893
Si Si8 0.150961 0.523986 0.321448
O O1 0.750000 0.500000 0.982915
O O2 0.897056 0.718721 0.957158
O O3 0.892319 0.259706 0.962743
O O4 0.878059 0.504898 0.038479
O O5 0.763358 0.748875 0.319065
O O6 0.832478 0.449246 0.378428
O O7 0.849724 0.416736 0.626075
O O8 0.998585 0.538029 0.600116
O O9 0.947535 0.116834 0.571997
O O10 0.500000 0.955402 0.250000
O O11 0.333100 0.952757 0.239645
O O12 0.395855 0.238769 0.298909
O O13 0.396175 0.735346 0.308548
O O14 0.419949 0.963148 0.101960
O O15 0.000000 0.000000 0.500000
O O16 0.250000 0.500000 0.306197
#
# Coordination Sequence:
#
# PCOD9424046 Si02
#       8
#     8   4   8   8   4   8   8   8
#     4  11  22  41  63  97 142 194 237 296 360 421
#     4  12  30  42  76 108 142 186 238 316 360 434
#     4  11  25  40  69 103 144 188 253 290 360 432
#     4  12  28  52  84 109 149 196 239 306 396 459
#     4  12  28  54  76 110 148 182 248 300 382 466
#     4  11  24  44  64 100 144 188 243 298 358 419
#     4  11  21  42  67  93 139 202 244 295 351 429
#     4  12  26  50  77 116 152 189 245 316 365 452
#
# _framework density 22.426860999999999
#
# number of rings (size 3 to 8) (size 9 to 14) (size 15 to 20)
#    0.000    0.571    5.000    2.571   10.000    0.571 
#    0.000    0.000    0.000    0.000    0.000    0.000 
#    0.000    0.000    0.000    0.000    0.000    0.000 
#
# Total GULP energy -311901.815626 kJ/mol
# GULP energy per Si atom -5569.675279 kJ/mol
# Density = 2.237582 g / cm^3
# Si number density = 22.426861 Si / 1000 Ang^3
#
#
#
# Elastic Constant Matrix: (Units=GPa)
#
#
# Indices 1 2 3 4 5 6 
#
# 1 103.1374 0.8288 16.6580 0.0000 0.0000 0.0000
# 2 0.8288 93.9501 27.4390 0.0000 0.0000 0.0000
# 3 16.6580 27.4390 89.2186 0.0000 0.0000 0.0000
# 4 0.0000 0.0000 0.0000 38.3974 0.0000 0.0000
# 5 0.0000 0.0000 0.0000 0.0000 33.2346 0.0000
# 6 0.0000 0.0000 0.0000 0.0000 0.0000 24.1230
#
#
#
# Elastic Compliance Matrix: (Units=1/GPa)
#
#
# Indices 1 2 3 4 5 6 
#
# 1 0.010019 0.000503 -0.002025 0.000000 0.000000 0.000000
# 2 0.000503 0.011720 -0.003698 0.000000 0.000000 0.000000
# 3 -0.002025 -0.003698 0.012724 0.000000 0.000000 0.000000
# 4 0.000000 0.000000 0.000000 0.026043 0.000000 0.000000
# 5 0.000000 0.000000 0.000000 0.000000 0.030089 0.000000
# 6 0.000000 0.000000 0.000000 0.000000 0.000000 0.041454
#
#
# Mechanical properties :
#
#
# Convention : Reuss Voigt Hill
#
# Bulk Modulus (GPa) = 41.62940 41.79528 41.71234
# Shear Modulus (GPa) = 33.22317 35.24303 34.23310
#
# Velocity S-wave (km/s) = 3.85307 3.96847 3.91120
# Velocity P-wave (km/s) = 6.19657 6.29881 6.24790
#
# Compressibility (1/GPa) = 0.02402148
#
# Stress axis : x y z
#
# Youngs Moduli (GPa) = 99.81149 85.32691 78.59178
#
# Poissons Ratio (x) = -0.04293 0.15918
# Poissons Ratio (y) = -0.05022 0.29066
# Poissons Ratio (z) = 0.20215 0.31556
#
# Static dielectric constant tensor:
#      x y z
#    x 2.124250 0.000000 0.000000 
#    y 0.000000 1.313460 0.000000 
#    z 0.000000 0.000000 2.027580 
# 
# From -- ./inp_files/28275.got.cif
#   From: 2010.05.17/outbox.cif.g08.bks.cpg/sg54_15_cif.got.tgz:28275.got - 2010.06.03 13:09:01.
