data_PCOD9424218
_publ_section_title
;
Structure prediction by ZEFSAII (Michael W. Deem and Ramdas Pophale) SiO2 
 PCOD9424218
Probable space group: P C C A
;
_chemical_formula_sum "Si O2"
_cell_formula_units_Z 36
_cell_length_a 14.436771
_cell_length_b 4.938313
_cell_length_c 20.593577
_cell_angle_alpha 90.000000
_cell_angle_beta 90.000000
_cell_angle_gamma 90.000000
_cell_volume 1468.183938
_symmetry_space_group_name_H-M "P C C A"
_symmetry_group_IT_number 54
_symmetry_cell_setting 'orthorhombic'
loop_
_space_group_symop_operation_xyz
x,y,z
1/2-x,-y,z
1/2+x,-y,1/2-z
-x,y,1/2-z
-x,-y,-z
1/2+x,y,-z
1/2-x,y,1/2+z
x,-y,1/2+z
loop_
_atom_site_type_symbol
_atom_site_label
_atom_site_fract_x
_atom_site_fract_y
_atom_site_fract_z
Si Si1 0.649292 0.149981 0.687061
Si Si2 0.887680 0.675159 0.103819
Si Si3 0.912360 0.533762 0.409069
Si Si4 0.360930 0.978885 0.168157
Si Si5 0.250000 0.500000 0.996427
O O1 0.592938 0.955389 0.639404
O O2 0.615224 0.133597 0.760725
O O3 0.750000 0.000000 0.686494
O O4 0.642789 0.448316 0.656788
O O5 0.805791 0.698745 0.051489
O O6 0.982158 0.577067 0.070563
O O7 0.898485 0.723231 0.345969
O O8 0.831364 0.618763 0.458762
O O9 0.893458 0.228321 0.387050
O O10 0.250000 0.000000 0.165359
#
# Coordination Sequence:
#
# PCOD9424218 Si02
#       5
#     8   8   8   8   4
#     4  11  23  45  72 102 138 176 217 278 346 401
#     4  12  26  44  72 101 133 180 226 276 335 395
#     4  12  26  44  72 101 133 180 226 276 335 395
#     4  11  23  45  72 102 138 176 217 278 346 401
#     4  12  26  50  66  96 140 182 226 284 316 408
#
# _framework density 24.520088000000001
#
# number of rings (size 3 to 8) (size 9 to 14) (size 15 to 20)
#    0.000    0.444    4.444    3.333    0.000   12.444 
#    0.000    4.444    0.000    0.000    0.000    0.000 
#    0.000    0.000    0.000    0.000    0.000    0.000 
#
# Total GULP energy -201580.560307 kJ/mol
# GULP energy per Si atom -5599.460009 kJ/mol
# Density = 2.446428 g / cm^3
# Si number density = 24.520088 Si / 1000 Ang^3
#
#
#
# Elastic Constant Matrix: (Units=GPa)
#
#
# Indices 1 2 3 4 5 6 
#
# 1 121.6898 -9.2811 6.1558 0.0000 0.0000 0.0000
# 2 -9.2811 100.2708 9.5442 0.0000 0.0000 0.0000
# 3 6.1558 9.5442 91.4224 0.0000 0.0000 0.0000
# 4 0.0000 0.0000 0.0000 -1.3513 0.0000 0.0000
# 5 0.0000 0.0000 0.0000 0.0000 -11.8306 0.0000
# 6 0.0000 0.0000 0.0000 0.0000 0.0000 31.9461
#
#
#
# Elastic Compliance Matrix: (Units=1/GPa)
#
#
# Indices 1 2 3 4 5 6 
#
# 1 0.008314 0.000831 -0.000647 0.000000 0.000000 0.000000
# 2 0.000831 0.010156 -0.001116 0.000000 0.000000 0.000000
# 3 -0.000647 -0.001116 0.011098 0.000000 0.000000 0.000000
# 4 0.000000 0.000000 0.000000 -0.740004 0.000000 0.000000
# 5 0.000000 0.000000 0.000000 0.000000 -0.084527 0.000000
# 6 0.000000 0.000000 0.000000 0.000000 0.000000 0.031303
#
#
# Mechanical properties :
#
#
# Convention : Reuss Voigt Hill
#
# Bulk Modulus (GPa) = 36.09492 36.24676 36.17084
# Shear Modulus (GPa) = -6.64397 24.21710 8.78656
#
# Velocity S-wave (km/s) = -1.64787 3.14609 1.89504
# Velocity P-wave (km/s) = 3.33644 5.29261 4.42400
#
# Compressibility (1/GPa) = 0.02770473
#
# Stress axis : x y z
#
# Youngs Moduli (GPa) = 120.28328 98.46235 90.10391
#
# Poissons Ratio (x) = -0.08183 0.05826
# Poissons Ratio (y) = -0.09996 0.10058
# Poissons Ratio (z) = 0.07777 0.10991
#
# Static dielectric constant tensor:
#      x y z
#    x 2.011540 0.000000 0.000000 
#    y 0.000000 1.831630 0.000000 
#    z 0.000000 0.000000 1.948160 
# 
# From -- ./inp_files/14435.got.cif
#   From: 2010.05.17/outbox.cif.g08.bks.cpg/sg54_8_cif.got.tgz:14435.got - 2010.06.03 13:09:01.
