data_PCOD9424629
_publ_section_title
;
Structure prediction by ZEFSAII (Michael W. Deem and Ramdas Pophale) SiO2 
 PCOD9424629
Probable space group: P C C A
;
_chemical_formula_sum "Si O2"
_cell_formula_units_Z 64
_cell_length_a 21.000000
_cell_length_b 9.000000
_cell_length_c 18.000000
_cell_angle_alpha 90.000000
_cell_angle_beta 90.000000
_cell_angle_gamma 90.000000
_cell_volume 3402.000000
_symmetry_space_group_name_H-M "P C C A"
_symmetry_group_IT_number 54
_symmetry_cell_setting 'orthorhombic'
loop_
_space_group_symop_operation_xyz
x,y,z
1/2-x,-y,z
1/2+x,-y,1/2-z
-x,y,1/2-z
-x,-y,-z
1/2+x,y,-z
1/2-x,y,1/2+z
x,-y,1/2+z
loop_
_atom_site_type_symbol
_atom_site_label
_atom_site_fract_x
_atom_site_fract_y
_atom_site_fract_z
Si Si1 0.063711 0.901433 0.569659
Si Si2 0.183210 0.580463 0.110507
Si Si3 0.183787 0.069566 0.631463
Si Si4 0.682331 0.575295 0.710580
Si Si5 0.048791 0.550081 0.565410
Si Si6 0.685120 0.077709 0.190543
Si Si7 0.557780 0.934505 0.604754
Si Si8 0.038049 0.386946 0.824370
O O1 0.059246 0.725079 0.567114
O O2 0.065250 0.949337 0.483475
O O3 0.127030 0.970190 0.602465
O O4 0.004998 0.967466 0.617199
O O5 0.250000 0.500000 0.087132
O O6 0.182974 0.759475 0.105363
O O7 0.178249 0.554468 0.199890
O O8 0.119604 0.522331 0.068893
O O9 0.179525 0.058362 0.720834
O O10 0.250000 0.000000 0.607026
O O11 0.750000 0.500000 0.687769
O O12 0.690227 0.744993 0.684041
O O13 0.609090 0.543275 0.684714
O O14 0.000000 0.500000 0.500000
O O15 0.010017 0.499840 0.637453
O O16 0.621948 0.022998 0.148419
O O17 0.750000 0.000000 0.164743
O O18 0.544508 0.763430 0.627195
O O19 0.000000 0.340933 0.750000
#
# Coordination Sequence:
#
# PCOD9424629 Si02
#       8
#     8   8   8   8   8   8   8   8
#     4  11  24  39  60  89 127 165 207 256 308 377
#     4  10  20  38  64  90 120 162 209 256 307 370
#     4  10  21  39  64  93 122 160 209 261 311 373
#     4   9  19  35  62  90 117 157 203 253 307 369
#     4  12  24  41  61  91 129 164 208 261 311 373
#     4   9  20  38  61  90 121 155 202 263 313 361
#     4  10  23  40  62  87 120 166 207 251 316 372
#     4  11  21  41  66  90 122 167 210 253 320 374
#
# _framework density 18.812463000000001
#
# number of rings (size 3 to 8) (size 9 to 14) (size 15 to 20)
#    0.000    1.750    2.500    1.500    5.250    2.500 
#    2.250    0.625    2.750    0.000    0.000    0.000 
#    0.000    0.000    0.000    0.000    0.000    0.000 
#
# Total GULP energy -356593.577593 kJ/mol
# GULP energy per Si atom -5571.774650 kJ/mol
# Density = 1.876965 g / cm^3
# Si number density = 18.812463 Si / 1000 Ang^3
#
#
#
# Elastic Constant Matrix: (Units=GPa)
#
#
# Indices 1 2 3 4 5 6 
#
# 1 227.9702 88.5953 45.4388 0.0000 0.0000 0.0000
# 2 88.5953 86.3719 23.0893 0.0000 0.0000 0.0000
# 3 45.4388 23.0893 18.8915 0.0000 0.0000 0.0000
# 4 0.0000 0.0000 0.0000 21.1160 0.0000 0.0000
# 5 0.0000 0.0000 0.0000 0.0000 33.0344 0.0000
# 6 0.0000 0.0000 0.0000 0.0000 0.0000 43.0822
#
#
#
# Elastic Compliance Matrix: (Units=1/GPa)
#
#
# Indices 1 2 3 4 5 6 
#
# 1 0.010012 -0.005692 -0.017124 0.000000 0.000000 0.000000
# 2 -0.005692 0.020432 -0.011282 0.000000 0.000000 0.000000
# 3 -0.017124 -0.011282 0.107911 0.000000 0.000000 0.000000
# 4 0.000000 0.000000 0.000000 0.047358 0.000000 0.000000
# 5 0.000000 0.000000 0.000000 0.000000 0.030272 0.000000
# 6 0.000000 0.000000 0.000000 0.000000 0.000000 0.023211
#
#
# Mechanical properties :
#
#
# Convention : Reuss Voigt Hill
#
# Bulk Modulus (GPa) = 14.25341 71.94227 43.09784
# Shear Modulus (GPa) = 15.11590 31.18720 23.15155
#
# Velocity S-wave (km/s) = 2.83769 4.07602 3.51187
# Velocity P-wave (km/s) = 4.28132 7.77668 6.27720
#
# Compressibility (1/GPa) = 0.07015864
#
# Stress axis : x y z
#
# Youngs Moduli (GPa) = 99.88367 48.94282 9.26689
#
# Poissons Ratio (x) = 0.27857 0.15869
# Poissons Ratio (y) = 0.56850 0.10455
# Poissons Ratio (z) = 1.71043 0.55218
#
# Static dielectric constant tensor:
#      x y z
#    x 1.648300 0.000000 0.000000 
#    y 0.000000 1.604930 0.000000 
#    z 0.000000 0.000000 1.700330 
# 
# From -- ./inp_files/18949.got.cif
#   From: 2010.05.17/outbox.ucp.g08.bks.cvg/sg54_10_cif.got.tgz:18949.got - 2010.06.11 16:34:40.
