data_PCOD9424951
_publ_section_title
;
Structure prediction by ZEFSAII (Michael W. Deem and Ramdas Pophale) SiO2 
 PCOD9424951
Probable space group: P B A M
;
_chemical_formula_sum "Si O2"
_cell_formula_units_Z 56
_cell_length_a 23.020046
_cell_length_b 14.312931
_cell_length_c 7.560840
_cell_angle_alpha 90.000000
_cell_angle_beta 90.000000
_cell_angle_gamma 90.000000
_cell_volume 2491.178302
_symmetry_space_group_name_H-M "P B A M"
_symmetry_group_IT_number 55
_symmetry_cell_setting 'orthorhombic'
loop_
_space_group_symop_operation_xyz
x,y,z
-x,-y,z
1/2+x,1/2-y,-z
1/2-x,1/2+y,-z
-x,-y,-z
x,y,-z
1/2-x,1/2+y,z
1/2+x,1/2-y,z
loop_
_atom_site_type_symbol
_atom_site_label
_atom_site_fract_x
_atom_site_fract_y
_atom_site_fract_z
Si Si1 0.662540 0.885019 0.781738
Si Si2 0.634601 0.673853 0.788622
Si Si3 0.879438 0.570580 0.199986
Si Si4 0.097192 0.226278 0.207072
Si Si5 0.491509 0.397242 0.295016
Si Si6 0.213173 0.146534 0.798534
Si Si7 0.241048 0.357297 0.290958
O O1 0.642494 0.781465 0.727675
O O2 0.729352 0.900481 0.717323
O O3 0.618552 0.966500 0.721960
O O4 0.663970 0.886252 0.000000
O O5 0.574985 0.632164 0.720396
O O6 0.692013 0.616270 0.734631
O O7 0.632267 0.674448 0.000000
O O8 0.901934 0.667941 0.282160
O O9 0.809679 0.585304 0.199492
O O10 0.902948 0.565442 0.000000
O O11 0.035296 0.178149 0.215681
O O12 0.148469 0.158526 0.280503
O O13 0.207521 0.111083 0.000000
O O14 0.500000 0.500000 0.215566
O O15 0.508461 0.401877 0.500000
O O16 0.234224 0.254700 0.794729
O O17 0.113223 0.238062 0.000000
O O18 0.228854 0.351840 0.500000
#
# Coordination Sequence:
#
# PCOD9424951 Si02
#       7
#     8   8   8   8   8   8   8
#     4   8  15  30  55  84 110 137 172 216 259 304
#     4  10  20  37  59  80 104 138 180 222 265 312
#     4   9  17  32  54  82 114 144 176 213 256 311
#     4   9  18  33  54  79 107 141 181 222 260 306
#     4  11  25  42  57  75 101 134 175 225 277 323
#     4   8  15  30  51  76 105 138 177 213 250 299
#     4  10  18  29  48  77 111 143 174 210 257 305
#
# _framework density 22.479323000000001
#
# number of rings (size 3 to 8) (size 9 to 14) (size 15 to 20)
#    0.000    2.714    0.000    3.857    0.000    4.571 
#    0.000    5.714    0.000    4.286    0.000    0.000 
#    0.000    0.000    0.000    0.000    0.000    0.000 
#
# Total GULP energy -312061.123427 kJ/mol
# GULP energy per Si atom -5572.520061 kJ/mol
# Density = 2.242816 g / cm^3
# Si number density = 22.479323 Si / 1000 Ang^3
#
#
#
# Elastic Constant Matrix: (Units=GPa)
#
#
# Indices 1 2 3 4 5 6 
#
# 1 83.5555 3.1657 -13.9806 0.0000 0.0000 0.0000
# 2 3.1657 53.6356 -6.1808 0.0000 0.0000 0.0000
# 3 -13.9806 -6.1808 76.9659 0.0000 0.0000 0.0000
# 4 0.0000 0.0000 0.0000 17.7326 0.0000 0.0000
# 5 0.0000 0.0000 0.0000 0.0000 16.1956 0.0000
# 6 0.0000 0.0000 0.0000 0.0000 0.0000 24.1605
#
#
#
# Elastic Compliance Matrix: (Units=1/GPa)
#
#
# Indices 1 2 3 4 5 6 
#
# 1 0.012355 -0.000475 0.002206 0.000000 0.000000 0.000000
# 2 -0.000475 0.018837 0.001426 0.000000 0.000000 0.000000
# 3 0.002206 0.001426 0.013508 0.000000 0.000000 0.000000
# 4 0.000000 0.000000 0.000000 0.056393 0.000000 0.000000
# 5 0.000000 0.000000 0.000000 0.000000 0.061745 0.000000
# 6 0.000000 0.000000 0.000000 0.000000 0.000000 0.041390
#
#
# Mechanical properties :
#
#
# Convention : Reuss Voigt Hill
#
# Bulk Modulus (GPa) = 19.60205 20.01842 19.81023
# Shear Modulus (GPa) = 23.26465 27.02792 25.14628
#
# Velocity S-wave (km/s) = 3.22053 3.47125 3.34824
# Velocity P-wave (km/s) = 4.75059 4.99907 4.87641
#
# Compressibility (1/GPa) = 0.05101508
#
# Stress axis : x y z
#
# Youngs Moduli (GPa) = 80.93744 53.08769 74.02990
#
# Poissons Ratio (x) = 0.02522 -0.16332
# Poissons Ratio (y) = 0.03845 -0.10560
# Poissons Ratio (z) = -0.17856 -0.07572
#
# Static dielectric constant tensor:
#      x y z
#    x 1.816760 0.000000 0.000000 
#    y 0.000000 1.897980 0.000000 
#    z 0.000000 0.000000 1.904550 
# 
# From -- ./inp_files/8797.got.cif
#   From: 2010.05.17/outbox.cif.g08.bks.cpg/sg55_5_cif.got.tgz:8797.got - 2010.06.03 13:27:54.
