data_PCOD9424762
_publ_section_title
;
Structure prediction by ZEFSAII (Michael W. Deem and Ramdas Pophale) SiO2 
 PCOD9424762
Probable space group: P B A M
;
_chemical_formula_sum "Si O2"
_cell_formula_units_Z 56
_cell_length_a 20.430019
_cell_length_b 13.006190
_cell_length_c 7.877683
_cell_angle_alpha 90.000000
_cell_angle_beta 90.000000
_cell_angle_gamma 90.000000
_cell_volume 2093.232000
_symmetry_space_group_name_H-M "P B A M"
_symmetry_group_IT_number 55
_symmetry_cell_setting 'orthorhombic'
loop_
_space_group_symop_operation_xyz
x,y,z
-x,-y,z
1/2+x,1/2-y,-z
1/2-x,1/2+y,-z
-x,-y,-z
x,y,-z
1/2-x,1/2+y,z
1/2+x,1/2-y,z
loop_
_atom_site_type_symbol
_atom_site_label
_atom_site_fract_x
_atom_site_fract_y
_atom_site_fract_z
Si Si1 0.923169 0.483747 0.194045
Si Si2 0.486102 0.646350 0.800074
Si Si3 0.245123 0.641860 0.297368
Si Si4 0.377783 0.804228 0.694512
Si Si5 0.245554 0.412655 0.703154
Si Si6 0.115036 0.744718 0.204623
Si Si7 0.867671 0.973331 0.200265
O O1 0.899306 0.576659 0.308463
O O2 0.911212 0.368381 0.255674
O O3 0.000000 0.500000 0.182334
O O4 0.897398 0.493917 0.000000
O O5 0.436115 0.743400 0.786772
O O6 0.557453 0.678071 0.731123
O O7 0.438789 0.555634 0.729154
O O8 0.495515 0.624441 0.000000
O O9 0.247978 0.642448 0.500000
O O10 0.220035 0.527144 0.242446
O O11 0.191656 0.726867 0.249757
O O12 0.320304 0.625041 0.236430
O O13 0.374548 0.766090 0.500000
O O14 0.304234 0.825989 0.769090
O O15 0.241862 0.403897 0.500000
O O16 0.322948 0.431019 0.742036
O O17 0.113515 0.754063 0.000000
O O18 0.873683 0.984553 0.000000
#
# Coordination Sequence:
#
# PCOD9424762 Si02
#       7
#     8   8   8   8   8   8   8
#     4  10  17  26  37  50  78 118 147 171 207 242
#     4  10  21  33  43  64  95 118 147 190 226 261
#     4   9  17  29  44  60  83 112 150 187 212 251
#     4  11  20  28  41  63  89 119 151 183 218 257
#     4   8  17  30  43  59  83 113 151 187 212 251
#     4  10  18  28  43  62  86 118 151 181 216 255
#     4   9  17  31  49  62  79 116 154 185 224 262
#
# _framework density 26.752887999999999
#
# number of rings (size 3 to 8) (size 9 to 14) (size 15 to 20)
#    0.857    1.571    2.857    0.857    0.000    3.143 
#    0.000    0.000    0.000    0.000    0.000    0.000 
#    0.000    1.143    0.000   12.857    0.000    6.429 
#
# Total GULP energy -312377.979213 kJ/mol
# GULP energy per Si atom -5578.178200 kJ/mol
# Density = 2.669200 g / cm^3
# Si number density = 26.752888 Si / 1000 Ang^3
#
#
#
# Elastic Constant Matrix: (Units=GPa)
#
#
# Indices 1 2 3 4 5 6 
#
# 1 247.6321 77.2615 20.4165 0.0000 0.0000 0.0000
# 2 77.2615 104.4838 7.9989 0.0000 0.0000 0.0000
# 3 20.4165 7.9989 31.4097 0.0000 0.0000 0.0000
# 4 0.0000 0.0000 0.0000 35.1443 0.0000 0.0000
# 5 0.0000 0.0000 0.0000 0.0000 -149.3433 0.0000
# 6 0.0000 0.0000 0.0000 0.0000 0.0000 46.3968
#
#
#
# Elastic Compliance Matrix: (Units=1/GPa)
#
#
# Indices 1 2 3 4 5 6 
#
# 1 0.005444 -0.003830 -0.002564 0.000000 0.000000 0.000000
# 2 -0.003830 0.012455 -0.000683 0.000000 0.000000 0.000000
# 3 -0.002564 -0.000683 0.033678 0.000000 0.000000 0.000000
# 4 0.000000 0.000000 0.000000 0.028454 0.000000 0.000000
# 5 0.000000 0.000000 0.000000 0.000000 -0.006696 0.000000
# 6 0.000000 0.000000 0.000000 0.000000 0.000000 0.021553
#
#
# Mechanical properties :
#
#
# Convention : Reuss Voigt Hill
#
# Bulk Modulus (GPa) = 26.71989 66.09770 46.40879
# Shear Modulus (GPa) = 41.14708 4.96280 23.05494
#
# Velocity S-wave (km/s) = 3.92604 1.36348 2.93878
# Velocity P-wave (km/s) = 5.52821 5.21912 5.37588
#
# Compressibility (1/GPa) = 0.03742531
#
# Stress axis : x y z
#
# Youngs Moduli (GPa) = 183.67204 80.28890 29.69337
#
# Poissons Ratio (x) = 0.30748 0.07612
# Poissons Ratio (y) = 0.70341 0.02027
# Poissons Ratio (z) = 0.47087 0.05480
#
# Static dielectric constant tensor:
#      x y z
#    x 2.239250 0.000000 0.000000 
#    y 0.000000 2.303570 0.000000 
#    z 0.000000 0.000000 2.024300 
# 
# From -- ./inp_files/9093.got.cif
#   From: 2010.05.17/outbox.cif.g08.bks.cpg/sg55_5_cif.got.tgz:9093.got - 2010.06.03 13:27:54.
