data_PCOD9424470
_publ_section_title
;
Structure prediction by ZEFSAII (Michael W. Deem and Ramdas Pophale) SiO2 
 PCOD9424470
Probable space group: P C C A
;
_chemical_formula_sum "Si O2"
_cell_formula_units_Z 48
_cell_length_a 16.012140
_cell_length_b 9.382431
_cell_length_c 14.930352
_cell_angle_alpha 90.000000
_cell_angle_beta 90.000000
_cell_angle_gamma 90.000000
_cell_volume 2243.028567
_symmetry_space_group_name_H-M "P C C A"
_symmetry_group_IT_number 54
_symmetry_cell_setting 'orthorhombic'
loop_
_space_group_symop_operation_xyz
x,y,z
1/2-x,-y,z
1/2+x,-y,1/2-z
-x,y,1/2-z
-x,-y,-z
1/2+x,y,-z
1/2-x,y,1/2+z
x,-y,1/2+z
loop_
_atom_site_type_symbol
_atom_site_label
_atom_site_fract_x
_atom_site_fract_y
_atom_site_fract_z
Si Si1 0.249531 0.671585 0.305124
Si Si2 0.564868 0.761354 0.682624
Si Si3 0.312374 0.782899 0.496900
Si Si4 0.410415 0.930081 0.000309
Si Si5 0.658480 0.291432 0.874115
Si Si6 0.056079 0.567507 0.076677
O O1 0.250000 0.500000 0.313433
O O2 0.154608 0.715898 0.278615
O O3 0.281260 0.738515 0.398250
O O4 0.311604 0.721223 0.227124
O O5 0.500000 0.839830 0.750000
O O6 0.591211 0.843307 0.592420
O O7 0.507370 0.629809 0.649852
O O8 0.238599 0.735941 0.563176
O O9 0.391710 0.693344 0.530834
O O10 0.340286 0.947293 0.501814
O O11 0.403316 0.826775 0.085821
O O12 0.500000 0.000000 0.000000
O O13 0.618688 0.446860 0.887833
O O14 0.000000 0.500000 0.000000
#
# Coordination Sequence:
#
# PCOD9424470 Si02
#       6
#     8   8   8   8   8   8
#     4  12  26  45  74 112 141 188 248 307 368 436
#     4  12  25  45  71 106 144 189 241 298 366 434
#     4  12  24  46  71 102 149 187 241 299 365 442
#     4  12  26  48  69 102 148 195 238 298 368 442
#     4  12  25  46  74 107 143 191 243 306 367 429
#     4  12  22  44  75 104 143 190 234 300 367 426
#
# _framework density 21.399636999999998
#
# number of rings (size 3 to 8) (size 9 to 14) (size 15 to 20)
#    0.000    0.000    5.000    6.000    0.000    1.333 
#    3.000    3.333    0.000    0.000    0.000    0.000 
#    0.000    0.000    0.000    0.000    0.000    0.000 
#
# Total GULP energy -268561.094155 kJ/mol
# GULP energy per Si atom -5595.022795 kJ/mol
# Density = 2.135093 g / cm^3
# Si number density = 21.399637 Si / 1000 Ang^3
#
#
#
# Elastic Constant Matrix: (Units=GPa)
#
#
# Indices 1 2 3 4 5 6 
#
# 1 89.7894 30.1604 2.3160 0.0000 0.0000 0.0000
# 2 30.1604 105.7408 20.5223 0.0000 0.0000 0.0000
# 3 2.3160 20.5223 93.3338 0.0000 0.0000 0.0000
# 4 0.0000 0.0000 0.0000 10.8473 0.0000 0.0000
# 5 0.0000 0.0000 0.0000 0.0000 49.3408 0.0000
# 6 0.0000 0.0000 0.0000 0.0000 0.0000 54.7263
#
#
#
# Elastic Compliance Matrix: (Units=1/GPa)
#
#
# Indices 1 2 3 4 5 6 
#
# 1 0.012339 -0.003614 0.000488 0.000000 0.000000 0.000000
# 2 -0.003614 0.010937 -0.002315 0.000000 0.000000 0.000000
# 3 0.000488 -0.002315 0.011211 0.000000 0.000000 0.000000
# 4 0.000000 0.000000 0.000000 0.092189 0.000000 0.000000
# 5 0.000000 0.000000 0.000000 0.000000 0.020267 0.000000
# 6 0.000000 0.000000 0.000000 0.000000 0.000000 0.018273
#
#
# Mechanical properties :
#
#
# Convention : Reuss Voigt Hill
#
# Bulk Modulus (GPa) = 42.36329 43.87349 43.11839
# Shear Modulus (GPa) = 27.17890 38.70723 32.94306
#
# Velocity S-wave (km/s) = 3.56766 4.25759 3.92780
# Velocity P-wave (km/s) = 6.06714 6.68700 6.38459
#
# Compressibility (1/GPa) = 0.02360534
#
# Stress axis : x y z
#
# Youngs Moduli (GPa) = 81.04675 91.43038 89.19670
#
# Poissons Ratio (x) = 0.33044 -0.04357
# Poissons Ratio (y) = 0.29291 0.20651
# Poissons Ratio (z) = -0.03959 0.21168
#
# Static dielectric constant tensor:
#      x y z
#    x 1.790240 0.000000 0.000000 
#    y 0.000000 1.799670 0.000000 
#    z 0.000000 0.000000 1.874110 
# 
# From -- ./inp_files/14161.got.cif
#   From: 2010.05.17/outbox.cif.g08.bks.cpg/sg54_8_cif.got.tgz:14161.got - 2010.06.03 13:09:01.
