data_PCOD9424545
_publ_section_title
;
Structure prediction by ZEFSAII (Michael W. Deem and Ramdas Pophale) SiO2 
 PCOD9424545
Probable space group: P C C A
;
_chemical_formula_sum "Si O2"
_cell_formula_units_Z 28
_cell_length_a 16.232884
_cell_length_b 8.382162
_cell_length_c 7.579275
_cell_angle_alpha 90.000000
_cell_angle_beta 90.000000
_cell_angle_gamma 90.000000
_cell_volume 1031.286660
_symmetry_space_group_name_H-M "P C C A"
_symmetry_group_IT_number 54
_symmetry_cell_setting 'orthorhombic'
loop_
_space_group_symop_operation_xyz
x,y,z
1/2-x,-y,z
1/2+x,-y,1/2-z
-x,y,1/2-z
-x,-y,-z
1/2+x,y,-z
1/2-x,y,1/2+z
x,-y,1/2+z
loop_
_atom_site_type_symbol
_atom_site_label
_atom_site_fract_x
_atom_site_fract_y
_atom_site_fract_z
Si Si1 0.417918 0.368933 0.690472
Si Si2 0.587249 0.097206 0.510553
Si Si3 0.250000 0.500000 0.302646
Si Si4 0.646376 0.216475 0.134849
O O1 0.500000 0.456606 0.750000
O O2 0.335661 0.471567 0.704486
O O3 0.418357 0.306221 0.492376
O O4 0.413934 0.221545 0.828062
O O5 0.388170 0.184100 0.170193
O O6 0.500000 0.000000 0.500000
O O7 0.653293 0.958605 0.550886
O O8 0.228228 0.674032 0.382880
#
# Coordination Sequence:
#
# PCOD9424545 Si02
#       4
#     8   8   4   8
#     4  12  28  52  85 122 169 225 285 351 431 508
#     4  12  25  50  88 125 160 218 289 354 426 503
#     4  12  34  56  80 128 178 234 284 346 442 520
#     4  12  27  52  82 121 173 214 287 354 423 510
#
# _framework density 27.150549000000002
#
# number of rings (size 3 to 8) (size 9 to 14) (size 15 to 20)
#    0.000    0.000    5.714    1.714    8.000    4.571 
#    0.000    0.000    0.000    0.000    0.000    0.000 
#    0.000    0.000    0.000    0.000    0.000    0.000 
#
# Total GULP energy -156819.361613 kJ/mol
# GULP energy per Si atom -5600.691486 kJ/mol
# Density = 2.708875 g / cm^3
# Si number density = 27.150549 Si / 1000 Ang^3
#
#
#
# Elastic Constant Matrix: (Units=GPa)
#
#
# Indices 1 2 3 4 5 6 
#
# 1 176.4210 90.1790 56.5114 0.0000 0.0000 0.0000
# 2 90.1790 162.1708 69.9202 0.0000 0.0000 0.0000
# 3 56.5114 69.9202 211.7828 0.0000 0.0000 0.0000
# 4 0.0000 0.0000 0.0000 5.7937 0.0000 0.0000
# 5 0.0000 0.0000 0.0000 0.0000 23.7120 0.0000
# 6 0.0000 0.0000 0.0000 0.0000 0.0000 72.4616
#
#
#
# Elastic Compliance Matrix: (Units=1/GPa)
#
#
# Indices 1 2 3 4 5 6 
#
# 1 0.008028 -0.004128 -0.000779 0.000000 0.000000 0.000000
# 2 -0.004128 0.009313 -0.001973 0.000000 0.000000 0.000000
# 3 -0.000779 -0.001973 0.005581 0.000000 0.000000 0.000000
# 4 0.000000 0.000000 0.000000 0.172603 0.000000 0.000000
# 5 0.000000 0.000000 0.000000 0.000000 0.042173 0.000000
# 6 0.000000 0.000000 0.000000 0.000000 0.000000 0.013800
#
#
# Mechanical properties :
#
#
# Convention : Reuss Voigt Hill
#
# Bulk Modulus (GPa) = 109.16010 109.28842 109.22426
# Shear Modulus (GPa) = 18.63502 42.64438 30.63970
#
# Velocity S-wave (km/s) = 2.62269 3.96746 3.36298
# Velocity P-wave (km/s) = 7.03307 7.83121 7.44284
#
# Compressibility (1/GPa) = 0.00916086
#
# Stress axis : x y z
#
# Youngs Moduli (GPa) = 124.56349 107.38153 179.17498
#
# Poissons Ratio (x) = 0.44329 0.13962
# Poissons Ratio (y) = 0.51422 0.35351
# Poissons Ratio (z) = 0.09707 0.21186
#
# Static dielectric constant tensor:
#      x y z
#    x 2.144240 0.000000 0.000000 
#    y 0.000000 2.171400 0.000000 
#    z 0.000000 0.000000 2.123720 
# 
# From -- ./inp_files/7865.got.cif
#   From: 2010.05.17/outbox.cif.g08.bks.cpg/sg54_4_cif.got.tgz:7865.got - 2010.06.03 13:09:01.
