data_PCOD9424343
_publ_section_title
;
Structure prediction by ZEFSAII (Michael W. Deem and Ramdas Pophale) SiO2 
 PCOD9424343
Probable space group: P C C A
;
_chemical_formula_sum "Si O2"
_cell_formula_units_Z 40
_cell_length_a 7.235934
_cell_length_b 8.703934
_cell_length_c 26.154524
_cell_angle_alpha 90.000000
_cell_angle_beta 90.000000
_cell_angle_gamma 90.000000
_cell_volume 1647.240481
_symmetry_space_group_name_H-M "P C C A"
_symmetry_group_IT_number 54
_symmetry_cell_setting 'orthorhombic'
loop_
_space_group_symop_operation_xyz
x,y,z
1/2-x,-y,z
1/2+x,-y,1/2-z
-x,y,1/2-z
-x,-y,-z
1/2+x,y,-z
1/2-x,y,1/2+z
x,-y,1/2+z
loop_
_atom_site_type_symbol
_atom_site_label
_atom_site_fract_x
_atom_site_fract_y
_atom_site_fract_z
Si Si1 0.775700 0.680957 0.292638
Si Si2 0.137423 0.373257 0.021731
Si Si3 0.251511 0.177521 0.603980
Si Si4 0.682588 0.824558 0.575473
Si Si5 0.710210 0.682447 0.682790
O O1 0.750000 0.500000 0.288896
O O2 0.686108 0.741571 0.344007
O O3 0.709897 0.740025 0.237249
O O4 0.992094 0.705389 0.305444
O O5 0.250000 0.500000 0.055674
O O6 0.110177 0.232887 0.059789
O O7 0.225029 0.289309 0.971964
O O8 0.000000 0.500000 0.000000
O O9 0.041720 0.198325 0.581966
O O10 0.250000 0.000000 0.615308
O O11 0.756293 0.769118 0.630642
O O12 0.750000 0.000000 0.565782
O O13 0.750000 0.500000 0.676140
#
# Coordination Sequence:
#
# PCOD9424343 Si02
#       5
#     8   8   8   8   8
#     4   9  19  37  64  90 124 161 209 257 307 372
#     4  12  25  43  67  92 121 163 212 263 313 379
#     4  11  25  41  61  92 128 166 206 260 319 378
#     4  11  25  41  61  91 129 164 207 262 317 377
#     4   9  19  38  62  93 121 162 209 257 307 370
#
# _framework density 24.283035999999999
#
# number of rings (size 3 to 8) (size 9 to 14) (size 15 to 20)
#    0.000    1.600    2.000    1.800    5.600    4.000 
#    0.000    0.000    0.000    0.000    0.000    0.000 
#    0.000    0.000    0.000    0.000    0.000    0.000 
#
# Total GULP energy -222962.760541 kJ/mol
# GULP energy per Si atom -5574.069014 kJ/mol
# Density = 2.422777 g / cm^3
# Si number density = 24.283036 Si / 1000 Ang^3
#
#
#
# Elastic Constant Matrix: (Units=GPa)
#
#
# Indices 1 2 3 4 5 6 
#
# 1 57.8463 2.7467 21.2441 0.0000 0.0000 0.0000
# 2 2.7467 111.7446 75.8915 0.0000 0.0000 0.0000
# 3 21.2441 75.8915 212.2416 0.0000 0.0000 0.0000
# 4 0.0000 0.0000 0.0000 -2.4045 0.0000 0.0000
# 5 0.0000 0.0000 0.0000 0.0000 31.9616 0.0000
# 6 0.0000 0.0000 0.0000 0.0000 0.0000 36.5291
#
#
#
# Elastic Compliance Matrix: (Units=1/GPa)
#
#
# Indices 1 2 3 4 5 6 
#
# 1 0.018037 0.001034 -0.002175 0.000000 0.000000 0.000000
# 2 0.001034 0.011878 -0.004351 0.000000 0.000000 0.000000
# 3 -0.002175 -0.004351 0.006485 0.000000 0.000000 0.000000
# 4 0.000000 0.000000 0.000000 -0.415884 0.000000 0.000000
# 5 0.000000 0.000000 0.000000 0.000000 0.031288 0.000000
# 6 0.000000 0.000000 0.000000 0.000000 0.000000 0.027375
#
#
# Mechanical properties :
#
#
# Convention : Reuss Voigt Hill
#
# Bulk Modulus (GPa) = 39.34492 64.62190 51.98341
# Shear Modulus (GPa) = -16.59121 32.01391 7.71135
#
# Velocity S-wave (km/s) = -2.61673 3.63487 1.78396
# Velocity P-wave (km/s) = 2.66611 6.65478 5.06923
#
# Compressibility (1/GPa) = 0.02541624
#
# Stress axis : x y z
#
# Youngs Moduli (GPa) = 55.44193 84.18588 154.20033
#
# Poissons Ratio (x) = -0.08704 0.33539
# Poissons Ratio (y) = -0.05732 0.67091
# Poissons Ratio (z) = 0.12059 0.36628
#
# Static dielectric constant tensor:
#      x y z
#    x 2.519280 0.000000 0.000000 
#    y 0.000000 1.852430 0.000000 
#    z 0.000000 0.000000 1.922780 
# 
# From -- ./inp_files/23189.got.cif
#   From: 2010.05.17/outbox.cif.g08.bks.cpg/sg54_12_cif.got.tgz:23189.got - 2010.06.03 13:09:01.
