data_PCOD9424946
_publ_section_title
;
Structure prediction by ZEFSAII (Michael W. Deem and Ramdas Pophale) SiO2 
 PCOD9424946
Probable space group: P B A M
;
_chemical_formula_sum "Si O2"
_cell_formula_units_Z 56
_cell_length_a 23.029617
_cell_length_b 11.012470
_cell_length_c 12.532779
_cell_angle_alpha 90.000000
_cell_angle_beta 90.000000
_cell_angle_gamma 90.000000
_cell_volume 3178.475258
_symmetry_space_group_name_H-M "P B A M"
_symmetry_group_IT_number 55
_symmetry_cell_setting 'orthorhombic'
loop_
_space_group_symop_operation_xyz
x,y,z
-x,-y,z
1/2+x,1/2-y,-z
1/2-x,1/2+y,-z
-x,-y,-z
x,y,-z
1/2-x,1/2+y,z
1/2+x,1/2-y,z
loop_
_atom_site_type_symbol
_atom_site_label
_atom_site_fract_x
_atom_site_fract_y
_atom_site_fract_z
Si Si1 0.726649 0.392958 0.721005
Si Si2 0.627970 0.433826 0.121329
Si Si3 0.792151 0.161227 0.374113
Si Si4 0.056313 0.433833 0.875561
Si Si5 0.507061 0.332650 0.877646
Si Si6 0.382022 0.307369 0.191812
Si Si7 0.832358 0.442036 0.878157
O O1 0.667497 0.372741 0.788541
O O2 0.721910 0.518539 0.652346
O O3 0.746791 0.267683 0.663465
O O4 0.775746 0.426521 0.807723
O O5 0.558988 0.425380 0.145236
O O6 0.642447 0.576010 0.129576
O O7 0.637074 0.388842 0.000000
O O8 0.800283 0.172813 0.500000
O O9 0.849832 0.191321 0.305250
O O10 0.041709 0.293699 0.875078
O O11 0.119764 0.464678 0.832299
O O12 0.000000 0.500000 0.827058
O O13 0.059786 0.475721 0.000000
O O14 0.451308 0.319158 0.803979
O O15 0.486160 0.351417 0.000000
O O16 0.365863 0.186047 0.129288
O O17 0.816872 0.472294 0.000000
#
# Coordination Sequence:
#
# PCOD9424946 Si02
#       7
#     8   8   8   8   8   8   8
#     4  10  22  36  57  82 104 139 180 218 270 321
#     4  10  20  32  48  78 117 146 169 203 253 320
#     4  10  22  41  60  76  98 133 184 239 277 307
#     4   9  16  26  43  68 102 143 176 201 237 292
#     4  10  18  29  48  75 110 145 172 201 247 315
#     4  10  19  32  52  76  99 142 183 213 261 316
#     4  10  18  30  49  77 112 143 173 208 252 317
#
# _framework density 17.618511000000002
#
# number of rings (size 3 to 8) (size 9 to 14) (size 15 to 20)
#    0.000    2.143    1.429    2.571    2.000    1.143 
#    0.000    1.429    0.000    7.714    0.000    2.000 
#    0.000    0.000    0.000    0.000    0.000    0.000 
#
# Total GULP energy -311891.983886 kJ/mol
# GULP energy per Si atom -5569.499712 kJ/mol
# Density = 1.757841 g / cm^3
# Si number density = 17.618511 Si / 1000 Ang^3
#
#
#
# Elastic Constant Matrix: (Units=GPa)
#
#
# Indices 1 2 3 4 5 6 
#
# 1 81.2760 12.8605 44.8592 0.0000 0.0000 0.0000
# 2 12.8605 63.3953 20.5648 0.0000 0.0000 0.0000
# 3 44.8592 20.5648 90.2906 0.0000 0.0000 0.0000
# 4 0.0000 0.0000 0.0000 17.9350 0.0000 0.0000
# 5 0.0000 0.0000 0.0000 0.0000 11.2404 0.0000
# 6 0.0000 0.0000 0.0000 0.0000 0.0000 28.8709
#
#
#
# Elastic Compliance Matrix: (Units=1/GPa)
#
#
# Indices 1 2 3 4 5 6 
#
# 1 0.016987 -0.000765 -0.008265 0.000000 0.000000 0.000000
# 2 -0.000765 0.017067 -0.003507 0.000000 0.000000 0.000000
# 3 -0.008265 -0.003507 0.015981 0.000000 0.000000 0.000000
# 4 0.000000 0.000000 0.000000 0.055757 0.000000 0.000000
# 5 0.000000 0.000000 0.000000 0.000000 0.088965 0.000000
# 6 0.000000 0.000000 0.000000 0.000000 0.000000 0.034637
#
#
# Mechanical properties :
#
#
# Convention : Reuss Voigt Hill
#
# Bulk Modulus (GPa) = 40.06482 43.50345 41.78414
# Shear Modulus (GPa) = 19.02677 22.05442 20.54059
#
# Velocity S-wave (km/s) = 3.28979 3.54188 3.41816
# Velocity P-wave (km/s) = 6.10081 6.43988 6.27264
#
# Compressibility (1/GPa) = 0.02495955
#
# Stress axis : x y z
#
# Youngs Moduli (GPa) = 58.86954 58.59295 62.57561
#
# Poissons Ratio (x) = 0.04481 0.51721
# Poissons Ratio (y) = 0.04502 0.21947
# Poissons Ratio (z) = 0.48658 0.20550
#
# Static dielectric constant tensor:
#      x y z
#    x 1.636950 0.000000 0.000000 
#    y 0.000000 1.689250 0.000000 
#    z 0.000000 0.000000 1.568710 
# 
# From -- ./inp_files/13343.got.cif
#   From: 2010.05.17/outbox.cif.g08.bks.cpg/sg55_7_cif.got.tgz:13343.got - 2010.06.03 13:27:54.
