data_PCOD9424781
_publ_section_title
;
Structure prediction by ZEFSAII (Michael W. Deem and Ramdas Pophale) SiO2 
 PCOD9424781
Probable space group: P B A M
;
_chemical_formula_sum "Si O2"
_cell_formula_units_Z 48
_cell_length_a 30.428103
_cell_length_b 8.357061
_cell_length_c 10.696077
_cell_angle_alpha 90.000000
_cell_angle_beta 90.000000
_cell_angle_gamma 90.000000
_cell_volume 2719.900210
_symmetry_space_group_name_H-M "P B A M"
_symmetry_group_IT_number 55
_symmetry_cell_setting 'orthorhombic'
loop_
_space_group_symop_operation_xyz
x,y,z
-x,-y,z
1/2+x,1/2-y,-z
1/2-x,1/2+y,-z
-x,-y,-z
x,y,-z
1/2-x,1/2+y,z
1/2+x,1/2-y,z
loop_
_atom_site_type_symbol
_atom_site_label
_atom_site_fract_x
_atom_site_fract_y
_atom_site_fract_z
Si Si1 0.448828 0.965336 0.642159
Si Si2 0.738699 0.667074 0.858686
Si Si3 0.376259 0.232390 0.637512
Si Si4 0.145867 0.970495 0.858378
Si Si5 0.187545 0.521804 0.227604
Si Si6 0.606470 0.176338 0.860441
O O1 0.443357 0.900703 0.500000
O O2 0.427956 0.856607 0.750168
O O3 0.500000 0.000000 0.662315
O O4 0.420565 0.128899 0.646419
O O5 0.698687 0.540624 0.848135
O O6 0.714754 0.836123 0.838247
O O7 0.777058 0.620373 0.762907
O O8 0.756927 0.661315 0.000000
O O9 0.373546 0.307186 0.500000
O O10 0.372782 0.356515 0.750658
O O11 0.335875 0.106669 0.655183
O O12 0.127889 0.148898 0.846061
O O13 0.135333 0.913084 0.000000
O O14 0.146032 0.451614 0.152868
O O15 0.587352 0.163881 0.000000
#
# Coordination Sequence:
#
# PCOD9424781 Si02
#       6
#     8   8   8   8   8   8
#     4   9  19  36  56  76  98 128 168 209 249 303
#     4  10  17  27  45  70 100 134 169 201 237 284
#     4   9  19  36  55  74  99 132 169 207 253 302
#     4   9  19  33  51  77 106 136 170 208 248 295
#     4  10  19  30  47  73 102 133 169 209 246 287
#     4  10  19  32  51  77 106 132 163 206 256 302
#
# _framework density 17.647705999999999
#
# number of rings (size 3 to 8) (size 9 to 14) (size 15 to 20)
#    0.000    2.500    0.000    2.500    0.000    7.000 
#    0.000    4.167    0.000    9.000    0.000    0.000 
#    0.000    0.000    0.000    0.000    0.000    0.000 
#
# Total GULP energy -267364.739150 kJ/mol
# GULP energy per Si atom -5570.098732 kJ/mol
# Density = 1.760754 g / cm^3
# Si number density = 17.647706 Si / 1000 Ang^3
#
#
#
# Elastic Constant Matrix: (Units=GPa)
#
#
# Indices 1 2 3 4 5 6 
#
# 1 94.3776 29.0411 52.2003 0.0000 0.0000 0.0000
# 2 29.0411 57.1027 45.5262 0.0000 0.0000 0.0000
# 3 52.2003 45.5262 124.1065 0.0000 0.0000 0.0000
# 4 0.0000 0.0000 0.0000 22.0841 0.0000 0.0000
# 5 0.0000 0.0000 0.0000 0.0000 14.1649 0.0000
# 6 0.0000 0.0000 0.0000 0.0000 0.0000 15.0534
#
#
#
# Elastic Compliance Matrix: (Units=1/GPa)
#
#
# Indices 1 2 3 4 5 6 
#
# 1 0.014286 -0.003498 -0.004726 0.000000 0.000000 0.000000
# 2 -0.003498 0.025608 -0.007922 0.000000 0.000000 0.000000
# 3 -0.004726 -0.007922 0.012951 0.000000 0.000000 0.000000
# 4 0.000000 0.000000 0.000000 0.045281 0.000000 0.000000
# 5 0.000000 0.000000 0.000000 0.000000 0.070597 0.000000
# 6 0.000000 0.000000 0.000000 0.000000 0.000000 0.066430
#
#
# Mechanical properties :
#
#
# Convention : Reuss Voigt Hill
#
# Bulk Modulus (GPa) = 48.65474 58.79136 53.72305
# Shear Modulus (GPa) = 18.22846 20.18176 19.20511
#
# Velocity S-wave (km/s) = 3.21738 3.38537 3.30244
# Velocity P-wave (km/s) = 6.43676 6.97619 6.71189
#
# Compressibility (1/GPa) = 0.02055298
#
# Stress axis : x y z
#
# Youngs Moduli (GPa) = 69.99959 39.05103 77.21147
#
# Poissons Ratio (x) = 0.13659 0.36487
# Poissons Ratio (y) = 0.24485 0.61170
# Poissons Ratio (z) = 0.33079 0.30938
#
# Static dielectric constant tensor:
#      x y z
#    x 1.589440 0.000000 0.000000 
#    y 0.000000 1.631800 0.000000 
#    z 0.000000 0.000000 1.608100 
# 
# From -- ./inp_files/10496.got.cif
#   From: 2010.05.17/outbox.cif.g08.bks.cpg/sg55_6_cif.got.tgz:10496.got - 2010.06.03 13:27:54.
