data_PCOD9424413
_publ_section_title
;
Structure prediction by ZEFSAII (Michael W. Deem and Ramdas Pophale) SiO2 
 PCOD9424413
Probable space group: P C C A
;
_chemical_formula_sum "Si O2"
_cell_formula_units_Z 24
_cell_length_a 17.020137
_cell_length_b 4.918823
_cell_length_c 12.337471
_cell_angle_alpha 90.000000
_cell_angle_beta 90.000000
_cell_angle_gamma 90.000000
_cell_volume 1032.881245
_symmetry_space_group_name_H-M "P C C A"
_symmetry_group_IT_number 54
_symmetry_cell_setting 'orthorhombic'
loop_
_space_group_symop_operation_xyz
x,y,z
1/2-x,-y,z
1/2+x,-y,1/2-z
-x,y,1/2-z
-x,-y,-z
1/2+x,y,-z
1/2-x,y,1/2+z
x,-y,1/2+z
loop_
_atom_site_type_symbol
_atom_site_label
_atom_site_fract_x
_atom_site_fract_y
_atom_site_fract_z
Si Si1 0.339177 0.467746 0.256661
Si Si2 0.947463 0.290679 0.427378
Si Si3 0.894158 0.041477 0.117921
O O1 0.250000 0.500000 0.220250
O O2 0.398877 0.555802 0.163338
O O3 0.360089 0.167843 0.295710
O O4 0.352437 0.673042 0.358551
O O5 0.890665 0.106302 0.501644
O O6 0.000000 0.500000 0.500000
O O7 0.012855 0.097790 0.373473
#
# Coordination Sequence:
#
# PCOD9424413 Si02
#       3
#     8   8   8
#     4  12  28  48  72 111 156 191 244 314 379 428
#     4  11  26  46  80 107 143 197 256 298 361 450
#     4  11  26  47  76 107 143 196 250 303 360 450
#
# _framework density 23.235973999999999
#
# number of rings (size 3 to 8) (size 9 to 14) (size 15 to 20)
#    0.000    0.667    3.333    2.000   14.000    1.333 
#    6.000    0.000    0.000    0.000    0.000    0.000 
#    0.000    0.000    0.000    0.000    0.000    0.000 
#
# Total GULP energy -134384.412476 kJ/mol
# GULP energy per Si atom -5599.350520 kJ/mol
# Density = 2.318309 g / cm^3
# Si number density = 23.235974 Si / 1000 Ang^3
#
#
#
# Elastic Constant Matrix: (Units=GPa)
#
#
# Indices 1 2 3 4 5 6 
#
# 1 91.1784 21.7328 5.4198 0.0000 0.0000 0.0000
# 2 21.7328 94.8666 -0.2838 0.0000 0.0000 0.0000
# 3 5.4198 -0.2838 31.7910 0.0000 0.0000 0.0000
# 4 0.0000 0.0000 0.0000 18.1356 0.0000 0.0000
# 5 0.0000 0.0000 0.0000 0.0000 5.3863 0.0000
# 6 0.0000 0.0000 0.0000 0.0000 0.0000 30.2270
#
#
#
# Elastic Compliance Matrix: (Units=1/GPa)
#
#
# Indices 1 2 3 4 5 6 
#
# 1 0.011730 -0.002693 -0.002024 0.000000 0.000000 0.000000
# 2 -0.002693 0.011160 0.000559 0.000000 0.000000 0.000000
# 3 -0.002024 0.000559 0.031805 0.000000 0.000000 0.000000
# 4 0.000000 0.000000 0.000000 0.055140 0.000000 0.000000
# 5 0.000000 0.000000 0.000000 0.000000 0.185658 0.000000
# 6 0.000000 0.000000 0.000000 0.000000 0.000000 0.033083
#
#
# Mechanical properties :
#
#
# Convention : Reuss Voigt Hill
#
# Bulk Modulus (GPa) = 21.56169 30.17484 25.86826
# Shear Modulus (GPa) = 14.19036 23.48091 18.83564
#
# Velocity S-wave (km/s) = 2.47393 3.18235 2.85023
# Velocity P-wave (km/s) = 4.17852 5.14952 4.68922
#
# Compressibility (1/GPa) = 0.04637856
#
# Stress axis : x y z
#
# Youngs Moduli (GPa) = 85.25338 89.60763 31.44119
#
# Poissons Ratio (x) = 0.24133 0.06363
# Poissons Ratio (y) = 0.22960 -0.01757
# Poissons Ratio (z) = 0.17253 -0.05007
#
# Static dielectric constant tensor:
#      x y z
#    x 1.829510 0.000000 0.000000 
#    y 0.000000 1.880450 0.000000 
#    z 0.000000 0.000000 1.913160 
# 
# From -- ./inp_files/8581.got.cif
#   From: 2010.05.17/outbox.cif.g08.bks.cpg/sg54_5_cif.got.tgz:8581.got - 2010.06.03 13:09:01.
