data_PCOD9424915
_publ_section_title
;
Structure prediction by ZEFSAII (Michael W. Deem and Ramdas Pophale) SiO2 
 PCOD9424915
Probable space group: P B A M
;
_chemical_formula_sum "Si O2"
_cell_formula_units_Z 40
_cell_length_a 8.841374
_cell_length_b 16.019541
_cell_length_c 13.616636
_cell_angle_alpha 90.000000
_cell_angle_beta 90.000000
_cell_angle_gamma 90.000000
_cell_volume 1928.588880
_symmetry_space_group_name_H-M "P B A M"
_symmetry_group_IT_number 55
_symmetry_cell_setting 'orthorhombic'
loop_
_space_group_symop_operation_xyz
x,y,z
-x,-y,z
1/2+x,1/2-y,-z
1/2-x,1/2+y,-z
-x,-y,-z
x,y,-z
1/2-x,1/2+y,z
1/2+x,1/2-y,z
loop_
_atom_site_type_symbol
_atom_site_label
_atom_site_fract_x
_atom_site_fract_y
_atom_site_fract_z
Si Si1 0.868663 0.331332 0.500000
Si Si2 0.898015 0.418965 0.703212
Si Si3 0.993709 0.851729 0.500000
Si Si4 0.434404 0.778784 0.184365
Si Si5 0.943665 0.889476 0.710065
Si Si6 0.373866 0.359811 0.891610
O O1 0.925126 0.379179 0.596205
O O2 0.686708 0.335677 0.500000
O O3 0.919917 0.235816 0.500000
O O4 0.718651 0.433284 0.712345
O O5 0.000000 0.500000 0.716657
O O6 0.950291 0.348830 0.779759
O O7 0.021961 0.897448 0.603852
O O8 0.407725 0.710492 0.271793
O O9 0.285140 0.823303 0.145541
O O10 0.513889 0.719843 0.105149
O O11 0.051838 0.910431 0.801526
O O12 0.362944 0.398383 0.000000
#
# Coordination Sequence:
#
# PCOD9424915 Si02
#       6
#     4   8   4   8   8   8
#     4  10  19  32  52  84 107 152 182 222 277 320
#     4  11  21  35  54  81 119 148 182 227 275 338
#     4  10  18  28  56  80 114 134 182 232 256 332
#     4  10  18  33  54  84 104 142 187 223 279 319
#     4   9  19  35  53  84 108 146 185 221 279 320
#     4  10  19  33  59  83 106 138 194 243 266 320
#
# _framework density 20.740552999999998
#
# number of rings (size 3 to 8) (size 9 to 14) (size 15 to 20)
#    1.200    0.800    4.000    0.900    2.800    0.000 
#    0.000    1.000    0.000    6.600    0.000    8.400 
#    0.000    0.000    0.000    0.000    0.000    0.000 
#
# Total GULP energy -222993.881123 kJ/mol
# GULP energy per Si atom -5574.847028 kJ/mol
# Density = 2.069335 g / cm^3
# Si number density = 20.740553 Si / 1000 Ang^3
#
#
#
# Elastic Constant Matrix: (Units=GPa)
#
#
# Indices 1 2 3 4 5 6 
#
# 1 43.1994 8.7107 25.6030 0.0000 0.0000 0.0000
# 2 8.7107 68.4525 16.5512 0.0000 0.0000 0.0000
# 3 25.6030 16.5512 150.5641 0.0000 0.0000 0.0000
# 4 0.0000 0.0000 0.0000 -5.6883 0.0000 0.0000
# 5 0.0000 0.0000 0.0000 0.0000-1645.8769 0.0000
# 6 0.0000 0.0000 0.0000 0.0000 0.0000 33.4682
#
#
#
# Elastic Compliance Matrix: (Units=1/GPa)
#
#
# Indices 1 2 3 4 5 6 
#
# 1 0.026093 -0.002309 -0.004183 0.000000 0.000000 0.000000
# 2 -0.002309 0.015212 -0.001280 0.000000 0.000000 0.000000
# 3 -0.004183 -0.001280 0.007494 0.000000 0.000000 0.000000
# 4 0.000000 0.000000 0.000000 -0.175801 0.000000 0.000000
# 5 0.000000 0.000000 0.000000 0.000000 -0.000608 0.000000
# 6 0.000000 0.000000 0.000000 0.000000 0.000000 0.029879
#
#
# Mechanical properties :
#
#
# Convention : Reuss Voigt Hill
#
# Bulk Modulus (GPa) = 30.07039 40.43842 35.25441
# Shear Modulus (GPa) = -70.32170 -309.52930 -189.92550
#
# Velocity S-wave (km/s) = -5.82915 -12.22958 -9.57971
# Velocity P-wave (km/s) = 5.54757 13.41183 10.26287
#
# Compressibility (1/GPa) = 0.03325530
#
# Stress axis : x y z
#
# Youngs Moduli (GPa) = 38.32394 65.73814 133.44532
#
# Poissons Ratio (x) = 0.15179 0.55824
# Poissons Ratio (y) = 0.08849 0.17075
# Poissons Ratio (z) = 0.16032 0.08412
#
# Static dielectric constant tensor:
#      x y z
#    x 1.715190 0.000000 0.000000 
#    y 0.000000 1.725650 0.000000 
#    z 0.000000 0.000000 1.769800 
# 
# From -- ./inp_files/17218.got.cif
#   From: 2010.05.17/outbox.cif.g08.bks.cpg/sg55_9_cif.got.tgz:17218.got - 2010.06.03 13:27:54.
