data_PCOD9424889
_publ_section_title
;
Structure prediction by ZEFSAII (Michael W. Deem and Ramdas Pophale) SiO2 
 PCOD9424889
Probable space group: P B A M
;
_chemical_formula_sum "Si O2"
_cell_formula_units_Z 64
_cell_length_a 18.930242
_cell_length_b 26.879340
_cell_length_c 8.707937
_cell_angle_alpha 90.000000
_cell_angle_beta 90.000000
_cell_angle_gamma 90.000000
_cell_volume 4430.880579
_symmetry_space_group_name_H-M "P B A M"
_symmetry_group_IT_number 55
_symmetry_cell_setting 'orthorhombic'
loop_
_space_group_symop_operation_xyz
x,y,z
-x,-y,z
1/2+x,1/2-y,-z
1/2-x,1/2+y,-z
-x,-y,-z
x,y,-z
1/2-x,1/2+y,z
1/2+x,1/2-y,z
loop_
_atom_site_type_symbol
_atom_site_label
_atom_site_fract_x
_atom_site_fract_y
_atom_site_fract_z
Si Si1 0.924880 0.244716 0.683884
Si Si2 0.575742 0.555087 0.183783
Si Si3 0.086695 0.241754 0.315044
Si Si4 0.079102 0.054296 0.315784
Si Si5 0.334591 0.644825 0.185788
Si Si6 0.339269 0.354263 0.684246
Si Si7 0.789182 0.699701 0.178066
Si Si8 0.801770 0.302127 0.177059
O O1 0.925081 0.244175 0.500000
O O2 0.889442 0.192289 0.732798
O O3 0.873602 0.288990 0.737010
O O4 0.005687 0.248479 0.735623
O O5 0.498795 0.568369 0.253075
O O6 0.593756 0.500759 0.250823
O O7 0.631040 0.596389 0.237674
O O8 0.570991 0.552710 0.000000
O O9 0.089526 0.238657 0.500000
O O10 0.117585 0.190540 0.246045
O O11 0.137376 0.286059 0.257835
O O12 0.077684 0.053570 0.500000
O O13 0.134404 0.094359 0.253541
O O14 0.253690 0.656672 0.234565
O O15 0.336583 0.644641 0.000000
O O16 0.342433 0.358626 0.500000
O O17 0.260419 0.339870 0.736969
O O18 0.744381 0.751264 0.182594
O O19 0.799304 0.686494 0.000000
O O20 0.818338 0.312681 0.000000
#
# Coordination Sequence:
#
# PCOD9424889 Si02
#       8
#     8   8   8   8   8   8   8   8
#     4   9  18  28  41  61  86 113 144 177 212 253
#     4  11  21  33  47  64  87 115 145 182 220 255
#     4  10  18  28  42  63  88 116 147 181 217 257
#     4  11  21  33  47  64  86 114 147 183 218 256
#     4  10  19  31  45  63  85 113 147 182 218 260
#     4  10  18  30  46  64  86 115 148 182 217 258
#     4   9  17  29  42  60  84 113 146 180 216 257
#     4   8  16  28  42  59  82 109 140 175 212 252
#
# _framework density 14.444082
#
# number of rings (size 3 to 8) (size 9 to 14) (size 15 to 20)
#    0.000    2.250    0.000    6.000    0.000    6.000 
#    0.000    0.000    0.000    0.000    0.000    0.000 
#    0.000    1.000    0.000   10.500    0.000    5.750 
#
# Total GULP energy -356807.163921 kJ/mol
# GULP energy per Si atom -5575.111936 kJ/mol
# Density = 1.441121 g / cm^3
# Si number density = 14.444082 Si / 1000 Ang^3
#
#
#
# Elastic Constant Matrix: (Units=GPa)
#
#
# Indices 1 2 3 4 5 6 
#
# 1 102.8277 42.0544 34.5421 0.0000 0.0000 0.0000
# 2 42.0544 63.2289 27.5210 0.0000 0.0000 0.0000
# 3 34.5421 27.5210 79.6860 0.0000 0.0000 0.0000
# 4 0.0000 0.0000 0.0000 22.1991 0.0000 0.0000
# 5 0.0000 0.0000 0.0000 0.0000 21.5233 0.0000
# 6 0.0000 0.0000 0.0000 0.0000 0.0000 27.1493
#
#
#
# Elastic Compliance Matrix: (Units=1/GPa)
#
#
# Indices 1 2 3 4 5 6 
#
# 1 0.014092 -0.007902 -0.003380 0.000000 0.000000 0.000000
# 2 -0.007902 0.023044 -0.004534 0.000000 0.000000 0.000000
# 3 -0.003380 -0.004534 0.015580 0.000000 0.000000 0.000000
# 4 0.000000 0.000000 0.000000 0.045047 0.000000 0.000000
# 5 0.000000 0.000000 0.000000 0.000000 0.046461 0.000000
# 6 0.000000 0.000000 0.000000 0.000000 0.000000 0.036833
#
#
# Mechanical properties :
#
#
# Convention : Reuss Voigt Hill
#
# Bulk Modulus (GPa) = 47.42351 50.44194 48.93273
# Shear Modulus (GPa) = 22.75664 23.61603 23.18634
#
# Velocity S-wave (km/s) = 3.97356 4.04790 4.01090
# Velocity P-wave (km/s) = 7.34548 7.53958 7.44316
#
# Compressibility (1/GPa) = 0.02108659
#
# Stress axis : x y z
#
# Youngs Moduli (GPa) = 70.96276 43.39451 64.18504
#
# Poissons Ratio (x) = 0.34289 0.21691
# Poissons Ratio (y) = 0.56073 0.29099
# Poissons Ratio (z) = 0.23982 0.19673
#
# Static dielectric constant tensor:
#      x y z
#    x 1.480990 0.000000 0.000000 
#    y 0.000000 1.460950 0.000000 
#    z 0.000000 0.000000 1.486860 
# 
# From -- ./inp_files/8211.got.cif
#   From: 2010.05.17/outbox.cif.g08.bks.cpg/sg55_5_cif.got.tgz:8211.got - 2010.06.03 13:27:54.
