data_PCOD9424162
_publ_section_title
;
Structure prediction by ZEFSAII (Michael W. Deem and Ramdas Pophale) SiO2 
 PCOD9424162
Probable space group: P C C A
;
_chemical_formula_sum "Si O2"
_cell_formula_units_Z 60
_cell_length_a 18.629760
_cell_length_b 5.676115
_cell_length_c 26.443539
_cell_angle_alpha 90.000000
_cell_angle_beta 90.000000
_cell_angle_gamma 90.000000
_cell_volume 2796.263046
_symmetry_space_group_name_H-M "P C C A"
_symmetry_group_IT_number 54
_symmetry_cell_setting 'orthorhombic'
loop_
_space_group_symop_operation_xyz
x,y,z
1/2-x,-y,z
1/2+x,-y,1/2-z
-x,y,1/2-z
-x,-y,-z
1/2+x,y,-z
1/2-x,y,1/2+z
x,-y,1/2+z
loop_
_atom_site_type_symbol
_atom_site_label
_atom_site_fract_x
_atom_site_fract_y
_atom_site_fract_z
Si Si1 0.677723 0.872017 0.554016
Si Si2 0.476744 0.404147 0.300951
Si Si3 0.912514 0.026502 0.643725
Si Si4 0.845250 0.728369 0.715907
Si Si5 0.443385 0.270619 0.632669
Si Si6 0.750000 0.500000 0.629188
Si Si7 0.787658 0.249814 0.326918
Si Si8 0.458715 0.747314 0.012887
O O1 0.708875 0.677439 0.592275
O O2 0.618896 0.771147 0.515071
O O3 0.750000 0.000000 0.533335
O O4 0.630132 0.031189 0.592828
O O5 0.500000 0.264115 0.250000
O O6 0.420564 0.591999 0.278271
O O7 0.544043 0.504726 0.331239
O O8 0.434774 0.293081 0.348496
O O9 0.866343 0.982540 0.694232
O O10 0.988172 0.891858 0.646452
O O11 0.803481 0.624149 0.668182
O O12 0.801373 0.726932 0.766773
O O13 0.363836 0.202842 0.647003
O O14 0.447601 0.280733 0.572581
O O15 0.750000 0.500000 0.342893
O O16 0.750000 0.000000 0.335690
O O17 0.500000 0.500000 0.000000
O O18 0.500000 0.000000 0.000000
#
# Coordination Sequence:
#
# PCOD9424162 Si02
#       8
#     8   8   8   8   8   4   8   8
#     4  12  26  45  74 111 146 188 256 322 388 441
#     4  11  23  40  69 106 148 192 254 300 367 456
#     4  11  24  40  71 106 145 195 243 308 379 452
#     4  11  24  39  63 104 148 195 237 302 372 452
#     4  11  27  49  72 104 149 197 255 309 381 456
#     4  12  24  42  68 104 154 190 240 318 390 436
#     4  12  30  47  71 105 147 204 253 301 371 454
#     4  12  29  52  81 111 148 200 257 314 389 458
#
# _framework density 21.457208000000001
#
# number of rings (size 3 to 8) (size 9 to 14) (size 15 to 20)
#    0.000    0.533    6.000    0.800   11.200    0.533 
#    1.200    0.000    0.000    0.000    0.000    0.000 
#    0.000    0.000    0.000    0.000    0.000    0.000 
#
# Total GULP energy -334145.525902 kJ/mol
# GULP energy per Si atom -5569.092098 kJ/mol
# Density = 2.140837 g / cm^3
# Si number density = 21.457208 Si / 1000 Ang^3
#
#
#
# Elastic Constant Matrix: (Units=GPa)
#
#
# Indices 1 2 3 4 5 6 
#
# 1 143.1499 53.2320 50.7291 0.0000 0.0000 0.0000
# 2 53.2320 67.5254 30.7827 0.0000 0.0000 0.0000
# 3 50.7291 30.7827 115.3618 0.0000 0.0000 0.0000
# 4 0.0000 0.0000 0.0000 6.5954 0.0000 0.0000
# 5 0.0000 0.0000 0.0000 0.0000 46.0129 0.0000
# 6 0.0000 0.0000 0.0000 0.0000 0.0000 22.0618
#
#
#
# Elastic Compliance Matrix: (Units=1/GPa)
#
#
# Indices 1 2 3 4 5 6 
#
# 1 0.010607 -0.007099 -0.002770 0.000000 0.000000 0.000000
# 2 -0.007099 0.021611 -0.002645 0.000000 0.000000 0.000000
# 3 -0.002770 -0.002645 0.010592 0.000000 0.000000 0.000000
# 4 0.000000 0.000000 0.000000 0.151621 0.000000 0.000000
# 5 0.000000 0.000000 0.000000 0.000000 0.021733 0.000000
# 6 0.000000 0.000000 0.000000 0.000000 0.000000 0.045327
#
#
# Mechanical properties :
#
#
# Convention : Reuss Voigt Hill
#
# Bulk Modulus (GPa) = 56.23490 66.16941 61.20215
# Shear Modulus (GPa) = 17.09702 27.68692 22.39197
#
# Velocity S-wave (km/s) = 2.82582 3.59602 3.23393
# Velocity P-wave (km/s) = 6.07551 6.93877 6.52144
#
# Compressibility (1/GPa) = 0.01778255
#
# Stress axis : x y z
#
# Youngs Moduli (GPa) = 94.27505 46.27177 94.40852
#
# Poissons Ratio (x) = 0.32849 0.26152
# Poissons Ratio (y) = 0.66928 0.24970
# Poissons Ratio (z) = 0.26115 0.12239
#
# Static dielectric constant tensor:
#      x y z
#    x 1.845180 0.000000 0.000000 
#    y 0.000000 1.820540 0.000000 
#    z 0.000000 0.000000 1.758530 
# 
# From -- ./inp_files/26665.got.cif
#   From: 2010.05.17/outbox.cif.g08.bks.cpg/sg54_14_cif.got.tgz:26665.got - 2010.06.03 13:09:01.
