data_PCOD9424987
_publ_section_title
;
Structure prediction by ZEFSAII (Michael W. Deem and Ramdas Pophale) SiO2 
 PCOD9424987
Probable space group: P B A M
;
_chemical_formula_sum "Si O2"
_cell_formula_units_Z 64
_cell_length_a 19.934209
_cell_length_b 20.976951
_cell_length_c 8.978498
_cell_angle_alpha 90.000000
_cell_angle_beta 90.000000
_cell_angle_gamma 90.000000
_cell_volume 3754.439076
_symmetry_space_group_name_H-M "P B A M"
_symmetry_group_IT_number 55
_symmetry_cell_setting 'orthorhombic'
loop_
_space_group_symop_operation_xyz
x,y,z
-x,-y,z
1/2+x,1/2-y,-z
1/2-x,1/2+y,-z
-x,-y,-z
x,y,-z
1/2-x,1/2+y,z
1/2+x,1/2-y,z
loop_
_atom_site_type_symbol
_atom_site_label
_atom_site_fract_x
_atom_site_fract_y
_atom_site_fract_z
Si Si1 0.194974 0.988098 0.820857
Si Si2 0.062857 0.047613 0.323753
Si Si3 0.461753 0.063050 0.681469
Si Si4 0.180894 0.717856 0.328306
Si Si5 0.995415 0.167311 0.177814
Si Si6 0.481437 0.202343 0.672896
Si Si7 0.161829 0.846991 0.178140
Si Si8 0.306352 0.077118 0.319287
O O1 0.126582 0.019456 0.761236
O O2 0.256172 0.027236 0.752276
O O3 0.194079 0.913714 0.774010
O O4 0.196325 0.990623 0.000000
O O5 0.076706 0.051736 0.500000
O O6 0.041450 0.115870 0.259046
O O7 0.000000 0.000000 0.301856
O O8 0.463248 0.064237 0.500000
O O9 0.494513 0.130445 0.727937
O O10 0.383415 0.062582 0.723296
O O11 0.500000 0.000000 0.732463
O O12 0.200641 0.725820 0.500000
O O13 0.099918 0.708301 0.325002
O O14 0.194466 0.782981 0.242472
O O15 0.209472 0.650321 0.272828
O O16 0.009011 0.239324 0.231446
O O17 0.917428 0.152704 0.219412
O O18 0.001606 0.161733 0.000000
O O19 0.502267 0.208857 0.500000
O O20 0.164261 0.843575 0.000000
O O21 0.302361 0.075200 0.500000
#
# Coordination Sequence:
#
# PCOD9424987 Si02
#       8
#     8   8   8   8   8   8   8   8
#     4  11  22  35  51  73 104 139 171 208 258 310
#     4  11  22  34  51  75 101 133 173 215 255 299
#     4   8  14  28  54  82 105 131 167 212 260 305
#     4   8  15  28  48  71  96 124 161 210 252 290
#     4  10  18  30  48  70 101 134 167 209 253 300
#     4   8  14  26  46  74 101 127 164 208 249 294
#     4   9  18  30  47  72  98 128 168 209 247 298
#     4   9  18  33  52  77 104 130 169 216 255 305
#
# _framework density 17.046488
#
# number of rings (size 3 to 8) (size 9 to 14) (size 15 to 20)
#    0.000    2.750    1.250    2.625    0.000    2.500 
#    0.000    1.875    2.750    1.500    0.000    0.000 
#    0.000    0.000    0.000    0.000    0.000    0.000 
#
# Total GULP energy -356616.597409 kJ/mol
# GULP energy per Si atom -5572.134335 kJ/mol
# Density = 1.700769 g / cm^3
# Si number density = 17.046488 Si / 1000 Ang^3
#
#
#
# Elastic Constant Matrix: (Units=GPa)
#
#
# Indices 1 2 3 4 5 6 
#
# 1 42.8820 54.9307 21.6665 0.0000 0.0000 0.0000
# 2 54.9307 193.0291 44.6042 0.0000 0.0000 0.0000
# 3 21.6665 44.6042 29.4380 0.0000 0.0000 0.0000
# 4 0.0000 0.0000 0.0000 19.0525 0.0000 0.0000
# 5 0.0000 0.0000 0.0000 0.0000 18.5212 0.0000
# 6 0.0000 0.0000 0.0000 0.0000 0.0000 26.2205
#
#
#
# Elastic Compliance Matrix: (Units=1/GPa)
#
#
# Indices 1 2 3 4 5 6 
#
# 1 0.043400 -0.007647 -0.020357 0.000000 0.000000 0.000000
# 2 -0.007647 0.009319 -0.008492 0.000000 0.000000 0.000000
# 3 -0.020357 -0.008492 0.061819 0.000000 0.000000 0.000000
# 4 0.000000 0.000000 0.000000 0.052487 0.000000 0.000000
# 5 0.000000 0.000000 0.000000 0.000000 0.053992 0.000000
# 6 0.000000 0.000000 0.000000 0.000000 0.000000 0.038138
#
#
# Mechanical properties :
#
#
# Convention : Reuss Voigt Hill
#
# Bulk Modulus (GPa) = 24.06869 56.41689 40.24279
# Shear Modulus (GPa) = 14.45110 22.36870 18.40990
#
# Velocity S-wave (km/s) = 2.91477 3.62638 3.28987
# Velocity P-wave (km/s) = 5.04757 7.12053 6.17170
#
# Compressibility (1/GPa) = 0.04154775
#
# Stress axis : x y z
#
# Youngs Moduli (GPa) = 23.04134 107.30966 16.17623
#
# Poissons Ratio (x) = 0.82055 0.32930
# Poissons Ratio (y) = 0.17619 0.13737
# Poissons Ratio (z) = 0.46905 0.91126
#
# Static dielectric constant tensor:
#      x y z
#    x 1.556380 0.000000 0.000000 
#    y 0.000000 1.597630 0.000000 
#    z 0.000000 0.000000 1.567060 
# 
# From -- ./inp_files/8013.got.cif
#   From: 2010.05.17/outbox.cif.g08.bks.cpg/sg55_5_cif.got.tgz:8013.got - 2010.06.03 13:27:54.
