data_PCOD9424601
_publ_section_title
;
Structure prediction by ZEFSAII (Michael W. Deem and Ramdas Pophale) SiO2 
 PCOD9424601
Probable space group: P C C A
;
_chemical_formula_sum "Si O2"
_cell_formula_units_Z 48
_cell_length_a 16.159523
_cell_length_b 9.727762
_cell_length_c 14.661945
_cell_angle_alpha 90.000000
_cell_angle_beta 90.000000
_cell_angle_gamma 90.000000
_cell_volume 2304.799015
_symmetry_space_group_name_H-M "P C C A"
_symmetry_group_IT_number 54
_symmetry_cell_setting 'orthorhombic'
loop_
_space_group_symop_operation_xyz
x,y,z
1/2-x,-y,z
1/2+x,-y,1/2-z
-x,y,1/2-z
-x,-y,-z
1/2+x,y,-z
1/2-x,y,1/2+z
x,-y,1/2+z
loop_
_atom_site_type_symbol
_atom_site_label
_atom_site_fract_x
_atom_site_fract_y
_atom_site_fract_z
Si Si1 0.410509 0.322277 0.729787
Si Si2 0.254148 0.155922 0.738073
Si Si3 0.097842 0.347796 0.523325
Si Si4 0.407768 0.660577 0.010735
Si Si5 0.163884 0.587005 0.223572
Si Si6 0.249796 0.841002 0.014732
O O1 0.500000 0.269016 0.750000
O O2 0.341774 0.219286 0.763626
O O3 0.403540 0.337934 0.621019
O O4 0.394713 0.474573 0.769770
O O5 0.188007 0.269890 0.770220
O O6 0.249753 0.157586 0.626637
O O7 0.250000 0.000000 0.768481
O O8 0.105694 0.501655 0.482070
O O9 0.121408 0.369899 0.629177
O O10 0.167203 0.242660 0.487102
O O11 0.002356 0.301461 0.514463
O O12 0.332344 0.760032 0.983844
O O13 0.250000 0.500000 0.206577
O O14 0.250000 0.000000 0.986137
#
# Coordination Sequence:
#
# PCOD9424601 Si02
#       6
#     8   8   8   8   8   8
#     4   9  16  27  43  61  83 107 137 175 208 239
#     4   8  14  26  44  62  78 102 139 173 202 241
#     4   9  15  26  44  63  85 106 134 173 208 245
#     4   9  17  27  43  65  84 110 142 172 208 247
#     4   8  14  26  45  63  80 106 137 170 205 245
#     4   9  16  26  42  64  86 109 137 170 207 248
#
# _framework density 20.826111000000001
#
# number of rings (size 3 to 8) (size 9 to 14) (size 15 to 20)
#    0.000    3.333    0.000    3.500    0.000    0.667 
#    0.000    0.833    0.000   22.000    0.000    0.000 
#    0.000    0.000    0.000    0.000    0.000    0.000 
#
# Total GULP energy -267498.304678 kJ/mol
# GULP energy per Si atom -5572.881347 kJ/mol
# Density = 2.077871 g / cm^3
# Si number density = 20.826111 Si / 1000 Ang^3
#
#
#
# Elastic Constant Matrix: (Units=GPa)
#
#
# Indices 1 2 3 4 5 6 
#
# 1 142.4907 97.4175 0.7149 0.0000 0.0000 0.0000
# 2 97.4175 179.0237 9.8849 0.0000 0.0000 0.0000
# 3 0.7149 9.8849 68.6903 0.0000 0.0000 0.0000
# 4 0.0000 0.0000 0.0000 -11.1260 0.0000 0.0000
# 5 0.0000 0.0000 0.0000 0.0000 14.4800 0.0000
# 6 0.0000 0.0000 0.0000 0.0000 0.0000 15.9882
#
#
#
# Elastic Compliance Matrix: (Units=1/GPa)
#
#
# Indices 1 2 3 4 5 6 
#
# 1 0.011216 -0.006146 0.000768 0.000000 0.000000 0.000000
# 2 -0.006146 0.008998 -0.001231 0.000000 0.000000 0.000000
# 3 0.000768 -0.001231 0.014727 0.000000 0.000000 0.000000
# 4 0.000000 0.000000 0.000000 -0.089880 0.000000 0.000000
# 5 0.000000 0.000000 0.000000 0.000000 0.069061 0.000000
# 6 0.000000 0.000000 0.000000 0.000000 0.000000 0.062546
#
#
# Mechanical properties :
#
#
# Convention : Reuss Voigt Hill
#
# Bulk Modulus (GPa) = 46.03341 67.35992 56.69667
# Shear Modulus (GPa) = 51.47942 22.68096 37.08019
#
# Velocity S-wave (km/s) = 4.97718 3.30368 4.22413
# Velocity P-wave (km/s) = 7.42842 6.85322 7.14661
#
# Compressibility (1/GPa) = 0.02172335
#
# Stress axis : x y z
#
# Youngs Moduli (GPa) = 89.16082 111.13635 67.90141
#
# Poissons Ratio (x) = 0.68299 -0.05212
# Poissons Ratio (y) = 0.54794 0.08358
# Poissons Ratio (z) = -0.06844 0.13680
#
# Static dielectric constant tensor:
#      x y z
#    x 1.717530 0.000000 0.000000 
#    y 0.000000 1.748360 0.000000 
#    z 0.000000 0.000000 1.798610 
# 
# From -- ./inp_files/24394.got.cif
#   From: 2010.05.17/outbox.cif.g08.bks.cpg/sg54_13_cif.got.tgz:24394.got - 2010.06.03 13:09:01.
