data_PCOD9424251
_publ_section_title
;
Structure prediction by ZEFSAII (Michael W. Deem and Ramdas Pophale) SiO2 
 PCOD9424251
Probable space group: P C C A
;
_chemical_formula_sum "Si O2"
_cell_formula_units_Z 32
_cell_length_a 4.763001
_cell_length_b 11.784851
_cell_length_c 21.877561
_cell_angle_alpha 90.000000
_cell_angle_beta 90.000000
_cell_angle_gamma 90.000000
_cell_volume 1228.015001
_symmetry_space_group_name_H-M "P C C A"
_symmetry_group_IT_number 54
_symmetry_cell_setting 'orthorhombic'
loop_
_space_group_symop_operation_xyz
x,y,z
1/2-x,-y,z
1/2+x,-y,1/2-z
-x,y,1/2-z
-x,-y,-z
1/2+x,y,-z
1/2-x,y,1/2+z
x,-y,1/2+z
loop_
_atom_site_type_symbol
_atom_site_label
_atom_site_fract_x
_atom_site_fract_y
_atom_site_fract_z
Si Si1 0.725759 0.684050 0.792149
Si Si2 0.771891 0.808529 0.039610
Si Si3 0.013600 0.922422 0.338514
Si Si4 0.982448 0.426385 0.912714
O O1 0.500000 0.620984 0.750000
O O2 0.605510 0.809140 0.807145
O O3 0.711560 0.622619 0.857379
O O4 0.000000 0.692031 0.750000
O O5 0.845021 0.879577 0.099083
O O6 0.872636 0.681069 0.055223
O O7 0.953871 0.832058 0.979031
O O8 0.750000 0.000000 0.351431
O O9 0.250000 0.000000 0.305215
O O10 0.750000 0.500000 0.949562
O O11 0.250000 0.500000 0.892025
#
# Coordination Sequence:
#
# PCOD9424251 Si02
#       4
#     8   8   8   8
#     4  11  24  43  66  94 128 169 220 274 330 393
#     4  11  24  41  64  96 131 171 219 268 324 393
#     4  11  24  42  65  95 131 171 218 273 331 393
#     4  11  24  42  65  95 131 171 218 273 331 393
#
# _framework density 26.058315
#
# number of rings (size 3 to 8) (size 9 to 14) (size 15 to 20)
#    0.000    1.000    0.000    6.000    0.000   18.000 
#    0.000    0.000    0.000    0.000    0.000    0.000 
#    0.000    0.000    0.000    0.000    0.000    0.000 
#
# Total GULP energy -179275.119531 kJ/mol
# GULP energy per Si atom -5602.347485 kJ/mol
# Density = 2.599901 g / cm^3
# Si number density = 26.058315 Si / 1000 Ang^3
#
#
#
# Elastic Constant Matrix: (Units=GPa)
#
#
# Indices 1 2 3 4 5 6 
#
# 1 142.2207 37.8172 12.0008 0.0000 0.0000 0.0000
# 2 37.8172 108.1894 19.7101 0.0000 0.0000 0.0000
# 3 12.0008 19.7101 80.6441 0.0000 0.0000 0.0000
# 4 0.0000 0.0000 0.0000 12.4526 0.0000 0.0000
# 5 0.0000 0.0000 0.0000 0.0000 48.1320 0.0000
# 6 0.0000 0.0000 0.0000 0.0000 0.0000 35.0617
#
#
#
# Elastic Compliance Matrix: (Units=1/GPa)
#
#
# Indices 1 2 3 4 5 6 
#
# 1 0.007772 -0.002623 -0.000516 0.000000 0.000000 0.000000
# 2 -0.002623 0.010559 -0.002190 0.000000 0.000000 0.000000
# 3 -0.000516 -0.002190 0.013012 0.000000 0.000000 0.000000
# 4 0.000000 0.000000 0.000000 0.080305 0.000000 0.000000
# 5 0.000000 0.000000 0.000000 0.000000 0.020776 0.000000
# 6 0.000000 0.000000 0.000000 0.000000 0.000000 0.028521
#
#
# Mechanical properties :
#
#
# Convention : Reuss Voigt Hill
#
# Bulk Modulus (GPa) = 48.34225 52.23449 50.28837
# Shear Modulus (GPa) = 28.01151 36.56435 32.28793
#
# Velocity S-wave (km/s) = 3.28221 3.74996 3.52385
# Velocity P-wave (km/s) = 5.74070 6.23204 5.99141
#
# Compressibility (1/GPa) = 0.02068584
#
# Stress axis : x y z
#
# Youngs Moduli (GPa) = 128.66284 94.70692 76.85082
#
# Poissons Ratio (x) = 0.24840 0.03962
# Poissons Ratio (y) = 0.33746 0.16833
# Poissons Ratio (z) = 0.06633 0.20744
#
# Static dielectric constant tensor:
#      x y z
#    x 1.562090 0.000000 0.000000 
#    y 0.000000 2.089400 0.000000 
#    z 0.000000 0.000000 2.071150 
# 
# From -- ./inp_files/19504.got.cif
#   From: 2010.05.17/outbox.cif.g08.bks.cpg/sg54_10_cif.got.tgz:19504.got - 2010.06.03 13:09:01.
