data_PCOD9424183
_publ_section_title
;
Structure prediction by ZEFSAII (Michael W. Deem and Ramdas Pophale) SiO2 
 PCOD9424183
Probable space group: P C C A
;
_chemical_formula_sum "Si O2"
_cell_formula_units_Z 60
_cell_length_a 12.870379
_cell_length_b 9.283102
_cell_length_c 23.999303
_cell_angle_alpha 90.000000
_cell_angle_beta 90.000000
_cell_angle_gamma 90.000000
_cell_volume 2867.365709
_symmetry_space_group_name_H-M "P C C A"
_symmetry_group_IT_number 54
_symmetry_cell_setting 'orthorhombic'
loop_
_space_group_symop_operation_xyz
x,y,z
1/2-x,-y,z
1/2+x,-y,1/2-z
-x,y,1/2-z
-x,-y,-z
1/2+x,y,-z
1/2-x,y,1/2+z
x,-y,1/2+z
loop_
_atom_site_type_symbol
_atom_site_label
_atom_site_fract_x
_atom_site_fract_y
_atom_site_fract_z
Si Si1 0.641697 0.323950 0.104080
Si Si2 0.621455 0.341286 0.590106
Si Si3 0.008657 0.914879 0.083834
Si Si4 0.630550 0.993917 0.808568
Si Si5 0.885949 0.270960 0.732466
Si Si6 0.750000 0.500000 0.796544
Si Si7 0.549206 0.319884 0.810647
Si Si8 0.643046 0.090643 0.523237
O O1 0.763090 0.283700 0.104997
O O2 0.629949 0.487199 0.085052
O O3 0.560370 0.225460 0.071450
O O4 0.614505 0.298874 0.167768
O O5 0.535689 0.320866 0.639167
O O6 0.618602 0.261065 0.530434
O O7 0.063441 0.916803 0.143313
O O8 0.091562 0.947012 0.035793
O O9 0.922335 0.037668 0.076898
O O10 0.626874 0.893541 0.753649
O O11 0.750000 0.000000 0.826865
O O12 0.589643 0.156019 0.802796
O O13 0.798655 0.370595 0.760348
O O14 0.000000 0.317308 0.750000
O O15 0.648280 0.424352 0.824749
O O16 0.500000 0.360122 0.750000
O O17 0.750000 0.000000 0.524981
#
# Coordination Sequence:
#
# PCOD9424183 Si02
#       8
#     8   8   8   8   8   4   8   8
#     4  11  23  42  67 102 134 173 223 282 336 406
#     4  11  24  43  71  98 133 176 228 278 338 407
#     4  11  24  43  70  96 134 175 224 289 346 398
#     4  12  25  43  63  99 138 178 227 276 330 408
#     4  12  23  41  65  94 136 178 218 267 331 400
#     4  12  24  42  62  92 140 184 218 274 328 398
#     4  12  25  42  64  97 136 181 228 273 335 407
#     4  11  23  45  71  97 128 175 231 289 346 404
#
# _framework density 20.925128999999998
#
# number of rings (size 3 to 8) (size 9 to 14) (size 15 to 20)
#    0.000    0.533    5.333    4.400    0.000    0.533 
#    0.000    0.000    0.000    0.000    0.000    0.000 
#    0.000    0.000    0.000    0.000    0.000    0.000 
#
# Total GULP energy -334299.028515 kJ/mol
# GULP energy per Si atom -5571.650475 kJ/mol
# Density = 2.087750 g / cm^3
# Si number density = 20.925129 Si / 1000 Ang^3
#
#
#
# Elastic Constant Matrix: (Units=GPa)
#
#
# Indices 1 2 3 4 5 6 
#
# 1 132.3742 32.6053 14.6970 0.0000 0.0000 0.0000
# 2 32.6053 110.1298 8.4116 0.0000 0.0000 0.0000
# 3 14.6970 8.4116 16.8400 0.0000 0.0000 0.0000
# 4 0.0000 0.0000 0.0000 13.0552 0.0000 0.0000
# 5 0.0000 0.0000 0.0000 0.0000 16.6573 0.0000
# 6 0.0000 0.0000 0.0000 0.0000 0.0000 36.4531
#
#
#
# Elastic Compliance Matrix: (Units=1/GPa)
#
#
# Indices 1 2 3 4 5 6 
#
# 1 0.008809 -0.002101 -0.006638 0.000000 0.000000 0.000000
# 2 -0.002101 0.009941 -0.003132 0.000000 0.000000 0.000000
# 3 -0.006638 -0.003132 0.066741 0.000000 0.000000 0.000000
# 4 0.000000 0.000000 0.000000 0.076598 0.000000 0.000000
# 5 0.000000 0.000000 0.000000 0.000000 0.060034 0.000000
# 6 0.000000 0.000000 0.000000 0.000000 0.000000 0.027433
#
#
# Mechanical properties :
#
#
# Convention : Reuss Voigt Hill
#
# Bulk Modulus (GPa) = 16.19494 41.19687 28.69590
# Shear Modulus (GPa) = 17.01371 26.80846 21.91109
#
# Velocity S-wave (km/s) = 2.85454 3.58321 3.23943
# Velocity P-wave (km/s) = 4.31518 6.07040 5.26643
#
# Compressibility (1/GPa) = 0.06174768
#
# Stress axis : x y z
#
# Youngs Moduli (GPa) = 113.52199 100.58911 14.98340
#
# Poissons Ratio (x) = 0.21133 0.09947
# Poissons Ratio (y) = 0.23850 0.04693
# Poissons Ratio (z) = 0.75361 0.31507
#
# Static dielectric constant tensor:
#      x y z
#    x 1.834400 0.000000 0.000000 
#    y 0.000000 1.852090 0.000000 
#    z 0.000000 0.000000 3.295940 
# 
# From -- ./inp_files/26304.got.cif
#   From: 2010.05.17/outbox.cif.g08.bks.cpg/sg54_14_cif.got.tgz:26304.got - 2010.06.03 13:09:01.
