data_PCOD9424669
_publ_section_title
;
Structure prediction by ZEFSAII (Michael W. Deem and Ramdas Pophale) SiO2 
 PCOD9424669
Probable space group: P C C A
;
_chemical_formula_sum "Si O2"
_cell_formula_units_Z 60
_cell_length_a 27.000000
_cell_length_b 9.000000
_cell_length_c 12.000000
_cell_angle_alpha 90.000000
_cell_angle_beta 90.000000
_cell_angle_gamma 90.000000
_cell_volume 2916.000000
_symmetry_space_group_name_H-M "P C C A"
_symmetry_group_IT_number 54
_symmetry_cell_setting 'orthorhombic'
loop_
_space_group_symop_operation_xyz
x,y,z
1/2-x,-y,z
1/2+x,-y,1/2-z
-x,y,1/2-z
-x,-y,-z
1/2+x,y,-z
1/2-x,y,1/2+z
x,-y,1/2+z
loop_
_atom_site_type_symbol
_atom_site_label
_atom_site_fract_x
_atom_site_fract_y
_atom_site_fract_z
Si Si1 0.670351 0.785801 0.835400
Si Si2 0.335771 0.452089 0.611327
Si Si3 0.606878 0.203852 0.984868
Si Si4 0.750000 0.500000 0.564120
Si Si5 0.921426 0.026873 0.793104
Si Si6 0.275732 0.763840 0.271978
Si Si7 0.481118 0.087254 0.394283
Si Si8 0.191677 0.026556 0.453244
O O1 0.658245 0.610927 0.830518
O O2 0.627195 0.876844 0.776322
O O3 0.725558 0.812318 0.789378
O O4 0.671047 0.850799 0.960792
O O5 0.381326 0.368251 0.556174
O O6 0.296901 0.483342 0.514055
O O7 0.310625 0.329991 0.691149
O O8 0.590814 0.102429 0.879432
O O9 0.656521 0.117999 0.031289
O O10 0.560510 0.203152 0.068622
O O11 0.743084 0.353778 0.636914
O O12 0.947998 0.974368 0.680652
O O13 0.966696 0.130435 0.838534
O O14 0.304935 0.895708 0.332558
O O15 0.500000 0.000000 0.500000
O O16 0.250000 0.000000 0.480589
#
# Coordination Sequence:
#
# PCOD9424669 Si02
#       8
#     8   8   8   4   8   8   8   8
#     4  11  22  40  59  89 123 163 206 251 305 365
#     4  12  23  39  57  91 128 162 210 243 303 377
#     4  10  23  37  62  90 120 157 204 256 305 365
#     4  12  20  38  54  80 122 174 200 234 288 360
#     4   9  21  39  64  88 118 155 208 257 309 367
#     4  12  22  35  58  81 126 168 200 240 296 359
#     4   9  19  41  64  89 117 155 201 258 321 361
#     4  11  24  38  55  89 124 160 205 253 290 357
#
# _framework density 20.576132000000001
#
# number of rings (size 3 to 8) (size 9 to 14) (size 15 to 20)
#    0.000    1.333    4.000    1.600    5.600    1.600 
#    0.000    0.667    0.000    6.400    0.000    0.000 
#    0.000    0.000    0.000    0.000    0.000    0.000 
#
# Total GULP energy -334726.459291 kJ/mol
# GULP energy per Si atom -5578.774322 kJ/mol
# Density = 2.052930 g / cm^3
# Si number density = 20.576132 Si / 1000 Ang^3
#
#
#
# Elastic Constant Matrix: (Units=GPa)
#
#
# Indices 1 2 3 4 5 6 
#
# 1 82.8741 28.1259 13.6160 0.0000 0.0000 0.0000
# 2 28.1259 68.9207 25.8837 0.0000 0.0000 0.0000
# 3 13.6160 25.8837 49.9590 0.0000 0.0000 0.0000
# 4 0.0000 0.0000 0.0000 18.5869 0.0000 0.0000
# 5 0.0000 0.0000 0.0000 0.0000 36.6641 0.0000
# 6 0.0000 0.0000 0.0000 0.0000 0.0000 17.4005
#
#
#
# Elastic Compliance Matrix: (Units=1/GPa)
#
#
# Indices 1 2 3 4 5 6 
#
# 1 0.014052 -0.005334 -0.001066 0.000000 0.000000 0.000000
# 2 -0.005334 0.020039 -0.008929 0.000000 0.000000 0.000000
# 3 -0.001066 -0.008929 0.024933 0.000000 0.000000 0.000000
# 4 0.000000 0.000000 0.000000 0.053801 0.000000 0.000000
# 5 0.000000 0.000000 0.000000 0.000000 0.027275 0.000000
# 6 0.000000 0.000000 0.000000 0.000000 0.000000 0.057470
#
#
# Mechanical properties :
#
#
# Convention : Reuss Voigt Hill
#
# Bulk Modulus (GPa) = 35.25282 37.44498 36.34890
# Shear Modulus (GPa) = 21.03640 23.47218 22.25429
#
# Velocity S-wave (km/s) = 3.20092 3.38116 3.29227
# Velocity P-wave (km/s) = 5.55259 5.78626 5.67063
#
# Compressibility (1/GPa) = 0.02836652
#
# Stress axis : x y z
#
# Youngs Moduli (GPa) = 71.16449 49.90155 40.10757
#
# Poissons Ratio (x) = 0.26618 0.04276
# Poissons Ratio (y) = 0.37960 0.35811
# Poissons Ratio (z) = 0.07587 0.44555
#
# Static dielectric constant tensor:
#      x y z
#    x 1.735980 0.000000 0.000000 
#    y 0.000000 1.710290 0.000000 
#    z 0.000000 0.000000 1.903970 
# 
# From -- ./inp_files/10334.got.cif
#   From: 2010.05.17/outbox.ucp.g08.bks.cvg/sg54_6_cif.got.tgz:10334.got - 2010.06.11 16:34:40.
