data_PCOD9424928
_publ_section_title
;
Structure prediction by ZEFSAII (Michael W. Deem and Ramdas Pophale) SiO2 
 PCOD9424928
Probable space group: P B A M
;
_chemical_formula_sum "Si O2"
_cell_formula_units_Z 48
_cell_length_a 25.034997
_cell_length_b 8.571603
_cell_length_c 14.027583
_cell_angle_alpha 90.000000
_cell_angle_beta 90.000000
_cell_angle_gamma 90.000000
_cell_volume 3010.179813
_symmetry_space_group_name_H-M "P B A M"
_symmetry_group_IT_number 55
_symmetry_cell_setting 'orthorhombic'
loop_
_space_group_symop_operation_xyz
x,y,z
-x,-y,z
1/2+x,1/2-y,-z
1/2-x,1/2+y,-z
-x,-y,-z
x,y,-z
1/2-x,1/2+y,z
1/2+x,1/2-y,z
loop_
_atom_site_type_symbol
_atom_site_label
_atom_site_fract_x
_atom_site_fract_y
_atom_site_fract_z
Si Si1 0.797112 0.849336 0.114825
Si Si2 0.440303 0.926214 0.608076
Si Si3 0.183007 0.789278 0.884077
Si Si4 0.585874 0.882476 0.218455
Si Si5 0.482197 0.671632 0.743988
Si Si6 0.593615 0.200795 0.113294
O O1 0.738431 0.794748 0.144262
O O2 0.845317 0.735457 0.144099
O O3 0.810816 0.027573 0.138891
O O4 0.795925 0.842442 0.000000
O O5 0.420758 0.913001 0.500000
O O6 0.449616 0.762279 0.661634
O O7 0.500000 0.000000 0.605068
O O8 0.406173 0.038044 0.677504
O O9 0.134467 0.712221 0.827165
O O10 0.175577 0.773200 0.000000
O O11 0.534130 0.773672 0.229130
O O12 0.575787 0.031597 0.150478
O O13 0.500000 0.500000 0.715872
O O14 0.443933 0.672952 0.835984
O O15 0.590245 0.209594 0.000000
#
# Coordination Sequence:
#
# PCOD9424928 Si02
#       6
#     8   8   8   8   8   8
#     4   9  18  30  45  66  92 126 163 195 226 264
#     4   8  16  32  50  67  89 116 148 188 232 276
#     4  10  18  29  45  67  95 123 156 194 228 268
#     4  10  19  30  47  69  91 121 155 191 236 283
#     4  10  20  31  45  69  96 122 157 195 237 289
#     4  10  19  31  45  63  93 129 162 194 228 273
#
# _framework density 15.945892000000001
#
# number of rings (size 3 to 8) (size 9 to 14) (size 15 to 20)
#    0.000    2.500    0.000    4.000    0.000    5.333 
#    0.000    0.000    0.000    0.000    0.000   10.500 
#    0.000    0.000    0.000    0.000    0.000    0.000 
#
# Total GULP energy -267411.587688 kJ/mol
# GULP energy per Si atom -5571.074744 kJ/mol
# Density = 1.590960 g / cm^3
# Si number density = 15.945892 Si / 1000 Ang^3
#
#
#
# Elastic Constant Matrix: (Units=GPa)
#
#
# Indices 1 2 3 4 5 6 
#
# 1 68.1130 25.4228 31.8676 0.0000 0.0000 0.0000
# 2 25.4228 55.2416 19.5667 0.0000 0.0000 0.0000
# 3 31.8676 19.5667 89.2612 0.0000 0.0000 0.0000
# 4 0.0000 0.0000 0.0000 11.6702 0.0000 0.0000
# 5 0.0000 0.0000 0.0000 0.0000 8.1339 0.0000
# 6 0.0000 0.0000 0.0000 0.0000 0.0000 28.4631
#
#
#
# Elastic Compliance Matrix: (Units=1/GPa)
#
#
# Indices 1 2 3 4 5 6 
#
# 1 0.019974 -0.007228 -0.005547 0.000000 0.000000 0.000000
# 2 -0.007228 0.022242 -0.002295 0.000000 0.000000 0.000000
# 3 -0.005547 -0.002295 0.013686 0.000000 0.000000 0.000000
# 4 0.000000 0.000000 0.000000 0.085689 0.000000 0.000000
# 5 0.000000 0.000000 0.000000 0.000000 0.122942 0.000000
# 6 0.000000 0.000000 0.000000 0.000000 0.000000 0.035133
#
#
# Mechanical properties :
#
#
# Convention : Reuss Voigt Hill
#
# Bulk Modulus (GPa) = 38.81520 40.70335 39.75927
# Shear Modulus (GPa) = 14.77570 18.70401 16.73985
#
# Velocity S-wave (km/s) = 3.04734 3.42858 3.24356
# Velocity P-wave (km/s) = 6.06435 6.42299 6.24625
#
# Compressibility (1/GPa) = 0.02576311
#
# Stress axis : x y z
#
# Youngs Moduli (GPa) = 50.06429 44.96099 73.06494
#
# Poissons Ratio (x) = 0.32497 0.40527
# Poissons Ratio (y) = 0.36185 0.16769
# Poissons Ratio (z) = 0.27769 0.10319
#
# Static dielectric constant tensor:
#      x y z
#    x 1.536580 0.000000 0.000000 
#    y 0.000000 1.551880 0.000000 
#    z 0.000000 0.000000 1.525910 
# 
# From -- ./inp_files/12316.got.cif
#   From: 2010.05.17/outbox.cif.g08.bks.cpg/sg55_7_cif.got.tgz:12316.got - 2010.06.03 13:27:54.
