data_PCOD9424904
_publ_section_title
;
Structure prediction by ZEFSAII (Michael W. Deem and Ramdas Pophale) SiO2 
 PCOD9424904
Probable space group: P B A M
;
_chemical_formula_sum "Si O2"
_cell_formula_units_Z 48
_cell_length_a 24.468622
_cell_length_b 14.352682
_cell_length_c 7.614977
_cell_angle_alpha 90.000000
_cell_angle_beta 90.000000
_cell_angle_gamma 90.000000
_cell_volume 2674.306442
_symmetry_space_group_name_H-M "P B A M"
_symmetry_group_IT_number 55
_symmetry_cell_setting 'orthorhombic'
loop_
_space_group_symop_operation_xyz
x,y,z
-x,-y,z
1/2+x,1/2-y,-z
1/2-x,1/2+y,-z
-x,-y,-z
x,y,-z
1/2-x,1/2+y,z
1/2+x,1/2-y,z
loop_
_atom_site_type_symbol
_atom_site_label
_atom_site_fract_x
_atom_site_fract_y
_atom_site_fract_z
Si Si1 0.055957 0.886668 0.710928
Si Si2 0.733591 0.115040 0.210632
Si Si3 0.323805 0.696902 0.710168
Si Si4 0.214532 0.589385 0.204076
Si Si5 0.433538 0.599087 0.285490
Si Si6 0.661727 0.726669 0.209793
O O1 0.054025 0.890147 0.500000
O O2 0.101783 0.812647 0.759432
O O3 0.993903 0.868474 0.771631
O O4 0.072419 0.991056 0.769908
O O5 0.690090 0.196419 0.246026
O O6 0.791837 0.154935 0.277632
O O7 0.717363 0.013943 0.282508
O O8 0.739173 0.105182 0.000000
O O9 0.321416 0.686294 0.500000
O O10 0.274984 0.634196 0.786947
O O11 0.382500 0.660644 0.772853
O O12 0.175542 0.670188 0.280634
O O13 0.198709 0.578088 0.000000
O O14 0.433306 0.600184 0.500000
O O15 0.669995 0.731780 0.000000
#
# Coordination Sequence:
#
# PCOD9424904 Si02
#       6
#     8   8   8   8   8   8
#     4   9  16  29  47  63  85 118 148 171 210 266
#     4   9  18  32  47  63  88 122 151 176 215 264
#     4  10  18  28  45  69  93 113 142 185 224 258
#     4   9  18  32  47  63  89 122 149 176 216 265
#     4   8  16  29  44  64  89 116 143 175 215 259
#     4   9  17  28  43  66  90 109 139 183 220 250
#
# _framework density 17.94858
#
# number of rings (size 3 to 8) (size 9 to 14) (size 15 to 20)
#    0.000    3.000    0.000    3.500    0.000    3.333 
#    0.000    4.167    0.000    1.000    0.000    7.000 
#    0.000    0.000    0.000    0.000    0.000    0.000 
#
# Total GULP energy -267498.230447 kJ/mol
# GULP energy per Si atom -5572.879801 kJ/mol
# Density = 1.790773 g / cm^3
# Si number density = 17.948580 Si / 1000 Ang^3
#
#
#
# Elastic Constant Matrix: (Units=GPa)
#
#
# Indices 1 2 3 4 5 6 
#
# 1 114.4051 76.2670 -17.1230 0.0000 0.0000 0.0000
# 2 76.2670 140.0130 -8.3611 0.0000 0.0000 0.0000
# 3 -17.1230 -8.3611 30.4629 0.0000 0.0000 0.0000
# 4 0.0000 0.0000 0.0000 5.5725 0.0000 0.0000
# 5 0.0000 0.0000 0.0000 0.0000 21.1696 0.0000
# 6 0.0000 0.0000 0.0000 0.0000 0.0000 15.5507
#
#
#
# Elastic Compliance Matrix: (Units=1/GPa)
#
#
# Indices 1 2 3 4 5 6 
#
# 1 0.014795 -0.007689 0.006206 0.000000 0.000000 0.000000
# 2 -0.007689 0.011257 -0.001232 0.000000 0.000000 0.000000
# 3 0.006206 -0.001232 0.035977 0.000000 0.000000 0.000000
# 4 0.000000 0.000000 0.000000 0.179451 0.000000 0.000000
# 5 0.000000 0.000000 0.000000 0.000000 0.047238 0.000000
# 6 0.000000 0.000000 0.000000 0.000000 0.000000 0.064306
#
#
# Mechanical properties :
#
#
# Convention : Reuss Voigt Hill
#
# Bulk Modulus (GPa) = 17.66793 42.93852 30.30322
# Shear Modulus (GPa) = 13.25138 24.06511 18.65824
#
# Velocity S-wave (km/s) = 2.72011 3.66564 3.22769
# Velocity P-wave (km/s) = 4.44188 6.47232 5.55073
#
# Compressibility (1/GPa) = 0.05659973
#
# Stress axis : x y z
#
# Youngs Moduli (GPa) = 67.58938 88.83618 27.79551
#
# Poissons Ratio (x) = 0.68302 -0.17250
# Poissons Ratio (y) = 0.51966 0.03425
# Poissons Ratio (z) = -0.41946 0.10945
#
# Static dielectric constant tensor:
#      x y z
#    x 1.603370 0.000000 0.000000 
#    y 0.000000 1.625970 0.000000 
#    z 0.000000 0.000000 1.689470 
# 
# From -- ./inp_files/4056.got.cif
#   From: 2010.05.17/outbox.cif.g08.bks.cpg/sg55_3_cif.got.tgz:4056.got - 2010.06.03 13:27:54.
