data_PCOD9424950
_publ_section_title
;
Structure prediction by ZEFSAII (Michael W. Deem and Ramdas Pophale) SiO2 
 PCOD9424950
Probable space group: P B A M
;
_chemical_formula_sum "Si O2"
_cell_formula_units_Z 64
_cell_length_a 15.591613
_cell_length_b 20.839364
_cell_length_c 8.091646
_cell_angle_alpha 90.000000
_cell_angle_beta 90.000000
_cell_angle_gamma 90.000000
_cell_volume 2629.131943
_symmetry_space_group_name_H-M "P B A M"
_symmetry_group_IT_number 55
_symmetry_cell_setting 'orthorhombic'
loop_
_space_group_symop_operation_xyz
x,y,z
-x,-y,z
1/2+x,1/2-y,-z
1/2-x,1/2+y,-z
-x,-y,-z
x,y,-z
1/2-x,1/2+y,z
1/2+x,1/2-y,z
loop_
_atom_site_type_symbol
_atom_site_label
_atom_site_fract_x
_atom_site_fract_y
_atom_site_fract_z
Si Si1 0.309019 0.877181 0.318072
Si Si2 0.057822 0.559321 0.196112
Si Si3 0.093355 0.976858 0.297039
Si Si4 0.369886 0.698751 0.197486
Si Si5 0.963538 0.674659 0.814073
Si Si6 0.694110 0.750018 0.309873
Si Si7 0.740961 0.975964 0.687549
Si Si8 0.048245 0.837815 0.699343
O O1 0.350211 0.870270 0.500000
O O2 0.382600 0.874357 0.183013
O O3 0.243738 0.818589 0.299902
O O4 0.267840 0.946698 0.318691
O O5 0.157750 0.548308 0.221821
O O6 0.000000 0.500000 0.263589
O O7 0.034414 0.629564 0.267277
O O8 0.040671 0.562837 0.000000
O O9 0.100024 0.977546 0.500000
O O10 0.834883 0.973064 0.235229
O O11 0.095626 0.902561 0.242560
O O12 0.000000 0.000000 0.251815
O O13 0.415659 0.764690 0.263985
O O14 0.268724 0.701140 0.245480
O O15 0.447717 0.653760 0.256499
O O16 0.369513 0.699634 0.000000
O O17 0.988665 0.692379 0.000000
O O18 0.680770 0.767719 0.500000
O O19 0.600296 0.726748 0.240442
O O20 0.739633 0.950407 0.500000
O O21 0.054085 0.835791 0.500000
#
# Coordination Sequence:
#
# PCOD9424950 Si02
#       8
#     8   8   8   8   8   8   8   8
#     4   9  15  25  45  72 100 126 164 215 258 297
#     4  10  19  30  46  70 102 141 178 211 255 316
#     4   9  18  35  59  84 109 137 173 223 276 324
#     4  10  21  35  53  80 111 144 183 227 274 324
#     4   9  18  32  46  66 103 143 176 207 252 312
#     4   9  17  32  54  79 105 136 178 225 270 317
#     4  10  18  29  48  77 104 131 172 218 265 310
#     4  10  19  35  60  85 108 140 181 224 274 327
#
# _framework density 24.342635000000001
#
# number of rings (size 3 to 8) (size 9 to 14) (size 15 to 20)
#    0.000    2.500    2.500    0.375    0.000    1.750 
#    0.000    1.875    0.000    6.000    0.000    0.000 
#    0.000    0.000    0.000    0.000    0.000    0.000 
#
# Total GULP energy -356341.694535 kJ/mol
# GULP energy per Si atom -5567.838977 kJ/mol
# Density = 2.428723 g / cm^3
# Si number density = 24.342635 Si / 1000 Ang^3
#
#
#
# Elastic Constant Matrix: (Units=GPa)
#
#
# Indices 1 2 3 4 5 6 
#
# 1 139.2458 12.9114 20.5251 0.0000 0.0000 0.0000
# 2 12.9114 34.0382 -0.5091 0.0000 0.0000 0.0000
# 3 20.5251 -0.5091 39.5217 0.0000 0.0000 0.0000
# 4 0.0000 0.0000 0.0000 8.5380 0.0000 0.0000
# 5 0.0000 0.0000 0.0000 0.0000-7350.5365 0.0000
# 6 0.0000 0.0000 0.0000 0.0000 0.0000 42.8476
#
#
#
# Elastic Compliance Matrix: (Units=1/GPa)
#
#
# Indices 1 2 3 4 5 6 
#
# 1 0.008098 -0.003135 -0.004246 0.000000 0.000000 0.000000
# 2 -0.003135 0.030598 0.002022 0.000000 0.000000 0.000000
# 3 -0.004246 0.002022 0.027534 0.000000 0.000000 0.000000
# 4 0.000000 0.000000 0.000000 0.117123 0.000000 0.000000
# 5 0.000000 0.000000 0.000000 0.000000 -0.000136 0.000000
# 6 0.000000 0.000000 0.000000 0.000000 0.000000 0.023339
#
#
# Mechanical properties :
#
#
# Convention : Reuss Voigt Hill
#
# Bulk Modulus (GPa) = 18.01402 30.96227 24.48815
# Shear Modulus (GPa) = 21.20641 -1447.83828 -713.31594
#
# Velocity S-wave (km/s) = 2.95475 -24.41446 -17.13673
# Velocity P-wave (km/s) = 4.36543 27.96440 19.53139
#
# Compressibility (1/GPa) = 0.05551233
#
# Stress axis : x y z
#
# Youngs Moduli (GPa) = 123.48515 32.68158 36.31903
#
# Poissons Ratio (x) = 0.10247 0.15421
# Poissons Ratio (y) = 0.38716 -0.07345
# Poissons Ratio (z) = 0.52433 -0.06610
#
# Static dielectric constant tensor:
#      x y z
#    x 2.112460 0.000000 0.000000 
#    y 0.000000 2.070010 0.000000 
#    z 0.000000 0.000000 1.907100 
# 
# From -- ./inp_files/6495.got.cif
#   From: 2010.05.17/outbox.cif.g08.bks.cpg/sg55_4_cif.got.tgz:6495.got - 2010.06.03 13:27:54.
