data_PCOD9424849
_publ_section_title
;
Structure prediction by ZEFSAII (Michael W. Deem and Ramdas Pophale) SiO2 
 PCOD9424849
Probable space group: P B A M
;
_chemical_formula_sum "Si O2"
_cell_formula_units_Z 56
_cell_length_a 16.003072
_cell_length_b 7.418601
_cell_length_c 19.878139
_cell_angle_alpha 90.000000
_cell_angle_beta 90.000000
_cell_angle_gamma 90.000000
_cell_volume 2359.940731
_symmetry_space_group_name_H-M "P B A M"
_symmetry_group_IT_number 55
_symmetry_cell_setting 'orthorhombic'
loop_
_space_group_symop_operation_xyz
x,y,z
-x,-y,z
1/2+x,1/2-y,-z
1/2-x,1/2+y,-z
-x,-y,-z
x,y,-z
1/2-x,1/2+y,z
1/2+x,1/2-y,z
loop_
_atom_site_type_symbol
_atom_site_label
_atom_site_fract_x
_atom_site_fract_y
_atom_site_fract_z
Si Si1 0.877276 0.618824 0.576836
Si Si2 0.190418 0.028728 0.273571
Si Si3 0.797918 0.278418 0.368762
Si Si4 0.815602 0.109794 0.122879
Si Si5 0.366329 0.771488 0.924328
Si Si6 0.970115 0.796503 0.305910
Si Si7 0.519141 0.721516 0.165809
O O1 0.899278 0.655235 0.500000
O O2 0.789266 0.722406 0.595002
O O3 0.854597 0.408249 0.587326
O O4 0.948622 0.684414 0.628022
O O5 0.164840 0.899858 0.336066
O O6 0.197464 0.945940 0.200798
O O7 0.275294 0.109273 0.301723
O O8 0.120779 0.181820 0.270506
O O9 0.725394 0.159297 0.095548
O O10 0.892731 0.248890 0.128206
O O11 0.852130 0.944049 0.080753
O O12 0.442134 0.808946 0.873346
O O13 0.387421 0.826213 0.000000
O O14 0.025431 0.723298 0.244317
O O15 0.000000 0.000000 0.321214
O O16 0.500000 0.500000 0.168435
#
# Coordination Sequence:
#
# PCOD9424849 Si02
#       7
#     8   8   8   8   8   8   8
#     4  10  20  34  55  82 119 159 197 249 314 379
#     4  10  17  33  56  85 111 148 195 257 300 350
#     4   9  20  31  54  85 116 149 196 251 309 365
#     4  11  21  38  63  86 123 156 203 255 306 357
#     4  11  23  37  60  92 124 161 203 244 303 374
#     4  10  18  36  58  81 112 150 209 257 300 360
#     4   9  19  38  61  87 117 159 206 254 294 360
#
# _framework density 23.729409
#
# number of rings (size 3 to 8) (size 9 to 14) (size 15 to 20)
#    0.000    2.000    4.286    1.714    4.000    3.429 
#    0.000    2.143    0.000    2.571    0.000    0.000 
#    0.000    0.000    0.000    0.000    0.000    0.000 
#
# Total GULP energy -312733.357429 kJ/mol
# GULP energy per Si atom -5584.524240 kJ/mol
# Density = 2.367540 g / cm^3
# Si number density = 23.729409 Si / 1000 Ang^3
#
#
#
# Elastic Constant Matrix: (Units=GPa)
#
#
# Indices 1 2 3 4 5 6 
#
# 1 103.5033 4.9294 34.1426 0.0000 0.0000 0.0000
# 2 4.9294 37.3786 7.2063 0.0000 0.0000 0.0000
# 3 34.1426 7.2063 133.0374 0.0000 0.0000 0.0000
# 4 0.0000 0.0000 0.0000 5.9864 0.0000 0.0000
# 5 0.0000 0.0000 0.0000 0.0000 21.8433 0.0000
# 6 0.0000 0.0000 0.0000 0.0000 0.0000 35.4872
#
#
#
# Elastic Compliance Matrix: (Units=1/GPa)
#
#
# Indices 1 2 3 4 5 6 
#
# 1 0.010584 -0.000881 -0.002668 0.000000 0.000000 0.000000
# 2 -0.000881 0.027109 -0.001242 0.000000 0.000000 0.000000
# 3 -0.002668 -0.001242 0.008269 0.000000 0.000000 0.000000
# 4 0.000000 0.000000 0.000000 0.167046 0.000000 0.000000
# 5 0.000000 0.000000 0.000000 0.000000 0.045781 0.000000
# 6 0.000000 0.000000 0.000000 0.000000 0.000000 0.028179
#
#
# Mechanical properties :
#
#
# Convention : Reuss Voigt Hill
#
# Bulk Modulus (GPa) = 27.48950 40.71954 34.10452
# Shear Modulus (GPa) = 16.19817 27.83945 22.01881
#
# Velocity S-wave (km/s) = 2.61553 3.42892 3.04947
# Velocity P-wave (km/s) = 4.55314 5.73358 5.17711
#
# Compressibility (1/GPa) = 0.03637752
#
# Stress axis : x y z
#
# Youngs Moduli (GPa) = 94.48456 36.88811 120.93644
#
# Poissons Ratio (x) = 0.03251 0.32271
# Poissons Ratio (y) = 0.08327 0.15023
# Poissons Ratio (z) = 0.25213 0.04582
#
# Static dielectric constant tensor:
#      x y z
#    x 1.980030 0.000000 0.000000 
#    y 0.000000 2.035190 0.000000 
#    z 0.000000 0.000000 1.875560 
# 
# From -- ./inp_files/23056.got.cif
#   From: 2010.05.17/outbox.cif.g08.bks.cpg/sg55_12_cif.got.tgz:23056.got - 2010.06.03 13:27:54.
