data_PCOD9424228
_publ_section_title
;
Structure prediction by ZEFSAII (Michael W. Deem and Ramdas Pophale) SiO2 
 PCOD9424228
Probable space group: P C C A
;
_chemical_formula_sum "Si O2"
_cell_formula_units_Z 36
_cell_length_a 7.078060
_cell_length_b 9.447190
_cell_length_c 21.748484
_cell_angle_alpha 90.000000
_cell_angle_beta 90.000000
_cell_angle_gamma 90.000000
_cell_volume 1454.272792
_symmetry_space_group_name_H-M "P C C A"
_symmetry_group_IT_number 54
_symmetry_cell_setting 'orthorhombic'
loop_
_space_group_symop_operation_xyz
x,y,z
1/2-x,-y,z
1/2+x,-y,1/2-z
-x,y,1/2-z
-x,-y,-z
1/2+x,y,-z
1/2-x,y,1/2+z
x,-y,1/2+z
loop_
_atom_site_type_symbol
_atom_site_label
_atom_site_fract_x
_atom_site_fract_y
_atom_site_fract_z
Si Si1 0.513511 0.108768 0.445195
Si Si2 0.057088 0.427161 0.935200
Si Si3 0.750000 0.000000 0.159095
Si Si4 0.275105 0.229814 0.240591
Si Si5 0.250000 0.500000 0.168477
Si Si6 0.250000 0.000000 0.133885
O O1 0.418138 0.259982 0.449295
O O2 0.433285 0.027856 0.383685
O O3 0.725102 0.123017 0.421928
O O4 0.500000 0.000000 0.500000
O O5 0.250000 0.500000 0.915400
O O6 0.911725 0.447791 0.879068
O O7 0.000000 0.500000 0.000000
O O8 0.715362 0.859489 0.199000
O O9 0.500000 0.252231 0.250000
O O10 0.192105 0.374850 0.214998
O O11 0.238162 0.121431 0.186330
#
# Coordination Sequence:
#
# PCOD9424228 Si02
#       6
#     8   8   4   8   4   4
#     4  12  28  48  80 117 154 208 275 337 421 499
#     4  12  29  52  80 122 172 216 279 347 431 514
#     4  11  25  50  76 108 155 197 266 336 402 483
#     4  11  24  51  73 111 158 213 265 334 403 495
#     4  12  26  54  82 114 170 218 280 342 424 508
#     4  11  23  46  74 102 159 193 272 328 390 483
#
# _framework density 24.754640999999999
#
# number of rings (size 3 to 8) (size 9 to 14) (size 15 to 20)
#    0.000    0.444    5.556    0.667    9.333    0.000 
#   12.000    0.000    0.000    0.000    0.000    0.000 
#    0.000    0.000    0.000    0.000    0.000    0.000 
#
# Total GULP energy -200589.518102 kJ/mol
# GULP energy per Si atom -5571.931058 kJ/mol
# Density = 2.469830 g / cm^3
# Si number density = 24.754641 Si / 1000 Ang^3
#
#
#
# Elastic Constant Matrix: (Units=GPa)
#
#
# Indices 1 2 3 4 5 6 
#
# 1 71.3030 11.5218 45.5444 0.0000 0.0000 0.0000
# 2 11.5218 212.9303 99.9306 0.0000 0.0000 0.0000
# 3 45.5444 99.9306 188.6198 0.0000 0.0000 0.0000
# 4 0.0000 0.0000 0.0000 37.2917 0.0000 0.0000
# 5 0.0000 0.0000 0.0000 0.0000 47.8045 0.0000
# 6 0.0000 0.0000 0.0000 0.0000 0.0000 -363.5411
#
#
#
# Elastic Compliance Matrix: (Units=1/GPa)
#
#
# Indices 1 2 3 4 5 6 
#
# 1 0.016860 0.001329 -0.004775 0.000000 0.000000 0.000000
# 2 0.001329 0.006355 -0.003688 0.000000 0.000000 0.000000
# 3 -0.004775 -0.003688 0.008408 0.000000 0.000000 0.000000
# 4 0.000000 0.000000 0.000000 0.026816 0.000000 0.000000
# 5 0.000000 0.000000 0.000000 0.000000 0.020919 0.000000
# 6 0.000000 0.000000 0.000000 0.000000 0.000000 -0.002751
#
#
# Mechanical properties :
#
#
# Convention : Reuss Voigt Hill
#
# Bulk Modulus (GPa) = 57.61911 87.42742 72.52326
# Shear Modulus (GPa) = 51.72755 -34.63190 8.54782
#
# Velocity S-wave (km/s) = 4.57618 -3.74439 1.86025
# Velocity P-wave (km/s) = 7.15881 4.08661 5.82876
#
# Compressibility (1/GPa) = 0.01735535
#
# Stress axis : x y z
#
# Youngs Moduli (GPa) = 59.31227 157.35134 118.92837
#
# Poissons Ratio (x) = -0.20906 0.56787
# Poissons Ratio (y) = -0.07880 0.43858
# Poissons Ratio (z) = 0.28321 0.58028
#
# Static dielectric constant tensor:
#      x y z
#    x 3.274950 0.000000 0.000000 
#    y 0.000000 1.684170 0.000000 
#    z 0.000000 0.000000 1.847600 
# 
# From -- ./inp_files/20184.got.cif
#   From: 2010.05.17/outbox.cif.g08.bks.cpg/sg54_11_cif.got.tgz:20184.got - 2010.06.03 13:09:01.
