data_PCOD9424523
_publ_section_title
;
Structure prediction by ZEFSAII (Michael W. Deem and Ramdas Pophale) SiO2 
 PCOD9424523
Probable space group: P C C A
;
_chemical_formula_sum "Si O2"
_cell_formula_units_Z 20
_cell_length_a 14.962387
_cell_length_b 4.986667
_cell_length_c 9.938889
_cell_angle_alpha 90.000000
_cell_angle_beta 90.000000
_cell_angle_gamma 90.000000
_cell_volume 741.564774
_symmetry_space_group_name_H-M "P C C A"
_symmetry_group_IT_number 54
_symmetry_cell_setting 'orthorhombic'
loop_
_space_group_symop_operation_xyz
x,y,z
1/2-x,-y,z
1/2+x,-y,1/2-z
-x,y,1/2-z
-x,-y,-z
1/2+x,y,-z
1/2-x,y,1/2+z
x,-y,1/2+z
loop_
_atom_site_type_symbol
_atom_site_label
_atom_site_fract_x
_atom_site_fract_y
_atom_site_fract_z
Si Si1 0.915643 0.969125 0.661370
Si Si2 0.662107 0.551201 0.552893
Si Si3 0.750000 0.000000 0.358671
O O1 0.884814 0.738832 0.558527
O O2 0.000000 0.890958 0.750000
O O3 0.920466 0.252662 0.587241
O O4 0.835053 0.037476 0.763335
O O5 0.750000 0.500000 0.648718
O O6 0.716769 0.744200 0.447382
#
# Coordination Sequence:
#
# PCOD9424523 Si02
#       3
#     8   8   4
#     4  12  28  48  75 111 152 193 250 309 366 441
#     4  12  24  48  71 110 144 196 256 289 375 450
#     4  12  26  46  84  96 160 200 236 318 372 424
#
# _framework density 26.969992999999999
#
# number of rings (size 3 to 8) (size 9 to 14) (size 15 to 20)
#    0.000    0.000    8.000    1.200    5.600    3.200 
#    0.000    0.000    0.000    0.000    0.000    0.000 
#    0.000    0.000    0.000    0.000    0.000    0.000 
#
# Total GULP energy -111357.564369 kJ/mol
# GULP energy per Si atom -5567.878218 kJ/mol
# Density = 2.690861 g / cm^3
# Si number density = 26.969993 Si / 1000 Ang^3
#
#
#
# Elastic Constant Matrix: (Units=GPa)
#
#
# Indices 1 2 3 4 5 6 
#
# 1 131.5720 1.0431 29.3107 0.0000 0.0000 0.0000
# 2 1.0431 234.2197 45.8502 0.0000 0.0000 0.0000
# 3 29.3107 45.8502 87.6438 0.0000 0.0000 0.0000
# 4 0.0000 0.0000 0.0000 19.8240 0.0000 0.0000
# 5 0.0000 0.0000 0.0000 0.0000 28.4129 0.0000
# 6 0.0000 0.0000 0.0000 0.0000 0.0000 18.2408
#
#
#
# Elastic Compliance Matrix: (Units=1/GPa)
#
#
# Indices 1 2 3 4 5 6 
#
# 1 0.008278 0.000563 -0.003063 0.000000 0.000000 0.000000
# 2 0.000563 0.004795 -0.002697 0.000000 0.000000 0.000000
# 3 -0.003063 -0.002697 0.013845 0.000000 0.000000 0.000000
# 4 0.000000 0.000000 0.000000 0.050444 0.000000 0.000000
# 5 0.000000 0.000000 0.000000 0.000000 0.035195 0.000000
# 6 0.000000 0.000000 0.000000 0.000000 0.000000 0.054822
#
#
# Mechanical properties :
#
#
# Convention : Reuss Voigt Hill
#
# Bulk Modulus (GPa) = 60.51632 67.31594 63.91613
# Shear Modulus (GPa) = 27.28051 38.44430 32.86240
#
# Velocity S-wave (km/s) = 3.18388 3.77961 3.49446
# Velocity P-wave (km/s) = 6.00027 6.63784 6.32709
#
# Compressibility (1/GPa) = 0.01652447
#
# Stress axis : x y z
#
# Youngs Moduli (GPa) = 120.79822 208.55638 72.22914
#
# Poissons Ratio (x) = -0.11736 0.22123
# Poissons Ratio (y) = -0.06797 0.19477
# Poissons Ratio (z) = 0.36999 0.56239
#
# Static dielectric constant tensor:
#      x y z
#    x 2.171130 0.000000 0.000000 
#    y 0.000000 2.541580 0.000000 
#    z 0.000000 0.000000 2.456510 
# 
# From -- ./inp_files/3770.got.cif
#   From: 2010.05.17/outbox.cif.g08.bks.cpg/sg54_2_cif.got.tgz:3770.got - 2010.06.03 13:09:01.
