data_PCOD9424581
_publ_section_title
;
Structure prediction by ZEFSAII (Michael W. Deem and Ramdas Pophale) SiO2 
 PCOD9424581
Probable space group: P C C A
;
_chemical_formula_sum "Si O2"
_cell_formula_units_Z 24
_cell_length_a 8.254625
_cell_length_b 12.573996
_cell_length_c 8.603348
_cell_angle_alpha 90.000000
_cell_angle_beta 90.000000
_cell_angle_gamma 90.000000
_cell_volume 892.972648
_symmetry_space_group_name_H-M "P C C A"
_symmetry_group_IT_number 54
_symmetry_cell_setting 'orthorhombic'
loop_
_space_group_symop_operation_xyz
x,y,z
1/2-x,-y,z
1/2+x,-y,1/2-z
-x,y,1/2-z
-x,-y,-z
1/2+x,y,-z
1/2-x,y,1/2+z
x,-y,1/2+z
loop_
_atom_site_type_symbol
_atom_site_label
_atom_site_fract_x
_atom_site_fract_y
_atom_site_fract_z
Si Si1 0.607513 0.424934 0.390890
Si Si2 0.101311 0.765689 0.891317
Si Si3 0.380345 0.088884 0.386937
O O1 0.750000 0.500000 0.330625
O O2 0.500000 0.384853 0.250000
O O3 0.500000 0.500000 0.500000
O O4 0.660707 0.325055 0.492794
O O5 0.257349 0.823527 0.821333
O O6 0.000000 0.718096 0.750000
O O7 0.987410 0.851316 0.982567
O O8 0.500000 0.050591 0.250000
O O9 0.250000 0.000000 0.443229
#
# Coordination Sequence:
#
# PCOD9424581 Si02
#       3
#     8   8   8
#     4  12  27  49  77 109 148 195 250 311 378 450
#     4  12  27  49  77 112 153 199 252 313 379 449
#     4  12  27  50  78 111 153 202 254 310 374 449
#
# _framework density 26.876524
#
# number of rings (size 3 to 8) (size 9 to 14) (size 15 to 20)
#    0.000    0.000    0.000    9.000    0.000   10.667 
#    0.000    8.333    0.000    0.000    0.000    0.000 
#    0.000    0.000    0.000    0.000    0.000    0.000 
#
# Total GULP energy -134770.766582 kJ/mol
# GULP energy per Si atom -5615.448608 kJ/mol
# Density = 2.681535 g / cm^3
# Si number density = 26.876524 Si / 1000 Ang^3
#
#
#
# Elastic Constant Matrix: (Units=GPa)
#
#
# Indices 1 2 3 4 5 6 
#
# 1 123.9043 45.1597 21.7826 0.0000 0.0000 0.0000
# 2 45.1597 120.3906 25.4827 0.0000 0.0000 0.0000
# 3 21.7826 25.4827 83.7768 0.0000 0.0000 0.0000
# 4 0.0000 0.0000 0.0000 42.2953 0.0000 0.0000
# 5 0.0000 0.0000 0.0000 0.0000 51.6837 0.0000
# 6 0.0000 0.0000 0.0000 0.0000 0.0000 54.2796
#
#
#
# Elastic Compliance Matrix: (Units=1/GPa)
#
#
# Indices 1 2 3 4 5 6 
#
# 1 0.009519 -0.003256 -0.001484 0.000000 0.000000 0.000000
# 2 -0.003256 0.009992 -0.002193 0.000000 0.000000 0.000000
# 3 -0.001484 -0.002193 0.012989 0.000000 0.000000 0.000000
# 4 0.000000 0.000000 0.000000 0.023643 0.000000 0.000000
# 5 0.000000 0.000000 0.000000 0.000000 0.019348 0.000000
# 6 0.000000 0.000000 0.000000 0.000000 0.000000 0.018423
#
#
# Mechanical properties :
#
#
# Convention : Reuss Voigt Hill
#
# Bulk Modulus (GPa) = 53.66779 56.99130 55.32954
# Shear Modulus (GPa) = 43.86260 45.36149 44.61204
#
# Velocity S-wave (km/s) = 4.04419 4.11271 4.07859
# Velocity P-wave (km/s) = 6.46676 6.61841 6.54302
#
# Compressibility (1/GPa) = 0.01863315
#
# Stress axis : x y z
#
# Youngs Moduli (GPa) = 105.05819 100.08139 76.98608
#
# Poissons Ratio (x) = 0.32589 0.11428
# Poissons Ratio (y) = 0.34210 0.16880
# Poissons Ratio (z) = 0.15595 0.21944
#
# Static dielectric constant tensor:
#      x y z
#    x 2.063470 0.000000 0.000000 
#    y 0.000000 2.103040 0.000000 
#    z 0.000000 0.000000 1.999130 
# 
# From -- ./inp_files/2423.got.cif
#   From: 2010.05.17/outbox.cif.g08.bks.cpg/sg54_2_cif.got.tgz:2423.got - 2010.06.03 13:09:01.
