data_PCOD9424008
_publ_section_title
;
Structure prediction by ZEFSAII (Michael W. Deem and Ramdas Pophale) SiO2 
 PCOD9424008
Probable space group: P C C A
;
_chemical_formula_sum "Si O2"
_cell_formula_units_Z 48
_cell_length_a 18.004751
_cell_length_b 7.755900
_cell_length_c 18.736007
_cell_angle_alpha 90.000000
_cell_angle_beta 90.000000
_cell_angle_gamma 90.000000
_cell_volume 2616.353130
_symmetry_space_group_name_H-M "P C C A"
_symmetry_group_IT_number 54
_symmetry_cell_setting 'orthorhombic'
loop_
_space_group_symop_operation_xyz
x,y,z
1/2-x,-y,z
1/2+x,-y,1/2-z
-x,y,1/2-z
-x,-y,-z
1/2+x,y,-z
1/2-x,y,1/2+z
x,-y,1/2+z
loop_
_atom_site_type_symbol
_atom_site_label
_atom_site_fract_x
_atom_site_fract_y
_atom_site_fract_z
Si Si1 0.936765 0.164242 0.297017
Si Si2 0.078374 0.296369 0.049169
Si Si3 0.838142 0.986999 0.675404
Si Si4 0.836704 0.973728 0.511981
Si Si5 0.435652 0.316474 0.037258
Si Si6 0.020434 0.798646 0.325676
O O1 0.911434 0.260744 0.367330
O O2 0.872254 0.119311 0.241123
O O3 0.000000 0.256687 0.250000
O O4 0.977191 0.985379 0.323378
O O5 0.122109 0.152909 0.004681
O O6 0.097375 0.493153 0.031144
O O7 0.991709 0.279013 0.027953
O O8 0.750000 0.000000 0.686197
O O9 0.847363 0.918102 0.594547
O O10 0.891915 0.156521 0.673260
O O11 0.750000 0.000000 0.498971
O O12 0.873408 0.828989 0.462693
O O13 0.487778 0.301794 0.107229
O O14 0.000000 0.715181 0.250000
#
# Coordination Sequence:
#
# PCOD9424008 Si02
#       6
#     8   8   8   8   8   8
#     4   9  18  33  55  84 110 150 191 235 284 346
#     4  11  22  35  61  90 115 153 192 243 292 345
#     4   9  18  33  59  84 110 152 194 232 294 352
#     4  11  22  38  60  83 118 157 191 245 297 350
#     4  11  21  37  59  88 118 151 197 242 288 352
#     4   9  17  33  56  80 112 150 195 238 280 341
#
# _framework density 18.346146000000001
#
# number of rings (size 3 to 8) (size 9 to 14) (size 15 to 20)
#    0.000    2.333    3.333    2.500    0.000    2.000 
#    0.000    0.000    0.000    0.000    0.000    0.000 
#    0.000    0.000    0.000    0.000    0.000    0.000 
#
# Total GULP energy -267425.786294 kJ/mol
# GULP energy per Si atom -5571.370548 kJ/mol
# Density = 1.830439 g / cm^3
# Si number density = 18.346146 Si / 1000 Ang^3
#
#
#
# Elastic Constant Matrix: (Units=GPa)
#
#
# Indices 1 2 3 4 5 6 
#
# 1 93.2766 49.9259 48.4068 0.0000 0.0000 0.0000
# 2 49.9259 86.5322 14.7376 0.0000 0.0000 0.0000
# 3 48.4068 14.7376 106.8019 0.0000 0.0000 0.0000
# 4 0.0000 0.0000 0.0000 0.3449 0.0000 0.0000
# 5 0.0000 0.0000 0.0000 0.0000 27.4618 0.0000
# 6 0.0000 0.0000 0.0000 0.0000 0.0000 0.5436
#
#
#
# Elastic Compliance Matrix: (Units=1/GPa)
#
#
# Indices 1 2 3 4 5 6 
#
# 1 0.020324 -0.010402 -0.007776 0.000000 0.000000 0.000000
# 2 -0.010402 0.017158 0.002347 0.000000 0.000000 0.000000
# 3 -0.007776 0.002347 0.012564 0.000000 0.000000 0.000000
# 4 0.000000 0.000000 0.000000 2.899234 0.000000 0.000000
# 5 0.000000 0.000000 0.000000 0.000000 0.036414 0.000000
# 6 0.000000 0.000000 0.000000 0.000000 0.000000 1.839677
#
#
# Mechanical properties :
#
#
# Convention : Reuss Voigt Hill
#
# Bulk Modulus (GPa) = 54.39667 56.97238 55.68453
# Shear Modulus (GPa) = 1.02814 17.23942 9.13378
#
# Velocity S-wave (km/s) = 0.74942 3.06874 2.23369
# Velocity P-wave (km/s) = 5.51937 6.60892 6.08856
#
# Compressibility (1/GPa) = 0.01838348
#
# Stress axis : x y z
#
# Youngs Moduli (GPa) = 49.20331 58.28147 79.59389
#
# Poissons Ratio (x) = 0.60623 0.61894
# Poissons Ratio (y) = 0.51180 -0.18679
# Poissons Ratio (z) = 0.38262 -0.13678
#
# Static dielectric constant tensor:
#      x y z
#    x 1.623670 0.000000 0.000000 
#    y 0.000000 1.636810 0.000000 
#    z 0.000000 0.000000 1.666940 
# 
# From -- ./inp_files/18525.got.cif
#   From: 2010.05.17/outbox.cif.g08.bks.cpg/sg54_10_cif.got.tgz:18525.got - 2010.06.03 13:09:01.
