data_PCOD9424395
_publ_section_title
;
Structure prediction by ZEFSAII (Michael W. Deem and Ramdas Pophale) SiO2 
 PCOD9424395
Probable space group: P C C A
;
_chemical_formula_sum "Si O2"
_cell_formula_units_Z 64
_cell_length_a 14.298535
_cell_length_b 7.415684
_cell_length_c 27.052825
_cell_angle_alpha 90.000000
_cell_angle_beta 90.000000
_cell_angle_gamma 90.000000
_cell_volume 2868.503480
_symmetry_space_group_name_H-M "P C C A"
_symmetry_group_IT_number 54
_symmetry_cell_setting 'orthorhombic'
loop_
_space_group_symop_operation_xyz
x,y,z
1/2-x,-y,z
1/2+x,-y,1/2-z
-x,y,1/2-z
-x,-y,-z
1/2+x,y,-z
1/2-x,y,1/2+z
x,-y,1/2+z
loop_
_atom_site_type_symbol
_atom_site_label
_atom_site_fract_x
_atom_site_fract_y
_atom_site_fract_z
Si Si1 0.257859 0.203889 0.754506
Si Si2 0.761907 0.301492 0.638281
Si Si3 0.368528 0.117917 0.060147
Si Si4 0.845281 0.422643 0.877330
Si Si5 0.911600 0.296222 0.458082
Si Si6 0.586663 0.211030 0.066240
Si Si7 0.369295 0.203050 0.952230
Si Si8 0.900380 0.511474 0.275543
O O1 0.265083 0.186930 0.814232
O O2 0.165601 0.323719 0.742912
O O3 0.344490 0.324381 0.734694
O O4 0.250000 0.000000 0.734199
O O5 0.750000 0.500000 0.658332
O O6 0.865155 0.278634 0.615688
O O7 0.695276 0.281645 0.590384
O O8 0.323564 0.219504 0.105893
O O9 0.475992 0.182973 0.066388
O O10 0.370705 0.902085 0.056312
O O11 0.333320 0.204419 0.008657
O O12 0.750000 0.500000 0.855674
O O13 0.872858 0.545801 0.924083
O O14 0.917462 0.451175 0.833638
O O15 0.891983 0.323451 0.516440
O O16 0.024390 0.277775 0.451600
O O17 0.625536 0.010310 0.058304
O O18 0.000000 0.507433 0.250000
#
# Coordination Sequence:
#
# PCOD9424395 Si02
#       8
#     8   8   8   8   8   8   8   8
#     4  11  25  50  73 100 134 173 226 288 346 405
#     4  12  24  35  65  99 131 167 211 267 322 382
#     4   9  22  40  62  90 132 176 213 258 309 376
#     4  12  26  42  64  95 127 163 220 266 324 402
#     4   9  22  40  62  90 132 176 213 258 309 376
#     4   9  20  39  58  92 133 172 217 256 303 378
#     4   9  20  39  58  92 133 172 217 256 303 378
#     4  11  27  52  72 100 135 171 226 294 349 404
#
# _framework density 22.311285999999999
#
# number of rings (size 3 to 8) (size 9 to 14) (size 15 to 20)
#    0.000    1.750    2.500    2.625    8.750    3.000 
#    0.000    0.000    0.000    0.000    0.000    0.000 
#    0.000    0.000    0.000    0.000    0.000    0.000 
#
# Total GULP energy -357625.864279 kJ/mol
# GULP energy per Si atom -5587.904129 kJ/mol
# Density = 2.226050 g / cm^3
# Si number density = 22.311286 Si / 1000 Ang^3
#
#
#
# Elastic Constant Matrix: (Units=GPa)
#
#
# Indices 1 2 3 4 5 6 
#
# 1 70.3938 17.8890 1.0793 0.0000 0.0000 0.0000
# 2 17.8890 118.5767 18.1411 0.0000 0.0000 0.0000
# 3 1.0793 18.1411 70.5000 0.0000 0.0000 0.0000
# 4 0.0000 0.0000 0.0000 17.2671 0.0000 0.0000
# 5 0.0000 0.0000 0.0000 0.0000 20.8463 0.0000
# 6 0.0000 0.0000 0.0000 0.0000 0.0000 29.0538
#
#
#
# Elastic Compliance Matrix: (Units=1/GPa)
#
#
# Indices 1 2 3 4 5 6 
#
# 1 0.014781 -0.002285 0.000362 0.000000 0.000000 0.000000
# 2 -0.002285 0.009132 -0.002315 0.000000 0.000000 0.000000
# 3 0.000362 -0.002315 0.014775 0.000000 0.000000 0.000000
# 4 0.000000 0.000000 0.000000 0.057914 0.000000 0.000000
# 5 0.000000 0.000000 0.000000 0.000000 0.047970 0.000000
# 6 0.000000 0.000000 0.000000 0.000000 0.000000 0.034419
#
#
# Mechanical properties :
#
#
# Convention : Reuss Voigt Hill
#
# Bulk Modulus (GPa) = 33.10061 37.07660 35.08860
# Shear Modulus (GPa) = 25.31163 28.25751 26.78457
#
# Velocity S-wave (km/s) = 3.37185 3.56267 3.46857
# Velocity P-wave (km/s) = 5.47971 5.79460 5.63935
#
# Compressibility (1/GPa) = 0.03021092
#
# Stress axis : x y z
#
# Youngs Moduli (GPa) = 67.65443 109.50151 67.68400
#
# Poissons Ratio (x) = 0.25024 -0.02449
# Poissons Ratio (y) = 0.15461 0.15668
# Poissons Ratio (z) = -0.02448 0.25349
#
# Static dielectric constant tensor:
#      x y z
#    x 1.949210 0.000000 0.000000 
#    y 0.000000 1.838320 0.000000 
#    z 0.000000 0.000000 1.846850 
# 
# From -- ./inp_files/24528.got.cif
#   From: 2010.05.17/outbox.cif.g08.bks.cpg/sg54_13_cif.got.tgz:24528.got - 2010.06.03 13:09:01.
