data_PCOD9424788
_publ_section_title
;
Structure prediction by ZEFSAII (Michael W. Deem and Ramdas Pophale) SiO2 
 PCOD9424788
Probable space group: P B A M
;
_chemical_formula_sum "Si O2"
_cell_formula_units_Z 40
_cell_length_a 5.520290
_cell_length_b 19.162459
_cell_length_c 18.562167
_cell_angle_alpha 90.000000
_cell_angle_beta 90.000000
_cell_angle_gamma 90.000000
_cell_volume 1963.549290
_symmetry_space_group_name_H-M "P B A M"
_symmetry_group_IT_number 55
_symmetry_cell_setting 'orthorhombic'
loop_
_space_group_symop_operation_xyz
x,y,z
-x,-y,z
1/2+x,1/2-y,-z
1/2-x,1/2+y,-z
-x,-y,-z
x,y,-z
1/2-x,1/2+y,z
1/2+x,1/2-y,z
loop_
_atom_site_type_symbol
_atom_site_label
_atom_site_fract_x
_atom_site_fract_y
_atom_site_fract_z
Si Si1 0.249886 0.044232 0.079371
Si Si2 0.707044 0.707225 0.584648
Si Si3 0.160558 0.603535 0.766872
Si Si4 0.636390 0.746284 0.817812
Si Si5 0.657241 0.610416 0.283875
O O1 0.281216 0.091084 0.149425
O O2 0.500000 0.000000 0.078451
O O3 0.231335 0.078036 0.000000
O O4 0.000000 0.000000 0.088295
O O5 0.707535 0.688813 0.500000
O O6 0.456260 0.749798 0.598244
O O7 0.702786 0.641517 0.637565
O O8 0.137951 0.688241 0.762213
O O9 0.391640 0.577108 0.722390
O O10 0.900369 0.573486 0.744019
O O11 0.386874 0.752054 0.860086
O O12 0.633726 0.675778 0.771779
#
# Coordination Sequence:
#
# PCOD9424788 Si02
#       5
#     8   8   8   8   8
#     4  10  21  37  54  72  95 119 148 196 255 302
#     4  10  18  27  41  65 101 141 171 195 227 269
#     4  10  18  29  49  69  90 123 159 192 234 283
#     4   8  14  23  39  61  87 116 147 176 209 256
#     4  10  17  28  45  69  99 129 161 191 225 272
#
# _framework density 20.371275000000001
#
# number of rings (size 3 to 8) (size 9 to 14) (size 15 to 20)
#    0.000    2.400    0.000    6.000    0.000    0.000 
#    0.000    0.000    0.000   10.800    0.000    0.000 
#    0.000   16.000    0.000    0.000    0.000    0.000 
#
# Total GULP energy -222758.063201 kJ/mol
# GULP energy per Si atom -5568.951580 kJ/mol
# Density = 2.032491 g / cm^3
# Si number density = 20.371275 Si / 1000 Ang^3
#
#
#
# Elastic Constant Matrix: (Units=GPa)
#
#
# Indices 1 2 3 4 5 6 
#
# 1 216.9889 6.7311 26.4626 0.0000 0.0000 0.0000
# 2 6.7311 26.0367 6.4228 0.0000 0.0000 0.0000
# 3 26.4626 6.4228 101.4121 0.0000 0.0000 0.0000
# 4 0.0000 0.0000 0.0000 26.2721 0.0000 0.0000
# 5 0.0000 0.0000 0.0000 0.0000 26.5624 0.0000
# 6 0.0000 0.0000 0.0000 0.0000 0.0000 18.5024
#
#
#
# Elastic Compliance Matrix: (Units=1/GPa)
#
#
# Indices 1 2 3 4 5 6 
#
# 1 0.004783 -0.000943 -0.001188 0.000000 0.000000 0.000000
# 2 -0.000943 0.039203 -0.002237 0.000000 0.000000 0.000000
# 3 -0.001188 -0.002237 0.010312 0.000000 0.000000 0.000000
# 4 0.000000 0.000000 0.000000 0.038063 0.000000 0.000000
# 5 0.000000 0.000000 0.000000 0.000000 0.037647 0.000000
# 6 0.000000 0.000000 0.000000 0.000000 0.000000 0.054047
#
#
# Mechanical properties :
#
#
# Convention : Reuss Voigt Hill
#
# Bulk Modulus (GPa) = 21.94832 47.07453 34.51142
# Shear Modulus (GPa) = 24.04085 34.58880 29.31483
#
# Velocity S-wave (km/s) = 3.43904 4.12505 3.79757
# Velocity P-wave (km/s) = 5.15430 6.77101 6.01720
#
# Compressibility (1/GPa) = 0.04556158
#
# Stress axis : x y z
#
# Youngs Moduli (GPa) = 209.08667 25.50826 96.96982
#
# Poissons Ratio (x) = 0.02406 0.11523
# Poissons Ratio (y) = 0.19724 0.21689
# Poissons Ratio (z) = 0.24845 0.05705
#
# Static dielectric constant tensor:
#      x y z
#    x 1.870580 0.000000 0.000000 
#    y 0.000000 1.766100 0.000000 
#    z 0.000000 0.000000 1.674020 
# 
# From -- ./inp_files/16544.got.cif
#   From: 2010.05.17/outbox.cif.g08.bks.cpg/sg55_9_cif.got.tgz:16544.got - 2010.06.03 13:27:54.
