data_PCOD9424603
_publ_section_title
;
Structure prediction by ZEFSAII (Michael W. Deem and Ramdas Pophale) SiO2 
 PCOD9424603
Probable space group: P C C A
;
_chemical_formula_sum "Si O2"
_cell_formula_units_Z 32
_cell_length_a 13.816474
_cell_length_b 7.494186
_cell_length_c 11.331273
_cell_angle_alpha 90.000000
_cell_angle_beta 90.000000
_cell_angle_gamma 90.000000
_cell_volume 1173.276561
_symmetry_space_group_name_H-M "P C C A"
_symmetry_group_IT_number 54
_symmetry_cell_setting 'orthorhombic'
loop_
_space_group_symop_operation_xyz
x,y,z
1/2-x,-y,z
1/2+x,-y,1/2-z
-x,y,1/2-z
-x,-y,-z
1/2+x,y,-z
1/2-x,y,1/2+z
x,-y,1/2+z
loop_
_atom_site_type_symbol
_atom_site_label
_atom_site_fract_x
_atom_site_fract_y
_atom_site_fract_z
Si Si1 0.609714 0.070099 0.761026
Si Si2 0.358249 0.575024 0.932162
Si Si3 0.132980 0.481442 0.178673
Si Si4 0.883538 0.984610 0.006750
O O1 0.500000 0.003489 0.750000
O O2 0.607846 0.274785 0.800293
O O3 0.650245 0.076254 0.628094
O O4 0.651099 0.962568 0.874435
O O5 0.250000 0.500000 0.918849
O O6 0.401321 0.569186 0.800735
O O7 0.356495 0.780117 0.969031
O O8 0.401627 0.469455 0.046140
O O9 0.250000 0.500000 0.172124
O O10 0.000000 0.000000 0.000000
#
# Coordination Sequence:
#
# PCOD9424603 Si02
#       4
#     8   8   8   8
#     4   9  18  34  54  80 109 140 181 226 274 330
#     4   9  18  34  55  79 109 144 183 227 277 332
#     4   9  18  34  54  77 108 143 182 226 274 330
#     4   9  18  34  55  80 110 143 182 227 277 332
#
# _framework density 27.274046999999999
#
# number of rings (size 3 to 8) (size 9 to 14) (size 15 to 20)
#    0.000    3.000    0.000    0.000    0.000    2.000 
#    0.000   20.000    0.000   27.000    0.000    0.000 
#    0.000    0.000    0.000    0.000    0.000    0.000 
#
# Total GULP energy -178624.969238 kJ/mol
# GULP energy per Si atom -5582.030289 kJ/mol
# Density = 2.721197 g / cm^3
# Si number density = 27.274047 Si / 1000 Ang^3
#
#
#
# Elastic Constant Matrix: (Units=GPa)
#
#
# Indices 1 2 3 4 5 6 
#
# 1 132.7898 8.0844 46.5086 0.0000 0.0000 0.0000
# 2 8.0844 40.2226 4.1634 0.0000 0.0000 0.0000
# 3 46.5086 4.1634 349.5718 0.0000 0.0000 0.0000
# 4 0.0000 0.0000 0.0000 44.1333 0.0000 0.0000
# 5 0.0000 0.0000 0.0000 0.0000 6.4175 0.0000
# 6 0.0000 0.0000 0.0000 0.0000 0.0000 34.4256
#
#
#
# Elastic Compliance Matrix: (Units=1/GPa)
#
#
# Indices 1 2 3 4 5 6 
#
# 1 0.007988 -0.001497 -0.001045 0.000000 0.000000 0.000000
# 2 -0.001497 0.025173 -0.000101 0.000000 0.000000 0.000000
# 3 -0.001045 -0.000101 0.003001 0.000000 0.000000 0.000000
# 4 0.000000 0.000000 0.000000 0.022659 0.000000 0.000000
# 5 0.000000 0.000000 0.000000 0.000000 0.155825 0.000000
# 6 0.000000 0.000000 0.000000 0.000000 0.000000 0.029048
#
#
# Mechanical properties :
#
#
# Convention : Reuss Voigt Hill
#
# Bulk Modulus (GPa) = 32.38759 71.12188 51.75473
# Shear Modulus (GPa) = 19.28482 47.91712 33.60097
#
# Velocity S-wave (km/s) = 2.66197 4.19606 3.51376
# Velocity P-wave (km/s) = 4.62048 7.04338 5.95643
#
# Compressibility (1/GPa) = 0.03087603
#
# Stress axis : x y z
#
# Youngs Moduli (GPa) = 125.19047 39.72510 333.23790
#
# Poissons Ratio (x) = 0.05948 0.34820
# Poissons Ratio (y) = 0.18745 0.03352
# Poissons Ratio (z) = 0.13081 0.00400
#
# Static dielectric constant tensor:
#      x y z
#    x 2.206160 0.000000 0.000000 
#    y 0.000000 2.094380 0.000000 
#    z 0.000000 0.000000 2.353380 
# 
# From -- ./inp_files/7912.got.cif
#   From: 2010.05.17/outbox.cif.g08.bks.cpg/sg54_4_cif.got.tgz:7912.got - 2010.06.03 13:09:01.
