data_PCOD9424767
_publ_section_title
;
Structure prediction by ZEFSAII (Michael W. Deem and Ramdas Pophale) SiO2 
 PCOD9424767
Probable space group: P B A M
;
_chemical_formula_sum "Si O2"
_cell_formula_units_Z 56
_cell_length_a 18.421303
_cell_length_b 23.133518
_cell_length_c 8.507632
_cell_angle_alpha 90.000000
_cell_angle_beta 90.000000
_cell_angle_gamma 90.000000
_cell_volume 3625.523502
_symmetry_space_group_name_H-M "P B A M"
_symmetry_group_IT_number 55
_symmetry_cell_setting 'orthorhombic'
loop_
_space_group_symop_operation_xyz
x,y,z
-x,-y,z
1/2+x,1/2-y,-z
1/2-x,1/2+y,-z
-x,-y,-z
x,y,-z
1/2-x,1/2+y,z
1/2+x,1/2-y,z
loop_
_atom_site_type_symbol
_atom_site_label
_atom_site_fract_x
_atom_site_fract_y
_atom_site_fract_z
Si Si1 0.119695 0.850142 0.688288
Si Si2 0.729137 0.192272 0.687119
Si Si3 0.917812 0.717192 0.187382
Si Si4 0.999099 0.934257 0.189346
Si Si5 0.124818 0.152299 0.808411
Si Si6 0.721783 0.815657 0.185621
Si Si7 0.925935 0.280539 0.313104
O O1 0.111442 0.853677 0.500000
O O2 0.205800 0.851954 0.724106
O O3 0.070824 0.898880 0.765330
O O4 0.091783 0.785971 0.737113
O O5 0.733170 0.204046 0.500000
O O6 0.646712 0.180036 0.735244
O O7 0.750353 0.250547 0.779797
O O8 0.905002 0.784310 0.239400
O O9 0.998789 0.700694 0.236201
O O10 0.910089 0.715083 0.000000
O O11 0.929863 0.897124 0.246729
O O12 0.994559 0.935884 0.000000
O O13 0.000000 0.000000 0.247806
O O14 0.209028 0.146737 0.759093
O O15 0.124852 0.152307 0.000000
O O16 0.643875 0.818725 0.267310
O O17 0.712144 0.823676 0.000000
O O18 0.933714 0.280166 0.500000
#
# Coordination Sequence:
#
# PCOD9424767 Si02
#       7
#     8   8   8   8   8   8   8
#     4   9  18  30  42  57  81 113 143 176 217 252
#     4   9  17  28  40  58  83 109 140 175 212 255
#     4  10  17  26  42  62  84 113 143 171 207 253
#     4  10  19  30  45  63  83 111 148 187 219 248
#     4   8  15  27  40  57  80 107 140 176 211 246
#     4   9  16  26  40  57  79 109 143 175 208 253
#     4  10  18  27  40  61  86 112 141 173 212 255
#
# _framework density 15.446045
#
# number of rings (size 3 to 8) (size 9 to 14) (size 15 to 20)
#    0.000    2.714    1.429    3.429    0.000    3.143 
#    0.000    0.714    0.000    0.000    0.000    0.000 
#    0.000    1.143    0.000   13.143    0.000    3.286 
#
# Total GULP energy -311736.529308 kJ/mol
# GULP energy per Si atom -5566.723738 kJ/mol
# Density = 1.541089 g / cm^3
# Si number density = 15.446045 Si / 1000 Ang^3
#
#
#
# Elastic Constant Matrix: (Units=GPa)
#
#
# Indices 1 2 3 4 5 6 
#
# 1 141.8811 41.2082 13.8927 0.0000 0.0000 0.0000
# 2 41.2082 49.1644 8.9940 0.0000 0.0000 0.0000
# 3 13.8927 8.9940 17.6173 0.0000 0.0000 0.0000
# 4 0.0000 0.0000 0.0000 8.7159 0.0000 0.0000
# 5 0.0000 0.0000 0.0000 0.0000 21.9709 0.0000
# 6 0.0000 0.0000 0.0000 0.0000 0.0000 11.7330
#
#
#
# Elastic Compliance Matrix: (Units=1/GPa)
#
#
# Indices 1 2 3 4 5 6 
#
# 1 0.009541 -0.007302 -0.003796 0.000000 0.000000 0.000000
# 2 -0.007302 0.028024 -0.008548 0.000000 0.000000 0.000000
# 3 -0.003796 -0.008548 0.064120 0.000000 0.000000 0.000000
# 4 0.000000 0.000000 0.000000 0.114733 0.000000 0.000000
# 5 0.000000 0.000000 0.000000 0.000000 0.045515 0.000000
# 6 0.000000 0.000000 0.000000 0.000000 0.000000 0.085229
#
#
# Mechanical properties :
#
#
# Convention : Reuss Voigt Hill
#
# Bulk Modulus (GPa) = 16.02777 37.42805 26.72791
# Shear Modulus (GPa) = 12.27740 18.12183 15.19962
#
# Velocity S-wave (km/s) = 2.82238 3.42897 3.14035
# Velocity P-wave (km/s) = 4.58478 6.32148 5.52184
#
# Compressibility (1/GPa) = 0.06239173
#
# Stress axis : x y z
#
# Youngs Moduli (GPa) = 104.81374 35.68316 15.59588
#
# Poissons Ratio (x) = 0.26057 0.05920
# Poissons Ratio (y) = 0.76539 0.13332
# Poissons Ratio (z) = 0.39783 0.30504
#
# Static dielectric constant tensor:
#      x y z
#    x 1.563830 0.000000 0.000000 
#    y 0.000000 1.482680 0.000000 
#    z 0.000000 0.000000 1.520440 
# 
# From -- ./inp_files/7814.got.cif
#   From: 2010.05.17/outbox.cif.g08.bks.cpg/sg55_4_cif.got.tgz:7814.got - 2010.06.03 13:27:54.
