data_PCOD9424321
_publ_section_title
;
Structure prediction by ZEFSAII (Michael W. Deem and Ramdas Pophale) SiO2 
 PCOD9424321
Probable space group: P C C A
;
_chemical_formula_sum "Si O2"
_cell_formula_units_Z 40
_cell_length_a 11.634227
_cell_length_b 5.161782
_cell_length_c 28.430303
_cell_angle_alpha 90.000000
_cell_angle_beta 90.000000
_cell_angle_gamma 90.000000
_cell_volume 1707.334752
_symmetry_space_group_name_H-M "P C C A"
_symmetry_group_IT_number 54
_symmetry_cell_setting 'orthorhombic'
loop_
_space_group_symop_operation_xyz
x,y,z
1/2-x,-y,z
1/2+x,-y,1/2-z
-x,y,1/2-z
-x,-y,-z
1/2+x,y,-z
1/2-x,y,1/2+z
x,-y,1/2+z
loop_
_atom_site_type_symbol
_atom_site_label
_atom_site_fract_x
_atom_site_fract_y
_atom_site_fract_z
Si Si1 0.131842 0.602991 0.662680
Si Si2 0.412267 0.914347 0.605934
Si Si3 0.250000 0.000000 0.021255
Si Si4 0.000000 0.511283 0.750000
Si Si5 0.250000 0.500000 0.295688
Si Si6 0.750000 0.500000 0.041265
Si Si7 0.152783 0.807492 0.883282
O O1 0.250000 0.500000 0.683649
O O2 0.154798 0.856200 0.633189
O O3 0.044780 0.660279 0.704533
O O4 0.091021 0.366653 0.629943
O O5 0.357499 0.918841 0.554376
O O6 0.538120 0.030439 0.613133
O O7 0.221569 0.255007 0.991188
O O8 0.871422 0.400075 0.730811
O O9 0.303707 0.709115 0.332421
O O10 0.850289 0.422040 0.078247
O O11 0.250000 0.000000 0.900543
#
# Coordination Sequence:
#
# PCOD9424321 Si02
#       7
#     8   8   4   4   4   4   8
#     4  12  24  47  70 110 148 195 239 309 377 444
#     4  12  26  45  78 102 150 192 245 304 381 442
#     4  12  24  46  72 112 138 194 248 314 372 448
#     4  12  24  44  76 114 146 196 260 308 362 464
#     4  11  24  46  71 108 156 196 253 312 382 445
#     4  11  26  46  71 106 152 186 255 308 372 459
#     4  11  25  49  70 103 151 203 240 305 385 450
#
# _framework density 23.428326999999999
#
# number of rings (size 3 to 8) (size 9 to 14) (size 15 to 20)
#    0.000    0.400    6.000    2.400    2.800    2.400 
#    3.600    0.000    0.000    0.000    0.000    0.000 
#    0.000    0.000    0.000    0.000    0.000    0.000 
#
# Total GULP energy -222812.185035 kJ/mol
# GULP energy per Si atom -5570.304626 kJ/mol
# Density = 2.337500 g / cm^3
# Si number density = 23.428327 Si / 1000 Ang^3
#
#
#
# Elastic Constant Matrix: (Units=GPa)
#
#
# Indices 1 2 3 4 5 6 
#
# 1 163.2243 42.5632 49.4141 0.0000 0.0000 0.0000
# 2 42.5632 142.2247 64.9327 0.0000 0.0000 0.0000
# 3 49.4141 64.9327 117.2701 0.0000 0.0000 0.0000
# 4 0.0000 0.0000 0.0000 142.8609 0.0000 0.0000
# 5 0.0000 0.0000 0.0000 0.0000 130.2092 0.0000
# 6 0.0000 0.0000 0.0000 0.0000 0.0000 31.2682
#
#
#
# Elastic Compliance Matrix: (Units=1/GPa)
#
#
# Indices 1 2 3 4 5 6 
#
# 1 0.007131 -0.001020 -0.002440 0.000000 0.000000 0.000000
# 2 -0.001020 0.009556 -0.004861 0.000000 0.000000 0.000000
# 3 -0.002440 -0.004861 0.012247 0.000000 0.000000 0.000000
# 4 0.000000 0.000000 0.000000 0.007000 0.000000 0.000000
# 5 0.000000 0.000000 0.000000 0.000000 0.007680 0.000000
# 6 0.000000 0.000000 0.000000 0.000000 0.000000 0.031981
#
#
# Mechanical properties :
#
#
# Convention : Reuss Voigt Hill
#
# Bulk Modulus (GPa) = 81.35763 81.83767 81.59765
# Shear Modulus (GPa) = 51.90204 78.58825 65.24515
#
# Velocity S-wave (km/s) = 4.71186 5.79801 5.28292
# Velocity P-wave (km/s) = 8.02519 8.93473 8.49215
#
# Compressibility (1/GPa) = 0.01229141
#
# Stress axis : x y z
#
# Youngs Moduli (GPa) = 140.22789 104.64832 81.65164
#
# Poissons Ratio (x) = 0.10676 0.19923
# Poissons Ratio (y) = 0.14305 0.39693
# Poissons Ratio (z) = 0.34216 0.50872
#
# Static dielectric constant tensor:
#      x y z
#    x 2.023460 0.000000 0.000000 
#    y 0.000000 1.926360 0.000000 
#    z 0.000000 0.000000 1.905690 
# 
# From -- ./inp_files/26131.got.cif
#   From: 2010.05.17/outbox.cif.g08.bks.cpg/sg54_14_cif.got.tgz:26131.got - 2010.06.03 13:09:01.
