data_PCOD9424105
_publ_section_title
;
Structure prediction by ZEFSAII (Michael W. Deem and Ramdas Pophale) SiO2 
 PCOD9424105
Probable space group: P C C A
;
_chemical_formula_sum "Si O2"
_cell_formula_units_Z 40
_cell_length_a 8.410099
_cell_length_b 17.112575
_cell_length_c 11.523959
_cell_angle_alpha 90.000000
_cell_angle_beta 90.000000
_cell_angle_gamma 90.000000
_cell_volume 1658.510316
_symmetry_space_group_name_H-M "P C C A"
_symmetry_group_IT_number 54
_symmetry_cell_setting 'orthorhombic'
loop_
_space_group_symop_operation_xyz
x,y,z
1/2-x,-y,z
1/2+x,-y,1/2-z
-x,y,1/2-z
-x,-y,-z
1/2+x,y,-z
1/2-x,y,1/2+z
x,-y,1/2+z
loop_
_atom_site_type_symbol
_atom_site_label
_atom_site_fract_x
_atom_site_fract_y
_atom_site_fract_z
Si Si1 0.000000 0.180276 0.750000
Si Si2 0.000000 0.088707 0.250000
Si Si3 0.750000 0.500000 0.072061
Si Si4 0.492631 0.609942 0.069859
Si Si5 0.750000 0.000000 0.906793
Si Si6 0.251583 0.142813 0.922595
Si Si7 0.783180 0.715191 0.408644
O O1 0.092533 0.131306 0.847008
O O2 0.129512 0.235945 0.690235
O O3 0.886641 0.033617 0.325086
O O4 0.897076 0.142437 0.165761
O O5 0.628487 0.559362 0.135334
O O6 0.631723 0.448397 0.993260
O O7 0.374646 0.670247 0.131858
O O8 0.590722 0.656906 0.970233
O O9 0.786716 0.072304 0.990545
O O10 0.234058 0.222367 0.993106
#
# Coordination Sequence:
#
# PCOD9424105 Si02
#       7
#     4   4   4   8   4   8   8
#     4  12  26  45  70 102 147 190 246 298 365 416
#     4  12  28  47  74 100 137 192 240 300 369 418
#     4   8  16  34  68 106 130 192 234 278 366 428
#     4   9  18  36  67 104 141 184 239 288 353 428
#     4  12  28  52  72 104 142 182 240 298 358 434
#     4  12  27  46  71 103 142 188 244 297 357 427
#     4  11  22  41  65 105 143 191 239 300 351 428
#
# _framework density 24.118029
#
# number of rings (size 3 to 8) (size 9 to 14) (size 15 to 20)
#    0.000    1.200    2.000    3.600    2.800    5.600 
#    0.000    0.000    0.000    7.200    0.000    0.000 
#    0.000    0.000    0.000    0.000    0.000    0.000 
#
# Total GULP energy -223988.302490 kJ/mol
# GULP energy per Si atom -5599.707562 kJ/mol
# Density = 2.406313 g / cm^3
# Si number density = 24.118029 Si / 1000 Ang^3
#
#
#
# Elastic Constant Matrix: (Units=GPa)
#
#
# Indices 1 2 3 4 5 6 
#
# 1 126.6084 29.3736 35.6124 0.0000 0.0000 0.0000
# 2 29.3736 81.3562 19.9528 0.0000 0.0000 0.0000
# 3 35.6124 19.9528 80.6352 0.0000 0.0000 0.0000
# 4 0.0000 0.0000 0.0000 39.8022 0.0000 0.0000
# 5 0.0000 0.0000 0.0000 0.0000 47.7098 0.0000
# 6 0.0000 0.0000 0.0000 0.0000 0.0000 66.8534
#
#
#
# Elastic Compliance Matrix: (Units=1/GPa)
#
#
# Indices 1 2 3 4 5 6 
#
# 1 0.009492 -0.002554 -0.003560 0.000000 0.000000 0.000000
# 2 -0.002554 0.013773 -0.002280 0.000000 0.000000 0.000000
# 3 -0.003560 -0.002280 0.014538 0.000000 0.000000 0.000000
# 4 0.000000 0.000000 0.000000 0.025124 0.000000 0.000000
# 5 0.000000 0.000000 0.000000 0.000000 0.020960 0.000000
# 6 0.000000 0.000000 0.000000 0.000000 0.000000 0.014958
#
#
# Mechanical properties :
#
#
# Convention : Reuss Voigt Hill
#
# Bulk Modulus (GPa) = 47.58589 50.94193 49.26391
# Shear Modulus (GPa) = 40.76989 44.45048 42.61019
#
# Velocity S-wave (km/s) = 4.11595 4.29772 4.20782
# Velocity P-wave (km/s) = 6.50855 6.76720 6.63914
#
# Compressibility (1/GPa) = 0.02101463
#
# Stress axis : x y z
#
# Youngs Moduli (GPa) = 105.34789 72.60606 68.78465
#
# Poissons Ratio (x) = 0.18544 0.24489
# Poissons Ratio (y) = 0.26906 0.15683
# Poissons Ratio (z) = 0.37507 0.16555
#
# Static dielectric constant tensor:
#      x y z
#    x 1.928390 0.000000 0.000000 
#    y 0.000000 1.924680 0.000000 
#    z 0.000000 0.000000 1.883600 
# 
# From -- ./inp_files/6935.got.cif
#   From: 2010.05.17/outbox.cif.g08.bks.cpg/sg54_4_cif.got.tgz:6935.got - 2010.06.03 13:09:01.
