data_PCOD9424617
_publ_section_title
;
Structure prediction by ZEFSAII (Michael W. Deem and Ramdas Pophale) SiO2 
 PCOD9424617
Probable space group: P C C A
;
_chemical_formula_sum "Si O2"
_cell_formula_units_Z 52
_cell_length_a 27.000000
_cell_length_b 12.000000
_cell_length_c 9.000000
_cell_angle_alpha 90.000000
_cell_angle_beta 90.000000
_cell_angle_gamma 90.000000
_cell_volume 2916.000000
_symmetry_space_group_name_H-M "P C C A"
_symmetry_group_IT_number 54
_symmetry_cell_setting 'orthorhombic'
loop_
_space_group_symop_operation_xyz
x,y,z
1/2-x,-y,z
1/2+x,-y,1/2-z
-x,y,1/2-z
-x,-y,-z
1/2+x,y,-z
1/2-x,y,1/2+z
x,-y,1/2+z
loop_
_atom_site_type_symbol
_atom_site_label
_atom_site_fract_x
_atom_site_fract_y
_atom_site_fract_z
Si Si1 0.819821 0.300173 0.452227
Si Si2 0.641102 0.687715 0.777991
Si Si3 0.000000 0.554893 0.750000
Si Si4 0.750000 0.000000 0.643780
Si Si5 0.776430 0.842047 0.397851
Si Si6 0.346531 0.433427 0.804154
Si Si7 0.435260 0.604499 0.529321
Si Si8 0.250000 0.500000 0.446463
O O1 0.849585 0.277553 0.605296
O O2 0.779373 0.206269 0.413785
O O3 0.854554 0.335244 0.314907
O O4 0.785586 0.410868 0.475468
O O5 0.683633 0.745812 0.875350
O O6 0.649545 0.555079 0.768455
O O7 0.588443 0.699653 0.862592
O O8 0.037944 0.478212 0.649697
O O9 0.027883 0.619789 0.886112
O O10 0.716701 0.077719 0.538480
O O11 0.779317 0.081831 0.752057
O O12 0.386221 0.434234 0.937146
O O13 0.289513 0.425612 0.856777
#
# Coordination Sequence:
#
# PCOD9424617 Si02
#       8
#     8   8   4   4   8   8   8   4
#     4  11  20  31  51  77 117 151 191 227 273 321
#     4  11  21  33  54  81 110 149 195 238 275 333
#     4  10  24  40  56  74 116 164 186 238 286 338
#     4  10  24  38  56  68 118 160 208 234 284 332
#     4  11  21  40  52  80 108 168 193 240 279 333
#     4  11  21  32  51  85 118 153 195 230 267 339
#     4  11  22  37  57  78 112 159 196 226 282 337
#     4  10  20  30  46  84 120 154 178 224 266 332
#
# _framework density 17.832647000000001
#
# number of rings (size 3 to 8) (size 9 to 14) (size 15 to 20)
#    0.000    1.231    3.077    6.000    2.154    0.000 
#    0.000    0.000    0.000    0.000    0.000    0.000 
#    0.000    3.692    0.000    0.000    0.000    0.000 
#
# Total GULP energy -289533.289768 kJ/mol
# GULP energy per Si atom -5567.947880 kJ/mol
# Density = 1.779206 g / cm^3
# Si number density = 17.832647 Si / 1000 Ang^3
#
#
#
# Elastic Constant Matrix: (Units=GPa)
#
#
# Indices 1 2 3 4 5 6 
#
# 1 76.1629 12.1254 41.3972 0.0000 0.0000 0.0000
# 2 12.1254 44.8213 30.0802 0.0000 0.0000 0.0000
# 3 41.3972 30.0802 131.9086 0.0000 0.0000 0.0000
# 4 0.0000 0.0000 0.0000 24.5399 0.0000 0.0000
# 5 0.0000 0.0000 0.0000 0.0000 34.7653 0.0000
# 6 0.0000 0.0000 0.0000 0.0000 0.0000 9.5987
#
#
#
# Elastic Compliance Matrix: (Units=1/GPa)
#
#
# Indices 1 2 3 4 5 6 
#
# 1 0.015878 -0.001123 -0.004727 0.000000 0.000000 0.000000
# 2 -0.001123 0.026422 -0.005673 0.000000 0.000000 0.000000
# 3 -0.004727 -0.005673 0.010358 0.000000 0.000000 0.000000
# 4 0.000000 0.000000 0.000000 0.040750 0.000000 0.000000
# 5 0.000000 0.000000 0.000000 0.000000 0.028764 0.000000
# 6 0.000000 0.000000 0.000000 0.000000 0.000000 0.104181
#
#
# Mechanical properties :
#
#
# Convention : Reuss Voigt Hill
#
# Bulk Modulus (GPa) = 33.76991 46.67760 40.22376
# Shear Modulus (GPa) = 19.28500 25.06676 22.17588
#
# Velocity S-wave (km/s) = 3.29210 3.75329 3.53023
# Velocity P-wave (km/s) = 5.78176 6.70933 6.26274
#
# Compressibility (1/GPa) = 0.02961216
#
# Stress axis : x y z
#
# Youngs Moduli (GPa) = 62.98115 37.84773 96.54346
#
# Poissons Ratio (x) = 0.04251 0.45635
# Poissons Ratio (y) = 0.07074 0.54766
# Poissons Ratio (z) = 0.29770 0.21470
#
# Static dielectric constant tensor:
#      x y z
#    x 1.665660 0.000000 0.000000 
#    y 0.000000 1.615680 0.000000 
#    z 0.000000 0.000000 1.731870 
# 
# From -- ./inp_files/5563.got.cif
#   From: 2010.05.17/outbox.ucp.g08.bks.cvg/sg54_3_cif.got.tgz:5563.got - 2010.06.11 16:34:40.
