data_PCOD9424511
_publ_section_title
;
Structure prediction by ZEFSAII (Michael W. Deem and Ramdas Pophale) SiO2 
 PCOD9424511
Probable space group: P C C A
;
_chemical_formula_sum "Si O2"
_cell_formula_units_Z 32
_cell_length_a 14.233360
_cell_length_b 11.166377
_cell_length_c 8.032845
_cell_angle_alpha 90.000000
_cell_angle_beta 90.000000
_cell_angle_gamma 90.000000
_cell_volume 1276.700732
_symmetry_space_group_name_H-M "P C C A"
_symmetry_group_IT_number 54
_symmetry_cell_setting 'orthorhombic'
loop_
_space_group_symop_operation_xyz
x,y,z
1/2-x,-y,z
1/2+x,-y,1/2-z
-x,y,1/2-z
-x,-y,-z
1/2+x,y,-z
1/2-x,y,1/2+z
x,-y,1/2+z
loop_
_atom_site_type_symbol
_atom_site_label
_atom_site_fract_x
_atom_site_fract_y
_atom_site_fract_z
Si Si1 0.640607 0.532612 0.033284
Si Si2 0.399717 0.689948 0.790292
Si Si3 0.892893 0.767372 0.711669
Si Si4 0.764346 0.141296 0.514923
O O1 0.750000 0.500000 0.051066
O O2 0.587625 0.406680 0.058772
O O3 0.613708 0.625609 0.179059
O O4 0.629528 0.602629 0.860267
O O5 0.500000 0.745301 0.750000
O O6 0.325360 0.789012 0.844502
O O7 0.842564 0.814255 0.542704
O O8 0.000000 0.801239 0.750000
O O9 0.826408 0.820840 0.855837
O O10 0.750000 0.000000 0.527564
#
# Coordination Sequence:
#
# PCOD9424511 Si02
#       4
#     8   8   8   8
#     4  12  24  44  77 114 156 200 250 333 408 474
#     4  12  25  45  77 117 160 204 261 328 408 481
#     4  12  27  50  80 114 156 205 264 325 401 468
#     4  12  28  50  76 112 158 214 265 327 382 467
#
# _framework density 25.064606999999999
#
# number of rings (size 3 to 8) (size 9 to 14) (size 15 to 20)
#    0.000    0.000    2.500    7.500    0.000    2.000 
#    0.000    1.250    0.000    0.000    0.000    0.000 
#    0.000    0.000    0.000    0.000    0.000    0.000 
#
# Total GULP energy -179079.069432 kJ/mol
# GULP energy per Si atom -5596.220920 kJ/mol
# Density = 2.500756 g / cm^3
# Si number density = 25.064607 Si / 1000 Ang^3
#
#
#
# Elastic Constant Matrix: (Units=GPa)
#
#
# Indices 1 2 3 4 5 6 
#
# 1 173.5224 64.1860 53.7000 0.0000 0.0000 0.0000
# 2 64.1860 167.7386 61.5534 0.0000 0.0000 0.0000
# 3 53.7000 61.5534 138.3089 0.0000 0.0000 0.0000
# 4 0.0000 0.0000 0.0000 19.1558 0.0000 0.0000
# 5 0.0000 0.0000 0.0000 0.0000 33.6639 0.0000
# 6 0.0000 0.0000 0.0000 0.0000 0.0000 0.5911
#
#
#
# Elastic Compliance Matrix: (Units=1/GPa)
#
#
# Indices 1 2 3 4 5 6 
#
# 1 0.007087 -0.002034 -0.001846 0.000000 0.000000 0.000000
# 2 -0.002034 0.007709 -0.002641 0.000000 0.000000 0.000000
# 3 -0.001846 -0.002641 0.009122 0.000000 0.000000 0.000000
# 4 0.000000 0.000000 0.000000 0.052203 0.000000 0.000000
# 5 0.000000 0.000000 0.000000 0.000000 0.029705 0.000000
# 6 0.000000 0.000000 0.000000 0.000000 0.000000 1.691779
#
#
# Mechanical properties :
#
#
# Convention : Reuss Voigt Hill
#
# Bulk Modulus (GPa) = 91.95181 93.16096 92.55639
# Shear Modulus (GPa) = 2.75592 30.69086 16.72339
#
# Velocity S-wave (km/s) = 1.04972 3.50304 2.58585
# Velocity P-wave (km/s) = 6.18343 7.32193 6.77663
#
# Compressibility (1/GPa) = 0.01087526
#
# Stress axis : x y z
#
# Youngs Moduli (GPa) = 141.10798 129.71375 109.62034
#
# Poissons Ratio (x) = 0.26388 0.20238
# Poissons Ratio (y) = 0.28706 0.28952
# Poissons Ratio (z) = 0.26051 0.34259
#
# Static dielectric constant tensor:
#      x y z
#    x 2.006080 0.000000 0.000000 
#    y 0.000000 1.956660 0.000000 
#    z 0.000000 0.000000 2.222900 
# 
# From -- ./inp_files/3315.got.cif
#   From: 2010.05.17/outbox.cif.g08.bks.cpg/sg54_2_cif.got.tgz:3315.got - 2010.06.03 13:09:01.
