data_PCOD9424259
_publ_section_title
;
Structure prediction by ZEFSAII (Michael W. Deem and Ramdas Pophale) SiO2 
 PCOD9424259
Probable space group: P C C A
;
_chemical_formula_sum "Si O2"
_cell_formula_units_Z 36
_cell_length_a 11.050617
_cell_length_b 12.068401
_cell_length_c 11.721984
_cell_angle_alpha 90.000000
_cell_angle_beta 90.000000
_cell_angle_gamma 90.000000
_cell_volume 1563.282202
_symmetry_space_group_name_H-M "P C C A"
_symmetry_group_IT_number 54
_symmetry_cell_setting 'orthorhombic'
loop_
_space_group_symop_operation_xyz
x,y,z
1/2-x,-y,z
1/2+x,-y,1/2-z
-x,y,1/2-z
-x,-y,-z
1/2+x,y,-z
1/2-x,y,1/2+z
x,-y,1/2+z
loop_
_atom_site_type_symbol
_atom_site_label
_atom_site_fract_x
_atom_site_fract_y
_atom_site_fract_z
Si Si1 0.861551 0.575175 0.400614
Si Si2 0.630228 0.808267 0.777135
Si Si3 0.370379 0.063617 0.000867
Si Si4 0.674569 0.280169 0.619196
Si Si5 0.500000 0.579077 0.250000
O O1 0.750000 0.500000 0.361139
O O2 0.884198 0.687742 0.333168
O O3 0.821771 0.624017 0.523594
O O4 0.973404 0.496658 0.361587
O O5 0.500000 0.856213 0.750000
O O6 0.676658 0.889965 0.875693
O O7 0.704204 0.777845 0.664207
O O8 0.250000 0.000000 0.954685
O O9 0.397932 0.176373 0.931153
O O10 0.500000 0.000000 0.000000
O O11 0.610119 0.338708 0.724829
#
# Coordination Sequence:
#
# PCOD9424259 Si02
#       5
#     8   8   8   8   4
#     4  11  24  41  69 104 148 189 231 297 360 447
#     4  11  24  45  72 105 142 188 244 293 368 452
#     4  11  27  49  73 105 144 190 247 318 376 430
#     4  11  27  44  71 109 142 184 252 294 363 455
#     4  12  24  44  72 104 144 196 228 296 372 440
#
# _framework density 23.028472000000001
#
# number of rings (size 3 to 8) (size 9 to 14) (size 15 to 20)
#    0.000    0.889    3.333    2.000    6.222    6.222 
#    0.000    0.000    0.000    0.000    0.000    0.000 
#    0.000    0.000    0.000    0.000    0.000    0.000 
#
# Total GULP energy -200485.774015 kJ/mol
# GULP energy per Si atom -5569.049278 kJ/mol
# Density = 2.297606 g / cm^3
# Si number density = 23.028472 Si / 1000 Ang^3
#
#
#
# Elastic Constant Matrix: (Units=GPa)
#
#
# Indices 1 2 3 4 5 6 
#
# 1 81.8752 40.4573 16.4983 0.0000 0.0000 0.0000
# 2 40.4573 131.0222 25.6233 0.0000 0.0000 0.0000
# 3 16.4983 25.6233 78.0299 0.0000 0.0000 0.0000
# 4 0.0000 0.0000 0.0000 10.3562 0.0000 0.0000
# 5 0.0000 0.0000 0.0000 0.0000 18.9939 0.0000
# 6 0.0000 0.0000 0.0000 0.0000 0.0000 37.9952
#
#
#
# Elastic Compliance Matrix: (Units=1/GPa)
#
#
# Indices 1 2 3 4 5 6 
#
# 1 0.014626 -0.004180 -0.001720 0.000000 0.000000 0.000000
# 2 -0.004180 0.009351 -0.002187 0.000000 0.000000 0.000000
# 3 -0.001720 -0.002187 0.013897 0.000000 0.000000 0.000000
# 4 0.000000 0.000000 0.000000 0.096561 0.000000 0.000000
# 5 0.000000 0.000000 0.000000 0.000000 0.052648 0.000000
# 6 0.000000 0.000000 0.000000 0.000000 0.000000 0.026319
#
#
# Mechanical properties :
#
#
# Convention : Reuss Voigt Hill
#
# Bulk Modulus (GPa) = 46.08131 50.67611 48.37871
# Shear Modulus (GPa) = 21.11412 27.35896 24.23654
#
# Velocity S-wave (km/s) = 3.03127 3.45055 3.24768
# Velocity P-wave (km/s) = 5.68379 6.15863 5.92597
#
# Compressibility (1/GPa) = 0.02170077
#
# Stress axis : x y z
#
# Youngs Moduli (GPa) = 68.37306 106.94506 71.95632
#
# Poissons Ratio (x) = 0.44701 0.12375
# Poissons Ratio (y) = 0.28579 0.15735
# Poissons Ratio (z) = 0.11759 0.23386
#
# Static dielectric constant tensor:
#      x y z
#    x 1.912550 0.000000 0.000000 
#    y 0.000000 1.780300 0.000000 
#    z 0.000000 0.000000 1.949810 
# 
# From -- ./inp_files/7361.got.cif
#   From: 2010.05.17/outbox.cif.g08.bks.cpg/sg54_4_cif.got.tgz:7361.got - 2010.06.03 13:09:01.
