data_PCOD9424442
_publ_section_title
;
Structure prediction by ZEFSAII (Michael W. Deem and Ramdas Pophale) SiO2 
 PCOD9424442
Probable space group: P C C A
;
_chemical_formula_sum "Si O2"
_cell_formula_units_Z 40
_cell_length_a 9.153159
_cell_length_b 11.349620
_cell_length_c 17.435521
_cell_angle_alpha 90.000000
_cell_angle_beta 90.000000
_cell_angle_gamma 90.000000
_cell_volume 1811.286945
_symmetry_space_group_name_H-M "P C C A"
_symmetry_group_IT_number 54
_symmetry_cell_setting 'orthorhombic'
loop_
_space_group_symop_operation_xyz
x,y,z
1/2-x,-y,z
1/2+x,-y,1/2-z
-x,y,1/2-z
-x,-y,-z
1/2+x,y,-z
1/2-x,y,1/2+z
x,-y,1/2+z
loop_
_atom_site_type_symbol
_atom_site_label
_atom_site_fract_x
_atom_site_fract_y
_atom_site_fract_z
Si Si1 0.709922 0.261027 0.538199
Si Si2 0.000000 0.829326 0.250000
Si Si3 0.750000 0.000000 0.325422
Si Si4 0.845656 0.395436 0.673993
Si Si5 0.406191 0.557877 0.568557
Si Si6 0.054393 0.887227 0.547204
O O1 0.756530 0.362174 0.596538
O O2 0.633274 0.312696 0.462123
O O3 0.588693 0.179549 0.575984
O O4 0.849673 0.189750 0.511031
O O5 0.106777 0.731833 0.291996
O O6 0.875218 0.918777 0.284479
O O7 0.656778 0.917727 0.382132
O O8 0.750000 0.500000 0.712805
O O9 0.999590 0.447051 0.644920
O O10 0.250000 0.500000 0.578107
O O11 0.500000 0.500000 0.500000
O O12 0.000000 0.000000 0.500000
#
# Coordination Sequence:
#
# PCOD9424442 Si02
#       6
#     8   4   4   8   8   8
#     4  12  21  38  71 108 140 173 225 306 382 442
#     4  12  32  54  70 104 148 210 272 294 360 456
#     4  12  28  54  74 104 150 202 258 322 366 444
#     4  12  26  48  70 104 150 196 244 297 368 465
#     4  12  20  38  67 109 140 173 227 297 379 434
#     4  12  23  41  71 111 142 173 237 315 391 433
#
# _framework density 22.083745
#
# number of rings (size 3 to 8) (size 9 to 14) (size 15 to 20)
#    0.000    0.000    8.000    2.400    2.800    0.800 
#    3.600    0.000    0.000    0.000    0.000    0.000 
#    0.000    0.000    0.000    0.000    0.000    0.000 
#
# Total GULP energy -223147.473616 kJ/mol
# GULP energy per Si atom -5578.686840 kJ/mol
# Density = 2.203348 g / cm^3
# Si number density = 22.083745 Si / 1000 Ang^3
#
#
#
# Elastic Constant Matrix: (Units=GPa)
#
#
# Indices 1 2 3 4 5 6 
#
# 1 183.7002 77.1603 39.4226 0.0000 0.0000 0.0000
# 2 77.1603 117.5662 34.3544 0.0000 0.0000 0.0000
# 3 39.4226 34.3544 40.0379 0.0000 0.0000 0.0000
# 4 0.0000 0.0000 0.0000 36.7253 0.0000 0.0000
# 5 0.0000 0.0000 0.0000 0.0000 41.2359 0.0000
# 6 0.0000 0.0000 0.0000 0.0000 0.0000 74.5362
#
#
#
# Elastic Compliance Matrix: (Units=1/GPa)
#
#
# Indices 1 2 3 4 5 6 
#
# 1 0.008093 -0.003981 -0.004552 0.000000 0.000000 0.000000
# 2 -0.003981 0.013311 -0.007501 0.000000 0.000000 0.000000
# 3 -0.004552 -0.007501 0.035895 0.000000 0.000000 0.000000
# 4 0.000000 0.000000 0.000000 0.027229 0.000000 0.000000
# 5 0.000000 0.000000 0.000000 0.000000 0.024251 0.000000
# 6 0.000000 0.000000 0.000000 0.000000 0.000000 0.013416
#
#
# Mechanical properties :
#
#
# Convention : Reuss Voigt Hill
#
# Bulk Modulus (GPa) = 39.63678 71.46431 55.55054
# Shear Modulus (GPa) = 30.73627 43.19062 36.96345
#
# Velocity S-wave (km/s) = 3.73474 4.42720 4.09563
# Velocity P-wave (km/s) = 6.04856 7.65273 6.89744
#
# Compressibility (1/GPa) = 0.02522910
#
# Stress axis : x y z
#
# Youngs Moduli (GPa) = 123.56599 75.12765 27.85887
#
# Poissons Ratio (x) = 0.29909 0.12683
# Poissons Ratio (y) = 0.49193 0.20898
# Poissons Ratio (z) = 0.56253 0.56355
#
# Static dielectric constant tensor:
#      x y z
#    x 1.824640 0.000000 0.000000 
#    y 0.000000 1.889780 0.000000 
#    z 0.000000 0.000000 1.832530 
# 
# From -- ./inp_files/16371.got.cif
#   From: 2010.05.17/outbox.cif.g08.bks.cpg/sg54_9_cif.got.tgz:16371.got - 2010.06.03 13:09:01.
