data_PCOD9424756
_publ_section_title
;
Structure prediction by ZEFSAII (Michael W. Deem and Ramdas Pophale) SiO2 
 PCOD9424756
Probable space group: P B A M
;
_chemical_formula_sum "Si O2"
_cell_formula_units_Z 40
_cell_length_a 7.012798
_cell_length_b 27.414148
_cell_length_c 8.419416
_cell_angle_alpha 90.000000
_cell_angle_beta 90.000000
_cell_angle_gamma 90.000000
_cell_volume 1618.631735
_symmetry_space_group_name_H-M "P B A M"
_symmetry_group_IT_number 55
_symmetry_cell_setting 'orthorhombic'
loop_
_space_group_symop_operation_xyz
x,y,z
-x,-y,z
1/2+x,1/2-y,-z
1/2-x,1/2+y,-z
-x,-y,-z
x,y,-z
1/2-x,1/2+y,z
1/2+x,1/2-y,z
loop_
_atom_site_type_symbol
_atom_site_label
_atom_site_fract_x
_atom_site_fract_y
_atom_site_fract_z
Si Si1 0.297635 0.409836 0.807695
Si Si2 0.463316 0.215171 0.180642
Si Si3 0.725468 0.984836 0.814948
Si Si4 0.369071 0.116091 0.686896
Si Si5 0.354781 0.313337 0.684468
O O1 0.333496 0.466081 0.761064
O O2 0.426906 0.366568 0.736710
O O3 0.085746 0.398169 0.740067
O O4 0.295409 0.407950 0.000000
O O5 0.335322 0.169054 0.233305
O O6 0.676849 0.195700 0.199285
O O7 0.466556 0.263258 0.289216
O O8 0.419049 0.227952 0.000000
O O9 0.744329 0.932909 0.731511
O O10 0.500000 0.000000 0.806580
O O11 0.770520 0.976692 0.000000
O O12 0.360310 0.124021 0.500000
O O13 0.299271 0.316506 0.500000
#
# Coordination Sequence:
#
# PCOD9424756 Si02
#       5
#     8   8   8   8   8
#     4   9  16  27  42  62  90 124 158 192 236 289
#     4  11  21  35  52  71  98 133 168 200 242 295
#     4   8  14  24  38  58  87 121 154 189 233 286
#     4  10  17  25  40  64  92 121 155 197 242 283
#     4  11  21  34  51  74 101 128 163 207 249 286
#
# _framework density 24.712229000000001
#
# number of rings (size 3 to 8) (size 9 to 14) (size 15 to 20)
#    0.000    2.200    0.000    9.600    0.000    4.400 
#    0.000    0.000    0.000    0.000    0.000    1.400 
#    0.000   11.200    0.000    0.000    0.000    0.000 
#
# Total GULP energy -223446.282957 kJ/mol
# GULP energy per Si atom -5586.157074 kJ/mol
# Density = 2.465598 g / cm^3
# Si number density = 24.712229 Si / 1000 Ang^3
#
#
#
# Elastic Constant Matrix: (Units=GPa)
#
#
# Indices 1 2 3 4 5 6 
#
# 1 49.6578 35.1970 0.1481 0.0000 0.0000 0.0000
# 2 35.1970 192.8243 57.1144 0.0000 0.0000 0.0000
# 3 0.1481 57.1144 119.7661 0.0000 0.0000 0.0000
# 4 0.0000 0.0000 0.0000 31.0785 0.0000 0.0000
# 5 0.0000 0.0000 0.0000 0.0000 2.5869 0.0000
# 6 0.0000 0.0000 0.0000 0.0000 0.0000 48.2869
#
#
#
# Elastic Compliance Matrix: (Units=1/GPa)
#
#
# Indices 1 2 3 4 5 6 
#
# 1 0.023693 -0.005026 0.002368 0.000000 0.000000 0.000000
# 2 -0.005026 0.007105 -0.003382 0.000000 0.000000 0.000000
# 3 0.002368 -0.003382 0.009960 0.000000 0.000000 0.000000
# 4 0.000000 0.000000 0.000000 0.032177 0.000000 0.000000
# 5 0.000000 0.000000 0.000000 0.000000 0.386566 0.000000
# 6 0.000000 0.000000 0.000000 0.000000 0.000000 0.020710
#
#
# Mechanical properties :
#
#
# Convention : Reuss Voigt Hill
#
# Bulk Modulus (GPa) = 34.87155 60.79636 47.83396
# Shear Modulus (GPa) = 9.96313 34.37637 22.16975
#
# Velocity S-wave (km/s) = 2.01008 3.73375 2.99844
# Velocity P-wave (km/s) = 4.41915 6.57594 5.60231
#
# Compressibility (1/GPa) = 0.02867667
#
# Stress axis : x y z
#
# Youngs Moduli (GPa) = 42.20619 140.74005 100.40579
#
# Poissons Ratio (x) = 0.70737 -0.23772
# Poissons Ratio (y) = 0.21213 0.33959
# Poissons Ratio (z) = -0.09993 0.47601
#
# Static dielectric constant tensor:
#      x y z
#    x 2.139780 0.000000 0.000000 
#    y 0.000000 2.092760 0.000000 
#    z 0.000000 0.000000 1.812630 
# 
# From -- ./inp_files/2517.got.cif
#   From: 2010.05.17/outbox.cif.g08.bks.cpg/sg55_2_cif.got.tgz:2517.got - 2010.06.03 13:27:54.
