data_PCOD9424451
_publ_section_title
;
Structure prediction by ZEFSAII (Michael W. Deem and Ramdas Pophale) SiO2 
 PCOD9424451
Probable space group: P C C A
;
_chemical_formula_sum "Si O2"
_cell_formula_units_Z 36
_cell_length_a 8.090110
_cell_length_b 9.451393
_cell_length_c 20.343270
_cell_angle_alpha 90.000000
_cell_angle_beta 90.000000
_cell_angle_gamma 90.000000
_cell_volume 1555.503569
_symmetry_space_group_name_H-M "P C C A"
_symmetry_group_IT_number 54
_symmetry_cell_setting 'orthorhombic'
loop_
_space_group_symop_operation_xyz
x,y,z
1/2-x,-y,z
1/2+x,-y,1/2-z
-x,y,1/2-z
-x,-y,-z
1/2+x,y,-z
1/2-x,y,1/2+z
x,-y,1/2+z
loop_
_atom_site_type_symbol
_atom_site_label
_atom_site_fract_x
_atom_site_fract_y
_atom_site_fract_z
Si Si1 0.904019 0.903057 0.636989
Si Si2 0.786488 0.210437 0.512620
Si Si3 0.058031 0.403246 0.558372
Si Si4 0.070289 0.426568 0.322023
Si Si5 0.750000 0.000000 0.895760
O O1 0.843499 0.862350 0.562220
O O2 0.922280 0.743749 0.666609
O O3 0.750000 0.000000 0.662186
O O4 0.076588 0.992438 0.644537
O O5 0.724296 0.345176 0.472064
O O6 0.938087 0.263842 0.557182
O O7 0.807139 0.114197 0.449614
O O8 0.000000 0.500000 0.500000
O O9 0.042251 0.490306 0.624952
O O10 0.250000 0.500000 0.330053
O O11 0.000000 0.452377 0.250000
#
# Coordination Sequence:
#
# PCOD9424451 Si02
#       5
#     8   8   8   8   4
#     4  12  25  47  74 108 156 197 249 313 382 460
#     4  12  21  38  70 113 149 188 241 308 389 457
#     4  12  22  40  72 107 146 185 246 319 384 445
#     4  12  28  52  73 107 151 205 263 316 380 455
#     4  12  24  40  72 118 156 190 246 308 396 470
#
# _framework density 23.143630999999999
#
# number of rings (size 3 to 8) (size 9 to 14) (size 15 to 20)
#    0.000    0.000    7.778    2.667    0.000    3.556 
#    2.000    0.000    0.000    0.000    0.000    0.000 
#    0.000    0.000    0.000    0.000    0.000    0.000 
#
# Total GULP energy -200455.543706 kJ/mol
# GULP energy per Si atom -5568.209547 kJ/mol
# Density = 2.309095 g / cm^3
# Si number density = 23.143631 Si / 1000 Ang^3
#
#
#
# Elastic Constant Matrix: (Units=GPa)
#
#
# Indices 1 2 3 4 5 6 
#
# 1 157.9025 36.3975 13.2084 0.0000 0.0000 0.0000
# 2 36.3975 94.9078 4.3390 0.0000 0.0000 0.0000
# 3 13.2084 4.3390 80.0580 0.0000 0.0000 0.0000
# 4 0.0000 0.0000 0.0000 22.1875 0.0000 0.0000
# 5 0.0000 0.0000 0.0000 0.0000 23.7086 0.0000
# 6 0.0000 0.0000 0.0000 0.0000 0.0000 33.0756
#
#
#
# Elastic Compliance Matrix: (Units=1/GPa)
#
#
# Indices 1 2 3 4 5 6 
#
# 1 0.007029 -0.002649 -0.001016 0.000000 0.000000 0.000000
# 2 -0.002649 0.011561 -0.000190 0.000000 0.000000 0.000000
# 3 -0.001016 -0.000190 0.012669 0.000000 0.000000 0.000000
# 4 0.000000 0.000000 0.000000 0.045070 0.000000 0.000000
# 5 0.000000 0.000000 0.000000 0.000000 0.042179 0.000000
# 6 0.000000 0.000000 0.000000 0.000000 0.000000 0.030234
#
#
# Mechanical properties :
#
#
# Convention : Reuss Voigt Hill
#
# Bulk Modulus (GPa) = 42.46407 48.97313 45.71860
# Shear Modulus (GPa) = 30.43202 34.38923 32.41062
#
# Velocity S-wave (km/s) = 3.63012 3.85893 3.74627
# Velocity P-wave (km/s) = 5.99652 6.40793 6.20563
#
# Compressibility (1/GPa) = 0.02354932
#
# Stress axis : x y z
#
# Youngs Moduli (GPa) = 142.27508 86.49676 78.93380
#
# Poissons Ratio (x) = 0.22913 0.08020
# Poissons Ratio (y) = 0.37689 0.01496
# Poissons Ratio (z) = 0.14456 0.01639
#
# Static dielectric constant tensor:
#      x y z
#    x 1.314500 0.000000 0.000000 
#    y 0.000000 1.983330 0.000000 
#    z 0.000000 0.000000 1.785260 
# 
# From -- ./inp_files/20140.got.cif
#   From: 2010.05.17/outbox.cif.g08.bks.cpg/sg54_11_cif.got.tgz:20140.got - 2010.06.03 13:09:01.
