data_PCOD9424257
_publ_section_title
;
Structure prediction by ZEFSAII (Michael W. Deem and Ramdas Pophale) SiO2 
 PCOD9424257
Probable space group: P C C A
;
_chemical_formula_sum "Si O2"
_cell_formula_units_Z 20
_cell_length_a 18.990965
_cell_length_b 4.476704
_cell_length_c 8.138847
_cell_angle_alpha 90.000000
_cell_angle_beta 90.000000
_cell_angle_gamma 90.000000
_cell_volume 691.939777
_symmetry_space_group_name_H-M "P C C A"
_symmetry_group_IT_number 54
_symmetry_cell_setting 'orthorhombic'
loop_
_space_group_symop_operation_xyz
x,y,z
1/2-x,-y,z
1/2+x,-y,1/2-z
-x,y,1/2-z
-x,-y,-z
1/2+x,y,-z
1/2-x,y,1/2+z
x,-y,1/2+z
loop_
_atom_site_type_symbol
_atom_site_label
_atom_site_fract_x
_atom_site_fract_y
_atom_site_fract_z
Si Si1 0.398818 0.326934 0.487738
Si Si2 0.000000 0.702300 0.750000
Si Si3 0.302463 0.747142 0.713909
O O1 0.445769 0.148435 0.621453
O O2 0.451348 0.500384 0.366630
O O3 0.351050 0.564187 0.587020
O O4 0.350011 0.139737 0.365117
O O5 0.250000 0.500000 0.786725
O O6 0.250000 0.000000 0.648300
#
# Coordination Sequence:
#
# PCOD9424257 Si02
#       3
#     8   4   8
#     4   9  19  38  70 100 139 183 232 288 346 413
#     4   8  16  38  70 100 134 182 236 286 344 410
#     4  11  24  41  66 101 141 180 225 282 347 415
#
# _framework density 28.904253000000001
#
# number of rings (size 3 to 8) (size 9 to 14) (size 15 to 20)
#    0.000    2.400    0.000    1.200    0.000    6.400 
#    0.000    6.000    0.000  168.000    0.000    0.000 
#    0.000    0.000    0.000    0.000    0.000    0.000 
#
# Total GULP energy -112106.623400 kJ/mol
# GULP energy per Si atom -5605.331170 kJ/mol
# Density = 2.883847 g / cm^3
# Si number density = 28.904253 Si / 1000 Ang^3
#
#
#
# Elastic Constant Matrix: (Units=GPa)
#
#
# Indices 1 2 3 4 5 6 
#
# 1 176.4849 54.0534 120.4873 0.0000 0.0000 0.0000
# 2 54.0534 78.8271 31.8376 0.0000 0.0000 0.0000
# 3 120.4873 31.8376 179.3755 0.0000 0.0000 0.0000
# 4 0.0000 0.0000 0.0000 4.0869 0.0000 0.0000
# 5 0.0000 0.0000 0.0000 0.0000 125.9621 0.0000
# 6 0.0000 0.0000 0.0000 0.0000 0.0000 -15.5648
#
#
#
# Elastic Compliance Matrix: (Units=1/GPa)
#
#
# Indices 1 2 3 4 5 6 
#
# 1 0.012350 -0.005514 -0.007317 0.000000 0.000000 0.000000
# 2 -0.005514 0.016127 0.000841 0.000000 0.000000 0.000000
# 3 -0.007317 0.000841 0.010341 0.000000 0.000000 0.000000
# 4 0.000000 0.000000 0.000000 0.244687 0.000000 0.000000
# 5 0.000000 0.000000 0.000000 0.000000 0.007939 0.000000
# 6 0.000000 0.000000 0.000000 0.000000 0.000000 -0.064247
#
#
# Mechanical properties :
#
#
# Convention : Reuss Voigt Hill
#
# Bulk Modulus (GPa) = 67.39151 94.16045 80.77598
# Shear Modulus (GPa) = 19.52194 38.11744 28.81969
#
# Velocity S-wave (km/s) = 2.60167 3.63540 3.16107
# Velocity P-wave (km/s) = 5.69130 7.09006 6.42883
#
# Compressibility (1/GPa) = 0.01483866
#
# Stress axis : x y z
#
# Youngs Moduli (GPa) = 80.96918 62.00765 96.70612
#
# Poissons Ratio (x) = 0.34188 0.70762
# Poissons Ratio (y) = 0.44643 -0.08134
# Poissons Ratio (z) = 0.59247 -0.05215
#
# Static dielectric constant tensor:
#      x y z
#    x 2.245290 0.000000 0.000000 
#    y 0.000000 2.175740 0.000000 
#    z 0.000000 0.000000 2.155170 
# 
# From -- ./inp_files/3767.got.cif
#   From: 2010.05.17/outbox.cif.g08.bks.cpg/sg54_2_cif.got.tgz:3767.got - 2010.06.03 13:09:01.
