data_PCOD9424702
_publ_section_title
;
Structure prediction by ZEFSAII (Michael W. Deem and Ramdas Pophale) SiO2 
 PCOD9424702
Probable space group: P B A M
;
_chemical_formula_sum "Si O2"
_cell_formula_units_Z 48
_cell_length_a 26.278811
_cell_length_b 5.321618
_cell_length_c 22.099334
_cell_angle_alpha 90.000000
_cell_angle_beta 90.000000
_cell_angle_gamma 90.000000
_cell_volume 3090.498902
_symmetry_space_group_name_H-M "P B A M"
_symmetry_group_IT_number 55
_symmetry_cell_setting 'orthorhombic'
loop_
_space_group_symop_operation_xyz
x,y,z
-x,-y,z
1/2+x,1/2-y,-z
1/2-x,1/2+y,-z
-x,-y,-z
x,y,-z
1/2-x,1/2+y,z
1/2+x,1/2-y,z
loop_
_atom_site_type_symbol
_atom_site_label
_atom_site_fract_x
_atom_site_fract_y
_atom_site_fract_z
Si Si1 0.965296 0.249598 0.933238
Si Si2 0.607954 0.616878 0.428776
Si Si3 0.778555 0.967757 0.573694
Si Si4 0.562359 0.742044 0.800959
Si Si5 0.552810 0.113158 0.609532
Si Si6 0.446546 0.761003 0.749745
O O1 0.932086 0.230609 0.872879
O O2 0.000000 0.500000 0.927257
O O3 0.940673 0.261673 0.000000
O O4 0.000000 0.000000 0.932391
O O5 0.610102 0.680713 0.500000
O O6 0.663930 0.530732 0.407970
O O7 0.572490 0.369860 0.420937
O O8 0.589925 0.871998 0.395892
O O9 0.778491 0.963781 0.500000
O O10 0.741917 0.196062 0.593046
O O11 0.501504 0.750722 0.783827
O O12 0.580732 0.497567 0.765825
O O13 0.583031 0.001124 0.775518
O O14 0.544371 0.195236 0.679181
O O15 0.500000 0.000000 0.584639
#
# Coordination Sequence:
#
# PCOD9424702 Si02
#       6
#     8   8   8   8   8   8
#     4  10  16  22  33  53  74  92 119 175 243 265
#     4  11  24  37  50  70  90 110 142 179 226 280
#     4   9  17  33  56  74  87 103 126 166 222 279
#     4  10  15  27  40  53  69 100 146 184 214 249
#     4  12  23  34  48  63  90 124 154 183 211 253
#     4  10  18  27  42  55  70 104 150 180 204 237
#
# _framework density 15.531473999999999
#
# number of rings (size 3 to 8) (size 9 to 14) (size 15 to 20)
#    0.000    1.667    5.000    3.000    2.333    4.667 
#    0.000    0.000    0.000    0.000    0.000    0.000 
#    0.000    0.000    0.000    0.000    0.000    0.000 
#
# Total GULP energy -267292.173315 kJ/mol
# GULP energy per Si atom -5568.586944 kJ/mol
# Density = 1.549612 g / cm^3
# Si number density = 15.531474 Si / 1000 Ang^3
#
#
#
# Elastic Constant Matrix: (Units=GPa)
#
#
# Indices 1 2 3 4 5 6 
#
# 1 19.3095 -3.4462 3.3973 0.0000 0.0000 0.0000
# 2 -3.4462 118.2767 5.6908 0.0000 0.0000 0.0000
# 3 3.3973 5.6908 48.6413 0.0000 0.0000 0.0000
# 4 0.0000 0.0000 0.0000 27.2405 0.0000 0.0000
# 5 0.0000 0.0000 0.0000 0.0000 -4.6110 0.0000
# 6 0.0000 0.0000 0.0000 0.0000 0.0000 16.7967
#
#
#
# Elastic Compliance Matrix: (Units=1/GPa)
#
#
# Indices 1 2 3 4 5 6 
#
# 1 0.052780 0.001725 -0.003888 0.000000 0.000000 0.000000
# 2 0.001725 0.008559 -0.001122 0.000000 0.000000 0.000000
# 3 -0.003888 -0.001122 0.020961 0.000000 0.000000 0.000000
# 4 0.000000 0.000000 0.000000 0.036710 0.000000 0.000000
# 5 0.000000 0.000000 0.000000 0.000000 -0.216873 0.000000
# 6 0.000000 0.000000 0.000000 0.000000 0.000000 0.059536
#
#
# Mechanical properties :
#
#
# Convention : Reuss Voigt Hill
#
# Bulk Modulus (GPa) = 13.20476 21.94569 17.57523
# Shear Modulus (GPa) = -767.60345 19.92429 -373.83958
#
# Velocity S-wave (km/s) = -22.25528 3.58555 -15.53128
# Velocity P-wave (km/s) = 25.53186 5.59482 17.61497
#
# Compressibility (1/GPa) = 0.07573026
#
# Stress axis : x y z
#
# Youngs Moduli (GPa) = 18.94660 116.83623 47.70661
#
# Poissons Ratio (x) = -0.20153 0.18549
# Poissons Ratio (y) = -0.03268 0.05352
# Poissons Ratio (z) = 0.07367 0.13107
#
# Static dielectric constant tensor:
#      x y z
#    x 1.460360 0.000000 0.000000 
#    y 0.000000 1.576990 0.000000 
#    z 0.000000 0.000000 1.536650 
# 
# From -- ./inp_files/23155.got.cif
#   From: 2010.05.17/outbox.cif.g08.bks.cpg/sg55_12_cif.got.tgz:23155.got - 2010.06.03 13:27:54.
