data_PCOD9424818
_publ_section_title
;
Structure prediction by ZEFSAII (Michael W. Deem and Ramdas Pophale) SiO2 
 PCOD9424818
Probable space group: P B A M
;
_chemical_formula_sum "Si O2"
_cell_formula_units_Z 64
_cell_length_a 23.826952
_cell_length_b 19.698032
_cell_length_c 8.719532
_cell_angle_alpha 90.000000
_cell_angle_beta 90.000000
_cell_angle_gamma 90.000000
_cell_volume 4092.460576
_symmetry_space_group_name_H-M "P B A M"
_symmetry_group_IT_number 55
_symmetry_cell_setting 'orthorhombic'
loop_
_space_group_symop_operation_xyz
x,y,z
-x,-y,z
1/2+x,1/2-y,-z
1/2-x,1/2+y,-z
-x,-y,-z
x,y,-z
1/2-x,1/2+y,z
1/2+x,1/2-y,z
loop_
_atom_site_type_symbol
_atom_site_label
_atom_site_fract_x
_atom_site_fract_y
_atom_site_fract_z
Si Si1 0.730012 0.647650 0.817706
Si Si2 0.273331 0.644713 0.314173
Si Si3 0.937060 0.640054 0.817795
Si Si4 0.335981 0.231664 0.685189
Si Si5 0.382924 0.996042 0.684458
Si Si6 0.837953 0.725086 0.315586
Si Si7 0.250098 0.995447 0.314856
Si Si8 0.939152 0.360281 0.685151
O O1 0.680708 0.697337 0.760685
O O2 0.787151 0.677375 0.742605
O O3 0.723884 0.570797 0.761149
O O4 0.735126 0.650556 0.000000
O O5 0.273829 0.642579 0.500000
O O6 0.213684 0.678747 0.272052
O O7 0.320872 0.698472 0.267339
O O8 0.275868 0.567162 0.262287
O O9 0.912896 0.567702 0.761388
O O10 0.895622 0.696973 0.750116
O O11 0.000108 0.647978 0.757604
O O12 0.935653 0.642543 0.000000
O O13 0.334106 0.238845 0.500000
O O14 0.395032 0.198428 0.728353
O O15 0.387747 0.988706 0.500000
O O16 0.316757 0.997265 0.720914
O O17 0.412111 0.066940 0.727683
O O18 0.838899 0.721742 0.500000
O O19 0.245200 0.990261 0.500000
O O20 0.944112 0.359854 0.500000
#
# Coordination Sequence:
#
# PCOD9424818 Si02
#       8
#     8   8   8   8   8   8   8   8
#     4  11  21  31  46  73 104 131 159 196 245 299
#     4   8  15  29  52  76  93 116 160 209 249 284
#     4  12  24  34  46  69 103 137 169 204 246 294
#     4   9  17  33  53  72  93 125 166 208 245 286
#     4  10  19  32  51  71  96 133 173 208 238 281
#     4  10  19  34  53  70  92 127 169 211 246 285
#     4  10  17  30  52  75  98 129 163 200 244 292
#     4  10  20  35  54  73  94 129 178 214 243 285
#
# _framework density 15.638514000000001
#
# number of rings (size 3 to 8) (size 9 to 14) (size 15 to 20)
#    0.000    2.000    2.500    3.750    0.000    2.500 
#    0.000    3.125    0.000    0.000    0.000    0.875 
#    0.000    7.000    0.000    0.000    0.000    0.000 
#
# Total GULP energy -357119.823763 kJ/mol
# GULP energy per Si atom -5579.997246 kJ/mol
# Density = 1.560292 g / cm^3
# Si number density = 15.638514 Si / 1000 Ang^3
#
#
#
# Elastic Constant Matrix: (Units=GPa)
#
#
# Indices 1 2 3 4 5 6 
#
# 1 97.1675 77.2390 42.7263 0.0000 0.0000 0.0000
# 2 77.2390 158.4185 46.0296 0.0000 0.0000 0.0000
# 3 42.7263 46.0296 42.0415 0.0000 0.0000 0.0000
# 4 0.0000 0.0000 0.0000 -14.5750 0.0000 0.0000
# 5 0.0000 0.0000 0.0000 0.0000 4.8095 0.0000
# 6 0.0000 0.0000 0.0000 0.0000 0.0000 19.0723
#
#
#
# Elastic Compliance Matrix: (Units=1/GPa)
#
#
# Indices 1 2 3 4 5 6 
#
# 1 0.022145 -0.006244 -0.015669 0.000000 0.000000 0.000000
# 2 -0.006244 0.011018 -0.005717 0.000000 0.000000 0.000000
# 3 -0.015669 -0.005717 0.045970 0.000000 0.000000 0.000000
# 4 0.000000 0.000000 0.000000 -0.068611 0.000000 0.000000
# 5 0.000000 0.000000 0.000000 0.000000 0.207921 0.000000
# 6 0.000000 0.000000 0.000000 0.000000 0.000000 0.052432
#
#
# Mechanical properties :
#
#
# Convention : Reuss Voigt Hill
#
# Bulk Modulus (GPa) = 41.89052 69.95750 55.92401
# Shear Modulus (GPa) = 14.96580 10.63686 12.80133
#
# Velocity S-wave (km/s) = 3.09687 2.61084 2.86418
# Velocity P-wave (km/s) = 6.29543 7.34301 6.83931
#
# Compressibility (1/GPa) = 0.02387175
#
# Stress axis : x y z
#
# Youngs Moduli (GPa) = 45.15641 90.75964 21.75333
#
# Poissons Ratio (x) = 0.56674 0.34086
# Poissons Ratio (y) = 0.28198 0.12437
# Poissons Ratio (z) = 0.70756 0.51889
#
# Static dielectric constant tensor:
#      x y z
#    x 1.498180 0.000000 0.000000 
#    y 0.000000 1.529280 0.000000 
#    z 0.000000 0.000000 1.518360 
# 
# From -- ./inp_files/9869.got.cif
#   From: 2010.05.17/outbox.cif.g08.bks.cpg/sg55_5_cif.got.tgz:9869.got - 2010.06.03 13:27:54.
