data_PCOD9424137
_publ_section_title
;
Structure prediction by ZEFSAII (Michael W. Deem and Ramdas Pophale) SiO2 
 PCOD9424137
Probable space group: P C C A
;
_chemical_formula_sum "Si O2"
_cell_formula_units_Z 56
_cell_length_a 14.653413
_cell_length_b 14.858168
_cell_length_c 11.839896
_cell_angle_alpha 90.000000
_cell_angle_beta 90.000000
_cell_angle_gamma 90.000000
_cell_volume 2577.816163
_symmetry_space_group_name_H-M "P C C A"
_symmetry_group_IT_number 54
_symmetry_cell_setting 'orthorhombic'
loop_
_space_group_symop_operation_xyz
x,y,z
1/2-x,-y,z
1/2+x,-y,1/2-z
-x,y,1/2-z
-x,-y,-z
1/2+x,y,-z
1/2-x,y,1/2+z
x,-y,1/2+z
loop_
_atom_site_type_symbol
_atom_site_label
_atom_site_fract_x
_atom_site_fract_y
_atom_site_fract_z
Si Si1 0.516971 0.322504 0.624473
Si Si2 0.354886 0.018193 0.755969
Si Si3 0.328408 0.366680 0.038001
Si Si4 0.001983 0.884967 0.901308
Si Si5 0.434641 0.156600 0.355952
Si Si6 0.895772 0.658069 0.220187
Si Si7 0.633009 0.428155 0.008494
O O1 0.500000 0.360188 0.750000
O O2 0.617553 0.323095 0.567497
O O3 0.484615 0.219096 0.630393
O O4 0.457056 0.381161 0.538336
O O5 0.398664 0.085083 0.853257
O O6 0.424016 0.050176 0.654968
O O7 0.250000 0.000000 0.718404
O O8 0.371235 0.922686 0.815231
O O9 0.351015 0.324418 0.159125
O O10 0.359490 0.471153 0.036955
O O11 0.220454 0.371524 0.028832
O O12 0.988596 0.878740 0.035337
O O13 0.500000 0.170298 0.250000
O O14 0.388367 0.254344 0.361302
O O15 0.000000 0.638967 0.250000
O O16 0.862492 0.574916 0.144772
#
# Coordination Sequence:
#
# PCOD9424137 Si02
#       7
#     8   8   8   8   8   8   8
#     4  12  24  44  72 100 141 185 235 301 358 423
#     4  11  25  42  69 104 136 183 231 286 360 424
#     4  11  27  43  69 105 144 189 242 301 361 433
#     4  11  23  49  67 101 144 177 237 293 352 425
#     4  11  22  44  69  92 136 184 225 296 349 414
#     4  11  23  44  68  98 135 185 245 284 361 434
#     4  11  26  44  67 104 141 192 237 300 363 422
#
# _framework density 21.723814000000001
#
# number of rings (size 3 to 8) (size 9 to 14) (size 15 to 20)
#    0.000    0.857    5.714    1.714    4.000    4.000 
#    0.000    0.000    0.000    0.000    0.000    0.000 
#    0.000    0.000    0.000    0.000    0.000    0.000 
#
# Total GULP energy -311987.552248 kJ/mol
# GULP energy per Si atom -5571.206290 kJ/mol
# Density = 2.167437 g / cm^3
# Si number density = 21.723814 Si / 1000 Ang^3
#
#
#
# Elastic Constant Matrix: (Units=GPa)
#
#
# Indices 1 2 3 4 5 6 
#
# 1 77.4135 0.6024 14.0891 0.0000 0.0000 0.0000
# 2 0.6024 43.5108 14.8485 0.0000 0.0000 0.0000
# 3 14.0891 14.8485 127.2043 0.0000 0.0000 0.0000
# 4 0.0000 0.0000 0.0000 27.1227 0.0000 0.0000
# 5 0.0000 0.0000 0.0000 0.0000 18.0375 0.0000
# 6 0.0000 0.0000 0.0000 0.0000 0.0000 12.2060
#
#
#
# Elastic Compliance Matrix: (Units=1/GPa)
#
#
# Indices 1 2 3 4 5 6 
#
# 1 0.013188 0.000329 -0.001499 0.000000 0.000000 0.000000
# 2 0.000329 0.023945 -0.002831 0.000000 0.000000 0.000000
# 3 -0.001499 -0.002831 0.008358 0.000000 0.000000 0.000000
# 4 0.000000 0.000000 0.000000 0.036870 0.000000 0.000000
# 5 0.000000 0.000000 0.000000 0.000000 0.055440 0.000000
# 6 0.000000 0.000000 0.000000 0.000000 0.000000 0.081927
#
#
# Mechanical properties :
#
#
# Convention : Reuss Voigt Hill
#
# Bulk Modulus (GPa) = 26.67575 34.13429 30.40502
# Shear Modulus (GPa) = 20.81377 26.04582 23.42979
#
# Velocity S-wave (km/s) = 3.09869 3.46635 3.28766
# Velocity P-wave (km/s) = 5.01085 5.63628 5.33275
#
# Compressibility (1/GPa) = 0.03748723
#
# Stress axis : x y z
#
# Youngs Moduli (GPa) = 75.82700 41.76319 119.64699
#
# Poissons Ratio (x) = -0.01374 0.17936
# Poissons Ratio (y) = -0.02495 0.33878
# Poissons Ratio (z) = 0.11367 0.11825
#
# Static dielectric constant tensor:
#      x y z
#    x 1.772280 0.000000 0.000000 
#    y 0.000000 1.900640 0.000000 
#    z 0.000000 0.000000 1.863140 
# 
# From -- ./inp_files/8461.got.cif
#   From: 2010.05.17/outbox.cif.g08.bks.cpg/sg54_5_cif.got.tgz:8461.got - 2010.06.03 13:09:01.
