data_PCOD9424633
_publ_section_title
;
Structure prediction by ZEFSAII (Michael W. Deem and Ramdas Pophale) SiO2 
 PCOD9424633
Probable space group: P C C A
;
_chemical_formula_sum "Si O2"
_cell_formula_units_Z 40
_cell_length_a 12.000000
_cell_length_b 12.000000
_cell_length_c 15.000000
_cell_angle_alpha 90.000000
_cell_angle_beta 90.000000
_cell_angle_gamma 90.000000
_cell_volume 2160.000000
_symmetry_space_group_name_H-M "P C C A"
_symmetry_group_IT_number 54
_symmetry_cell_setting 'orthorhombic'
loop_
_space_group_symop_operation_xyz
x,y,z
1/2-x,-y,z
1/2+x,-y,1/2-z
-x,y,1/2-z
-x,-y,-z
1/2+x,y,-z
1/2-x,y,1/2+z
x,-y,1/2+z
loop_
_atom_site_type_symbol
_atom_site_label
_atom_site_fract_x
_atom_site_fract_y
_atom_site_fract_z
Si Si1 0.150499 0.784763 0.953519
Si Si2 0.185995 0.308150 0.265756
Si Si3 0.500000 0.507966 0.250000
Si Si4 0.054385 0.885757 0.661596
Si Si5 0.340739 0.600620 0.614107
Si Si6 0.750000 0.000000 0.447679
O O1 0.211506 0.736174 0.864939
O O2 0.034799 0.833722 0.909308
O O3 0.142586 0.687594 0.030867
O O4 0.213904 0.891582 0.994988
O O5 0.118356 0.216337 0.209071
O O6 0.286294 0.339087 0.200415
O O7 0.104238 0.413778 0.276411
O O8 0.545367 0.446302 0.339902
O O9 0.143839 0.962975 0.611842
O O10 0.000000 0.943240 0.750000
O O11 0.250000 0.500000 0.591592
#
# Coordination Sequence:
#
# PCOD9424633 Si02
#       6
#     8   8   4   8   8   4
#     4  11  23  41  66  96 130 169 219 268 323 391
#     4  10  20  43  61  88 135 169 201 270 332 377
#     4  10  20  40  62  88 132 166 214 262 324 390
#     4  10  22  43  66  89 132 176 208 269 333 376
#     4  10  23  40  64  99 127 171 215 265 325 393
#     4  12  24  42  68  98 128 170 228 268 316 406
#
# _framework density 18.518519000000001
#
# number of rings (size 3 to 8) (size 9 to 14) (size 15 to 20)
#    0.000    1.600    5.000    0.600    0.000    8.000 
#    1.800    0.000    0.000    0.000    0.000    0.000 
#    0.000    0.000    0.000    0.000    0.000    0.000 
#
# Total GULP energy -222910.836916 kJ/mol
# GULP energy per Si atom -5572.770923 kJ/mol
# Density = 1.847637 g / cm^3
# Si number density = 18.518519 Si / 1000 Ang^3
#
#
#
# Elastic Constant Matrix: (Units=GPa)
#
#
# Indices 1 2 3 4 5 6 
#
# 1 65.7868 25.8253 55.8031 0.0000 0.0000 0.0000
# 2 25.8253 96.6575 76.5273 0.0000 0.0000 0.0000
# 3 55.8031 76.5273 175.4111 0.0000 0.0000 0.0000
# 4 0.0000 0.0000 0.0000 24.9922 0.0000 0.0000
# 5 0.0000 0.0000 0.0000 0.0000 36.5248 0.0000
# 6 0.0000 0.0000 0.0000 0.0000 0.0000 25.5283
#
#
#
# Elastic Compliance Matrix: (Units=1/GPa)
#
#
# Indices 1 2 3 4 5 6 
#
# 1 0.020833 -0.000487 -0.006415 0.000000 0.000000 0.000000
# 2 -0.000487 0.015817 -0.006745 0.000000 0.000000 0.000000
# 3 -0.006415 -0.006745 0.010685 0.000000 0.000000 0.000000
# 4 0.000000 0.000000 0.000000 0.040012 0.000000 0.000000
# 5 0.000000 0.000000 0.000000 0.000000 0.027379 0.000000
# 6 0.000000 0.000000 0.000000 0.000000 0.000000 0.039172
#
#
# Mechanical properties :
#
#
# Convention : Reuss Voigt Hill
#
# Bulk Modulus (GPa) = 49.90248 72.68519 61.29383
# Shear Modulus (GPa) = 26.61373 29.38904 28.00138
#
# Velocity S-wave (km/s) = 3.79508 3.98805 3.89276
# Velocity P-wave (km/s) = 6.79774 7.78083 7.30584
#
# Compressibility (1/GPa) = 0.02003909
#
# Stress axis : x y z
#
# Youngs Moduli (GPa) = 47.99972 63.22503 93.59333
#
# Poissons Ratio (x) = 0.03081 0.60041
# Poissons Ratio (y) = 0.02339 0.63132
# Poissons Ratio (z) = 0.30792 0.42647
#
# Static dielectric constant tensor:
#      x y z
#    x 1.693920 0.000000 0.000000 
#    y 0.000000 1.680260 0.000000 
#    z 0.000000 0.000000 1.633220 
# 
# From -- ./inp_files/12498.got.cif
#   From: 2010.05.17/outbox.ucp.g08.bks.cvg/sg54_7_cif.got.tgz:12498.got - 2010.06.11 16:34:40.
