data_PCOD9424544
_publ_section_title
;
Structure prediction by ZEFSAII (Michael W. Deem and Ramdas Pophale) SiO2 
 PCOD9424544
Probable space group: P C C A
;
_chemical_formula_sum "Si O2"
_cell_formula_units_Z 32
_cell_length_a 13.057821
_cell_length_b 4.829567
_cell_length_c 20.169213
_cell_angle_alpha 90.000000
_cell_angle_beta 90.000000
_cell_angle_gamma 90.000000
_cell_volume 1271.943612
_symmetry_space_group_name_H-M "P C C A"
_symmetry_group_IT_number 54
_symmetry_cell_setting 'orthorhombic'
loop_
_space_group_symop_operation_xyz
x,y,z
1/2-x,-y,z
1/2+x,-y,1/2-z
-x,y,1/2-z
-x,-y,-z
1/2+x,y,-z
1/2-x,y,1/2+z
x,-y,1/2+z
loop_
_atom_site_type_symbol
_atom_site_label
_atom_site_fract_x
_atom_site_fract_y
_atom_site_fract_z
Si Si1 0.500000 0.535969 0.250000
Si Si2 0.354293 0.868996 0.663804
Si Si3 0.944008 0.892098 0.635066
Si Si4 0.094894 0.413085 0.953061
Si Si5 0.250000 0.500000 0.554238
O O1 0.577344 0.328537 0.288866
O O2 0.429944 0.745404 0.293833
O O3 0.317691 0.690131 0.601404
O O4 0.250000 0.000000 0.692900
O O5 0.431294 0.104617 0.636520
O O6 0.884393 0.697402 0.584792
O O7 0.922362 0.195873 0.606287
O O8 0.180584 0.323207 0.004274
O O9 0.000000 0.500000 0.000000
#
# Coordination Sequence:
#
# PCOD9424544 Si02
#       5
#     4   8   8   8   4
#     4  12  26  54  82 118 172 214 276 342 412 498
#     4  12  26  49  86 123 155 222 277 334 414 489
#     4  12  26  49  82 114 161 218 257 344 404 479
#     4  12  25  47  79 120 163 204 273 338 408 481
#     4  12  28  48  84 124 164 218 278 338 412 498
#
# _framework density 25.158348
#
# number of rings (size 3 to 8) (size 9 to 14) (size 15 to 20)
#    0.000    0.000    5.000    4.500    3.500    0.000 
#    0.000    6.250    5.500    0.000    0.000    0.000 
#    0.000    0.000    0.000    0.000    0.000    0.000 
#
# Total GULP energy -178693.572305 kJ/mol
# GULP energy per Si atom -5584.174135 kJ/mol
# Density = 2.510109 g / cm^3
# Si number density = 25.158348 Si / 1000 Ang^3
#
#
#
# Elastic Constant Matrix: (Units=GPa)
#
#
# Indices 1 2 3 4 5 6 
#
# 1 112.8783 39.7642 63.5459 0.0000 0.0000 0.0000
# 2 39.7642 132.2091 42.3167 0.0000 0.0000 0.0000
# 3 63.5459 42.3167 133.2905 0.0000 0.0000 0.0000
# 4 0.0000 0.0000 0.0000 44.5256 0.0000 0.0000
# 5 0.0000 0.0000 0.0000 0.0000 61.8851 0.0000
# 6 0.0000 0.0000 0.0000 0.0000 0.0000 41.3761
#
#
#
# Elastic Compliance Matrix: (Units=1/GPa)
#
#
# Indices 1 2 3 4 5 6 
#
# 1 0.012602 -0.002078 -0.005348 0.000000 0.000000 0.000000
# 2 -0.002078 0.008762 -0.001791 0.000000 0.000000 0.000000
# 3 -0.005348 -0.001791 0.010621 0.000000 0.000000 0.000000
# 4 0.000000 0.000000 0.000000 0.022459 0.000000 0.000000
# 5 0.000000 0.000000 0.000000 0.000000 0.016159 0.000000
# 6 0.000000 0.000000 0.000000 0.000000 0.000000 0.024169
#
#
# Mechanical properties :
#
#
# Convention : Reuss Voigt Hill
#
# Bulk Modulus (GPa) = 73.80122 74.40347 74.10234
# Shear Modulus (GPa) = 42.47257 45.07408 43.77332
#
# Velocity S-wave (km/s) = 4.11324 4.23734 4.17575
# Velocity P-wave (km/s) = 7.20810 7.31972 7.26413
#
# Compressibility (1/GPa) = 0.01354991
#
# Stress axis : x y z
#
# Youngs Moduli (GPa) = 79.35196 114.12753 94.15597
#
# Poissons Ratio (x) = 0.23721 0.50356
# Poissons Ratio (y) = 0.16493 0.16862
# Poissons Ratio (z) = 0.42438 0.20439
#
# Static dielectric constant tensor:
#      x y z
#    x 2.014140 0.000000 0.000000 
#    y 0.000000 2.209840 0.000000 
#    z 0.000000 0.000000 1.632180 
# 
# From -- ./inp_files/17638.got.cif
#   From: 2010.05.17/outbox.cif.g08.bks.cpg/sg54_9_cif.got.tgz:17638.got - 2010.06.03 13:09:01.
