data_PCOD9424656
_publ_section_title
;
Structure prediction by ZEFSAII (Michael W. Deem and Ramdas Pophale) SiO2 
 PCOD9424656
Probable space group: P C C A
;
_chemical_formula_sum "Si O2"
_cell_formula_units_Z 64
_cell_length_a 24.000000
_cell_length_b 15.000000
_cell_length_c 9.000000
_cell_angle_alpha 90.000000
_cell_angle_beta 90.000000
_cell_angle_gamma 90.000000
_cell_volume 3240.000000
_symmetry_space_group_name_H-M "P C C A"
_symmetry_group_IT_number 54
_symmetry_cell_setting 'orthorhombic'
loop_
_space_group_symop_operation_xyz
x,y,z
1/2-x,-y,z
1/2+x,-y,1/2-z
-x,y,1/2-z
-x,-y,-z
1/2+x,y,-z
1/2-x,y,1/2+z
x,-y,1/2+z
loop_
_atom_site_type_symbol
_atom_site_label
_atom_site_fract_x
_atom_site_fract_y
_atom_site_fract_z
Si Si1 0.416041 0.056356 0.484926
Si Si2 0.100391 0.634196 0.426800
Si Si3 0.823370 0.807720 0.096131
Si Si4 0.508473 0.208233 0.081065
Si Si5 0.264066 0.894940 0.192760
Si Si6 0.879666 0.101285 0.200227
Si Si7 0.559272 0.279053 0.660010
Si Si8 0.567752 0.531344 0.265890
O O1 0.376155 0.125143 0.395714
O O2 0.471313 0.116556 0.495235
O O3 0.391160 0.050036 0.647563
O O4 0.412698 0.958648 0.416791
O O5 0.153389 0.704627 0.418517
O O6 0.050677 0.707456 0.428909
O O7 0.095055 0.560884 0.293517
O O8 0.088845 0.570964 0.573805
O O9 0.785285 0.835774 0.236222
O O10 0.790165 0.842254 0.948667
O O11 0.500000 0.185045 0.250000
O O12 0.453483 0.245981 0.004659
O O13 0.313355 0.898951 0.317453
O O14 0.250000 0.000000 0.160386
O O15 0.900601 0.202644 0.223026
O O16 0.500000 0.275341 0.750000
O O17 0.579390 0.380462 0.665523
O O18 0.500000 0.518054 0.250000
#
# Coordination Sequence:
#
# PCOD9424656 Si02
#       8
#     8   8   8   8   8   8   8   8
#     4  10  22  38  55  87 125 167 203 255 309 371
#     4  11  23  42  64  95 128 160 208 266 316 371
#     4  10  23  42  64  93 129 156 206 269 318 368
#     4  11  23  38  56  87 129 166 207 251 305 378
#     4  11  21  40  68  94 121 161 211 259 310 370
#     4  11  23  37  61  87 126 164 212 256 313 377
#     4  11  21  41  58  85 128 169 204 252 315 368
#     4  11  21  38  68  94 124 168 209 256 308 373
#
# _framework density 19.753086
#
# number of rings (size 3 to 8) (size 9 to 14) (size 15 to 20)
#    0.000    1.250    5.000    2.625    5.250    1.000 
#    2.250    1.250    0.000    6.000    0.000    0.000 
#    0.000    0.000    0.000    0.000    0.000    0.000 
#
# Total GULP energy -356719.423443 kJ/mol
# GULP energy per Si atom -5573.740991 kJ/mol
# Density = 1.970813 g / cm^3
# Si number density = 19.753086 Si / 1000 Ang^3
#
#
#
# Elastic Constant Matrix: (Units=GPa)
#
#
# Indices 1 2 3 4 5 6 
#
# 1 63.5198 49.8485 18.2282 0.0000 0.0000 0.0000
# 2 49.8485 148.3873 12.4386 0.0000 0.0000 0.0000
# 3 18.2282 12.4386 33.6128 0.0000 0.0000 0.0000
# 4 0.0000 0.0000 0.0000 31.6600 0.0000 0.0000
# 5 0.0000 0.0000 0.0000 0.0000 18.9190 0.0000
# 6 0.0000 0.0000 0.0000 0.0000 0.0000 28.9450
#
#
#
# Elastic Compliance Matrix: (Units=1/GPa)
#
#
# Indices 1 2 3 4 5 6 
#
# 1 0.024562 -0.007363 -0.010595 0.000000 0.000000 0.000000
# 2 -0.007363 0.009162 0.000602 0.000000 0.000000 0.000000
# 3 -0.010595 0.000602 0.035273 0.000000 0.000000 0.000000
# 4 0.000000 0.000000 0.000000 0.031586 0.000000 0.000000
# 5 0.000000 0.000000 0.000000 0.000000 0.052857 0.000000
# 6 0.000000 0.000000 0.000000 0.000000 0.000000 0.034548
#
#
# Mechanical properties :
#
#
# Convention : Reuss Voigt Hill
#
# Bulk Modulus (GPa) = 29.16647 45.17227 37.16937
# Shear Modulus (GPa) = 21.35581 26.90511 24.13046
#
# Velocity S-wave (km/s) = 3.29163 3.69463 3.49894
# Velocity P-wave (km/s) = 5.40778 6.41237 5.93138
#
# Compressibility (1/GPa) = 0.03428595
#
# Stress axis : x y z
#
# Youngs Moduli (GPa) = 40.71343 109.14493 28.35000
#
# Poissons Ratio (x) = 0.80364 0.30037
# Poissons Ratio (y) = 0.29978 -0.01708
# Poissons Ratio (z) = 0.43136 -0.06576
#
# Static dielectric constant tensor:
#      x y z
#    x 1.788890 0.000000 0.000000 
#    y 0.000000 1.657760 0.000000 
#    z 0.000000 0.000000 1.782740 
# 
# From -- ./inp_files/5292.got.cif
#   From: 2010.05.17/outbox.ucp.g08.bks.cvg/sg54_3_cif.got.tgz:5292.got - 2010.06.11 16:34:40.
