data_PCOD9424744
_publ_section_title
;
Structure prediction by ZEFSAII (Michael W. Deem and Ramdas Pophale) SiO2 
 PCOD9424744
Probable space group: P B A M
;
_chemical_formula_sum "Si O2"
_cell_formula_units_Z 52
_cell_length_a 13.070833
_cell_length_b 18.911015
_cell_length_c 11.715844
_cell_angle_alpha 90.000000
_cell_angle_beta 90.000000
_cell_angle_gamma 90.000000
_cell_volume 2895.954174
_symmetry_space_group_name_H-M "P B A M"
_symmetry_group_IT_number 55
_symmetry_cell_setting 'orthorhombic'
loop_
_space_group_symop_operation_xyz
x,y,z
-x,-y,z
1/2+x,1/2-y,-z
1/2-x,1/2+y,-z
-x,-y,-z
x,y,-z
1/2-x,1/2+y,z
1/2+x,1/2-y,z
loop_
_atom_site_type_symbol
_atom_site_label
_atom_site_fract_x
_atom_site_fract_y
_atom_site_fract_z
Si Si1 0.193517 0.165387 0.000000
Si Si2 0.377452 0.998642 0.364873
Si Si3 0.603675 0.283736 0.633127
Si Si4 0.598097 0.726332 0.247968
Si Si5 0.776688 0.662452 0.000000
Si Si6 0.723266 0.867504 0.247434
Si Si7 0.191119 0.354942 0.749640
Si Si8 0.456456 0.315265 0.000000
O O1 0.213018 0.251115 0.000000
O O2 0.244975 0.135261 0.114438
O O3 0.070626 0.151793 0.000000
O O4 0.357948 0.008386 0.500000
O O5 0.334235 0.923943 0.321634
O O6 0.500000 0.000000 0.348046
O O7 0.324157 0.060500 0.292727
O O8 0.622792 0.274413 0.500000
O O9 0.486303 0.296835 0.662181
O O10 0.675532 0.344714 0.683322
O O11 0.629580 0.211539 0.700016
O O12 0.643372 0.803806 0.269711
O O13 0.691801 0.671680 0.254459
O O14 0.551318 0.725839 0.120053
O O15 0.828162 0.635409 0.115502
O O16 0.654283 0.644258 0.000000
#
# Coordination Sequence:
#
# PCOD9424744 Si02
#       8
#     4   8   8   8   4   8   8   4
#     4  12  18  35  62  90 119 149 189 250 312 342
#     4  11  25  44  61  82 123 168 200 236 291 356
#     4  11  21  34  57  88 116 153 205 250 290 343
#     4  10  19  35  60  88 115 149 199 249 297 347
#     4  10  18  37  61  92 117 147 193 253 301 354
#     4  11  22  37  60  90 120 156 198 249 295 353
#     4  10  21  38  61  86 119 153 197 245 301 350
#     4  10  16  32  59  85 117 148 179 240 307 352
#
# _framework density 17.956085000000002
#
# number of rings (size 3 to 8) (size 9 to 14) (size 15 to 20)
#    0.000    1.385    6.154    1.846    0.000    5.538 
#    0.000    1.538    0.000    3.692    0.000    0.000 
#    0.000    0.000    0.000    0.000    0.000    0.000 
#
# Total GULP energy -290130.639538 kJ/mol
# GULP energy per Si atom -5579.435376 kJ/mol
# Density = 1.791522 g / cm^3
# Si number density = 17.956085 Si / 1000 Ang^3
#
#
#
# Elastic Constant Matrix: (Units=GPa)
#
#
# Indices 1 2 3 4 5 6 
#
# 1 64.1154 32.7497 38.5902 0.0000 0.0000 0.0000
# 2 32.7497 75.4963 11.1924 0.0000 0.0000 0.0000
# 3 38.5902 11.1924 79.2409 0.0000 0.0000 0.0000
# 4 0.0000 0.0000 0.0000 26.9549 0.0000 0.0000
# 5 0.0000 0.0000 0.0000 0.0000 26.1415 0.0000
# 6 0.0000 0.0000 0.0000 0.0000 0.0000 2.1048
#
#
#
# Elastic Compliance Matrix: (Units=1/GPa)
#
#
# Indices 1 2 3 4 5 6 
#
# 1 0.028377 -0.010480 -0.012339 0.000000 0.000000 0.000000
# 2 -0.010480 0.017400 0.002646 0.000000 0.000000 0.000000
# 3 -0.012339 0.002646 0.018255 0.000000 0.000000 0.000000
# 4 0.000000 0.000000 0.000000 0.037099 0.000000 0.000000
# 5 0.000000 0.000000 0.000000 0.000000 0.038253 0.000000
# 6 0.000000 0.000000 0.000000 0.000000 0.000000 0.475110
#
#
# Mechanical properties :
#
#
# Convention : Reuss Voigt Hill
#
# Bulk Modulus (GPa) = 42.22050 42.65745 42.43897
# Shear Modulus (GPa) = 7.54448 20.12827 13.83637
#
# Velocity S-wave (km/s) = 2.05201 3.35172 2.77892
# Velocity P-wave (km/s) = 5.40172 6.22791 5.82947
#
# Compressibility (1/GPa) = 0.02368518
#
# Stress axis : x y z
#
# Youngs Moduli (GPa) = 35.23975 57.47230 54.77900
#
# Poissons Ratio (x) = 0.60233 0.67593
# Poissons Ratio (y) = 0.36933 -0.14496
# Poissons Ratio (z) = 0.43483 -0.15209
#
# Static dielectric constant tensor:
#      x y z
#    x 1.644050 0.000000 0.000000 
#    y 0.000000 1.574780 0.000000 
#    z 0.000000 0.000000 1.627030 
# 
# From -- ./inp_files/14334.got.cif
#   From: 2010.05.17/outbox.cif.g08.bks.cpg/sg55_8_cif.got.tgz:14334.got - 2010.06.03 13:27:54.
