data_PCOD9424790
_publ_section_title
;
Structure prediction by ZEFSAII (Michael W. Deem and Ramdas Pophale) SiO2 
 PCOD9424790
Probable space group: P B A M
;
_chemical_formula_sum "Si O2"
_cell_formula_units_Z 64
_cell_length_a 24.255225
_cell_length_b 19.684024
_cell_length_c 7.965998
_cell_angle_alpha 90.000000
_cell_angle_beta 90.000000
_cell_angle_gamma 90.000000
_cell_volume 3803.289519
_symmetry_space_group_name_H-M "P B A M"
_symmetry_group_IT_number 55
_symmetry_cell_setting 'orthorhombic'
loop_
_space_group_symop_operation_xyz
x,y,z
-x,-y,z
1/2+x,1/2-y,-z
1/2-x,1/2+y,-z
-x,-y,-z
x,y,-z
1/2-x,1/2+y,z
1/2+x,1/2-y,z
loop_
_atom_site_type_symbol
_atom_site_label
_atom_site_fract_x
_atom_site_fract_y
_atom_site_fract_z
Si Si1 0.437724 0.857855 0.294888
Si Si2 0.937724 0.357855 0.294888
Si Si3 0.723344 0.353973 0.195727
Si Si4 0.223344 0.853973 0.804274
Si Si5 0.755977 0.500000 0.202990
Si Si6 0.667797 0.221977 0.696786
Si Si7 0.384510 0.000000 0.297495
Si Si8 0.167797 0.721977 0.696786
O O1 0.439202 0.858312 0.500000
O O2 0.500000 0.846106 0.236325
O O3 0.392105 0.802377 0.245025
O O4 0.415017 0.931544 0.240520
O O5 0.939202 0.358312 0.500000
O O6 0.915017 0.431543 0.240520
O O7 0.892106 0.302377 0.245025
O O8 0.728344 0.430229 0.264437
O O9 0.681865 0.301012 0.280545
O O10 0.784024 0.320267 0.212633
O O11 0.708938 0.356951 0.000000
O O12 0.284024 0.820268 0.787368
O O13 0.181865 0.801012 0.719455
O O14 0.228344 0.930229 0.735563
O O15 0.208938 0.856951 0.000000
O O16 0.820641 0.500000 0.246953
O O17 0.752614 0.500000 0.000000
O O18 0.673064 0.204942 0.500000
O O19 0.386322 0.000000 0.500000
O O20 0.173063 0.704943 0.500000
#
# Coordination Sequence:
#
# PCOD9424790 Si02
#       8
#     8   8   8   8   8   8   8   8
#     4   9  17  28  44  67  93 121 153 186 221 261
#     4   9  17  28  44  67  93 121 153 186 221 261
#     4  10  19  31  46  63  89 120 149 184 228 271
#     4  10  19  31  46  63  89 120 149 184 228 271
#     4  10  20  31  45  65  91 123 152 182 226 271
#     4  10  18  29  46  68  90 115 150 188 223 262
#     4  10  17  28  46  66  90 123 157 187 212 252
#     4  10  18  29  46  68  90 115 150 188 223 262
#
# _framework density 16.827538000000001
#
# number of rings (size 3 to 8) (size 9 to 14) (size 15 to 20)
#    0.000    2.250    2.500    3.375    0.000    2.500 
#    0.000    0.000    0.000    7.500    0.000    0.875 
#    0.000    7.000    0.000    0.000    0.000    0.000 
#
# Total GULP energy -356926.739392 kJ/mol
# GULP energy per Si atom -5576.980303 kJ/mol
# Density = 1.678924 g / cm^3
# Si number density = 16.827538 Si / 1000 Ang^3
#
#
#
# Elastic Constant Matrix: (Units=GPa)
#
#
# Indices 1 2 3 4 5 6 
#
# 1 116.6237 75.7948 0.4680 0.0000 0.0000 0.0000
# 2 75.7948 134.6759 -4.1653 0.0000 0.0000 0.0000
# 3 0.4680 -4.1653 15.6102 0.0000 0.0000 0.0000
# 4 0.0000 0.0000 0.0000 -2.2986 0.0000 0.0000
# 5 0.0000 0.0000 0.0000 0.0000 -186.0021 0.0000
# 6 0.0000 0.0000 0.0000 0.0000 0.0000 18.9800
#
#
#
# Elastic Compliance Matrix: (Units=1/GPa)
#
#
# Indices 1 2 3 4 5 6 
#
# 1 0.013614 -0.007738 -0.002473 0.000000 0.000000 0.000000
# 2 -0.007738 0.011885 0.003403 0.000000 0.000000 0.000000
# 3 -0.002473 0.003403 0.065043 0.000000 0.000000 0.000000
# 4 0.000000 0.000000 0.000000 -0.435049 0.000000 0.000000
# 5 0.000000 0.000000 0.000000 0.000000 -0.005376 0.000000
# 6 0.000000 0.000000 0.000000 0.000000 0.000000 0.052687
#
#
# Mechanical properties :
#
#
# Convention : Reuss Voigt Hill
#
# Bulk Modulus (GPa) = 12.99938 45.67832 29.33885
# Shear Modulus (GPa) = -19.38448 -20.87664 -20.13056
#
# Velocity S-wave (km/s) = -3.39772 -3.52607 -3.46249
# Velocity P-wave (km/s) = 2.76602 3.25981 1.21974
#
# Compressibility (1/GPa) = 0.07692675
#
# Stress axis : x y z
#
# Youngs Moduli (GPa) = 73.45603 84.13637 15.37444
#
# Poissons Ratio (x) = 0.65106 0.03802
# Poissons Ratio (y) = 0.56841 -0.05233
# Poissons Ratio (z) = 0.18165 -0.28635
#
# Static dielectric constant tensor:
#      x y z
#    x 1.545800 0.000000 0.000000 
#    y 0.000000 1.591910 0.000000 
#    z 0.000000 0.000000 1.600250 
# 
# From -- ./inp_files/9889.got.cif
#   From: 2010.05.17/outbox.cif.g08.bks.cpg/sg55_5_cif.got.tgz:9889.got - 2010.06.03 13:27:54.
