data_PCOD9424567
_publ_section_title
;
Structure prediction by ZEFSAII (Michael W. Deem and Ramdas Pophale) SiO2 
 PCOD9424567
Probable space group: P C C A
;
_chemical_formula_sum "Si O2"
_cell_formula_units_Z 20
_cell_length_a 11.392594
_cell_length_b 4.865235
_cell_length_c 14.570908
_cell_angle_alpha 90.000000
_cell_angle_beta 90.000000
_cell_angle_gamma 90.000000
_cell_volume 807.631146
_symmetry_space_group_name_H-M "P C C A"
_symmetry_group_IT_number 54
_symmetry_cell_setting 'orthorhombic'
loop_
_space_group_symop_operation_xyz
x,y,z
1/2-x,-y,z
1/2+x,-y,1/2-z
-x,y,1/2-z
-x,-y,-z
1/2+x,y,-z
1/2-x,y,1/2+z
x,-y,1/2+z
loop_
_atom_site_type_symbol
_atom_site_label
_atom_site_fract_x
_atom_site_fract_y
_atom_site_fract_z
Si Si1 0.250000 0.500000 0.556462
Si Si2 0.859117 0.893799 0.095879
Si Si3 0.992142 0.618875 0.852079
O O1 0.288912 0.252239 0.488575
O O2 0.365787 0.498378 0.619049
O O3 0.924716 0.643139 0.142054
O O4 0.750000 0.000000 0.156291
O O5 0.951528 0.143823 0.083085
O O6 0.000000 0.736129 0.750000
#
# Coordination Sequence:
#
# PCOD9424567 Si02
#       3
#     4   8   8
#     4  12  28  46  86 106 156 208 256 308 382 456
#     4  12  26  49  77 109 154 200 260 308 379 461
#     4  12  29  49  76 116 156 198 257 321 384 445
#
# _framework density 24.763780000000001
#
# number of rings (size 3 to 8) (size 9 to 14) (size 15 to 20)
#    0.000    0.000    4.000    3.600   11.200    0.000 
#    0.000    0.000    0.000    0.000    0.000    0.000 
#    0.000    0.000    0.000    0.000    0.000    0.000 
#
# Total GULP energy -111661.650994 kJ/mol
# GULP energy per Si atom -5583.082550 kJ/mol
# Density = 2.470742 g / cm^3
# Si number density = 24.763780 Si / 1000 Ang^3
#
#
#
# Elastic Constant Matrix: (Units=GPa)
#
#
# Indices 1 2 3 4 5 6 
#
# 1 207.0971 76.1635 80.6077 0.0000 0.0000 0.0000
# 2 76.1635 150.7310 19.9796 0.0000 0.0000 0.0000
# 3 80.6077 19.9796 88.4260 0.0000 0.0000 0.0000
# 4 0.0000 0.0000 0.0000 166.1601 0.0000 0.0000
# 5 0.0000 0.0000 0.0000 0.0000 0.2231 0.0000
# 6 0.0000 0.0000 0.0000 0.0000 0.0000 36.2874
#
#
#
# Elastic Compliance Matrix: (Units=1/GPa)
#
#
# Indices 1 2 3 4 5 6 
#
# 1 0.009038 -0.003582 -0.007429 0.000000 0.000000 0.000000
# 2 -0.003582 0.008259 0.001399 0.000000 0.000000 0.000000
# 3 -0.007429 0.001399 0.017765 0.000000 0.000000 0.000000
# 4 0.000000 0.000000 0.000000 0.006018 0.000000 0.000000
# 5 0.000000 0.000000 0.000000 0.000000 4.481493 0.000000
# 6 0.000000 0.000000 0.000000 0.000000 0.000000 0.027558
#
#
# Mechanical properties :
#
#
# Convention : Reuss Voigt Hill
#
# Bulk Modulus (GPa) = 63.14099 88.86176 76.00138
# Shear Modulus (GPa) = 1.09298 58.50101 29.79700
#
# Velocity S-wave (km/s) = 0.66507 4.86569 3.47255
# Velocity P-wave (km/s) = 5.11297 8.21755 6.84363
#
# Compressibility (1/GPa) = 0.01583757
#
# Stress axis : x y z
#
# Youngs Moduli (GPa) = 110.64884 121.08318 56.29012
#
# Poissons Ratio (x) = 0.43371 0.41819
# Poissons Ratio (y) = 0.39633 -0.07876
# Poissons Ratio (z) = 0.82203 -0.16941
#
# Static dielectric constant tensor:
#      x y z
#    x 2.106420 0.000000 0.000000 
#    y 0.000000 2.204100 0.000000 
#    z 0.000000 0.000000 1.991760 
# 
# From -- ./inp_files/11955.got.cif
#   From: 2010.05.17/outbox.cif.g08.bks.cpg/sg54_6_cif.got.tgz:11955.got - 2010.06.03 13:09:01.
