data_PCOD9424266
_publ_section_title
;
Structure prediction by ZEFSAII (Michael W. Deem and Ramdas Pophale) SiO2 
 PCOD9424266
Probable space group: P C C A
;
_chemical_formula_sum "Si O2"
_cell_formula_units_Z 40
_cell_length_a 9.407319
_cell_length_b 18.633260
_cell_length_c 10.476254
_cell_angle_alpha 90.000000
_cell_angle_beta 90.000000
_cell_angle_gamma 90.000000
_cell_volume 1836.372306
_symmetry_space_group_name_H-M "P C C A"
_symmetry_group_IT_number 54
_symmetry_cell_setting 'orthorhombic'
loop_
_space_group_symop_operation_xyz
x,y,z
1/2-x,-y,z
1/2+x,-y,1/2-z
-x,y,1/2-z
-x,-y,-z
1/2+x,y,-z
1/2-x,y,1/2+z
x,-y,1/2+z
loop_
_atom_site_type_symbol
_atom_site_label
_atom_site_fract_x
_atom_site_fract_y
_atom_site_fract_z
Si Si1 0.518688 0.185480 0.387826
Si Si2 0.355050 0.315632 0.790411
Si Si3 0.213218 0.747465 0.539374
Si Si4 0.085050 0.975695 0.375165
Si Si5 0.085566 0.522561 0.873148
O O1 0.500000 0.221793 0.250000
O O2 0.443298 0.228026 0.500816
O O3 0.686421 0.186413 0.416624
O O4 0.436667 0.110341 0.375618
O O5 0.500000 0.276145 0.750000
O O6 0.276418 0.311515 0.652677
O O7 0.402098 0.392363 0.846527
O O8 0.270280 0.280143 0.904142
O O9 0.000000 0.002875 0.250000
O O10 0.250000 0.000000 0.374847
O O11 0.000000 0.000000 0.500000
O O12 0.250000 0.500000 0.880316
O O13 0.000000 0.492236 0.750000
O O14 0.000000 0.500000 0.000000
#
# Coordination Sequence:
#
# PCOD9424266 Si02
#       5
#     8   8   8   8   8
#     4  11  24  42  67 101 138 183 230 295 357 426
#     4  11  26  43  70 104 138 184 235 286 358 429
#     4  12  23  44  67  99 142 178 235 285 356 430
#     4  11  24  45  69 102 139 187 244 300 368 430
#     4  11  27  48  72 106 142 188 240 295 362 429
#
# _framework density 21.782077000000001
#
# number of rings (size 3 to 8) (size 9 to 14) (size 15 to 20)
#    0.000    0.800    4.000    2.400    8.400    1.600 
#    3.600    0.000    0.000    0.000    0.000    0.000 
#    0.000    0.000    0.000    0.000    0.000    0.000 
#
# Total GULP energy -222967.611567 kJ/mol
# GULP energy per Si atom -5574.190289 kJ/mol
# Density = 2.173250 g / cm^3
# Si number density = 21.782077 Si / 1000 Ang^3
#
#
#
# Elastic Constant Matrix: (Units=GPa)
#
#
# Indices 1 2 3 4 5 6 
#
# 1 145.1072 13.8870 80.1009 0.0000 0.0000 0.0000
# 2 13.8870 43.2460 38.3803 0.0000 0.0000 0.0000
# 3 80.1009 38.3803 226.8547 0.0000 0.0000 0.0000
# 4 0.0000 0.0000 0.0000 28.5491 0.0000 0.0000
# 5 0.0000 0.0000 0.0000 0.0000 47.1921 0.0000
# 6 0.0000 0.0000 0.0000 0.0000 0.0000 27.3105
#
#
#
# Elastic Compliance Matrix: (Units=1/GPa)
#
#
# Indices 1 2 3 4 5 6 
#
# 1 0.008560 -0.000078 -0.003009 0.000000 0.000000 0.000000
# 2 -0.000078 0.027210 -0.004576 0.000000 0.000000 0.000000
# 3 -0.003009 -0.004576 0.006245 0.000000 0.000000 0.000000
# 4 0.000000 0.000000 0.000000 0.035027 0.000000 0.000000
# 5 0.000000 0.000000 0.000000 0.000000 0.021190 0.000000
# 6 0.000000 0.000000 0.000000 0.000000 0.000000 0.036616
#
#
# Mechanical properties :
#
#
# Convention : Reuss Voigt Hill
#
# Bulk Modulus (GPa) = 37.46997 75.54939 56.50968
# Shear Modulus (GPa) = 31.43260 39.46631 35.44945
#
# Velocity S-wave (km/s) = 3.80287 4.26123 4.03856
# Velocity P-wave (km/s) = 6.04334 7.67921 6.90985
#
# Compressibility (1/GPa) = 0.02668804
#
# Stress axis : x y z
#
# Youngs Moduli (GPa) = 116.82109 36.75172 160.13218
#
# Poissons Ratio (x) = 0.00287 0.48189
# Poissons Ratio (y) = 0.00912 0.73275
# Poissons Ratio (z) = 0.35155 0.16817
#
# Static dielectric constant tensor:
#      x y z
#    x 1.872940 0.000000 0.000000 
#    y 0.000000 2.294590 0.000000 
#    z 0.000000 0.000000 1.834270 
# 
# From -- ./inp_files/2523.got.cif
#   From: 2010.05.17/outbox.cif.g08.bks.cpg/sg54_2_cif.got.tgz:2523.got - 2010.06.03 13:09:01.
