data_PCOD9424664
_publ_section_title
;
Structure prediction by ZEFSAII (Michael W. Deem and Ramdas Pophale) SiO2 
 PCOD9424664
Probable space group: P C C A
;
_chemical_formula_sum "Si O2"
_cell_formula_units_Z 60
_cell_length_a 27.000000
_cell_length_b 6.000000
_cell_length_c 18.000000
_cell_angle_alpha 90.000000
_cell_angle_beta 90.000000
_cell_angle_gamma 90.000000
_cell_volume 2916.000000
_symmetry_space_group_name_H-M "P C C A"
_symmetry_group_IT_number 54
_symmetry_cell_setting 'orthorhombic'
loop_
_space_group_symop_operation_xyz
x,y,z
1/2-x,-y,z
1/2+x,-y,1/2-z
-x,y,1/2-z
-x,-y,-z
1/2+x,y,-z
1/2-x,y,1/2+z
x,-y,1/2+z
loop_
_atom_site_type_symbol
_atom_site_label
_atom_site_fract_x
_atom_site_fract_y
_atom_site_fract_z
Si Si1 0.018681 0.633569 0.172382
Si Si2 0.340403 0.343974 0.046592
Si Si3 0.130503 0.691555 0.882153
Si Si4 0.750000 0.500000 0.857967
Si Si5 0.388543 0.061588 0.165232
Si Si6 0.201059 0.856073 0.753811
Si Si7 0.428197 0.688026 0.071565
Si Si8 0.924523 0.188275 0.598907
O O1 0.071343 0.754155 0.189172
O O2 0.028726 0.474395 0.101539
O O3 0.000000 0.528537 0.250000
O O4 0.975611 0.800388 0.144977
O O5 0.289488 0.383998 0.088405
O O6 0.365770 0.135965 0.086578
O O7 0.377666 0.547811 0.062458
O O8 0.339541 0.312187 0.959265
O O9 0.170382 0.720552 0.816251
O O10 0.102595 0.439310 0.881619
O O11 0.100568 0.938474 0.884958
O O12 0.721889 0.319209 0.806784
O O13 0.341989 0.013634 0.218253
O O14 0.419296 0.845491 0.142458
O O15 0.250000 0.000000 0.777617
O O16 0.435833 0.796207 0.990190
#
# Coordination Sequence:
#
# PCOD9424664 Si02
#       8
#     8   8   8   4   8   8   8   8
#     4  11  26  40  68 105 141 189 242 293 366 431
#     4  10  22  45  67 103 131 190 237 301 346 439
#     4  11  27  47  74 104 151 181 245 303 368 421
#     4  12  24  42  74  98 140 186 250 288 372 434
#     4  11  22  43  69  97 140 186 239 293 355 437
#     4  12  27  45  73 105 145 193 237 306 375 433
#     4  10  22  42  70  95 141 183 240 292 358 421
#     4  11  25  48  72 106 142 193 237 303 358 434
#
# _framework density 20.576132000000001
#
# number of rings (size 3 to 8) (size 9 to 14) (size 15 to 20)
#    0.000    1.067    4.000    1.200    5.600    1.600 
#    4.800    0.000    0.000    0.000    0.000    0.000 
#    0.000    0.000    0.000    0.000    0.000    0.000 
#
# Total GULP energy -334437.219075 kJ/mol
# GULP energy per Si atom -5573.953651 kJ/mol
# Density = 2.052930 g / cm^3
# Si number density = 20.576132 Si / 1000 Ang^3
#
#
#
# Elastic Constant Matrix: (Units=GPa)
#
#
# Indices 1 2 3 4 5 6 
#
# 1 100.9723 20.2183 40.9207 0.0000 0.0000 0.0000
# 2 20.2183 71.1436 -6.2530 0.0000 0.0000 0.0000
# 3 40.9207 -6.2530 68.8209 0.0000 0.0000 0.0000
# 4 0.0000 0.0000 0.0000 30.5568 0.0000 0.0000
# 5 0.0000 0.0000 0.0000 0.0000 42.5530 0.0000
# 6 0.0000 0.0000 0.0000 0.0000 0.0000 21.4606
#
#
#
# Elastic Compliance Matrix: (Units=1/GPa)
#
#
# Indices 1 2 3 4 5 6 
#
# 1 0.014594 -0.004950 -0.009127 0.000000 0.000000 0.000000
# 2 -0.004950 0.015848 0.004383 0.000000 0.000000 0.000000
# 3 -0.009127 0.004383 0.020356 0.000000 0.000000 0.000000
# 4 0.000000 0.000000 0.000000 0.032726 0.000000 0.000000
# 5 0.000000 0.000000 0.000000 0.000000 0.023500 0.000000
# 6 0.000000 0.000000 0.000000 0.000000 0.000000 0.046597
#
#
# Mechanical properties :
#
#
# Convention : Reuss Voigt Hill
#
# Bulk Modulus (GPa) = 31.83719 38.96765 35.40242
# Shear Modulus (GPa) = 27.25123 31.31744 29.28434
#
# Velocity S-wave (km/s) = 3.64319 3.90555 3.77665
# Velocity P-wave (km/s) = 5.76226 6.27034 6.02166
#
# Compressibility (1/GPa) = 0.03140981
#
# Stress axis : x y z
#
# Youngs Moduli (GPa) = 68.52269 63.09969 49.12638
#
# Poissons Ratio (x) = 0.31232 0.44838
# Poissons Ratio (y) = 0.33916 -0.21532
# Poissons Ratio (z) = 0.62541 -0.27656
#
# Static dielectric constant tensor:
#      x y z
#    x 1.727040 0.000000 0.000000 
#    y 0.000000 1.841470 0.000000 
#    z 0.000000 0.000000 1.742820 
# 
# From -- ./inp_files/19241.got.cif
#   From: 2010.05.17/outbox.ucp.g08.bks.cvg/sg54_10_cif.got.tgz:19241.got - 2010.06.11 16:34:40.
