data_PCOD9424731
_publ_section_title
;
Structure prediction by ZEFSAII (Michael W. Deem and Ramdas Pophale) SiO2 
 PCOD9424731
Probable space group: P B A M
;
_chemical_formula_sum "Si O2"
_cell_formula_units_Z 42
_cell_length_a 13.691878
_cell_length_b 9.477861
_cell_length_c 12.531327
_cell_angle_alpha 90.000000
_cell_angle_beta 90.000000
_cell_angle_gamma 90.000000
_cell_volume 1626.186752
_symmetry_space_group_name_H-M "P B A M"
_symmetry_group_IT_number 55
_symmetry_cell_setting 'orthorhombic'
loop_
_space_group_symop_operation_xyz
x,y,z
-x,-y,z
1/2+x,1/2-y,-z
1/2-x,1/2+y,-z
-x,-y,-z
x,y,-z
1/2-x,1/2+y,z
1/2+x,1/2-y,z
loop_
_atom_site_type_symbol
_atom_site_label
_atom_site_fract_x
_atom_site_fract_y
_atom_site_fract_z
Si Si1 0.000000 0.000000 0.000000
Si Si2 0.696396 0.745705 0.766145
Si Si3 0.253860 0.023292 0.621670
Si Si4 0.373654 0.931725 0.000000
Si Si5 0.045092 0.155801 0.611712
Si Si6 0.079058 0.230786 0.165685
Si Si7 0.823772 0.246087 0.000000
O O1 0.948713 0.899669 0.908210
O O2 0.713807 0.610603 0.689431
O O3 0.805148 0.783966 0.809952
O O4 0.672444 0.883574 0.694018
O O5 0.638914 0.711487 0.878016
O O6 0.285808 0.985665 0.500000
O O7 0.160443 0.125831 0.607440
O O8 0.432349 0.875448 0.898768
O O9 0.275845 0.838611 0.000000
O O10 0.335501 0.087906 0.000000
O O11 0.011979 0.221959 0.500000
O O12 0.024720 0.232153 0.721507
O O13 0.000000 0.000000 0.617419
#
# Coordination Sequence:
#
# PCOD9424731 Si02
#       7
#     2   8   8   4   8   8   4
#     4  10  16  28  46  68 102 134 176 222 264 322
#     4  10  19  32  51  77 112 144 180 228 283 346
#     4  10  20  33  52  80 113 146 180 229 290 342
#     4   9  18  29  48  73 105 138 176 223 271 328
#     4   9  17  31  51  76 108 138 181 234 277 325
#     4   9  17  28  46  72 103 135 172 221 277 317
#     4  10  18  32  48  73 109 143 181 221 277 333
#
# _framework density 25.827293000000001
#
# number of rings (size 3 to 8) (size 9 to 14) (size 15 to 20)
#    0.000    2.476    0.952    3.429    0.000    0.762 
#    0.000    0.952    0.000    0.000    0.000   13.333 
#    0.000   48.762    0.000    0.000    0.000    0.000 
#
# Total GULP energy -233877.962540 kJ/mol
# GULP energy per Si atom -5568.522918 kJ/mol
# Density = 2.576851 g / cm^3
# Si number density = 25.827293 Si / 1000 Ang^3
#
#
#
# Elastic Constant Matrix: (Units=GPa)
#
#
# Indices 1 2 3 4 5 6 
#
# 1 48.3916 13.6352 21.4057 0.0000 0.0000 0.0000
# 2 13.6352 131.3823 86.8322 0.0000 0.0000 0.0000
# 3 21.4057 86.8322 284.8479 0.0000 0.0000 0.0000
# 4 0.0000 0.0000 0.0000 -8.0409 0.0000 0.0000
# 5 0.0000 0.0000 0.0000 0.0000 63.0644 0.0000
# 6 0.0000 0.0000 0.0000 0.0000 0.0000 38.5356
#
#
#
# Elastic Compliance Matrix: (Units=1/GPa)
#
#
# Indices 1 2 3 4 5 6 
#
# 1 0.021598 -0.001464 -0.001177 0.000000 0.000000 0.000000
# 2 -0.001464 0.009631 -0.002826 0.000000 0.000000 0.000000
# 3 -0.001177 -0.002826 0.004461 0.000000 0.000000 0.000000
# 4 0.000000 0.000000 0.000000 -0.124364 0.000000 0.000000
# 5 0.000000 0.000000 0.000000 0.000000 0.015857 0.000000
# 6 0.000000 0.000000 0.000000 0.000000 0.000000 0.025950
#
#
# Mechanical properties :
#
#
# Convention : Reuss Voigt Hill
#
# Bulk Modulus (GPa) = 40.39357 78.70755 59.55056
# Shear Modulus (GPa) = -180.61433 41.56172 -69.52631
#
# Velocity S-wave (km/s) = -8.37158 4.01586 -5.19405
# Velocity P-wave (km/s) = 8.81877 7.21412 3.58658
#
# Compressibility (1/GPa) = 0.02475641
#
# Stress axis : x y z
#
# Youngs Moduli (GPa) = 46.30112 103.83206 224.18938
#
# Poissons Ratio (x) = 0.15198 0.26384
# Poissons Ratio (y) = 0.06777 0.63353
# Poissons Ratio (z) = 0.05449 0.29342
#
# Static dielectric constant tensor:
#      x y z
#    x 2.252650 0.000000 0.000000 
#    y 0.000000 1.969230 0.000000 
#    z 0.000000 0.000000 2.188410 
# 
# From -- ./inp_files/15595.got.cif
#   From: 2010.05.17/outbox.cif.g08.bks.cpg/sg55_8_cif.got.tgz:15595.got - 2010.06.03 13:27:54.
