data_PCOD9424171
_publ_section_title
;
Structure prediction by ZEFSAII (Michael W. Deem and Ramdas Pophale) SiO2 
 PCOD9424171
Probable space group: P C C A
;
_chemical_formula_sum "Si O2"
_cell_formula_units_Z 48
_cell_length_a 25.478814
_cell_length_b 11.141109
_cell_length_c 8.976112
_cell_angle_alpha 90.000000
_cell_angle_beta 90.000000
_cell_angle_gamma 90.000000
_cell_volume 2547.979294
_symmetry_space_group_name_H-M "P C C A"
_symmetry_group_IT_number 54
_symmetry_cell_setting 'orthorhombic'
loop_
_space_group_symop_operation_xyz
x,y,z
1/2-x,-y,z
1/2+x,-y,1/2-z
-x,y,1/2-z
-x,-y,-z
1/2+x,y,-z
1/2-x,y,1/2+z
x,-y,1/2+z
loop_
_atom_site_type_symbol
_atom_site_label
_atom_site_fract_x
_atom_site_fract_y
_atom_site_fract_z
Si Si1 0.294384 0.148720 0.490611
Si Si2 0.190767 0.551311 0.974871
Si Si3 0.885529 0.962262 0.478213
Si Si4 0.855434 0.348357 0.332421
Si Si5 0.061960 0.844897 0.731562
Si Si6 0.194459 0.795331 0.156390
O O1 0.320224 0.239245 0.608028
O O2 0.289257 0.206506 0.327939
O O3 0.237603 0.130862 0.561865
O O4 0.335758 0.041900 0.470265
O O5 0.250000 0.500000 0.959409
O O6 0.152138 0.451262 0.044089
O O7 0.193029 0.663228 0.087747
O O8 0.168334 0.599024 0.819311
O O9 0.911992 0.895516 0.616629
O O10 0.860790 0.862573 0.368140
O O11 0.923360 0.055611 0.393626
O O12 0.911093 0.283095 0.307109
O O13 0.000000 0.834255 0.750000
#
# Coordination Sequence:
#
# PCOD9424171 Si02
#       6
#     8   8   8   8   8   8
#     4  11  24  37  60  97 131 169 208 247 314 384
#     4  12  23  38  63  92 133 171 208 249 310 380
#     4  11  23  41  67  93 128 166 205 271 323 381
#     4  11  24  41  64  94 126 173 214 262 309 375
#     4  11  24  46  69  93 122 165 221 275 329 376
#     4  12  23  38  61  93 136 172 209 247 310 389
#
# _framework density 18.838456999999998
#
# number of rings (size 3 to 8) (size 9 to 14) (size 15 to 20)
#    0.000    0.667    5.000    3.500    2.333    1.333 
#    0.000    0.833    0.000    0.000    0.000    0.000 
#    0.000    0.000    0.000    0.000    0.000    0.000 
#
# Total GULP energy -268211.150708 kJ/mol
# GULP energy per Si atom -5587.732306 kJ/mol
# Density = 1.879558 g / cm^3
# Si number density = 18.838457 Si / 1000 Ang^3
#
#
#
# Elastic Constant Matrix: (Units=GPa)
#
#
# Indices 1 2 3 4 5 6 
#
# 1 113.1993 66.6076 42.3205 0.0000 0.0000 0.0000
# 2 66.6076 92.9419 17.7792 0.0000 0.0000 0.0000
# 3 42.3205 17.7792 87.3215 0.0000 0.0000 0.0000
# 4 0.0000 0.0000 0.0000 13.3142 0.0000 0.0000
# 5 0.0000 0.0000 0.0000 0.0000 3.0598 0.0000
# 6 0.0000 0.0000 0.0000 0.0000 0.0000 21.6502
#
#
#
# Elastic Compliance Matrix: (Units=1/GPa)
#
#
# Indices 1 2 3 4 5 6 
#
# 1 0.018169 -0.011796 -0.006404 0.000000 0.000000 0.000000
# 2 -0.011796 0.018854 0.001878 0.000000 0.000000 0.000000
# 3 -0.006404 0.001878 0.014173 0.000000 0.000000 0.000000
# 4 0.000000 0.000000 0.000000 0.075108 0.000000 0.000000
# 5 0.000000 0.000000 0.000000 0.000000 0.326816 0.000000
# 6 0.000000 0.000000 0.000000 0.000000 0.000000 0.046189
#
#
# Mechanical properties :
#
#
# Convention : Reuss Voigt Hill
#
# Bulk Modulus (GPa) = 53.90070 60.76414 57.33242
# Shear Modulus (GPa) = 9.29133 18.72186 14.00659
#
# Velocity S-wave (km/s) = 2.22324 3.15590 2.72970
# Velocity P-wave (km/s) = 5.93840 6.75315 6.35883
#
# Compressibility (1/GPa) = 0.01855263
#
# Stress axis : x y z
#
# Youngs Moduli (GPa) = 55.03889 53.03975 70.55574
#
# Poissons Ratio (x) = 0.62565 0.45183
# Poissons Ratio (y) = 0.64923 -0.13252
# Poissons Ratio (z) = 0.35246 -0.09962
#
# Static dielectric constant tensor:
#      x y z
#    x 1.634330 0.000000 0.000000 
#    y 0.000000 1.689910 0.000000 
#    z 0.000000 0.000000 1.652850 
# 
# From -- ./inp_files/5142.got.cif
#   From: 2010.05.17/outbox.cif.g08.bks.cpg/sg54_3_cif.got.tgz:5142.got - 2010.06.03 13:09:01.
