data_PCOD9424307
_publ_section_title
;
Structure prediction by ZEFSAII (Michael W. Deem and Ramdas Pophale) SiO2 
 PCOD9424307
Probable space group: P C C A
;
_chemical_formula_sum "Si O2"
_cell_formula_units_Z 36
_cell_length_a 16.530967
_cell_length_b 5.173932
_cell_length_c 19.519722
_cell_angle_alpha 90.000000
_cell_angle_beta 90.000000
_cell_angle_gamma 90.000000
_cell_volume 1669.523758
_symmetry_space_group_name_H-M "P C C A"
_symmetry_group_IT_number 54
_symmetry_cell_setting 'orthorhombic'
loop_
_space_group_symop_operation_xyz
x,y,z
1/2-x,-y,z
1/2+x,-y,1/2-z
-x,y,1/2-z
-x,-y,-z
1/2+x,y,-z
1/2-x,y,1/2+z
x,-y,1/2+z
loop_
_atom_site_type_symbol
_atom_site_label
_atom_site_fract_x
_atom_site_fract_y
_atom_site_fract_z
Si Si1 0.992150 0.816631 0.327546
Si Si2 0.250000 0.500000 0.226774
Si Si3 0.325215 0.803449 0.850826
Si Si4 0.198060 0.262658 0.003233
Si Si5 0.104977 0.685063 0.633833
O O1 0.947612 0.578612 0.365324
O O2 0.000000 0.722534 0.250000
O O3 0.082793 0.897393 0.349072
O O4 0.940265 0.075139 0.332196
O O5 0.192749 0.650997 0.280783
O O6 0.312170 0.649344 0.177430
O O7 0.250000 0.000000 0.853084
O O8 0.322847 0.665608 0.924900
O O9 0.250000 0.500000 0.031175
O O10 0.124594 0.238033 0.055633
O O11 0.250000 0.000000 0.004070
#
# Coordination Sequence:
#
# PCOD9424307 Si02
#       5
#     8   4   8   8   8
#     4  12  26  45  68 107 141 177 234 294 341 409
#     4  12  24  44  74 100 134 194 228 284 354 426
#     4  11  26  45  73  99 141 187 236 284 356 417
#     4  11  24  45  71 103 140 185 236 287 341 421
#     4  12  27  43  73 103 140 181 232 287 350 412
#
# _framework density 21.563037999999999
#
# number of rings (size 3 to 8) (size 9 to 14) (size 15 to 20)
#    0.000    0.444    4.444    3.333    3.111    1.778 
#    0.000    0.000    0.000    0.000    0.000    0.000 
#    0.000    0.000    0.000    0.000    0.000    0.000 
#
# Total GULP energy -200959.635887 kJ/mol
# GULP energy per Si atom -5582.212108 kJ/mol
# Density = 2.151396 g / cm^3
# Si number density = 21.563038 Si / 1000 Ang^3
#
#
#
# Elastic Constant Matrix: (Units=GPa)
#
#
# Indices 1 2 3 4 5 6 
#
# 1 136.8589 39.5015 32.4441 0.0000 0.0000 0.0000
# 2 39.5015 88.5674 1.1705 0.0000 0.0000 0.0000
# 3 32.4441 1.1705 113.1093 0.0000 0.0000 0.0000
# 4 0.0000 0.0000 0.0000 31.3055 0.0000 0.0000
# 5 0.0000 0.0000 0.0000 0.0000 39.2576 0.0000
# 6 0.0000 0.0000 0.0000 0.0000 0.0000 43.8056
#
#
#
# Elastic Compliance Matrix: (Units=1/GPa)
#
#
# Indices 1 2 3 4 5 6 
#
# 1 0.009072 -0.004012 -0.002561 0.000000 0.000000 0.000000
# 2 -0.004012 0.013067 0.001016 0.000000 0.000000 0.000000
# 3 -0.002561 0.001016 0.009565 0.000000 0.000000 0.000000
# 4 0.000000 0.000000 0.000000 0.031943 0.000000 0.000000
# 5 0.000000 0.000000 0.000000 0.000000 0.025473 0.000000
# 6 0.000000 0.000000 0.000000 0.000000 0.000000 0.022828
#
#
# Mechanical properties :
#
#
# Convention : Reuss Voigt Hill
#
# Bulk Modulus (GPa) = 48.56903 53.86309 51.21606
# Shear Modulus (GPa) = 38.48355 40.56835 39.52595
#
# Velocity S-wave (km/s) = 4.22915 4.34220 4.28605
# Velocity P-wave (km/s) = 6.81328 7.08330 6.94960
#
# Compressibility (1/GPa) = 0.02058925
#
# Stress axis : x y z
#
# Youngs Moduli (GPa) = 110.23064 76.52923 104.54798
#
# Poissons Ratio (x) = 0.30706 0.26771
# Poissons Ratio (y) = 0.44227 -0.10618
# Poissons Ratio (z) = 0.28226 -0.07773
#
# Static dielectric constant tensor:
#      x y z
#    x 1.879930 0.000000 0.000000 
#    y 0.000000 1.829870 0.000000 
#    z 0.000000 0.000000 1.778370 
# 
# From -- ./inp_files/21333.got.cif
#   From: 2010.05.17/outbox.cif.g08.bks.cpg/sg54_11_cif.got.tgz:21333.got - 2010.06.03 13:09:01.
