data_PCOD9424674
_publ_section_title
;
Structure prediction by ZEFSAII (Michael W. Deem and Ramdas Pophale) SiO2 
 PCOD9424674
Probable space group: P C C A
;
_chemical_formula_sum "Si O2"
_cell_formula_units_Z 56
_cell_length_a 30.000000
_cell_length_b 6.000000
_cell_length_c 15.000000
_cell_angle_alpha 90.000000
_cell_angle_beta 90.000000
_cell_angle_gamma 90.000000
_cell_volume 2700.000000
_symmetry_space_group_name_H-M "P C C A"
_symmetry_group_IT_number 54
_symmetry_cell_setting 'orthorhombic'
loop_
_space_group_symop_operation_xyz
x,y,z
1/2-x,-y,z
1/2+x,-y,1/2-z
-x,y,1/2-z
-x,-y,-z
1/2+x,y,-z
1/2-x,y,1/2+z
x,-y,1/2+z
loop_
_atom_site_type_symbol
_atom_site_label
_atom_site_fract_x
_atom_site_fract_y
_atom_site_fract_z
Si Si1 0.564971 0.974756 0.826416
Si Si2 0.729455 0.752014 0.712877
Si Si3 0.577465 0.477072 0.080134
Si Si4 0.868655 0.611926 0.256897
Si Si5 0.632480 0.695365 0.419508
Si Si6 0.229950 0.247818 0.002054
Si Si7 0.962627 0.969381 0.623656
O O1 0.599203 0.109799 0.888026
O O2 0.555603 0.060528 0.725225
O O3 0.516119 0.990432 0.871778
O O4 0.590532 0.744739 0.804168
O O5 0.750000 0.500000 0.740059
O O6 0.676805 0.749029 0.738680
O O7 0.733133 0.750820 0.605382
O O8 0.750000 0.000000 0.741283
O O9 0.611418 0.480667 0.164219
O O10 0.550279 0.719595 0.081788
O O11 0.555261 0.220187 0.090615
O O12 0.605028 0.458985 0.988635
O O13 0.855642 0.424873 0.327371
O O14 0.678550 0.760301 0.466812
O O15 0.250000 0.500000 0.029538
O O16 0.250000 0.000000 0.030204
#
# Coordination Sequence:
#
# PCOD9424674 Si02
#       7
#     8   8   8   8   8   8   8
#     4  10  25  43  71 101 140 187 234 294 343 428
#     4  10  23  45  74 100 135 184 231 281 354 422
#     4  11  25  45  73 100 141 189 225 294 348 418
#     4  11  25  47  68 106 141 185 239 285 357 418
#     4  12  26  44  73 106 140 182 243 288 352 420
#     4  10  24  46  70 101 140 181 224 287 349 414
#     4  10  24  47  70  98 145 185 235 285 361 408
#
# _framework density 20.740741
#
# number of rings (size 3 to 8) (size 9 to 14) (size 15 to 20)
#    0.000    1.429    2.857    0.000    8.000    2.857 
#    0.000    0.000    0.000    0.000    0.000    0.000 
#    0.000    0.000    0.000    0.000    0.000    0.000 
#
# Total GULP energy -311839.115705 kJ/mol
# GULP energy per Si atom -5568.555638 kJ/mol
# Density = 2.069353 g / cm^3
# Si number density = 20.740741 Si / 1000 Ang^3
#
#
#
# Elastic Constant Matrix: (Units=GPa)
#
#
# Indices 1 2 3 4 5 6 
#
# 1 120.3205 41.2892 5.9432 0.0000 0.0000 0.0000
# 2 41.2892 128.6417 9.8640 0.0000 0.0000 0.0000
# 3 5.9432 9.8640 61.6659 0.0000 0.0000 0.0000
# 4 0.0000 0.0000 0.0000 20.8618 0.0000 0.0000
# 5 0.0000 0.0000 0.0000 0.0000 5.1961 0.0000
# 6 0.0000 0.0000 0.0000 0.0000 0.0000 43.3408
#
#
#
# Elastic Compliance Matrix: (Units=1/GPa)
#
#
# Indices 1 2 3 4 5 6 
#
# 1 0.009351 -0.002969 -0.000426 0.000000 0.000000 0.000000
# 2 -0.002969 0.008812 -0.001124 0.000000 0.000000 0.000000
# 3 -0.000426 -0.001124 0.016437 0.000000 0.000000 0.000000
# 4 0.000000 0.000000 0.000000 0.047934 0.000000 0.000000
# 5 0.000000 0.000000 0.000000 0.000000 0.192453 0.000000
# 6 0.000000 0.000000 0.000000 0.000000 0.000000 0.023073
#
#
# Mechanical properties :
#
#
# Convention : Reuss Voigt Hill
#
# Bulk Modulus (GPa) = 39.11806 47.20233 43.16020
# Shear Modulus (GPa) = 15.84189 30.78184 23.31187
#
# Velocity S-wave (km/s) = 2.76670 3.85661 3.35620
# Velocity P-wave (km/s) = 5.39515 6.52985 5.98943
#
# Compressibility (1/GPa) = 0.02556364
#
# Stress axis : x y z
#
# Youngs Moduli (GPa) = 106.94155 113.47527 60.83747
#
# Poissons Ratio (x) = 0.33686 0.02594
# Poissons Ratio (y) = 0.31747 0.06835
# Poissons Ratio (z) = 0.04560 0.12749
#
# Static dielectric constant tensor:
#      x y z
#    x 1.746760 0.000000 0.000000 
#    y 0.000000 1.805260 0.000000 
#    z 0.000000 0.000000 1.755260 
# 
# From -- ./inp_files/15345.got.cif
#   From: 2010.05.17/outbox.ucp.g08.bks.cvg/sg54_8_cif.got.tgz:15345.got - 2010.06.11 16:34:40.
