data_PCOD9424859
_publ_section_title
;
Structure prediction by ZEFSAII (Michael W. Deem and Ramdas Pophale) SiO2 
 PCOD9424859
Probable space group: P B A M
;
_chemical_formula_sum "Si O2"
_cell_formula_units_Z 44
_cell_length_a 12.922601
_cell_length_b 9.618941
_cell_length_c 16.597188
_cell_angle_alpha 90.000000
_cell_angle_beta 90.000000
_cell_angle_gamma 90.000000
_cell_volume 2063.059291
_symmetry_space_group_name_H-M "P B A M"
_symmetry_group_IT_number 55
_symmetry_cell_setting 'orthorhombic'
loop_
_space_group_symop_operation_xyz
x,y,z
-x,-y,z
1/2+x,1/2-y,-z
1/2-x,1/2+y,-z
-x,-y,-z
x,y,-z
1/2-x,1/2+y,z
1/2+x,1/2-y,z
loop_
_atom_site_type_symbol
_atom_site_label
_atom_site_fract_x
_atom_site_fract_y
_atom_site_fract_z
Si Si1 0.108996 0.585556 0.590343
Si Si2 0.793855 0.379859 0.092841
Si Si3 0.333547 0.393008 0.818691
Si Si4 0.015088 0.850369 0.673198
Si Si5 0.354487 0.853950 0.708999
Si Si6 0.000000 0.500000 0.167596
O O1 0.150801 0.595644 0.500000
O O2 0.085913 0.736262 0.627942
O O3 0.168328 0.484503 0.651196
O O4 0.000000 0.500000 0.586199
O O5 0.821054 0.218639 0.109803
O O6 0.706238 0.457255 0.148006
O O7 0.903221 0.451560 0.115258
O O8 0.765858 0.399341 0.000000
O O9 0.435290 0.380130 0.762650
O O10 0.246773 0.334077 0.759043
O O11 0.900951 0.782173 0.669733
O O12 0.000000 0.000000 0.633860
O O13 0.448132 0.892236 0.770388
#
# Coordination Sequence:
#
# PCOD9424859 Si02
#       6
#     8   8   8   8   8   4
#     4   9  18  35  59  83 111 151 196 236 277 333
#     4  11  22  37  58  85 116 149 194 250 296 338
#     4  11  22  37  60  85 115 155 198 237 289 354
#     4  11  20  34  56  87 118 150 188 240 290 343
#     4  10  18  37  61  82 107 155 205 231 271 350
#     4  10  17  36  61  78 104 154 208 228 271 362
#
# _framework density 21.327549999999999
#
# number of rings (size 3 to 8) (size 9 to 14) (size 15 to 20)
#    0.000    1.636    4.545    3.000    0.000    0.364 
#    0.000    0.909    0.000    6.545    0.000    0.000 
#    0.000    0.000    0.000    0.000    0.000    0.000 
#
# Total GULP energy -245121.548070 kJ/mol
# GULP energy per Si atom -5570.944274 kJ/mol
# Density = 2.127901 g / cm^3
# Si number density = 21.327550 Si / 1000 Ang^3
#
#
#
# Elastic Constant Matrix: (Units=GPa)
#
#
# Indices 1 2 3 4 5 6 
#
# 1 29.3565 17.4770 20.4650 0.0000 0.0000 0.0000
# 2 17.4770 123.1300 19.7417 0.0000 0.0000 0.0000
# 3 20.4650 19.7417 78.7259 0.0000 0.0000 0.0000
# 4 0.0000 0.0000 0.0000-2024.1599 0.0000 0.0000
# 5 0.0000 0.0000 0.0000 0.0000 31.3355 0.0000
# 6 0.0000 0.0000 0.0000 0.0000 0.0000 12.3946
#
#
#
# Elastic Compliance Matrix: (Units=1/GPa)
#
#
# Indices 1 2 3 4 5 6 
#
# 1 0.043962 -0.004592 -0.010276 0.000000 0.000000 0.000000
# 2 -0.004592 0.008941 -0.001048 0.000000 0.000000 0.000000
# 3 -0.010276 -0.001048 0.015637 0.000000 0.000000 0.000000
# 4 0.000000 0.000000 0.000000 -0.000494 0.000000 0.000000
# 5 0.000000 0.000000 0.000000 0.000000 0.031913 0.000000
# 6 0.000000 0.000000 0.000000 0.000000 0.000000 0.080680
#
#
# Mechanical properties :
#
#
# Convention : Reuss Voigt Hill
#
# Bulk Modulus (GPa) = 27.24381 38.50887 32.87634
# Shear Modulus (GPa) = 22.25111 -384.51736 -181.13313
#
# Velocity S-wave (km/s) = 3.23353 -13.44183 -9.22570
# Velocity P-wave (km/s) = 5.17133 14.92700 9.90133
#
# Compressibility (1/GPa) = 0.03670559
#
# Stress axis : x y z
#
# Youngs Moduli (GPa) = 22.74702 111.83905 63.95261
#
# Poissons Ratio (x) = 0.51360 0.65720
# Poissons Ratio (y) = 0.10446 0.06705
# Poissons Ratio (z) = 0.23376 0.11725
#
# Static dielectric constant tensor:
#      x y z
#    x 1.790390 0.000000 0.000000 
#    y 0.000000 1.870210 0.000000 
#    z 0.000000 0.000000 1.795230 
# 
# From -- ./inp_files/20716.got.cif
#   From: 2010.05.17/outbox.cif.g08.bks.cpg/sg55_11_cif.got.tgz:20716.got - 2010.06.03 13:27:54.
