data_PCOD9424479
_publ_section_title
;
Structure prediction by ZEFSAII (Michael W. Deem and Ramdas Pophale) SiO2 
 PCOD9424479
Probable space group: P C C A
;
_chemical_formula_sum "Si O2"
_cell_formula_units_Z 28
_cell_length_a 7.207675
_cell_length_b 7.307317
_cell_length_c 19.700513
_cell_angle_alpha 90.000000
_cell_angle_beta 90.000000
_cell_angle_gamma 90.000000
_cell_volume 1037.601710
_symmetry_space_group_name_H-M "P C C A"
_symmetry_group_IT_number 54
_symmetry_cell_setting 'orthorhombic'
loop_
_space_group_symop_operation_xyz
x,y,z
1/2-x,-y,z
1/2+x,-y,1/2-z
-x,y,1/2-z
-x,-y,-z
1/2+x,y,-z
1/2-x,y,1/2+z
x,-y,1/2+z
loop_
_atom_site_type_symbol
_atom_site_label
_atom_site_fract_x
_atom_site_fract_y
_atom_site_fract_z
Si Si1 0.897133 0.682069 0.679235
Si Si2 0.500000 0.247633 0.250000
Si Si3 0.950452 0.959455 0.382786
Si Si4 0.456101 0.571502 0.926008
O O1 0.820717 0.332118 0.708294
O O2 0.039328 0.544767 0.636191
O O3 0.000000 0.708245 0.750000
O O4 0.920504 0.866278 0.632924
O O5 0.588902 0.127228 0.308916
O O6 0.029088 0.787860 0.424522
O O7 0.750000 0.000000 0.414349
O O8 0.250000 0.500000 0.910602
O O9 0.500000 0.500000 0.000000
#
# Coordination Sequence:
#
# PCOD9424479 Si02
#       4
#     8   4   8   8
#     4  12  27  49  84 123 165 209 284 362 440 518
#     4  12  22  48  80 128 162 206 278 364 444 516
#     4  12  25  50  81 117 165 217 276 359 442 521
#     4  12  32  53  76 118 168 226 288 343 438 526
#
# _framework density 26.985306000000001
#
# number of rings (size 3 to 8) (size 9 to 14) (size 15 to 20)
#    0.000    0.000    7.143    0.857    6.000    1.143 
#    0.000    1.429    0.000    0.000    0.000    0.000 
#    0.000    0.000    0.000    0.000    0.000    0.000 
#
# Total GULP energy -156049.718991 kJ/mol
# GULP energy per Si atom -5573.204250 kJ/mol
# Density = 2.692389 g / cm^3
# Si number density = 26.985306 Si / 1000 Ang^3
#
#
#
# Elastic Constant Matrix: (Units=GPa)
#
#
# Indices 1 2 3 4 5 6 
#
# 1 157.4406 54.4545 27.6604 0.0000 0.0000 0.0000
# 2 54.4545 134.3070 40.5588 0.0000 0.0000 0.0000
# 3 27.6604 40.5588 96.6713 0.0000 0.0000 0.0000
# 4 0.0000 0.0000 0.0000 48.2855 0.0000 0.0000
# 5 0.0000 0.0000 0.0000 0.0000 -74.2219 0.0000
# 6 0.0000 0.0000 0.0000 0.0000 0.0000 48.4991
#
#
#
# Elastic Compliance Matrix: (Units=1/GPa)
#
#
# Indices 1 2 3 4 5 6 
#
# 1 0.007470 -0.002729 -0.000992 0.000000 0.000000 0.000000
# 2 -0.002729 0.009523 -0.003214 0.000000 0.000000 0.000000
# 3 -0.000992 -0.003214 0.011977 0.000000 0.000000 0.000000
# 4 0.000000 0.000000 0.000000 0.020710 0.000000 0.000000
# 5 0.000000 0.000000 0.000000 0.000000 -0.013473 0.000000
# 6 0.000000 0.000000 0.000000 0.000000 0.000000 0.020619
#
#
# Mechanical properties :
#
#
# Convention : Reuss Voigt Hill
#
# Bulk Modulus (GPa) = 66.23435 70.41848 68.32641
# Shear Modulus (GPa) = 66.02417 22.22888 44.12652
#
# Velocity S-wave (km/s) = 4.95175 2.87320 4.04815
# Velocity P-wave (km/s) = 7.56908 6.09580 6.87204
#
# Compressibility (1/GPa) = 0.01509791
#
# Stress axis : x y z
#
# Youngs Moduli (GPa) = 133.87200 105.01111 83.49378
#
# Poissons Ratio (x) = 0.28657 0.08286
# Poissons Ratio (y) = 0.36533 0.26839
# Poissons Ratio (z) = 0.13285 0.33756
#
# Static dielectric constant tensor:
#      x y z
#    x 1.873030 0.000000 0.000000 
#    y 0.000000 2.230440 0.000000 
#    z 0.000000 0.000000 1.679440 
# 
# From -- ./inp_files/19954.got.cif
#   From: 2010.05.17/outbox.cif.g08.bks.cpg/sg54_10_cif.got.tgz:19954.got - 2010.06.03 13:09:01.
