data_PCOD9424867
_publ_section_title
;
Structure prediction by ZEFSAII (Michael W. Deem and Ramdas Pophale) SiO2 
 PCOD9424867
Probable space group: P B A M
;
_chemical_formula_sum "Si O2"
_cell_formula_units_Z 56
_cell_length_a 30.307236
_cell_length_b 14.277170
_cell_length_c 7.556357
_cell_angle_alpha 90.000000
_cell_angle_beta 90.000000
_cell_angle_gamma 90.000000
_cell_volume 3269.647466
_symmetry_space_group_name_H-M "P B A M"
_symmetry_group_IT_number 55
_symmetry_cell_setting 'orthorhombic'
loop_
_space_group_symop_operation_xyz
x,y,z
-x,-y,z
1/2+x,1/2-y,-z
1/2-x,1/2+y,-z
-x,-y,-z
x,y,-z
1/2-x,1/2+y,z
1/2+x,1/2-y,z
loop_
_atom_site_type_symbol
_atom_site_label
_atom_site_fract_x
_atom_site_fract_y
_atom_site_fract_z
Si Si1 0.190920 0.184696 0.289040
Si Si2 0.495548 0.613525 0.705316
Si Si3 0.678425 0.732221 0.212218
Si Si4 0.908969 0.121975 0.287424
Si Si5 0.399595 0.592371 0.717137
Si Si6 0.235801 0.376100 0.212499
Si Si7 0.719923 0.918989 0.204548
O O1 0.192965 0.171264 0.500000
O O2 0.143377 0.149215 0.226607
O O3 0.201645 0.292709 0.249545
O O4 0.230733 0.123717 0.209593
O O5 0.500000 0.500000 0.706432
O O6 0.494083 0.643827 0.500000
O O7 0.542133 0.647881 0.782139
O O8 0.446897 0.632153 0.779957
O O9 0.630214 0.692808 0.247824
O O10 0.716580 0.661263 0.278648
O O11 0.689606 0.836141 0.282359
O O12 0.684013 0.736722 0.000000
O O13 0.913127 0.116018 0.500000
O O14 0.896694 0.016624 0.227262
O O15 0.400684 0.593026 0.500000
O O16 0.221886 0.477323 0.284243
O O17 0.239858 0.385599 0.000000
O O18 0.706185 0.930143 0.000000
#
# Coordination Sequence:
#
# PCOD9424867 Si02
#       7
#     8   8   8   8   8   8   8
#     4  10  18  26  41  65  87 105 129 167 210 242
#     4   7  11  21  37  56  78 105 134 158 184 230
#     4   9  17  27  40  59  80 102 129 164 204 235
#     4   9  15  24  41  61  80 106 136 161 188 232
#     4   8  14  24  38  59  85 108 130 158 195 237
#     4   9  18  32  45  56  77 111 145 169 193 236
#     4   9  18  32  45  56  77 112 145 167 193 237
#
# _framework density 17.127229
#
# number of rings (size 3 to 8) (size 9 to 14) (size 15 to 20)
#    0.000    3.286    0.000    3.857    0.000    2.857 
#    0.000    0.714    0.000    5.571    0.000    1.000 
#    0.000    8.000    0.000    0.000    0.000    0.000 
#
# Total GULP energy -311808.322361 kJ/mol
# GULP energy per Si atom -5568.005756 kJ/mol
# Density = 1.708825 g / cm^3
# Si number density = 17.127229 Si / 1000 Ang^3
#
#
#
# Elastic Constant Matrix: (Units=GPa)
#
#
# Indices 1 2 3 4 5 6 
#
# 1 131.0660 56.7087 -13.6554 0.0000 0.0000 0.0000
# 2 56.7087 101.0531 -4.0267 0.0000 0.0000 0.0000
# 3 -13.6554 -4.0267 37.0217 0.0000 0.0000 0.0000
# 4 0.0000 0.0000 0.0000 9.8515 0.0000 0.0000
# 5 0.0000 0.0000 0.0000 0.0000 22.1056 0.0000
# 6 0.0000 0.0000 0.0000 0.0000 0.0000 22.9769
#
#
#
# Elastic Compliance Matrix: (Units=1/GPa)
#
#
# Indices 1 2 3 4 5 6 
#
# 1 0.010447 -0.005734 0.003230 0.000000 0.000000 0.000000
# 2 -0.005734 0.013086 -0.000692 0.000000 0.000000 0.000000
# 3 0.003230 -0.000692 0.028127 0.000000 0.000000 0.000000
# 4 0.000000 0.000000 0.000000 0.101507 0.000000 0.000000
# 5 0.000000 0.000000 0.000000 0.000000 0.045237 0.000000
# 6 0.000000 0.000000 0.000000 0.000000 0.000000 0.043522
#
#
# Mechanical properties :
#
#
# Convention : Reuss Voigt Hill
#
# Bulk Modulus (GPa) = 22.09037 38.57711 30.33374
# Shear Modulus (GPa) = 18.98193 26.32776 22.65485
#
# Velocity S-wave (km/s) = 3.33271 3.92495 3.64089
# Velocity P-wave (km/s) = 5.26641 6.56605 5.95181
#
# Compressibility (1/GPa) = 0.04526859
#
# Stress axis : x y z
#
# Youngs Moduli (GPa) = 95.71931 76.41731 35.55272
#
# Poissons Ratio (x) = 0.43818 -0.11483
# Poissons Ratio (y) = 0.54886 0.02459
# Poissons Ratio (z) = -0.30915 0.05286
#
# Static dielectric constant tensor:
#      x y z
#    x 1.603940 0.000000 0.000000 
#    y 0.000000 1.573870 0.000000 
#    z 0.000000 0.000000 1.662660 
# 
# From -- ./inp_files/6845.got.cif
#   From: 2010.05.17/outbox.cif.g08.bks.cpg/sg55_4_cif.got.tgz:6845.got - 2010.06.03 13:27:54.
