data_PCOD9424235
_publ_section_title
;
Structure prediction by ZEFSAII (Michael W. Deem and Ramdas Pophale) SiO2 
 PCOD9424235
Probable space group: P C C A
;
_chemical_formula_sum "Si O2"
_cell_formula_units_Z 32
_cell_length_a 11.999987
_cell_length_b 10.453473
_cell_length_c 10.785405
_cell_angle_alpha 90.000000
_cell_angle_beta 90.000000
_cell_angle_gamma 90.000000
_cell_volume 1352.937814
_symmetry_space_group_name_H-M "P C C A"
_symmetry_group_IT_number 54
_symmetry_cell_setting 'orthorhombic'
loop_
_space_group_symop_operation_xyz
x,y,z
1/2-x,-y,z
1/2+x,-y,1/2-z
-x,y,1/2-z
-x,-y,-z
1/2+x,y,-z
1/2-x,y,1/2+z
x,-y,1/2+z
loop_
_atom_site_type_symbol
_atom_site_label
_atom_site_fract_x
_atom_site_fract_y
_atom_site_fract_z
Si Si1 0.995666 0.700543 0.073518
Si Si2 0.271500 0.731331 0.784674
Si Si3 0.600845 0.553570 0.344869
Si Si4 0.690151 0.866374 0.967217
O O1 0.099485 0.707908 0.321515
O O2 0.089502 0.588366 0.094025
O O3 0.058148 0.834752 0.050546
O O4 0.927412 0.651469 0.954816
O O5 0.203024 0.611223 0.732426
O O6 0.265224 0.828004 0.669233
O O7 0.218830 0.780797 0.912452
O O8 0.500000 0.556755 0.250000
O O9 0.750000 0.000000 0.995574
#
# Coordination Sequence:
#
# PCOD9424235 Si02
#       4
#     8   8   8   8
#     4  11  26  48  77 118 161 209 266 335 415 490
#     4  12  25  51  77 115 156 210 271 332 413 484
#     4  11  23  47  77 115 160 204 264 336 414 488
#     4  12  27  49  77 111 159 215 275 333 400 490
#
# _framework density 23.652234
#
# number of rings (size 3 to 8) (size 9 to 14) (size 15 to 20)
#    0.000    0.500    5.000    3.000    0.000    5.000 
#    0.000    2.500    0.000    0.000    0.000    0.000 
#    0.000    0.000    0.000    0.000    0.000    0.000 
#
# Total GULP energy -178613.372771 kJ/mol
# GULP energy per Si atom -5581.667899 kJ/mol
# Density = 2.359840 g / cm^3
# Si number density = 23.652234 Si / 1000 Ang^3
#
#
#
# Elastic Constant Matrix: (Units=GPa)
#
#
# Indices 1 2 3 4 5 6 
#
# 1 152.4872 73.3049 45.4951 0.0000 0.0000 0.0000
# 2 73.3049 122.6095 50.7404 0.0000 0.0000 0.0000
# 3 45.4951 50.7404 169.6153 0.0000 0.0000 0.0000
# 4 0.0000 0.0000 0.0000 18.9872 0.0000 0.0000
# 5 0.0000 0.0000 0.0000 0.0000 45.9597 0.0000
# 6 0.0000 0.0000 0.0000 0.0000 0.0000 49.1472
#
#
#
# Elastic Compliance Matrix: (Units=1/GPa)
#
#
# Indices 1 2 3 4 5 6 
#
# 1 0.009336 -0.005188 -0.000952 0.000000 0.000000 0.000000
# 2 -0.005188 0.012191 -0.002255 0.000000 0.000000 0.000000
# 3 -0.000952 -0.002255 0.006826 0.000000 0.000000 0.000000
# 4 0.000000 0.000000 0.000000 0.052667 0.000000 0.000000
# 5 0.000000 0.000000 0.000000 0.000000 0.021758 0.000000
# 6 0.000000 0.000000 0.000000 0.000000 0.000000 0.020347
#
#
# Mechanical properties :
#
#
# Convention : Reuss Voigt Hill
#
# Bulk Modulus (GPa) = 86.49031 87.08811 86.78921
# Shear Modulus (GPa) = 34.77792 41.16360 37.97076
#
# Velocity S-wave (km/s) = 3.83872 4.17630 4.01106
# Velocity P-wave (km/s) = 7.50297 7.75600 7.63053
#
# Compressibility (1/GPa) = 0.01156199
#
# Stress axis : x y z
#
# Youngs Moduli (GPa) = 107.11400 82.02857 146.50229
#
# Poissons Ratio (x) = 0.42553 0.13951
# Poissons Ratio (y) = 0.55566 0.33043
# Poissons Ratio (z) = 0.10200 0.18501
#
# Static dielectric constant tensor:
#      x y z
#    x 1.990680 0.000000 0.000000 
#    y 0.000000 1.945400 0.000000 
#    z 0.000000 0.000000 1.923140 
# 
# From -- ./inp_files/7259.got.cif
#   From: 2010.05.17/outbox.cif.g08.bks.cpg/sg54_4_cif.got.tgz:7259.got - 2010.06.03 13:09:01.
