data_PCOD9424131
_publ_section_title
;
Structure prediction by ZEFSAII (Michael W. Deem and Ramdas Pophale) SiO2 
 PCOD9424131
Probable space group: P C C A
;
_chemical_formula_sum "Si O2"
_cell_formula_units_Z 48
_cell_length_a 13.205801
_cell_length_b 6.720233
_cell_length_c 25.815802
_cell_angle_alpha 90.000000
_cell_angle_beta 90.000000
_cell_angle_gamma 90.000000
_cell_volume 2291.050705
_symmetry_space_group_name_H-M "P C C A"
_symmetry_group_IT_number 54
_symmetry_cell_setting 'orthorhombic'
loop_
_space_group_symop_operation_xyz
x,y,z
1/2-x,-y,z
1/2+x,-y,1/2-z
-x,y,1/2-z
-x,-y,-z
1/2+x,y,-z
1/2-x,y,1/2+z
x,-y,1/2+z
loop_
_atom_site_type_symbol
_atom_site_label
_atom_site_fract_x
_atom_site_fract_y
_atom_site_fract_z
Si Si1 0.458880 0.110191 0.677767
Si Si2 0.250000 0.500000 0.540883
Si Si3 0.638517 0.202368 0.195558
Si Si4 0.410431 0.180075 0.561567
Si Si5 0.750000 0.000000 0.777662
Si Si6 0.000000 0.529004 0.750000
Si Si7 0.250000 0.000000 0.396188
Si Si8 0.382303 0.182842 0.986565
O O1 0.460378 0.135040 0.616547
O O2 0.454559 0.319032 0.707778
O O3 0.554961 0.978267 0.696305
O O4 0.351569 0.008565 0.689818
O O5 0.322940 0.343363 0.569767
O O6 0.178525 0.371285 0.504774
O O7 0.727999 0.177622 0.237500
O O8 0.575283 0.391369 0.215708
O O9 0.695233 0.164825 0.140739
O O10 0.502042 0.242699 0.523867
O O11 0.372986 0.981958 0.532083
O O12 0.332268 0.905476 0.434722
#
# Coordination Sequence:
#
# PCOD9424131 Si02
#       8
#     8   4   8   8   4   4   4   8
#     4  12  25  45  68 101 137 183 226 283 356 414
#     4  12  24  42  68 104 132 182 232 286 334 416
#     4  11  24  46  68  99 140 176 231 290 342 417
#     4  11  26  44  70  99 149 180 230 284 362 414
#     4  11  22  43  70  90 138 177 218 285 338 410
#     4  12  24  46  68 100 138 174 232 296 336 410
#     4  11  22  47  76  98 130 193 230 277 366 408
#     4  11  24  47  70 101 140 184 228 295 342 421
#
# _framework density 20.951086
#
# number of rings (size 3 to 8) (size 9 to 14) (size 15 to 20)
#    0.000    0.667    6.667    0.500    2.333    4.667 
#    0.000    0.000    0.000    0.000    0.000    0.000 
#    0.000    0.000    0.000    0.000    0.000    0.000 
#
# Total GULP energy -267738.705553 kJ/mol
# GULP energy per Si atom -5577.889699 kJ/mol
# Density = 2.090340 g / cm^3
# Si number density = 20.951086 Si / 1000 Ang^3
#
#
#
# Elastic Constant Matrix: (Units=GPa)
#
#
# Indices 1 2 3 4 5 6 
#
# 1 79.4996 25.7728 4.4978 0.0000 0.0000 0.0000
# 2 25.7728 76.5616 37.4406 0.0000 0.0000 0.0000
# 3 4.4978 37.4406 94.5632 0.0000 0.0000 0.0000
# 4 0.0000 0.0000 0.0000 10.1358 0.0000 0.0000
# 5 0.0000 0.0000 0.0000 0.0000 36.4198 0.0000
# 6 0.0000 0.0000 0.0000 0.0000 0.0000 34.5842
#
#
#
# Elastic Compliance Matrix: (Units=1/GPa)
#
#
# Indices 1 2 3 4 5 6 
#
# 1 0.014293 -0.005555 0.001519 0.000000 0.000000 0.000000
# 2 -0.005555 0.018356 -0.007004 0.000000 0.000000 0.000000
# 3 0.001519 -0.007004 0.013276 0.000000 0.000000 0.000000
# 4 0.000000 0.000000 0.000000 0.098660 0.000000 0.000000
# 5 0.000000 0.000000 0.000000 0.000000 0.027458 0.000000
# 6 0.000000 0.000000 0.000000 0.000000 0.000000 0.028915
#
#
# Mechanical properties :
#
#
# Convention : Reuss Voigt Hill
#
# Bulk Modulus (GPa) = 41.93289 42.89407 42.41348
# Shear Modulus (GPa) = 21.64649 28.42218 25.03434
#
# Velocity S-wave (km/s) = 3.21782 3.68720 3.46047
# Velocity P-wave (km/s) = 5.81927 6.21652 6.02117
#
# Compressibility (1/GPa) = 0.02384763
#
# Stress axis : x y z
#
# Youngs Moduli (GPa) = 69.96211 54.47771 75.32609
#
# Poissons Ratio (x) = 0.30260 -0.11445
# Poissons Ratio (y) = 0.38861 0.52755
# Poissons Ratio (z) = -0.10630 0.38154
#
# Static dielectric constant tensor:
#      x y z
#    x 1.784530 0.000000 0.000000 
#    y 0.000000 1.762450 0.000000 
#    z 0.000000 0.000000 1.754630 
# 
# From -- ./inp_files/26532.got.cif
#   From: 2010.05.17/outbox.cif.g08.bks.cpg/sg54_14_cif.got.tgz:26532.got - 2010.06.03 13:09:01.
