data_PCOD9424051
_publ_section_title
;
Structure prediction by ZEFSAII (Michael W. Deem and Ramdas Pophale) SiO2 
 PCOD9424051
Probable space group: P C C A
;
_chemical_formula_sum "Si O2"
_cell_formula_units_Z 40
_cell_length_a 10.717072
_cell_length_b 9.563070
_cell_length_c 14.895529
_cell_angle_alpha 90.000000
_cell_angle_beta 90.000000
_cell_angle_gamma 90.000000
_cell_volume 1526.614611
_symmetry_space_group_name_H-M "P C C A"
_symmetry_group_IT_number 54
_symmetry_cell_setting 'orthorhombic'
loop_
_space_group_symop_operation_xyz
x,y,z
1/2-x,-y,z
1/2+x,-y,1/2-z
-x,y,1/2-z
-x,-y,-z
1/2+x,y,-z
1/2-x,y,1/2+z
x,-y,1/2+z
loop_
_atom_site_type_symbol
_atom_site_label
_atom_site_fract_x
_atom_site_fract_y
_atom_site_fract_z
Si Si1 0.783487 0.158551 0.790484
Si Si2 0.542914 0.321889 0.421527
Si Si3 0.874075 0.421302 0.105267
Si Si4 0.368447 0.914339 0.913892
Si Si5 0.478317 0.158359 0.655026
O O1 0.893371 0.233992 0.843331
O O2 0.818420 0.143364 0.684309
O O3 0.657676 0.225341 0.833785
O O4 0.750000 0.000000 0.817925
O O5 0.481322 0.463363 0.387631
O O6 0.633382 0.367807 0.502073
O O7 0.430073 0.222494 0.458812
O O8 0.750000 0.500000 0.135660
O O9 0.921561 0.282436 0.152344
O O10 0.250000 0.000000 0.953272
O O11 0.475756 0.032637 0.907386
O O12 0.500000 0.082864 0.750000
#
# Coordination Sequence:
#
# PCOD9424051 Si02
#       5
#     8   8   8   8   8
#     4  11  22  41  76 108 143 177 234 297 359 420
#     4  11  25  47  71  97 148 189 234 290 356 423
#     4  11  29  49  68 100 144 196 241 292 356 427
#     4  11  21  42  75 107 142 180 230 298 356 420
#     4  12  23  44  70 108 140 180 237 296 354 430
#
# _framework density 26.201767
#
# number of rings (size 3 to 8) (size 9 to 14) (size 15 to 20)
#    0.000    0.800    6.000    1.800    5.600    2.400 
#    0.000    0.000    0.000    0.000    0.000    0.000 
#    0.000    0.000    0.000    0.000    0.000    0.000 
#
# Total GULP energy -223507.080375 kJ/mol
# GULP energy per Si atom -5587.677009 kJ/mol
# Density = 2.614213 g / cm^3
# Si number density = 26.201767 Si / 1000 Ang^3
#
#
#
# Elastic Constant Matrix: (Units=GPa)
#
#
# Indices 1 2 3 4 5 6 
#
# 1 113.7198 21.9912 22.2062 0.0000 0.0000 0.0000
# 2 21.9912 141.8241 26.4418 0.0000 0.0000 0.0000
# 3 22.2062 26.4418 71.7080 0.0000 0.0000 0.0000
# 4 0.0000 0.0000 0.0000 25.6819 0.0000 0.0000
# 5 0.0000 0.0000 0.0000 0.0000 27.9619 0.0000
# 6 0.0000 0.0000 0.0000 0.0000 0.0000 49.7158
#
#
#
# Elastic Compliance Matrix: (Units=1/GPa)
#
#
# Indices 1 2 3 4 5 6 
#
# 1 0.009488 -0.000992 -0.002572 0.000000 0.000000 0.000000
# 2 -0.000992 0.007675 -0.002523 0.000000 0.000000 0.000000
# 3 -0.002572 -0.002523 0.015672 0.000000 0.000000 0.000000
# 4 0.000000 0.000000 0.000000 0.038938 0.000000 0.000000
# 5 0.000000 0.000000 0.000000 0.000000 0.035763 0.000000
# 6 0.000000 0.000000 0.000000 0.000000 0.000000 0.020114
#
#
# Mechanical properties :
#
#
# Convention : Reuss Voigt Hill
#
# Bulk Modulus (GPa) = 48.40032 52.05893 50.22962
# Shear Modulus (GPa) = 34.08047 37.77944 35.92996
#
# Velocity S-wave (km/s) = 3.61043 3.80131 3.70710
# Velocity P-wave (km/s) = 5.99103 6.25925 6.12661
#
# Compressibility (1/GPa) = 0.02066102
#
# Stress axis : x y z
#
# Youngs Moduli (GPa) = 105.40057 130.29077 63.80626
#
# Poissons Ratio (x) = 0.12919 0.16414
# Poissons Ratio (y) = 0.10451 0.16099
# Poissons Ratio (z) = 0.27114 0.32874
#
# Static dielectric constant tensor:
#      x y z
#    x 2.324400 0.000000 0.000000 
#    y 0.000000 1.966750 0.000000 
#    z 0.000000 0.000000 2.172100 
# 
# From -- ./inp_files/17110.got.cif
#   From: 2010.05.17/outbox.cif.g08.bks.cpg/sg54_9_cif.got.tgz:17110.got - 2010.06.03 13:09:01.
