data_PCOD9424433
_publ_section_title
;
Structure prediction by ZEFSAII (Michael W. Deem and Ramdas Pophale) SiO2 
 PCOD9424433
Probable space group: P C C A
;
_chemical_formula_sum "Si O2"
_cell_formula_units_Z 20
_cell_length_a 5.160629
_cell_length_b 5.184530
_cell_length_c 29.510231
_cell_angle_alpha 90.000000
_cell_angle_beta 90.000000
_cell_angle_gamma 90.000000
_cell_volume 789.559093
_symmetry_space_group_name_H-M "P C C A"
_symmetry_group_IT_number 54
_symmetry_cell_setting 'orthorhombic'
loop_
_space_group_symop_operation_xyz
x,y,z
1/2-x,-y,z
1/2+x,-y,1/2-z
-x,y,1/2-z
-x,-y,-z
1/2+x,y,-z
1/2-x,y,1/2+z
x,-y,1/2+z
loop_
_atom_site_type_symbol
_atom_site_label
_atom_site_fract_x
_atom_site_fract_y
_atom_site_fract_z
Si Si1 0.750000 0.000000 0.967416
Si Si2 0.575063 0.242250 0.100829
Si Si3 0.001314 0.681932 0.201949
O O1 0.673266 0.772441 0.932022
O O2 0.500000 0.000000 0.000000
O O3 0.750000 0.500000 0.097813
O O4 0.499721 0.187118 0.153165
O O5 0.750000 0.000000 0.087320
O O6 0.250000 0.500000 0.202009
O O7 0.750000 0.500000 0.202243
O O8 0.000000 0.832136 0.250000
#
# Coordination Sequence:
#
# PCOD9424433 Si02
#       3
#     4   8   8
#     4  12  28  52  78 110 146 198 256 318 382 444
#     4  11  27  50  77 111 151 196 248 313 378 452
#     4   9  20  41  71 108 149 193 240 294 364 445
#
# _framework density 25.330593
#
# number of rings (size 3 to 8) (size 9 to 14) (size 15 to 20)
#    0.000    1.600    2.000    0.000   11.200    1.600 
#    3.600    2.000    0.000    0.000    0.000    0.000 
#    0.000    0.000    0.000    0.000    0.000    0.000 
#
# Total GULP energy -111709.318073 kJ/mol
# GULP energy per Si atom -5585.465904 kJ/mol
# Density = 2.527294 g / cm^3
# Si number density = 25.330593 Si / 1000 Ang^3
#
#
#
# Elastic Constant Matrix: (Units=GPa)
#
#
# Indices 1 2 3 4 5 6 
#
# 1 200.3313 51.6663 68.4498 0.0000 0.0000 0.0000
# 2 51.6663 122.3589 35.9370 0.0000 0.0000 0.0000
# 3 68.4498 35.9370 286.2446 0.0000 0.0000 0.0000
# 4 0.0000 0.0000 0.0000 30.0310 0.0000 0.0000
# 5 0.0000 0.0000 0.0000 0.0000 470.1115 0.0000
# 6 0.0000 0.0000 0.0000 0.0000 0.0000 51.5533
#
#
#
# Elastic Compliance Matrix: (Units=1/GPa)
#
#
# Indices 1 2 3 4 5 6 
#
# 1 0.005945 -0.002173 -0.001149 0.000000 0.000000 0.000000
# 2 -0.002173 0.009280 -0.000645 0.000000 0.000000 0.000000
# 3 -0.001149 -0.000645 0.003849 0.000000 0.000000 0.000000
# 4 0.000000 0.000000 0.000000 0.033299 0.000000 0.000000
# 5 0.000000 0.000000 0.000000 0.000000 0.002127 0.000000
# 6 0.000000 0.000000 0.000000 0.000000 0.000000 0.019397
#
#
# Mechanical properties :
#
#
# Convention : Reuss Voigt Hill
#
# Bulk Modulus (GPa) = 89.76950 102.33790 96.05370
# Shear Modulus (GPa) = 58.44939 140.53129 99.49034
#
# Velocity S-wave (km/s) = 4.80882 7.45650 6.27392
# Velocity P-wave (km/s) = 8.14549 10.70612 9.51236
#
# Compressibility (1/GPa) = 0.01113964
#
# Stress axis : x y z
#
# Youngs Moduli (GPa) = 168.21999 107.76222 259.79062
#
# Poissons Ratio (x) = 0.23414 0.29844
# Poissons Ratio (y) = 0.36550 0.16769
# Poissons Ratio (z) = 0.19324 0.06956
#
# Static dielectric constant tensor:
#      x y z
#    x 2.054470 0.000000 0.000000 
#    y 0.000000 1.949340 0.000000 
#    z 0.000000 0.000000 2.093560 
# 
# From -- ./inp_files/26739.got.cif
#   From: 2010.05.17/outbox.cif.g08.bks.cpg/sg54_14_cif.got.tgz:26739.got - 2010.06.03 13:09:01.
