data_PCOD9424029
_publ_section_title
;
Structure prediction by ZEFSAII (Michael W. Deem and Ramdas Pophale) SiO2 
 PCOD9424029
Probable space group: P C C A
;
_chemical_formula_sum "Si O2"
_cell_formula_units_Z 48
_cell_length_a 19.274787
_cell_length_b 9.342594
_cell_length_c 14.111215
_cell_angle_alpha 90.000000
_cell_angle_beta 90.000000
_cell_angle_gamma 90.000000
_cell_volume 2541.098340
_symmetry_space_group_name_H-M "P C C A"
_symmetry_group_IT_number 54
_symmetry_cell_setting 'orthorhombic'
loop_
_space_group_symop_operation_xyz
x,y,z
1/2-x,-y,z
1/2+x,-y,1/2-z
-x,y,1/2-z
-x,-y,-z
1/2+x,y,-z
1/2-x,y,1/2+z
x,-y,1/2+z
loop_
_atom_site_type_symbol
_atom_site_label
_atom_site_fract_x
_atom_site_fract_y
_atom_site_fract_z
Si Si1 0.326020 0.950845 0.954292
Si Si2 0.558769 0.340581 0.331310
Si Si3 0.456525 0.662609 0.155029
Si Si4 0.455507 0.142759 0.987594
Si Si5 0.675395 0.827073 0.739158
Si Si6 0.672964 0.864914 0.326041
O O1 0.342216 0.835714 0.872682
O O2 0.250000 0.000000 0.924151
O O3 0.380611 0.081934 0.954738
O O4 0.318850 0.892732 0.061124
O O5 0.500000 0.327430 0.250000
O O6 0.558130 0.499644 0.374963
O O7 0.548756 0.225280 0.413653
O O8 0.631949 0.300825 0.283967
O O9 0.500000 0.650252 0.250000
O O10 0.503096 0.754039 0.083064
O O11 0.386652 0.747761 0.179741
O O12 0.500000 0.000000 0.000000
O O13 0.755582 0.820396 0.773715
O O14 0.651517 0.982291 0.780655
#
# Coordination Sequence:
#
# PCOD9424029 Si02
#       6
#     8   8   8   8   8   8
#     4  12  21  37  65  98 124 157 212 268 319 371
#     4  11  24  42  62  91 128 169 208 255 320 383
#     4  11  25  41  61  91 130 168 210 259 314 387
#     4  12  22  40  67  94 122 163 214 265 317 371
#     4  11  22  39  65  90 127 163 206 264 309 380
#     4  11  21  40  63  94 123 162 211 260 320 369
#
# _framework density 18.889468999999998
#
# number of rings (size 3 to 8) (size 9 to 14) (size 15 to 20)
#    0.000    0.667    6.667    2.500    0.000    2.000 
#    0.000    0.000    0.000    2.000    0.000    0.000 
#    0.000    0.000    0.000    0.000    0.000    0.000 
#
# Total GULP energy -267952.544265 kJ/mol
# GULP energy per Si atom -5582.344672 kJ/mol
# Density = 1.884648 g / cm^3
# Si number density = 18.889469 Si / 1000 Ang^3
#
#
#
# Elastic Constant Matrix: (Units=GPa)
#
#
# Indices 1 2 3 4 5 6 
#
# 1 111.0378 64.6132 14.8883 0.0000 0.0000 0.0000
# 2 64.6132 95.1802 22.0814 0.0000 0.0000 0.0000
# 3 14.8883 22.0814 88.7567 0.0000 0.0000 0.0000
# 4 0.0000 0.0000 0.0000 28.0214 0.0000 0.0000
# 5 0.0000 0.0000 0.0000 0.0000 28.9825 0.0000
# 6 0.0000 0.0000 0.0000 0.0000 0.0000 -47.2159
#
#
#
# Elastic Compliance Matrix: (Units=1/GPa)
#
#
# Indices 1 2 3 4 5 6 
#
# 1 0.014886 -0.010110 0.000018 0.000000 0.000000 0.000000
# 2 -0.010110 0.018016 -0.002786 0.000000 0.000000 0.000000
# 3 0.000018 -0.002786 0.011957 0.000000 0.000000 0.000000
# 4 0.000000 0.000000 0.000000 0.035687 0.000000 0.000000
# 5 0.000000 0.000000 0.000000 0.000000 0.034504 0.000000
# 6 0.000000 0.000000 0.000000 0.000000 0.000000 -0.021179
#
#
# Mechanical properties :
#
#
# Convention : Reuss Voigt Hill
#
# Bulk Modulus (GPa) = 52.34725 55.34894 53.84809
# Shear Modulus (GPa) = 39.68432 14.85040 27.26736
#
# Velocity S-wave (km/s) = 4.58850 2.80692 3.80349
# Velocity P-wave (km/s) = 7.47295 6.31428 6.91792
#
# Compressibility (1/GPa) = 0.01910320
#
# Stress axis : x y z
#
# Youngs Moduli (GPa) = 67.17500 55.50652 83.63372
#
# Poissons Ratio (x) = 0.56117 -0.00151
# Poissons Ratio (y) = 0.67913 0.23302
# Poissons Ratio (z) = -0.00122 0.15466
#
# Static dielectric constant tensor:
#      x y z
#    x 1.673100 0.000000 0.000000 
#    y 0.000000 1.646600 0.000000 
#    z 0.000000 0.000000 1.637660 
# 
# From -- ./inp_files/14125.got.cif
#   From: 2010.05.17/outbox.cif.g08.bks.cpg/sg54_8_cif.got.tgz:14125.got - 2010.06.03 13:09:01.
