data_PCOD9424934
_publ_section_title
;
Structure prediction by ZEFSAII (Michael W. Deem and Ramdas Pophale) SiO2 
 PCOD9424934
Probable space group: P B A M
;
_chemical_formula_sum "Si O2"
_cell_formula_units_Z 56
_cell_length_a 18.802791
_cell_length_b 21.344909
_cell_length_c 9.029765
_cell_angle_alpha 90.000000
_cell_angle_beta 90.000000
_cell_angle_gamma 90.000000
_cell_volume 3624.040766
_symmetry_space_group_name_H-M "P B A M"
_symmetry_group_IT_number 55
_symmetry_cell_setting 'orthorhombic'
loop_
_space_group_symop_operation_xyz
x,y,z
-x,-y,z
1/2+x,1/2-y,-z
1/2-x,1/2+y,-z
-x,-y,-z
x,y,-z
1/2-x,1/2+y,z
1/2+x,1/2-y,z
loop_
_atom_site_type_symbol
_atom_site_label
_atom_site_fract_x
_atom_site_fract_y
_atom_site_fract_z
Si Si1 0.920949 0.754496 0.677406
Si Si2 0.084270 0.749707 0.678381
Si Si3 0.151595 0.625826 0.178653
Si Si4 0.341103 0.873183 0.322125
Si Si5 0.794879 0.817360 0.829973
Si Si6 0.289640 0.315492 0.170962
Si Si7 0.416168 0.004296 0.322535
O O1 0.918575 0.756630 0.500000
O O2 0.891164 0.685718 0.722001
O O3 0.866329 0.805717 0.739607
O O4 0.002700 0.762022 0.722488
O O5 0.088919 0.746139 0.500000
O O6 0.109186 0.683540 0.747607
O O7 0.138374 0.801890 0.739939
O O8 0.234888 0.633852 0.222076
O O9 0.119175 0.561368 0.235710
O O10 0.147907 0.631444 0.000000
O O11 0.332243 0.869876 0.500000
O O12 0.264995 0.863599 0.245400
O O13 0.378551 0.938534 0.285902
O O14 0.752504 0.751049 0.825942
O O15 0.813019 0.830941 0.000000
O O16 0.303915 0.330804 0.000000
O O17 0.409097 0.014827 0.500000
O O18 0.500000 0.000000 0.289688
#
# Coordination Sequence:
#
# PCOD9424934 Si02
#       7
#     8   8   8   8   8   8   8
#     4   9  17  28  45  68  90 114 146 184 224 266
#     4  10  18  29  46  68  93 119 148 185 228 270
#     4  10  20  32  45  65  92 122 156 188 222 266
#     4   9  17  30  46  64  89 121 154 185 219 261
#     4   8  16  29  43  61  87 116 146 182 221 265
#     4   9  17  29  44  64  89 117 150 185 223 267
#     4  10  20  33  48  67  92 123 158 190 220 260
#
# _framework density 15.452363999999999
#
# number of rings (size 3 to 8) (size 9 to 14) (size 15 to 20)
#    0.000    2.714    0.000    3.000    0.000    8.286 
#    0.000    2.857    0.000    0.000    0.000    1.000 
#    0.000    8.000    0.000    0.000    0.000    0.000 
#
# Total GULP energy -312005.266999 kJ/mol
# GULP energy per Si atom -5571.522625 kJ/mol
# Density = 1.541719 g / cm^3
# Si number density = 15.452364 Si / 1000 Ang^3
#
#
#
# Elastic Constant Matrix: (Units=GPa)
#
#
# Indices 1 2 3 4 5 6 
#
# 1 160.2492 62.0445 60.6918 0.0000 0.0000 0.0000
# 2 62.0445 66.5826 33.8051 0.0000 0.0000 0.0000
# 3 60.6918 33.8051 47.6591 0.0000 0.0000 0.0000
# 4 0.0000 0.0000 0.0000 18.7135 0.0000 0.0000
# 5 0.0000 0.0000 0.0000 0.0000 11.7712 0.0000
# 6 0.0000 0.0000 0.0000 0.0000 0.0000 25.6203
#
#
#
# Elastic Compliance Matrix: (Units=1/GPa)
#
#
# Indices 1 2 3 4 5 6 
#
# 1 0.013424 -0.005985 -0.012850 0.000000 0.000000 0.000000
# 2 -0.005985 0.026140 -0.010920 0.000000 0.000000 0.000000
# 3 -0.012850 -0.010920 0.045092 0.000000 0.000000 0.000000
# 4 0.000000 0.000000 0.000000 0.053437 0.000000 0.000000
# 5 0.000000 0.000000 0.000000 0.000000 0.084953 0.000000
# 6 0.000000 0.000000 0.000000 0.000000 0.000000 0.039031
#
#
# Mechanical properties :
#
#
# Convention : Reuss Voigt Hill
#
# Bulk Modulus (GPa) = 39.76676 65.28595 52.52636
# Shear Modulus (GPa) = 15.15290 19.08431 17.11861
#
# Velocity S-wave (km/s) = 3.13488 3.51813 3.33202
# Velocity P-wave (km/s) = 6.23653 7.67102 6.99066
#
# Compressibility (1/GPa) = 0.02514663
#
# Stress axis : x y z
#
# Youngs Moduli (GPa) = 74.49186 38.25508 22.17711
#
# Poissons Ratio (x) = 0.22897 0.28497
# Poissons Ratio (y) = 0.44585 0.24217
# Poissons Ratio (z) = 0.95721 0.41773
#
# Static dielectric constant tensor:
#      x y z
#    x 1.517980 0.000000 0.000000 
#    y 0.000000 1.495400 0.000000 
#    z 0.000000 0.000000 1.522310 
# 
# From -- ./inp_files/7826.got.cif
#   From: 2010.05.17/outbox.cif.g08.bks.cpg/sg55_4_cif.got.tgz:7826.got - 2010.06.03 13:27:54.
