data_PCOD9424526
_publ_section_title
;
Structure prediction by ZEFSAII (Michael W. Deem and Ramdas Pophale) SiO2 
 PCOD9424526
Probable space group: P C C A
;
_chemical_formula_sum "Si O2"
_cell_formula_units_Z 40
_cell_length_a 27.254894
_cell_length_b 4.993075
_cell_length_c 11.128951
_cell_angle_alpha 90.000000
_cell_angle_beta 90.000000
_cell_angle_gamma 90.000000
_cell_volume 1514.491419
_symmetry_space_group_name_H-M "P C C A"
_symmetry_group_IT_number 54
_symmetry_cell_setting 'orthorhombic'
loop_
_space_group_symop_operation_xyz
x,y,z
1/2-x,-y,z
1/2+x,-y,1/2-z
-x,y,1/2-z
-x,-y,-z
1/2+x,y,-z
1/2-x,y,1/2+z
x,-y,1/2+z
loop_
_atom_site_type_symbol
_atom_site_label
_atom_site_fract_x
_atom_site_fract_y
_atom_site_fract_z
Si Si1 0.358393 0.591377 0.327810
Si Si2 0.645002 0.096992 0.025106
Si Si3 0.750000 0.500000 0.266263
Si Si4 0.081132 0.217081 0.656523
Si Si5 0.500000 0.851064 0.250000
Si Si6 0.000000 0.500000 0.000000
Si Si7 0.250000 0.000000 0.567343
O O1 0.366935 0.893212 0.367475
O O2 0.300076 0.567749 0.302615
O O3 0.390182 0.458477 0.222197
O O4 0.369707 0.395066 0.440009
O O5 0.703264 0.085660 0.008397
O O6 0.619600 0.981989 0.907141
O O7 0.763435 0.751068 0.349277
O O8 0.046268 0.051342 0.745985
O O9 0.043898 0.313718 0.553765
O O10 0.500394 0.670647 0.130523
#
# Coordination Sequence:
#
# PCOD9424526 Si02
#       7
#     8   8   4   8   4   4   4
#     4  12  28  49  80 119 165 223 280 354 432 525
#     4  12  28  48  82 117 167 222 282 352 438 521
#     4  12  24  48  80 116 168 222 280 352 436 518
#     4  12  30  52  81 123 171 219 298 358 454 517
#     4  12  30  56  86 130 170 234 290 384 442 550
#     4  12  30  54  90 118 172 226 292 368 448 528
#     4  12  24  48  76 120 164 222 278 354 432 526
#
# _framework density 26.411507
#
# number of rings (size 3 to 8) (size 9 to 14) (size 15 to 20)
#    0.000    0.000    2.000    6.000   11.200    0.000 
#    0.000    0.000    0.000    0.000    0.000    0.000 
#    0.000    0.000    0.000    0.000    0.000    0.000 
#
# Total GULP energy -223755.671948 kJ/mol
# GULP energy per Si atom -5593.891799 kJ/mol
# Density = 2.635139 g / cm^3
# Si number density = 26.411507 Si / 1000 Ang^3
#
#
#
# Elastic Constant Matrix: (Units=GPa)
#
#
# Indices 1 2 3 4 5 6 
#
# 1 130.0214 24.8011 43.8661 0.0000 0.0000 0.0000
# 2 24.8011 79.6290 14.4061 0.0000 0.0000 0.0000
# 3 43.8661 14.4061 74.5172 0.0000 0.0000 0.0000
# 4 0.0000 0.0000 0.0000 48.3708 0.0000 0.0000
# 5 0.0000 0.0000 0.0000 0.0000 72.9862 0.0000
# 6 0.0000 0.0000 0.0000 0.0000 0.0000 40.2267
#
#
#
# Elastic Compliance Matrix: (Units=1/GPa)
#
#
# Indices 1 2 3 4 5 6 
#
# 1 0.009927 -0.002108 -0.005436 0.000000 0.000000 0.000000
# 2 -0.002108 0.013461 -0.001361 0.000000 0.000000 0.000000
# 3 -0.005436 -0.001361 0.016883 0.000000 0.000000 0.000000
# 4 0.000000 0.000000 0.000000 0.020674 0.000000 0.000000
# 5 0.000000 0.000000 0.000000 0.000000 0.013701 0.000000
# 6 0.000000 0.000000 0.000000 0.000000 0.000000 0.024859
#
#
# Mechanical properties :
#
#
# Convention : Reuss Voigt Hill
#
# Bulk Modulus (GPa) = 44.52428 50.03492 47.27960
# Shear Modulus (GPa) = 40.06282 45.72303 42.89293
#
# Velocity S-wave (km/s) = 3.89893 4.16526 4.03429
# Velocity P-wave (km/s) = 6.09617 6.48984 6.29608
#
# Compressibility (1/GPa) = 0.02245965
#
# Stress axis : x y z
#
# Youngs Moduli (GPa) = 100.73235 74.28758 59.23095
#
# Poissons Ratio (x) = 0.15663 0.32200
# Poissons Ratio (y) = 0.21239 0.08063
# Poissons Ratio (z) = 0.54761 0.10112
#
# Static dielectric constant tensor:
#      x y z
#    x 2.037950 0.000000 0.000000 
#    y 0.000000 1.991150 0.000000 
#    z 0.000000 0.000000 2.055280 
# 
# From -- ./inp_files/10465.got.cif
#   From: 2010.05.17/outbox.cif.g08.bks.cpg/sg54_6_cif.got.tgz:10465.got - 2010.06.03 13:09:01.
