data_PCOD9424242
_publ_section_title
;
Structure prediction by ZEFSAII (Michael W. Deem and Ramdas Pophale) SiO2 
 PCOD9424242
Probable space group: P C C A
;
_chemical_formula_sum "Si O2"
_cell_formula_units_Z 32
_cell_length_a 5.161740
_cell_length_b 14.816677
_cell_length_c 19.411551
_cell_angle_alpha 90.000000
_cell_angle_beta 90.000000
_cell_angle_gamma 90.000000
_cell_volume 1484.592205
_symmetry_space_group_name_H-M "P C C A"
_symmetry_group_IT_number 54
_symmetry_cell_setting 'orthorhombic'
loop_
_space_group_symop_operation_xyz
x,y,z
1/2-x,-y,z
1/2+x,-y,1/2-z
-x,y,1/2-z
-x,-y,-z
1/2+x,y,-z
1/2-x,y,1/2+z
x,-y,1/2+z
loop_
_atom_site_type_symbol
_atom_site_label
_atom_site_fract_x
_atom_site_fract_y
_atom_site_fract_z
Si Si1 0.250000 0.000000 0.580293
Si Si2 0.191353 0.710878 0.182820
Si Si3 0.000000 0.443178 0.250000
Si Si4 0.340432 0.206764 0.040274
Si Si5 0.250000 0.000000 0.326325
Si Si6 0.500000 0.145434 0.750000
O O1 0.179567 0.096092 0.544976
O O2 0.500443 0.012856 0.627453
O O3 0.361944 0.620321 0.192556
O O4 0.073831 0.739841 0.109688
O O5 0.397887 0.790806 0.191141
O O6 0.000000 0.712138 0.250000
O O7 0.750000 0.500000 0.223633
O O8 0.552158 0.231721 0.983120
O O9 0.233511 0.085161 0.276752
#
# Coordination Sequence:
#
# PCOD9424242 Si02
#       6
#     4   8   4   8   4   4
#     4  12  23  43  60  86 140 198 254 286 332 396
#     4  11  25  45  76 103 141 177 238 287 356 423
#     4  11  24  46  79 116 134 164 217 294 364 441
#     4  12  27  44  65  98 145 193 241 289 341 397
#     4  12  23  37  60  90 136 180 244 302 346 382
#     4  11  24  36  61 100 132 186 237 308 344 399
#
# _framework density 21.554739000000001
#
# number of rings (size 3 to 8) (size 9 to 14) (size 15 to 20)
#    0.000    0.500    3.750    4.500    8.750    0.000 
#    0.000    0.000    0.000    4.500    0.000    0.000 
#    0.000    0.000    0.000    0.000    0.000    0.000 
#
# Total GULP energy -178470.457471 kJ/mol
# GULP energy per Si atom -5577.201796 kJ/mol
# Density = 2.150568 g / cm^3
# Si number density = 21.554739 Si / 1000 Ang^3
#
#
#
# Elastic Constant Matrix: (Units=GPa)
#
#
# Indices 1 2 3 4 5 6 
#
# 1 134.3204 32.8256 32.9987 0.0000 0.0000 0.0000
# 2 32.8256 94.2231 24.3961 0.0000 0.0000 0.0000
# 3 32.9987 24.3961 89.1300 0.0000 0.0000 0.0000
# 4 0.0000 0.0000 0.0000 8.4819 0.0000 0.0000
# 5 0.0000 0.0000 0.0000 0.0000 45.6411 0.0000
# 6 0.0000 0.0000 0.0000 0.0000 0.0000 37.0651
#
#
#
# Elastic Compliance Matrix: (Units=1/GPa)
#
#
# Indices 1 2 3 4 5 6 
#
# 1 0.008648 -0.002350 -0.002558 0.000000 0.000000 0.000000
# 2 -0.002350 0.012061 -0.002431 0.000000 0.000000 0.000000
# 3 -0.002558 -0.002431 0.012832 0.000000 0.000000 0.000000
# 4 0.000000 0.000000 0.000000 0.117899 0.000000 0.000000
# 5 0.000000 0.000000 0.000000 0.000000 0.021910 0.000000
# 6 0.000000 0.000000 0.000000 0.000000 0.000000 0.026980
#
#
# Mechanical properties :
#
#
# Convention : Reuss Voigt Hill
#
# Bulk Modulus (GPa) = 53.01776 55.34604 54.18190
# Shear Modulus (GPa) = 22.59410 33.40115 27.99763
#
# Velocity S-wave (km/s) = 3.24113 3.94076 3.60795
# Velocity P-wave (km/s) = 6.21746 6.81461 6.52287
#
# Compressibility (1/GPa) = 0.01886160
#
# Stress axis : x y z
#
# Youngs Moduli (GPa) = 115.63656 82.90915 77.92884
#
# Poissons Ratio (x) = 0.19486 0.19937
# Poissons Ratio (y) = 0.27178 0.18946
# Poissons Ratio (z) = 0.29584 0.20157
#
# Static dielectric constant tensor:
#      x y z
#    x 1.820730 0.000000 0.000000 
#    y 0.000000 1.810100 0.000000 
#    z 0.000000 0.000000 2.415890 
# 
# From -- ./inp_files/15701.got.cif
#   From: 2010.05.17/outbox.cif.g08.bks.cpg/sg54_8_cif.got.tgz:15701.got - 2010.06.03 13:09:01.
