data_PCOD9424602
_publ_section_title
;
Structure prediction by ZEFSAII (Michael W. Deem and Ramdas Pophale) SiO2 
 PCOD9424602
Probable space group: P C C A
;
_chemical_formula_sum "Si O2"
_cell_formula_units_Z 40
_cell_length_a 28.340666
_cell_length_b 5.151634
_cell_length_c 9.340443
_cell_angle_alpha 90.000000
_cell_angle_beta 90.000000
_cell_angle_gamma 90.000000
_cell_volume 1363.711576
_symmetry_space_group_name_H-M "P C C A"
_symmetry_group_IT_number 54
_symmetry_cell_setting 'orthorhombic'
loop_
_space_group_symop_operation_xyz
x,y,z
1/2-x,-y,z
1/2+x,-y,1/2-z
-x,y,1/2-z
-x,-y,-z
1/2+x,y,-z
1/2-x,y,1/2+z
x,-y,1/2+z
loop_
_atom_site_type_symbol
_atom_site_label
_atom_site_fract_x
_atom_site_fract_y
_atom_site_fract_z
Si Si1 0.250000 0.500000 0.737902
Si Si2 0.151314 0.035869 0.445760
Si Si3 0.450076 0.644967 0.288409
Si Si4 0.148831 0.458079 0.756101
Si Si5 0.250000 0.000000 0.441089
Si Si6 0.550486 0.091212 0.432306
O O1 0.197547 0.498430 0.666942
O O2 0.249739 0.749373 0.840557
O O3 0.152039 0.826967 0.319784
O O4 0.201075 0.000511 0.525621
O O5 0.103148 0.987481 0.526686
O O6 0.151128 0.320563 0.377488
O O7 0.500000 0.512630 0.250000
O O8 0.406476 0.490324 0.216070
O O9 0.446853 0.653643 0.459921
O O10 0.450910 0.937572 0.222108
O O11 0.500000 0.000000 0.500000
#
# Coordination Sequence:
#
# PCOD9424602 Si02
#       6
#     4   8   8   8   4   8
#     4   8  14  26  50  78 108 142 184 232 284 342
#     4   9  17  32  54  82 112 148 190 239 292 351
#     4   9  18  35  57  88 123 162 205 253 305 362
#     4   9  17  32  54  82 113 150 192 240 293 350
#     4   8  14  26  50  78 108 142 182 230 286 342
#     4   9  18  35  59  86 118 158 202 249 302 361
#
# _framework density 29.331714999999999
#
# number of rings (size 3 to 8) (size 9 to 14) (size 15 to 20)
#    0.000    3.200    0.000    0.000    0.000    0.000 
#    0.000   25.000    0.000   22.800    0.000    0.000 
#    0.000   20.800    0.000    0.000    0.000   23.600 
#
# Total GULP energy -222893.029310 kJ/mol
# GULP energy per Si atom -5572.325733 kJ/mol
# Density = 2.926495 g / cm^3
# Si number density = 29.331715 Si / 1000 Ang^3
#
#
#
# Elastic Constant Matrix: (Units=GPa)
#
#
# Indices 1 2 3 4 5 6 
#
# 1 348.5993 0.6167 48.7531 0.0000 0.0000 0.0000
# 2 0.6167 123.0346 48.0445 0.0000 0.0000 0.0000
# 3 48.7531 48.0445 127.3914 0.0000 0.0000 0.0000
# 4 0.0000 0.0000 0.0000 8.4183 0.0000 0.0000
# 5 0.0000 0.0000 0.0000 0.0000 4.3175 0.0000
# 6 0.0000 0.0000 0.0000 0.0000 0.0000 26.2182
#
#
#
# Elastic Compliance Matrix: (Units=1/GPa)
#
#
# Indices 1 2 3 4 5 6 
#
# 1 0.003059 0.000518 -0.001366 0.000000 0.000000 0.000000
# 2 0.000518 0.009619 -0.003826 0.000000 0.000000 0.000000
# 3 -0.001366 -0.003826 0.009816 0.000000 0.000000 0.000000
# 4 0.000000 0.000000 0.000000 0.118788 0.000000 0.000000
# 5 0.000000 0.000000 0.000000 0.000000 0.231616 0.000000
# 6 0.000000 0.000000 0.000000 0.000000 0.000000 0.038141
#
#
# Mechanical properties :
#
#
# Convention : Reuss Voigt Hill
#
# Bulk Modulus (GPa) = 76.07111 88.20599 82.13855
# Shear Modulus (GPa) = 11.77110 41.23153 26.50131
#
# Velocity S-wave (km/s) = 2.00544 3.75333 3.00909
# Velocity P-wave (km/s) = 5.59942 6.99432 6.33538
#
# Compressibility (1/GPa) = 0.01314559
#
# Stress axis : x y z
#
# Youngs Moduli (GPa) = 326.93145 103.95795 101.87897
#
# Poissons Ratio (x) = -0.05386 0.13916
# Poissons Ratio (y) = -0.16938 0.38980
# Poissons Ratio (z) = 0.44658 0.39775
#
# Static dielectric constant tensor:
#      x y z
#    x 2.401170 0.000000 0.000000 
#    y 0.000000 2.565110 0.000000 
#    z 0.000000 0.000000 2.496730 
# 
# From -- ./inp_files/10445.got.cif
#   From: 2010.05.17/outbox.cif.g08.bks.cpg/sg54_6_cif.got.tgz:10445.got - 2010.06.03 13:09:01.
