data_PCOD9424455
_publ_section_title
;
Structure prediction by ZEFSAII (Michael W. Deem and Ramdas Pophale) SiO2 
 PCOD9424455
Probable space group: P C C A
;
_chemical_formula_sum "Si O2"
_cell_formula_units_Z 40
_cell_length_a 18.802477
_cell_length_b 4.937837
_cell_length_c 18.942811
_cell_angle_alpha 90.000000
_cell_angle_beta 90.000000
_cell_angle_gamma 90.000000
_cell_volume 1758.718135
_symmetry_space_group_name_H-M "P C C A"
_symmetry_group_IT_number 54
_symmetry_cell_setting 'orthorhombic'
loop_
_space_group_symop_operation_xyz
x,y,z
1/2-x,-y,z
1/2+x,-y,1/2-z
-x,y,1/2-z
-x,-y,-z
1/2+x,y,-z
1/2-x,y,1/2+z
x,-y,1/2+z
loop_
_atom_site_type_symbol
_atom_site_label
_atom_site_fract_x
_atom_site_fract_y
_atom_site_fract_z
Si Si1 0.911904 0.985725 0.500603
Si Si2 0.972852 0.660363 0.673226
Si Si3 0.389436 0.165448 0.344569
Si Si4 0.296787 0.752609 0.711082
Si Si5 0.891477 0.517455 0.912242
O O1 0.878021 0.071172 0.575296
O O2 0.877618 0.183617 0.441888
O O3 0.893254 0.683600 0.478084
O O4 0.000000 0.000000 0.500000
O O5 0.903321 0.485786 0.657596
O O6 0.000000 0.585670 0.750000
O O7 0.029613 0.554738 0.618080
O O8 0.958777 0.979345 0.671713
O O9 0.337962 0.120075 0.278217
O O10 0.250000 0.500000 0.737281
O O11 0.345303 0.614464 0.650319
O O12 0.250000 0.000000 0.681487
#
# Coordination Sequence:
#
# PCOD9424455 Si02
#       5
#     8   8   8   8   8
#     4  12  23  41  68 112 144 171 207 288 377 433
#     4  12  22  37  68 107 136 170 221 293 360 411
#     4  12  25  41  69 102 141 175 225 287 353 416
#     4  12  28  50  68  94 136 198 250 286 320 402
#     4  12  24  43  69 102 142 176 226 285 353 421
#
# _framework density 22.743839000000001
#
# number of rings (size 3 to 8) (size 9 to 14) (size 15 to 20)
#    0.000    0.000    6.000    4.800    2.800    0.000 
#    0.000    6.000    0.000    0.000    0.000    0.000 
#    0.000    0.000    0.000    0.000    0.000    0.000 
#
# Total GULP energy -223381.008300 kJ/mol
# GULP energy per Si atom -5584.525207 kJ/mol
# Density = 2.269207 g / cm^3
# Si number density = 22.743839 Si / 1000 Ang^3
#
#
#
# Elastic Constant Matrix: (Units=GPa)
#
#
# Indices 1 2 3 4 5 6 
#
# 1 52.3048 18.1287 28.5376 0.0000 0.0000 0.0000
# 2 18.1287 110.0434 14.8125 0.0000 0.0000 0.0000
# 3 28.5376 14.8125 121.1467 0.0000 0.0000 0.0000
# 4 0.0000 0.0000 0.0000 55.6445 0.0000 0.0000
# 5 0.0000 0.0000 0.0000 0.0000 8.1842 0.0000
# 6 0.0000 0.0000 0.0000 0.0000 0.0000 286.8747
#
#
#
# Elastic Compliance Matrix: (Units=1/GPa)
#
#
# Indices 1 2 3 4 5 6 
#
# 1 0.022935 -0.003102 -0.005023 0.000000 0.000000 0.000000
# 2 -0.003102 0.009659 -0.000450 0.000000 0.000000 0.000000
# 3 -0.005023 -0.000450 0.009493 0.000000 0.000000 0.000000
# 4 0.000000 0.000000 0.000000 0.017971 0.000000 0.000000
# 5 0.000000 0.000000 0.000000 0.000000 0.122186 0.000000
# 6 0.000000 0.000000 0.000000 0.000000 0.000000 0.003486
#
#
# Mechanical properties :
#
#
# Convention : Reuss Voigt Hill
#
# Bulk Modulus (GPa) = 40.10403 45.16138 42.63271
# Shear Modulus (GPa) = 23.67511 84.94176 54.30844
#
# Velocity S-wave (km/s) = 3.22987 6.11786 4.89184
# Velocity P-wave (km/s) = 5.61966 8.35488 7.11985
#
# Compressibility (1/GPa) = 0.02493515
#
# Stress axis : x y z
#
# Youngs Moduli (GPa) = 43.60233 103.53062 105.34314
#
# Poissons Ratio (x) = 0.32116 0.52916
# Poissons Ratio (y) = 0.13526 0.04743
# Poissons Ratio (z) = 0.21902 0.04662
#
# Static dielectric constant tensor:
#      x y z
#    x 1.866470 0.000000 0.000000 
#    y 0.000000 1.812580 0.000000 
#    z 0.000000 0.000000 1.814250 
# 
# From -- ./inp_files/18366.got.cif
#   From: 2010.05.17/outbox.cif.g08.bks.cpg/sg54_10_cif.got.tgz:18366.got - 2010.06.03 13:09:01.
