data_PCOD9424725
_publ_section_title
;
Structure prediction by ZEFSAII (Michael W. Deem and Ramdas Pophale) SiO2 
 PCOD9424725
Probable space group: P B A M
;
_chemical_formula_sum "Si O2"
_cell_formula_units_Z 36
_cell_length_a 13.624581
_cell_length_b 5.079139
_cell_length_c 22.278365
_cell_angle_alpha 90.000000
_cell_angle_beta 90.000000
_cell_angle_gamma 90.000000
_cell_volume 1541.688271
_symmetry_space_group_name_H-M "P B A M"
_symmetry_group_IT_number 55
_symmetry_cell_setting 'orthorhombic'
loop_
_space_group_symop_operation_xyz
x,y,z
-x,-y,z
1/2+x,1/2-y,-z
1/2-x,1/2+y,-z
-x,-y,-z
x,y,-z
1/2-x,1/2+y,z
1/2+x,1/2-y,z
loop_
_atom_site_type_symbol
_atom_site_label
_atom_site_fract_x
_atom_site_fract_y
_atom_site_fract_z
Si Si1 0.927463 0.747414 0.500000
Si Si2 0.316540 0.265338 0.809463
Si Si3 0.819325 0.114327 0.064848
Si Si4 0.885421 0.044213 0.316559
Si Si5 0.618056 0.048946 0.623334
O O1 0.866390 0.701568 0.439238
O O2 0.000000 0.500000 0.500000
O O3 0.000000 0.000000 0.500000
O O4 0.224798 0.470115 0.809676
O O5 0.127853 0.826826 0.872154
O O6 0.373093 0.333396 0.748880
O O7 0.770330 0.826137 0.065847
O O8 0.870165 0.148850 0.000000
O O9 0.845789 0.253389 0.365357
O O10 0.847257 0.747626 0.324582
O O11 0.000000 0.000000 0.328566
O O12 0.500000 0.000000 0.627537
#
# Coordination Sequence:
#
# PCOD9424725 Si02
#       5
#     4   8   8   8   8
#     4  10  16  26  44  68  94 118 150 194 235 268
#     4  10  19  31  48  70  93 122 159 193 229 277
#     4   8  14  25  42  64  88 113 147 192 232 265
#     4  10  19  31  46  68  97 124 151 188 237 284
#     4   9  17  28  44  67  93 120 150 189 234 276
#
# _framework density 23.351023999999999
#
# number of rings (size 3 to 8) (size 9 to 14) (size 15 to 20)
#    0.000    2.667    0.000    4.667    0.000    0.000 
#    0.000    0.000    0.000    0.667    0.000   15.556 
#    0.000   23.111    0.000    0.000    0.000    4.222 
#
# Total GULP energy -200604.135392 kJ/mol
# GULP energy per Si atom -5572.337094 kJ/mol
# Density = 2.329788 g / cm^3
# Si number density = 23.351024 Si / 1000 Ang^3
#
#
#
# Elastic Constant Matrix: (Units=GPa)
#
#
# Indices 1 2 3 4 5 6 
#
# 1 47.0066 -1.6813 -8.9006 0.0000 0.0000 0.0000
# 2 -1.6813 133.0361 57.2187 0.0000 0.0000 0.0000
# 3 -8.9006 57.2187 159.3905 0.0000 0.0000 0.0000
# 4 0.0000 0.0000 0.0000 34.2425 0.0000 0.0000
# 5 0.0000 0.0000 0.0000 0.0000 0.9759 0.0000
# 6 0.0000 0.0000 0.0000 0.0000 0.0000 1.3620
#
#
#
# Elastic Compliance Matrix: (Units=1/GPa)
#
#
# Indices 1 2 3 4 5 6 
#
# 1 0.021510 -0.000289 0.001305 0.000000 0.000000 0.000000
# 2 -0.000289 0.008893 -0.003209 0.000000 0.000000 0.000000
# 3 0.001305 -0.003209 0.007499 0.000000 0.000000 0.000000
# 4 0.000000 0.000000 0.000000 0.029203 0.000000 0.000000
# 5 0.000000 0.000000 0.000000 0.000000 1.024733 0.000000
# 6 0.000000 0.000000 0.000000 0.000000 0.000000 0.734229
#
#
# Mechanical properties :
#
#
# Convention : Reuss Voigt Hill
#
# Bulk Modulus (GPa) = 29.83646 48.07854 38.95750
# Shear Modulus (GPa) = 2.71499 26.83583 14.77541
#
# Velocity S-wave (km/s) = 1.07945 3.39372 2.51819
# Velocity P-wave (km/s) = 3.78929 5.99922 5.01743
#
# Compressibility (1/GPa) = 0.03351604
#
# Stress axis : x y z
#
# Youngs Moduli (GPa) = 46.48922 112.44619 133.35753
#
# Poissons Ratio (x) = 0.03255 -0.17404
# Poissons Ratio (y) = 0.01346 0.42790
# Poissons Ratio (z) = -0.06067 0.36080
#
# Static dielectric constant tensor:
#      x y z
#    x 2.650660 0.000000 0.000000 
#    y 0.000000 1.858380 0.000000 
#    z 0.000000 0.000000 2.050070 
# 
# From -- ./inp_files/20381.got.cif
#   From: 2010.05.17/outbox.cif.g08.bks.cpg/sg55_11_cif.got.tgz:20381.got - 2010.06.03 13:27:54.
