data_PCOD9424784
_publ_section_title
;
Structure prediction by ZEFSAII (Michael W. Deem and Ramdas Pophale) SiO2 
 PCOD9424784
Probable space group: P B A M
;
_chemical_formula_sum "Si O2"
_cell_formula_units_Z 48
_cell_length_a 18.429012
_cell_length_b 5.587165
_cell_length_c 21.354941
_cell_angle_alpha 90.000000
_cell_angle_beta 90.000000
_cell_angle_gamma 90.000000
_cell_volume 2198.831378
_symmetry_space_group_name_H-M "P B A M"
_symmetry_group_IT_number 55
_symmetry_cell_setting 'orthorhombic'
loop_
_space_group_symop_operation_xyz
x,y,z
-x,-y,z
1/2+x,1/2-y,-z
1/2-x,1/2+y,-z
-x,-y,-z
x,y,-z
1/2-x,1/2+y,z
1/2+x,1/2-y,z
loop_
_atom_site_type_symbol
_atom_site_label
_atom_site_fract_x
_atom_site_fract_y
_atom_site_fract_z
Si Si1 0.917231 0.481101 0.621548
Si Si2 0.745185 0.350200 0.279347
Si Si3 0.706697 0.418489 0.926378
Si Si4 0.414196 0.518016 0.425952
Si Si5 0.106185 0.121993 0.188506
Si Si6 0.096722 0.620138 0.767764
O O1 0.885188 0.744422 0.608482
O O2 0.920698 0.425293 0.695111
O O3 0.000000 0.500000 0.596174
O O4 0.883168 0.243286 0.591190
O O5 0.749411 0.600370 0.315008
O O6 0.672695 0.355757 0.238556
O O7 0.814686 0.357288 0.232401
O O8 0.750136 0.168449 0.914441
O O9 0.638931 0.414338 0.880013
O O10 0.687890 0.418515 0.000000
O O11 0.500000 0.500000 0.407972
O O12 0.409410 0.557201 0.500000
O O13 0.072993 0.385586 0.194799
O O14 0.068705 0.875264 0.208879
#
# Coordination Sequence:
#
# PCOD9424784 Si02
#       6
#     8   8   8   8   8   8
#     4  10  19  30  44  66  93 114 140 176 210 255
#     4   8  14  23  37  54  77 104 133 164 198 237
#     4  10  18  27  41  62  89 121 149 175 215 265
#     4   9  17  30  47  64  86 116 141 167 211 262
#     4  10  17  28  42  60  87 115 145 177 212 254
#     4  10  18  27  42  61  86 116 142 173 215 252
#
# _framework density 21.829775999999999
#
# number of rings (size 3 to 8) (size 9 to 14) (size 15 to 20)
#    0.000    2.500    0.000    5.500    0.000    2.000 
#    0.000    0.000    0.000    0.000    0.000    0.000 
#    0.000  124.000    0.000    0.000    0.000    0.000 
#
# Total GULP energy -267668.742013 kJ/mol
# GULP energy per Si atom -5576.432125 kJ/mol
# Density = 2.178009 g / cm^3
# Si number density = 21.829776 Si / 1000 Ang^3
#
#
#
# Elastic Constant Matrix: (Units=GPa)
#
#
# Indices 1 2 3 4 5 6 
#
# 1 48.1897 27.7245 2.0753 0.0000 0.0000 0.0000
# 2 27.7245 294.1209 62.9905 0.0000 0.0000 0.0000
# 3 2.0753 62.9905 74.0991 0.0000 0.0000 0.0000
# 4 0.0000 0.0000 0.0000 34.7489 0.0000 0.0000
# 5 0.0000 0.0000 0.0000 0.0000 15.7782 0.0000
# 6 0.0000 0.0000 0.0000 0.0000 0.0000 26.1133
#
#
#
# Elastic Compliance Matrix: (Units=1/GPa)
#
#
# Indices 1 2 3 4 5 6 
#
# 1 0.022060 -0.002381 0.001406 0.000000 0.000000 0.000000
# 2 -0.002381 0.004414 -0.003685 0.000000 0.000000 0.000000
# 3 0.001406 -0.003685 0.016589 0.000000 0.000000 0.000000
# 4 0.000000 0.000000 0.000000 0.028778 0.000000 0.000000
# 5 0.000000 0.000000 0.000000 0.000000 0.063379 0.000000
# 6 0.000000 0.000000 0.000000 0.000000 0.000000 0.038295
#
#
# Mechanical properties :
#
#
# Convention : Reuss Voigt Hill
#
# Bulk Modulus (GPa) = 29.63594 66.88784 48.26189
# Shear Modulus (GPa) = 25.76235 36.90270 31.33252
#
# Velocity S-wave (km/s) = 3.43905 4.11600 3.79266
# Velocity P-wave (km/s) = 5.41986 7.30039 6.42925
#
# Compressibility (1/GPa) = 0.03374281
#
# Stress axis : x y z
#
# Youngs Moduli (GPa) = 45.33020 226.57159 60.28144
#
# Poissons Ratio (x) = 0.53936 -0.08474
# Poissons Ratio (y) = 0.10791 0.22215
# Poissons Ratio (z) = -0.06373 0.83498
#
# Static dielectric constant tensor:
#      x y z
#    x 1.842850 0.000000 0.000000 
#    y 0.000000 1.917650 0.000000 
#    z 0.000000 0.000000 1.724860 
# 
# From -- ./inp_files/16731.got.cif
#   From: 2010.05.17/outbox.cif.g08.bks.cpg/sg55_9_cif.got.tgz:16731.got - 2010.06.03 13:27:54.
