data_PCOD9424696
_publ_section_title
;
Structure prediction by ZEFSAII (Michael W. Deem and Ramdas Pophale) SiO2 
 PCOD9424696
Probable space group: P B A M
;
_chemical_formula_sum "Si O2"
_cell_formula_units_Z 56
_cell_length_a 5.490260
_cell_length_b 18.826174
_cell_length_c 27.120475
_cell_angle_alpha 90.000000
_cell_angle_beta 90.000000
_cell_angle_gamma 90.000000
_cell_volume 2803.188299
_symmetry_space_group_name_H-M "P B A M"
_symmetry_group_IT_number 55
_symmetry_cell_setting 'orthorhombic'
loop_
_space_group_symop_operation_xyz
x,y,z
-x,-y,z
1/2+x,1/2-y,-z
1/2-x,1/2+y,-z
-x,-y,-z
x,y,-z
1/2-x,1/2+y,z
1/2+x,1/2-y,z
loop_
_atom_site_type_symbol
_atom_site_label
_atom_site_fract_x
_atom_site_fract_y
_atom_site_fract_z
Si Si1 0.245010 0.372807 0.397366
Si Si2 0.749934 0.999665 0.317185
Si Si3 0.621157 0.162205 0.787111
Si Si4 0.377067 0.677354 0.749027
Si Si5 0.306342 0.796604 0.892669
Si Si6 0.747901 0.045459 0.500000
Si Si7 0.758139 0.841876 0.360634
Si Si8 0.366217 0.794968 0.000000
O O1 0.250734 0.435683 0.356104
O O2 0.237855 0.408063 0.450650
O O3 0.498914 0.331782 0.392003
O O4 0.002323 0.328534 0.385085
O O5 0.749890 0.926699 0.348376
O O6 0.500000 0.000000 0.288185
O O7 0.000000 0.000000 0.288307
O O8 0.599791 0.247488 0.776865
O O9 0.354571 0.135998 0.771248
O O10 0.674598 0.153952 0.844773
O O11 0.857916 0.141606 0.755014
O O12 0.304322 0.692611 0.692631
O O13 0.545689 0.744622 0.889807
O O14 0.328200 0.831467 0.946922
O O15 0.500000 0.000000 0.500000
O O16 0.000000 0.000000 0.500000
O O17 0.641540 0.762683 0.000000
#
# Coordination Sequence:
#
# PCOD9424696 Si02
#       8
#     8   8   8   8   8   4   8   4
#     4  10  19  30  43  62  85 106 125 150 182 226
#     4   8  14  25  38  52  74 100 120 142 173 210
#     4  10  17  28  40  57  79 102 135 178 212 232
#     4  10  18  27  41  56  76 104 134 168 208 235
#     4  10  14  25  36  53  75 104 129 171 203 235
#     4  12  20  30  48  68  88 114 134 144 180 240
#     4  10  18  29  41  58  81 104 131 162 187 227
#     4   8  16  20  34  52  72  98 136 160 194 240
#
# _framework density 19.977253000000001
#
# number of rings (size 3 to 8) (size 9 to 14) (size 15 to 20)
#    0.000    2.286    2.857    4.286    0.000    0.000 
#    0.000    0.000    0.000    0.000    0.000    0.000 
#    0.000   45.714    0.000    0.000    0.000    0.000 
#
# Total GULP energy -311908.063605 kJ/mol
# GULP energy per Si atom -5569.786850 kJ/mol
# Density = 1.993178 g / cm^3
# Si number density = 19.977253 Si / 1000 Ang^3
#
#
#
# Elastic Constant Matrix: (Units=GPa)
#
#
# Indices 1 2 3 4 5 6 
#
# 1 170.8491 1.1958 3.6371 0.0000 0.0000 0.0000
# 2 1.1958 41.6654 -3.9953 0.0000 0.0000 0.0000
# 3 3.6371 -3.9953 110.1217 0.0000 0.0000 0.0000
# 4 0.0000 0.0000 0.0000 1.4476 0.0000 0.0000
# 5 0.0000 0.0000 0.0000 0.0000 29.9173 0.0000
# 6 0.0000 0.0000 0.0000 0.0000 0.0000 -9.3827
#
#
#
# Elastic Compliance Matrix: (Units=1/GPa)
#
#
# Indices 1 2 3 4 5 6 
#
# 1 0.005859 -0.000187 -0.000200 0.000000 0.000000 0.000000
# 2 -0.000187 0.024090 0.000880 0.000000 0.000000 0.000000
# 3 -0.000200 0.000880 0.009119 0.000000 0.000000 0.000000
# 4 0.000000 0.000000 0.000000 0.690817 0.000000 0.000000
# 5 0.000000 0.000000 0.000000 0.000000 0.033425 0.000000
# 6 0.000000 0.000000 0.000000 0.000000 0.000000 -0.106579
#
#
# Mechanical properties :
#
#
# Convention : Reuss Voigt Hill
#
# Bulk Modulus (GPa) = 24.96648 36.03460 30.50054
# Shear Modulus (GPa) = 7.47274 25.84967 16.66121
#
# Velocity S-wave (km/s) = 1.93617 3.60106 2.89105
# Velocity P-wave (km/s) = 4.18604 5.94703 5.14247
#
# Compressibility (1/GPa) = 0.04005370
#
# Stress axis : x y z
#
# Youngs Moduli (GPa) = 170.68651 41.51017 109.65621
#
# Poissons Ratio (x) = 0.00778 0.02196
# Poissons Ratio (y) = 0.03198 -0.09652
# Poissons Ratio (z) = 0.03419 -0.03654
#
# Static dielectric constant tensor:
#      x y z
#    x 1.767690 0.000000 0.000000 
#    y 0.000000 1.734720 0.000000 
#    z 0.000000 0.000000 1.725520 
# 
# From -- ./inp_files/23374.got.cif
#   From: 2010.05.17/outbox.cif.g08.bks.cpg/sg55_12_cif.got.tgz:23374.got - 2010.06.03 13:27:54.
