data_PCOD9424234
_publ_section_title
;
Structure prediction by ZEFSAII (Michael W. Deem and Ramdas Pophale) SiO2 
 PCOD9424234
Probable space group: P C C A
;
_chemical_formula_sum "Si O2"
_cell_formula_units_Z 40
_cell_length_a 23.283081
_cell_length_b 5.823526
_cell_length_c 13.422135
_cell_angle_alpha 90.000000
_cell_angle_beta 90.000000
_cell_angle_gamma 90.000000
_cell_volume 1819.902286
_symmetry_space_group_name_H-M "P C C A"
_symmetry_group_IT_number 54
_symmetry_cell_setting 'orthorhombic'
loop_
_space_group_symop_operation_xyz
x,y,z
1/2-x,-y,z
1/2+x,-y,1/2-z
-x,y,1/2-z
-x,-y,-z
1/2+x,y,-z
1/2-x,y,1/2+z
x,-y,1/2+z
loop_
_atom_site_type_symbol
_atom_site_label
_atom_site_fract_x
_atom_site_fract_y
_atom_site_fract_z
Si Si1 0.864110 0.780989 0.356767
Si Si2 0.638739 0.509074 0.168655
Si Si3 0.250000 0.500000 0.961578
Si Si4 0.250000 0.000000 0.069939
Si Si5 0.067613 0.445708 0.011070
Si Si6 0.563740 0.842205 0.287534
O O1 0.843325 0.607611 0.272287
O O2 0.891426 0.656604 0.452655
O O3 0.811356 0.952271 0.376993
O O4 0.918639 0.898887 0.305259
O O5 0.695485 0.546428 0.106677
O O6 0.605073 0.732995 0.205093
O O7 0.595092 0.373294 0.094439
O O8 0.258789 0.745713 0.018451
O O9 0.072015 0.273262 0.104010
O O10 0.000000 0.500000 0.000000
O O11 0.500000 0.807407 0.250000
#
# Coordination Sequence:
#
# PCOD9424234 Si02
#       6
#     8   8   4   4   8   8
#     4  11  28  43  74 106 151 195 256 319 389 459
#     4  11  26  46  73 105 144 198 249 316 381 462
#     4  12  28  50  82 108 154 196 262 308 390 456
#     4  12  28  52  78 114 154 202 254 324 378 466
#     4  11  23  47  69 101 148 193 251 317 382 466
#     4  11  25  43  69 106 145 191 251 315 383 456
#
# _framework density 21.979201
#
# number of rings (size 3 to 8) (size 9 to 14) (size 15 to 20)
#    0.000    0.800    4.000    1.200   11.200    2.400 
#    0.000    0.000    0.000    0.000    0.000    0.000 
#    0.000    0.000    0.000    0.000    0.000    0.000 
#
# Total GULP energy -223104.620639 kJ/mol
# GULP energy per Si atom -5577.615516 kJ/mol
# Density = 2.192918 g / cm^3
# Si number density = 21.979201 Si / 1000 Ang^3
#
#
#
# Elastic Constant Matrix: (Units=GPa)
#
#
# Indices 1 2 3 4 5 6 
#
# 1 135.5450 20.6364 45.3153 0.0000 0.0000 0.0000
# 2 20.6364 69.7526 26.5868 0.0000 0.0000 0.0000
# 3 45.3153 26.5868 97.3943 0.0000 0.0000 0.0000
# 4 0.0000 0.0000 0.0000 -42.6752 0.0000 0.0000
# 5 0.0000 0.0000 0.0000 0.0000 18.5366 0.0000
# 6 0.0000 0.0000 0.0000 0.0000 0.0000 25.3130
#
#
#
# Elastic Compliance Matrix: (Units=1/GPa)
#
#
# Indices 1 2 3 4 5 6 
#
# 1 0.008821 -0.001167 -0.003786 0.000000 0.000000 0.000000
# 2 -0.001167 0.016156 -0.003867 0.000000 0.000000 0.000000
# 3 -0.003786 -0.003867 0.013085 0.000000 0.000000 0.000000
# 4 0.000000 0.000000 0.000000 -0.023433 0.000000 0.000000
# 5 0.000000 0.000000 0.000000 0.000000 0.053947 0.000000
# 6 0.000000 0.000000 0.000000 0.000000 0.000000 0.039505
#
#
# Mechanical properties :
#
#
# Convention : Reuss Voigt Hill
#
# Bulk Modulus (GPa) = 48.96750 54.19653 51.58202
# Shear Modulus (GPa) = 37.72800 14.24511 25.98655
#
# Velocity S-wave (km/s) = 4.14760 2.54858 3.44223
# Velocity P-wave (km/s) = 6.72786 5.77685 6.27041
#
# Compressibility (1/GPa) = 0.02042171
#
# Stress axis : x y z
#
# Youngs Moduli (GPa) = 113.36742 61.89793 76.42558
#
# Poissons Ratio (x) = 0.07222 0.28932
# Poissons Ratio (y) = 0.13227 0.29556
# Poissons Ratio (z) = 0.42917 0.23938
#
# Static dielectric constant tensor:
#      x y z
#    x 1.787770 0.000000 0.000000 
#    y 0.000000 1.852750 0.000000 
#    z 0.000000 0.000000 1.843160 
# 
# From -- ./inp_files/10174.got.cif
#   From: 2010.05.17/outbox.cif.g08.bks.cpg/sg54_6_cif.got.tgz:10174.got - 2010.06.03 13:09:01.
