data_PCOD9424238
_publ_section_title
;
Structure prediction by ZEFSAII (Michael W. Deem and Ramdas Pophale) SiO2 
 PCOD9424238
Probable space group: P C C A
;
_chemical_formula_sum "Si O2"
_cell_formula_units_Z 40
_cell_length_a 12.321701
_cell_length_b 8.315512
_cell_length_c 16.923259
_cell_angle_alpha 90.000000
_cell_angle_beta 90.000000
_cell_angle_gamma 90.000000
_cell_volume 1733.978314
_symmetry_space_group_name_H-M "P C C A"
_symmetry_group_IT_number 54
_symmetry_cell_setting 'orthorhombic'
loop_
_space_group_symop_operation_xyz
x,y,z
1/2-x,-y,z
1/2+x,-y,1/2-z
-x,y,1/2-z
-x,-y,-z
1/2+x,y,-z
1/2-x,y,1/2+z
x,-y,1/2+z
loop_
_atom_site_type_symbol
_atom_site_label
_atom_site_fract_x
_atom_site_fract_y
_atom_site_fract_z
Si Si1 0.658156 0.183452 0.618261
Si Si2 0.569526 0.340599 0.324268
Si Si3 0.207065 0.832745 0.702406
Si Si4 0.951756 0.652604 0.913287
Si Si5 0.402762 0.162254 0.426045
O O1 0.660307 0.136660 0.710399
O O2 0.579439 0.331198 0.603256
O O3 0.782367 0.216604 0.598678
O O4 0.612052 0.031074 0.568487
O O5 0.500000 0.407535 0.250000
O O6 0.687039 0.281465 0.296233
O O7 0.583004 0.471845 0.393495
O O8 0.494603 0.200382 0.361176
O O9 0.113899 0.757993 0.649755
O O10 0.250000 0.000000 0.667997
O O11 0.928832 0.734364 0.996762
#
# Coordination Sequence:
#
# PCOD9424238 Si02
#       5
#     8   8   8   8   8
#     4  11  23  48  71 102 140 185 246 289 358 420
#     4  12  24  47  69 104 149 190 237 291 363 435
#     4  12  24  45  74 104 137 191 242 294 348 431
#     4  12  28  41  72 104 147 186 235 299 366 423
#     4  11  25  46  71 106 141 189 236 304 352 425
#
# _framework density 23.068341
#
# number of rings (size 3 to 8) (size 9 to 14) (size 15 to 20)
#    0.000    0.400    4.000    4.800    5.600    0.800 
#    3.600    0.000    0.000    0.000    0.000    0.000 
#    0.000    0.000    0.000    0.000    0.000    0.000 
#
# Total GULP energy -223884.272111 kJ/mol
# GULP energy per Si atom -5597.106803 kJ/mol
# Density = 2.301584 g / cm^3
# Si number density = 23.068341 Si / 1000 Ang^3
#
#
#
# Elastic Constant Matrix: (Units=GPa)
#
#
# Indices 1 2 3 4 5 6 
#
# 1 46.6595 3.5123 15.1636 0.0000 0.0000 0.0000
# 2 3.5123 60.3741 11.4065 0.0000 0.0000 0.0000
# 3 15.1636 11.4065 81.0519 0.0000 0.0000 0.0000
# 4 0.0000 0.0000 0.0000 23.7777 0.0000 0.0000
# 5 0.0000 0.0000 0.0000 0.0000 191.8946 0.0000
# 6 0.0000 0.0000 0.0000 0.0000 0.0000 33.7079
#
#
#
# Elastic Compliance Matrix: (Units=1/GPa)
#
#
# Indices 1 2 3 4 5 6 
#
# 1 0.022836 -0.000536 -0.004197 0.000000 0.000000 0.000000
# 2 -0.000536 0.017028 -0.002296 0.000000 0.000000 0.000000
# 3 -0.004197 -0.002296 0.013446 0.000000 0.000000 0.000000
# 4 0.000000 0.000000 0.000000 0.042056 0.000000 0.000000
# 5 0.000000 0.000000 0.000000 0.000000 0.005211 0.000000
# 6 0.000000 0.000000 0.000000 0.000000 0.000000 0.029667
#
#
# Mechanical properties :
#
#
# Convention : Reuss Voigt Hill
#
# Bulk Modulus (GPa) = 25.47564 27.58335 26.52949
# Shear Modulus (GPa) = 31.76892 60.40958 46.08925
#
# Velocity S-wave (km/s) = 3.71504 5.12290 4.47469
# Velocity P-wave (km/s) = 5.42859 6.85385 6.18243
#
# Compressibility (1/GPa) = 0.03925318
#
# Stress axis : x y z
#
# Youngs Moduli (GPa) = 43.79027 58.72548 74.37095
#
# Poissons Ratio (x) = 0.03145 0.31213
# Poissons Ratio (y) = 0.02345 0.17077
# Poissons Ratio (z) = 0.18378 0.13485
#
# Static dielectric constant tensor:
#      x y z
#    x 1.812820 0.000000 0.000000 
#    y 0.000000 1.891930 0.000000 
#    z 0.000000 0.000000 1.857750 
# 
# From -- ./inp_files/17074.got.cif
#   From: 2010.05.17/outbox.cif.g08.bks.cpg/sg54_9_cif.got.tgz:17074.got - 2010.06.03 13:09:01.
