data_PCOD9424381
_publ_section_title
;
Structure prediction by ZEFSAII (Michael W. Deem and Ramdas Pophale) SiO2 
 PCOD9424381
Probable space group: P C C A
;
_chemical_formula_sum "Si O2"
_cell_formula_units_Z 64
_cell_length_a 23.070849
_cell_length_b 14.360779
_cell_length_c 8.522188
_cell_angle_alpha 90.000000
_cell_angle_beta 90.000000
_cell_angle_gamma 90.000000
_cell_volume 2823.531818
_symmetry_space_group_name_H-M "P C C A"
_symmetry_group_IT_number 54
_symmetry_cell_setting 'orthorhombic'
loop_
_space_group_symop_operation_xyz
x,y,z
1/2-x,-y,z
1/2+x,-y,1/2-z
-x,y,1/2-z
-x,-y,-z
1/2+x,y,-z
1/2-x,y,1/2+z
x,-y,1/2+z
loop_
_atom_site_type_symbol
_atom_site_label
_atom_site_fract_x
_atom_site_fract_y
_atom_site_fract_z
Si Si1 0.059479 0.273678 0.951684
Si Si2 0.779005 0.322489 0.645266
Si Si3 0.633929 0.936346 0.008872
Si Si4 0.759159 0.188659 0.902263
Si Si5 0.876352 0.433714 0.449525
Si Si6 0.072898 0.771496 0.092613
Si Si7 0.636464 0.871094 0.352868
Si Si8 0.646944 0.624726 0.095159
O O1 0.080500 0.260475 0.772346
O O2 0.992840 0.245522 0.958289
O O3 0.066436 0.382728 0.989179
O O4 0.098720 0.212777 0.072653
O O5 0.785513 0.282153 0.820564
O O6 0.774462 0.225435 0.554225
O O7 0.825882 0.385745 0.557654
O O8 0.715831 0.367426 0.624971
O O9 0.693787 0.888010 0.946705
O O10 0.586523 0.880657 0.909195
O O11 0.637023 0.045068 0.976999
O O12 0.616424 0.912818 0.187044
O O13 0.702885 0.154710 0.809222
O O14 0.873206 0.406380 0.267952
O O15 0.869475 0.542667 0.475596
O O16 0.115272 0.717283 0.970197
#
# Coordination Sequence:
#
# PCOD9424381 Si02
#       8
#     8   8   8   8   8   8   8   8
#     4  11  25  47  72  96 128 173 224 282 341 400
#     4  12  23  41  69  98 135 177 219 268 330 393
#     4  12  26  42  68 100 138 177 223 275 331 399
#     4  12  23  41  69  98 135 177 219 268 330 393
#     4  12  26  42  68 100 138 177 223 275 331 399
#     4  11  25  47  72  96 128 173 224 282 341 400
#     4  12  26  43  67 102 135 179 222 273 336 395
#     4  12  26  43  67 102 135 179 222 273 336 395
#
# _framework density 22.666647999999999
#
# number of rings (size 3 to 8) (size 9 to 14) (size 15 to 20)
#    0.000    0.250    5.000    3.750    3.500    5.000 
#    0.000    0.000    0.000    0.000    0.000    0.000 
#    0.000    0.000    0.000    0.000    0.000    0.000 
#
# Total GULP energy -357559.288993 kJ/mol
# GULP energy per Si atom -5586.863891 kJ/mol
# Density = 2.261506 g / cm^3
# Si number density = 22.666648 Si / 1000 Ang^3
#
#
#
# Elastic Constant Matrix: (Units=GPa)
#
#
# Indices 1 2 3 4 5 6 
#
# 1 82.4558 5.1750 -3.1995 0.0000 0.0000 0.0000
# 2 5.1750 90.7591 -4.2987 0.0000 0.0000 0.0000
# 3 -3.1995 -4.2987 96.8927 0.0000 0.0000 0.0000
# 4 0.0000 0.0000 0.0000 34.8697 0.0000 0.0000
# 5 0.0000 0.0000 0.0000 0.0000 20.3072 0.0000
# 6 0.0000 0.0000 0.0000 0.0000 0.0000 10.9627
#
#
#
# Elastic Compliance Matrix: (Units=1/GPa)
#
#
# Indices 1 2 3 4 5 6 
#
# 1 0.012185 -0.000677 0.000372 0.000000 0.000000 0.000000
# 2 -0.000677 0.011079 0.000469 0.000000 0.000000 0.000000
# 3 0.000372 0.000469 0.010354 0.000000 0.000000 0.000000
# 4 0.000000 0.000000 0.000000 0.028678 0.000000 0.000000
# 5 0.000000 0.000000 0.000000 0.000000 0.049244 0.000000
# 6 0.000000 0.000000 0.000000 0.000000 0.000000 0.091218
#
#
# Mechanical properties :
#
#
# Convention : Reuss Voigt Hill
#
# Bulk Modulus (GPa) = 29.45839 29.49568 29.47703
# Shear Modulus (GPa) = 23.39246 31.38999 27.39122
#
# Velocity S-wave (km/s) = 3.21599 3.72540 3.48003
# Velocity P-wave (km/s) = 5.17829 5.61657 5.40188
#
# Compressibility (1/GPa) = 0.03394619
#
# Stress axis : x y z
#
# Youngs Moduli (GPa) = 82.07045 90.26077 96.58290
#
# Poissons Ratio (x) = 0.06112 -0.03596
# Poissons Ratio (y) = 0.05557 -0.04531
# Poissons Ratio (z) = -0.03056 -0.04235
#
# Static dielectric constant tensor:
#      x y z
#    x 1.857990 0.000000 0.000000 
#    y 0.000000 1.823270 0.000000 
#    z 0.000000 0.000000 1.947880 
# 
# From -- ./inp_files/5298.got.cif
#   From: 2010.05.17/outbox.cif.g08.bks.cpg/sg54_3_cif.got.tgz:5298.got - 2010.06.03 13:09:01.
