data_PCOD9424588
_publ_section_title
;
Structure prediction by ZEFSAII (Michael W. Deem and Ramdas Pophale) SiO2 
 PCOD9424588
Probable space group: P C C A
;
_chemical_formula_sum "Si O2"
_cell_formula_units_Z 24
_cell_length_a 6.234513
_cell_length_b 9.840792
_cell_length_c 14.493136
_cell_angle_alpha 90.000000
_cell_angle_beta 90.000000
_cell_angle_gamma 90.000000
_cell_volume 889.190788
_symmetry_space_group_name_H-M "P C C A"
_symmetry_group_IT_number 54
_symmetry_cell_setting 'orthorhombic'
loop_
_space_group_symop_operation_xyz
x,y,z
1/2-x,-y,z
1/2+x,-y,1/2-z
-x,y,1/2-z
-x,-y,-z
1/2+x,y,-z
1/2-x,y,1/2+z
x,-y,1/2+z
loop_
_atom_site_type_symbol
_atom_site_label
_atom_site_fract_x
_atom_site_fract_y
_atom_site_fract_z
Si Si1 0.810577 0.852499 0.611746
Si Si2 0.931286 0.592459 0.086294
Si Si3 0.698495 0.263473 0.802590
O O1 0.695702 0.729695 0.559047
O O2 0.723657 0.830251 0.717559
O O3 0.063904 0.827763 0.625262
O O4 0.750000 0.000000 0.577895
O O5 0.750000 0.500000 0.134011
O O6 0.128745 0.642519 0.148600
O O7 0.000000 0.500000 0.000000
O O8 0.500000 0.338118 0.750000
#
# Coordination Sequence:
#
# PCOD9424588 Si02
#       3
#     8   8   8
#     4   9  22  46  84 120 153 203 282 366 429 500
#     4  12  28  46  75 113 173 231 270 337 434 539
#     4   8  23  43  80 124 152 207 281 362 419 497
#
# _framework density 26.990832999999999
#
# number of rings (size 3 to 8) (size 9 to 14) (size 15 to 20)
#    2.000    0.000    0.000    1.000   14.000    0.000 
#   12.000    3.333    0.000    0.000    0.000    0.000 
#    0.000    0.000    0.000    0.000    0.000    0.000 
#
# Total GULP energy -134068.197992 kJ/mol
# GULP energy per Si atom -5586.174916 kJ/mol
# Density = 2.692940 g / cm^3
# Si number density = 26.990833 Si / 1000 Ang^3
#
#
#
# Elastic Constant Matrix: (Units=GPa)
#
#
# Indices 1 2 3 4 5 6 
#
# 1 112.4450 54.1958 16.3556 0.0000 0.0000 0.0000
# 2 54.1958 216.3759 40.7972 0.0000 0.0000 0.0000
# 3 16.3556 40.7972 78.7249 0.0000 0.0000 0.0000
# 4 0.0000 0.0000 0.0000 27.2929 0.0000 0.0000
# 5 0.0000 0.0000 0.0000 0.0000 40.2150 0.0000
# 6 0.0000 0.0000 0.0000 0.0000 0.0000 32.8040
#
#
#
# Elastic Compliance Matrix: (Units=1/GPa)
#
#
# Indices 1 2 3 4 5 6 
#
# 1 0.010169 -0.002381 -0.000879 0.000000 0.000000 0.000000
# 2 -0.002381 0.005680 -0.002449 0.000000 0.000000 0.000000
# 3 -0.000879 -0.002449 0.014154 0.000000 0.000000 0.000000
# 4 0.000000 0.000000 0.000000 0.036640 0.000000 0.000000
# 5 0.000000 0.000000 0.000000 0.000000 0.024866 0.000000
# 6 0.000000 0.000000 0.000000 0.000000 0.000000 0.030484
#
#
# Mechanical properties :
#
#
# Convention : Reuss Voigt Hill
#
# Bulk Modulus (GPa) = 53.80576 70.02700 61.91638
# Shear Modulus (GPa) = 35.81543 39.80885 37.81214
#
# Velocity S-wave (km/s) = 3.64668 3.84461 3.74695
# Velocity P-wave (km/s) = 6.14078 6.76085 6.45826
#
# Compressibility (1/GPa) = 0.01858537
#
# Stress axis : x y z
#
# Youngs Moduli (GPa) = 98.34024 176.06484 70.65171
#
# Poissons Ratio (x) = 0.41927 0.06207
# Poissons Ratio (y) = 0.23418 0.17300
# Poissons Ratio (z) = 0.08640 0.43112
#
# Static dielectric constant tensor:
#      x y z
#    x 2.263100 0.000000 0.000000 
#    y 0.000000 2.063030 0.000000 
#    z 0.000000 0.000000 2.184030 
# 
# From -- ./inp_files/16904.got.cif
#   From: 2010.05.17/outbox.cif.g08.bks.cpg/sg54_9_cif.got.tgz:16904.got - 2010.06.03 13:09:01.
