data_PCOD9424214
_publ_section_title
;
Structure prediction by ZEFSAII (Michael W. Deem and Ramdas Pophale) SiO2 
 PCOD9424214
Probable space group: P C C A
;
_chemical_formula_sum "Si O2"
_cell_formula_units_Z 60
_cell_length_a 14.080322
_cell_length_b 12.857218
_cell_length_c 14.834946
_cell_angle_alpha 90.000000
_cell_angle_beta 90.000000
_cell_angle_gamma 90.000000
_cell_volume 2685.626194
_symmetry_space_group_name_H-M "P C C A"
_symmetry_group_IT_number 54
_symmetry_cell_setting 'orthorhombic'
loop_
_space_group_symop_operation_xyz
x,y,z
1/2-x,-y,z
1/2+x,-y,1/2-z
-x,y,1/2-z
-x,-y,-z
1/2+x,y,-z
1/2-x,y,1/2+z
x,-y,1/2+z
loop_
_atom_site_type_symbol
_atom_site_label
_atom_site_fract_x
_atom_site_fract_y
_atom_site_fract_z
Si Si1 0.021480 0.411472 0.929226
Si Si2 0.273062 0.196115 0.037875
Si Si3 0.103971 0.754882 0.862605
Si Si4 0.571671 0.784650 0.498843
Si Si5 0.687228 0.411243 0.395418
Si Si6 0.548180 0.939166 0.915141
Si Si7 0.646189 0.524883 0.206638
Si Si8 0.500000 0.083873 0.750000
O O1 0.064250 0.460324 0.840766
O O2 0.915611 0.367395 0.924064
O O3 0.000000 0.500000 0.000000
O O4 0.096161 0.329810 0.966839
O O5 0.165862 0.155518 0.028918
O O6 0.261079 0.299447 0.101646
O O7 0.347853 0.110033 0.071354
O O8 0.314305 0.227234 0.938057
O O9 0.121362 0.645378 0.812112
O O10 0.085006 0.844245 0.789069
O O11 0.494546 0.764118 0.420290
O O12 0.537817 0.989088 0.329403
O O13 0.521370 0.839535 0.583480
O O14 0.750000 0.500000 0.446183
O O15 0.657703 0.479598 0.307417
O O16 0.500000 0.000000 0.000000
O O17 0.750000 0.500000 0.165526
#
# Coordination Sequence:
#
# PCOD9424214 Si02
#       8
#     8   8   8   8   8   8   8   4
#     4  12  21  38  66 100 138 196 236 288 369 438
#     4  11  23  47  76 103 148 188 253 298 373 453
#     4  11  24  46  69 104 143 200 238 302 373 450
#     4  11  23  44  77 102 142 197 247 297 376 453
#     4  11  24  40  64 105 148 187 235 298 362 447
#     4  11  24  51  73 107 139 191 248 319 371 434
#     4  11  25  41  64 103 151 186 243 300 362 453
#     4  12  26  48  80 102 154 186 256 324 382 444
#
# _framework density 22.341159000000001
#
# number of rings (size 3 to 8) (size 9 to 14) (size 15 to 20)
#    0.000    0.800    6.667    2.000    1.867    3.733 
#    0.000    2.667    0.000    0.000    0.000    0.000 
#    0.000    0.000    0.000    0.000    0.000    0.000 
#
# Total GULP energy -334388.750363 kJ/mol
# GULP energy per Si atom -5573.145839 kJ/mol
# Density = 2.229031 g / cm^3
# Si number density = 22.341159 Si / 1000 Ang^3
#
#
#
# Elastic Constant Matrix: (Units=GPa)
#
#
# Indices 1 2 3 4 5 6 
#
# 1 143.1802 36.9361 21.6315 0.0000 0.0000 0.0000
# 2 36.9361 136.8425 54.9969 0.0000 0.0000 0.0000
# 3 21.6315 54.9969 105.2821 0.0000 0.0000 0.0000
# 4 0.0000 0.0000 0.0000 42.0572 0.0000 0.0000
# 5 0.0000 0.0000 0.0000 0.0000 20.5752 0.0000
# 6 0.0000 0.0000 0.0000 0.0000 0.0000 37.6400
#
#
#
# Elastic Compliance Matrix: (Units=1/GPa)
#
#
# Indices 1 2 3 4 5 6 
#
# 1 0.007538 -0.001788 -0.000615 0.000000 0.000000 0.000000
# 2 -0.001788 0.009673 -0.004686 0.000000 0.000000 0.000000
# 3 -0.000615 -0.004686 0.012072 0.000000 0.000000 0.000000
# 4 0.000000 0.000000 0.000000 0.023777 0.000000 0.000000
# 5 0.000000 0.000000 0.000000 0.000000 0.048602 0.000000
# 6 0.000000 0.000000 0.000000 0.000000 0.000000 0.026567
#
#
# Mechanical properties :
#
#
# Convention : Reuss Voigt Hill
#
# Bulk Modulus (GPa) = 66.19373 68.04821 67.12097
# Shear Modulus (GPa) = 33.91126 38.17050 36.04088
#
# Velocity S-wave (km/s) = 3.90023 4.13792 4.02083
# Velocity P-wave (km/s) = 7.06932 7.30443 7.18783
#
# Compressibility (1/GPa) = 0.01510717
#
# Stress axis : x y z
#
# Youngs Moduli (GPa) = 132.65678 103.37616 82.83310
#
# Poissons Ratio (x) = 0.18479 0.05095
# Poissons Ratio (y) = 0.23712 0.38815
# Poissons Ratio (z) = 0.08159 0.48441
#
# Static dielectric constant tensor:
#      x y z
#    x 1.827800 0.000000 0.000000 
#    y 0.000000 1.645200 0.000000 
#    z 0.000000 0.000000 1.851910 
# 
# From -- ./inp_files/13612.got.cif
#   From: 2010.05.17/outbox.cif.g08.bks.cpg/sg54_7_cif.got.tgz:13612.got - 2010.06.03 13:09:01.
