data_PCOD9424682
_publ_section_title
;
Structure prediction by ZEFSAII (Michael W. Deem and Ramdas Pophale) SiO2 
 PCOD9424682
Probable space group: P C C A
;
_chemical_formula_sum "Si O2"
_cell_formula_units_Z 56
_cell_length_a 12.000000
_cell_length_b 15.000000
_cell_length_c 15.000000
_cell_angle_alpha 90.000000
_cell_angle_beta 90.000000
_cell_angle_gamma 90.000000
_cell_volume 2700.000000
_symmetry_space_group_name_H-M "P C C A"
_symmetry_group_IT_number 54
_symmetry_cell_setting 'orthorhombic'
loop_
_space_group_symop_operation_xyz
x,y,z
1/2-x,-y,z
1/2+x,-y,1/2-z
-x,y,1/2-z
-x,-y,-z
1/2+x,y,-z
1/2-x,y,1/2+z
x,-y,1/2+z
loop_
_atom_site_type_symbol
_atom_site_label
_atom_site_fract_x
_atom_site_fract_y
_atom_site_fract_z
Si Si1 0.500209 0.606323 0.489870
Si Si2 0.399987 0.735038 0.633575
Si Si3 0.691138 0.266831 0.996976
Si Si4 0.468923 0.943544 0.647683
Si Si5 0.396801 0.443949 0.815351
Si Si6 0.644447 0.941697 0.490602
Si Si7 0.316761 0.354493 0.311143
O O1 0.500000 0.500000 0.500000
O O2 0.474100 0.662737 0.579301
O O3 0.613295 0.653856 0.460303
O O4 0.417111 0.610977 0.406277
O O5 0.297239 0.734056 0.565899
O O6 0.436629 0.838401 0.640335
O O7 0.378188 0.697989 0.732508
O O8 0.648766 0.165468 0.986955
O O9 0.702573 0.292563 0.102016
O O10 0.500000 0.961257 0.750000
O O11 0.563590 0.957677 0.573953
O O12 0.383135 0.015248 0.606212
O O13 0.500000 0.446439 0.750000
O O14 0.298708 0.389295 0.769167
O O15 0.366444 0.547361 0.836064
O O16 0.750000 0.000000 0.517694
#
# Coordination Sequence:
#
# PCOD9424682 Si02
#       7
#     8   8   8   8   8   8   8
#     4  12  24  40  70  97 139 188 228 288 347 408
#     4  12  25  43  70 100 135 183 238 283 350 424
#     4  12  24  45  70 102 137 180 236 287 353 423
#     4  11  25  47  74 105 137 181 237 288 361 436
#     4  11  23  44  62  99 145 187 235 288 349 411
#     4  11  24  46  73 104 140 178 229 298 357 422
#     4  11  25  42  67 101 139 187 240 287 343 431
#
# _framework density 20.740741
#
# number of rings (size 3 to 8) (size 9 to 14) (size 15 to 20)
#    0.000    0.571    5.714    2.571    0.000    2.286 
#    2.571    0.714    0.000    0.000    0.000    0.000 
#    0.000    0.000    0.000    0.000    0.000    0.000 
#
# Total GULP energy -311752.812747 kJ/mol
# GULP energy per Si atom -5567.014513 kJ/mol
# Density = 2.069353 g / cm^3
# Si number density = 20.740741 Si / 1000 Ang^3
#
#
#
# Elastic Constant Matrix: (Units=GPa)
#
#
# Indices 1 2 3 4 5 6 
#
# 1 77.0173 42.5553 45.6214 0.0000 0.0000 0.0000
# 2 42.5553 143.1712 60.9720 0.0000 0.0000 0.0000
# 3 45.6214 60.9720 154.5435 0.0000 0.0000 0.0000
# 4 0.0000 0.0000 0.0000 186.4122 0.0000 0.0000
# 5 0.0000 0.0000 0.0000 0.0000 -15.7065 0.0000
# 6 0.0000 0.0000 0.0000 0.0000 0.0000 17.6823
#
#
#
# Elastic Compliance Matrix: (Units=1/GPa)
#
#
# Indices 1 2 3 4 5 6 
#
# 1 0.017098 -0.003525 -0.003657 0.000000 0.000000 0.000000
# 2 -0.003525 0.009122 -0.002558 0.000000 0.000000 0.000000
# 3 -0.003657 -0.002558 0.008559 0.000000 0.000000 0.000000
# 4 0.000000 0.000000 0.000000 0.005364 0.000000 0.000000
# 5 0.000000 0.000000 0.000000 0.000000 -0.063668 0.000000
# 6 0.000000 0.000000 0.000000 0.000000 0.000000 0.056554
#
#
# Mechanical properties :
#
#
# Convention : Reuss Voigt Hill
#
# Bulk Modulus (GPa) = 65.36147 74.78105 70.07126
# Shear Modulus (GPa) = 86.79262 52.71649 69.75455
#
# Velocity S-wave (km/s) = 6.47590 5.04698 5.80557
# Velocity P-wave (km/s) = 9.35406 8.37234 8.87678
#
# Compressibility (1/GPa) = 0.01529953
#
# Stress axis : x y z
#
# Youngs Moduli (GPa) = 58.48742 109.62711 116.82997
#
# Poissons Ratio (x) = 0.38641 0.42720
# Poissons Ratio (y) = 0.20615 0.29889
# Poissons Ratio (z) = 0.21387 0.28046
#
# Static dielectric constant tensor:
#      x y z
#    x 2.013890 0.000000 0.000000 
#    y 0.000000 1.705540 0.000000 
#    z 0.000000 0.000000 1.701320 
# 
# From -- ./inp_files/12707.got.cif
#   From: 2010.05.17/outbox.ucp.g08.bks.cvg/sg54_7_cif.got.tgz:12707.got - 2010.06.11 16:34:40.
