data_PCOD9424111
_publ_section_title
;
Structure prediction by ZEFSAII (Michael W. Deem and Ramdas Pophale) SiO2 
 PCOD9424111
Probable space group: P C C A
;
_chemical_formula_sum "Si O2"
_cell_formula_units_Z 28
_cell_length_a 10.801428
_cell_length_b 9.004693
_cell_length_c 13.242516
_cell_angle_alpha 90.000000
_cell_angle_beta 90.000000
_cell_angle_gamma 90.000000
_cell_volume 1288.014026
_symmetry_space_group_name_H-M "P C C A"
_symmetry_group_IT_number 54
_symmetry_cell_setting 'orthorhombic'
loop_
_space_group_symop_operation_xyz
x,y,z
1/2-x,-y,z
1/2+x,-y,1/2-z
-x,y,1/2-z
-x,-y,-z
1/2+x,y,-z
1/2-x,y,1/2+z
x,-y,1/2+z
loop_
_atom_site_type_symbol
_atom_site_label
_atom_site_fract_x
_atom_site_fract_y
_atom_site_fract_z
Si Si1 0.137982 0.882922 0.601237
Si Si2 0.856074 0.376964 0.238791
Si Si3 0.500000 0.088327 0.250000
Si Si4 0.793862 0.829780 0.118748
O O1 0.157982 0.744877 0.673697
O O2 0.134668 0.821800 0.487470
O O3 0.250000 0.000000 0.601140
O O4 0.032111 0.980541 0.655611
O O5 0.750000 0.500000 0.248067
O O6 0.819145 0.284315 0.136460
O O7 0.000000 0.426587 0.250000
O O8 0.610806 0.188933 0.210558
O O9 0.750000 0.000000 0.129298
#
# Coordination Sequence:
#
# PCOD9424111 Si02
#       4
#     8   8   4   8
#     4  11  22  41  71 103 133 173 224 286 343 405
#     4  12  26  47  67  96 144 185 229 281 339 411
#     4  12  18  40  72 104 134 166 226 286 350 400
#     4  11  23  41  70 103 132 176 226 285 345 405
#
# _framework density 21.738893999999998
#
# number of rings (size 3 to 8) (size 9 to 14) (size 15 to 20)
#    0.000    0.571    7.143    0.857    2.000    3.429 
#    0.000    2.857    0.000    0.000    0.000    0.000 
#    0.000    0.000    0.000    0.000    0.000    0.000 
#
# Total GULP energy -156194.529500 kJ/mol
# GULP energy per Si atom -5578.376054 kJ/mol
# Density = 2.168942 g / cm^3
# Si number density = 21.738894 Si / 1000 Ang^3
#
#
#
# Elastic Constant Matrix: (Units=GPa)
#
#
# Indices 1 2 3 4 5 6 
#
# 1 141.4272 42.1104 38.1529 0.0000 0.0000 0.0000
# 2 42.1104 85.5150 -0.8931 0.0000 0.0000 0.0000
# 3 38.1529 -0.8931 98.0393 0.0000 0.0000 0.0000
# 4 0.0000 0.0000 0.0000 -4.1913 0.0000 0.0000
# 5 0.0000 0.0000 0.0000 0.0000 33.4268 0.0000
# 6 0.0000 0.0000 0.0000 0.0000 0.0000 46.3412
#
#
#
# Elastic Compliance Matrix: (Units=1/GPa)
#
#
# Indices 1 2 3 4 5 6 
#
# 1 0.009479 -0.004707 -0.003732 0.000000 0.000000 0.000000
# 2 -0.004707 0.014032 0.001959 0.000000 0.000000 0.000000
# 3 -0.003732 0.001959 0.011670 0.000000 0.000000 0.000000
# 4 0.000000 0.000000 0.000000 -0.238591 0.000000 0.000000
# 5 0.000000 0.000000 0.000000 0.000000 0.029916 0.000000
# 6 0.000000 0.000000 0.000000 0.000000 0.000000 0.021579
#
#
# Mechanical properties :
#
#
# Convention : Reuss Voigt Hill
#
# Bulk Modulus (GPa) = 44.99799 53.74688 49.37244
# Shear Modulus (GPa) = -38.00853 31.48943 -3.25955
#
# Velocity S-wave (km/s) = -4.18594 3.81008 -1.22583
# Velocity P-wave (km/s) = 1.61819 6.64328 4.55602
#
# Compressibility (1/GPa) = 0.02222322
#
# Stress axis : x y z
#
# Youngs Moduli (GPa) = 105.49742 71.26542 85.68940
#
# Poissons Ratio (x) = 0.33542 0.31977
# Poissons Ratio (y) = 0.49654 -0.16791
# Poissons Ratio (z) = 0.39368 -0.13964
#
# Static dielectric constant tensor:
#      x y z
#    x 1.892390 0.000000 0.000000 
#    y 0.000000 1.775750 0.000000 
#    z 0.000000 0.000000 1.841060 
# 
# From -- ./inp_files/12055.got.cif
#   From: 2010.05.17/outbox.cif.g08.bks.cpg/sg54_7_cif.got.tgz:12055.got - 2010.06.03 13:09:01.
