data_PCOD9424877
_publ_section_title
;
Structure prediction by ZEFSAII (Michael W. Deem and Ramdas Pophale) SiO2 
 PCOD9424877
Probable space group: P B A M
;
_chemical_formula_sum "Si O2"
_cell_formula_units_Z 48
_cell_length_a 23.759722
_cell_length_b 7.020067
_cell_length_c 13.193938
_cell_angle_alpha 90.000000
_cell_angle_beta 90.000000
_cell_angle_gamma 90.000000
_cell_volume 2200.680782
_symmetry_space_group_name_H-M "P B A M"
_symmetry_group_IT_number 55
_symmetry_cell_setting 'orthorhombic'
loop_
_space_group_symop_operation_xyz
x,y,z
-x,-y,z
1/2+x,1/2-y,-z
1/2-x,1/2+y,-z
-x,-y,-z
x,y,-z
1/2-x,1/2+y,z
1/2+x,1/2-y,z
loop_
_atom_site_type_symbol
_atom_site_label
_atom_site_fract_x
_atom_site_fract_y
_atom_site_fract_z
Si Si1 0.830521 0.121754 0.000000
Si Si2 0.982732 0.724361 0.117432
Si Si3 0.865388 0.625966 0.802975
Si Si4 0.831493 0.115166 0.614030
Si Si5 0.799549 0.562948 0.000000
Si Si6 0.398637 0.326353 0.194574
Si Si7 0.296328 0.944412 0.614261
O O1 0.823535 0.350312 0.000000
O O2 0.864746 0.081047 0.898425
O O3 0.767342 0.046499 0.000000
O O4 0.035627 0.827477 0.168484
O O5 0.000000 0.500000 0.114197
O O6 0.924278 0.730970 0.177644
O O7 0.975117 0.782781 0.000000
O O8 0.823951 0.657106 0.898362
O O9 0.880891 0.398927 0.802673
O O10 0.832526 0.663380 0.698703
O O11 0.846322 0.052118 0.500000
O O12 0.877990 0.086821 0.699721
O O13 0.769362 0.039904 0.643234
O O14 0.820792 0.343062 0.609237
O O15 0.297876 0.862688 0.500000
#
# Coordination Sequence:
#
# PCOD9424877 Si02
#       7
#     4   8   8   8   4   8   8
#     4  10  18  27  41  63  87 108 135 174 212 248
#     4   9  14  24  41  61  85 114 142 171 211 255
#     4   9  16  26  41  62  86 110 141 176 209 248
#     4   9  17  29  44  63  88 115 141 172 211 253
#     4  10  18  27  41  63  87 108 135 174 212 248
#     4   9  16  26  41  62  86 110 141 176 209 248
#     4   9  17  29  44  63  88 115 141 172 211 253
#
# _framework density 21.811430999999999
#
# number of rings (size 3 to 8) (size 9 to 14) (size 15 to 20)
#    0.000    2.833    1.667    1.000    0.000    0.000 
#    0.000    0.833    0.000    5.000    0.000    5.833 
#    0.000    5.333    0.000    0.000    0.000    0.000 
#
# Total GULP energy -268389.261896 kJ/mol
# GULP energy per Si atom -5591.442956 kJ/mol
# Density = 2.176179 g / cm^3
# Si number density = 21.811431 Si / 1000 Ang^3
#
#
#
# Elastic Constant Matrix: (Units=GPa)
#
#
# Indices 1 2 3 4 5 6 
#
# 1 167.4508 21.4960 112.2896 0.0000 0.0000 0.0000
# 2 21.4960 70.1829 16.2038 0.0000 0.0000 0.0000
# 3 112.2896 16.2038 160.1173 0.0000 0.0000 0.0000
# 4 0.0000 0.0000 0.0000 -1.4073 0.0000 0.0000
# 5 0.0000 0.0000 0.0000 0.0000 -46.6875 0.0000
# 6 0.0000 0.0000 0.0000 0.0000 0.0000 27.8559
#
#
#
# Elastic Compliance Matrix: (Units=1/GPa)
#
#
# Indices 1 2 3 4 5 6 
#
# 1 0.011467 -0.001695 -0.007870 0.000000 0.000000 0.000000
# 2 -0.001695 0.014840 -0.000313 0.000000 0.000000 0.000000
# 3 -0.007870 -0.000313 0.011797 0.000000 0.000000 0.000000
# 4 0.000000 0.000000 0.000000 -0.710599 0.000000 0.000000
# 5 0.000000 0.000000 0.000000 0.000000 -0.021419 0.000000
# 6 0.000000 0.000000 0.000000 0.000000 0.000000 0.035899
#
#
# Mechanical properties :
#
#
# Convention : Reuss Voigt Hill
#
# Bulk Modulus (GPa) = 54.50567 77.52552 66.01560
# Shear Modulus (GPa) = -7.90961 12.46968 2.28003
#
# Velocity S-wave (km/s) = -1.90637 2.39363 1.02353
# Velocity P-wave (km/s) = 4.49423 6.57723 5.63285
#
# Compressibility (1/GPa) = 0.01834671
#
# Stress axis : x y z
#
# Youngs Moduli (GPa) = 87.20485 67.38565 84.77042
#
# Poissons Ratio (x) = 0.11423 0.66718
# Poissons Ratio (y) = 0.14782 0.02653
# Poissons Ratio (z) = 0.68634 0.02109
#
# Static dielectric constant tensor:
#      x y z
#    x 1.754940 0.000000 0.000000 
#    y 0.000000 1.904950 0.000000 
#    z 0.000000 0.000000 1.767180 
# 
# From -- ./inp_files/12285.got.cif
#   From: 2010.05.17/outbox.cif.g08.bks.cpg/sg55_7_cif.got.tgz:12285.got - 2010.06.03 13:27:54.
