data_PCOD9424551
_publ_section_title
;
Structure prediction by ZEFSAII (Michael W. Deem and Ramdas Pophale) SiO2 
 PCOD9424551
Probable space group: P C C A
;
_chemical_formula_sum "Si O2"
_cell_formula_units_Z 32
_cell_length_a 9.331849
_cell_length_b 14.050729
_cell_length_c 9.639979
_cell_angle_alpha 90.000000
_cell_angle_beta 90.000000
_cell_angle_gamma 90.000000
_cell_volume 1263.987119
_symmetry_space_group_name_H-M "P C C A"
_symmetry_group_IT_number 54
_symmetry_cell_setting 'orthorhombic'
loop_
_space_group_symop_operation_xyz
x,y,z
1/2-x,-y,z
1/2+x,-y,1/2-z
-x,y,1/2-z
-x,-y,-z
1/2+x,y,-z
1/2-x,y,1/2+z
x,-y,1/2+z
loop_
_atom_site_type_symbol
_atom_site_label
_atom_site_fract_x
_atom_site_fract_y
_atom_site_fract_z
Si Si1 0.500000 0.616564 0.750000
Si Si2 0.439883 0.670146 0.046512
Si Si3 0.750000 0.500000 0.829597
Si Si4 0.650076 0.908530 0.823424
Si Si5 0.693113 0.209352 0.583291
O O1 0.516521 0.665499 0.895716
O O2 0.645534 0.559452 0.733705
O O3 0.575435 0.712543 0.129722
O O4 0.361216 0.571622 0.091212
O O5 0.313583 0.742863 0.013394
O O6 0.500000 0.931440 0.750000
O O7 0.731124 0.836985 0.716463
O O8 0.623869 0.866910 0.977851
O O9 0.750000 0.000000 0.837463
#
# Coordination Sequence:
#
# PCOD9424551 Si02
#       5
#     4   8   4   8   8
#     4  12  26  46  66 100 148 192 252 318 372 450
#     4  12  26  48  71 108 148 201 255 309 382 445
#     4  12  28  44  72 104 150 202 254 316 382 444
#     4  12  29  52  78 117 155 197 254 319 393 465
#     4  12  27  49  80 108 154 201 253 316 377 463
#
# _framework density 25.316714000000001
#
# number of rings (size 3 to 8) (size 9 to 14) (size 15 to 20)
#    0.000    0.000    5.000    3.750    7.000    2.000 
#    0.000    0.000    0.000    0.000    0.000    0.000 
#    0.000    0.000    0.000    0.000    0.000    0.000 
#
# Total GULP energy -179058.796384 kJ/mol
# GULP energy per Si atom -5595.587387 kJ/mol
# Density = 2.525909 g / cm^3
# Si number density = 25.316714 Si / 1000 Ang^3
#
#
#
# Elastic Constant Matrix: (Units=GPa)
#
#
# Indices 1 2 3 4 5 6 
#
# 1 161.3425 41.8571 10.7549 0.0000 0.0000 0.0000
# 2 41.8571 78.9107 10.7492 0.0000 0.0000 0.0000
# 3 10.7549 10.7492 71.7080 0.0000 0.0000 0.0000
# 4 0.0000 0.0000 0.0000 15.9642 0.0000 0.0000
# 5 0.0000 0.0000 0.0000 0.0000 125.7303 0.0000
# 6 0.0000 0.0000 0.0000 0.0000 0.0000 50.7907
#
#
#
# Elastic Compliance Matrix: (Units=1/GPa)
#
#
# Indices 1 2 3 4 5 6 
#
# 1 0.007206 -0.003752 -0.000518 0.000000 0.000000 0.000000
# 2 -0.003752 0.014890 -0.001669 0.000000 0.000000 0.000000
# 3 -0.000518 -0.001669 0.014273 0.000000 0.000000 0.000000
# 4 0.000000 0.000000 0.000000 0.062640 0.000000 0.000000
# 5 0.000000 0.000000 0.000000 0.000000 0.007954 0.000000
# 6 0.000000 0.000000 0.000000 0.000000 0.000000 0.019689
#
#
# Mechanical properties :
#
#
# Convention : Reuss Voigt Hill
#
# Bulk Modulus (GPa) = 40.83212 48.74260 44.78736
# Shear Modulus (GPa) = 34.08461 55.07038 44.57750
#
# Velocity S-wave (km/s) = 3.67322 4.66903 4.20073
# Velocity P-wave (km/s) = 5.84410 6.95423 6.42320
#
# Compressibility (1/GPa) = 0.02449053
#
# Stress axis : x y z
#
# Youngs Moduli (GPa) = 138.77648 67.15938 70.06020
#
# Poissons Ratio (x) = 0.25196 0.03632
# Poissons Ratio (y) = 0.52064 0.11696
# Poissons Ratio (z) = 0.07194 0.11211
#
# Static dielectric constant tensor:
#      x y z
#    x 1.864280 0.000000 0.000000 
#    y 0.000000 2.197010 0.000000 
#    z 0.000000 0.000000 2.004210 
# 
# From -- ./inp_files/6757.got.cif
#   From: 2010.05.17/outbox.cif.g08.bks.cpg/sg54_4_cif.got.tgz:6757.got - 2010.06.03 13:09:01.
