data_PCOD9424354
_publ_section_title
;
Structure prediction by ZEFSAII (Michael W. Deem and Ramdas Pophale) SiO2 
 PCOD9424354
Probable space group: P C C A
;
_chemical_formula_sum "Si O2"
_cell_formula_units_Z 32
_cell_length_a 14.793562
_cell_length_b 6.448239
_cell_length_c 16.607755
_cell_angle_alpha 90.000000
_cell_angle_beta 90.000000
_cell_angle_gamma 90.000000
_cell_volume 1584.253997
_symmetry_space_group_name_H-M "P C C A"
_symmetry_group_IT_number 54
_symmetry_cell_setting 'orthorhombic'
loop_
_space_group_symop_operation_xyz
x,y,z
1/2-x,-y,z
1/2+x,-y,1/2-z
-x,y,1/2-z
-x,-y,-z
1/2+x,y,-z
1/2-x,y,1/2+z
x,-y,1/2+z
loop_
_atom_site_type_symbol
_atom_site_label
_atom_site_fract_x
_atom_site_fract_y
_atom_site_fract_z
Si Si1 0.966969 0.798141 0.048108
Si Si2 0.250000 0.500000 0.707491
Si Si3 0.575451 0.435755 0.888342
Si Si4 0.000000 0.164010 0.250000
Si Si5 0.840980 0.125908 0.697456
O O1 0.890156 0.840171 0.112997
O O2 0.044131 0.673580 0.098168
O O3 0.928951 0.654861 0.977400
O O4 0.000000 0.000000 0.000000
O O5 0.173228 0.596162 0.650614
O O6 0.307817 0.662666 0.760245
O O7 0.507510 0.312672 0.828242
O O8 0.912839 0.014536 0.246602
O O9 0.750000 0.000000 0.685700
#
# Coordination Sequence:
#
# PCOD9424354 Si02
#       5
#     8   4   8   4   8
#     4  11  25  46  70 101 143 195 233 295 374 436
#     4  12  26  44  70 112 136 186 250 302 358 438
#     4  11  25  44  72 100 144 184 239 297 364 436
#     4  12  22  50  72 104 146 194 242 308 370 438
#     4  12  26  44  73 102 142 185 243 297 362 440
#
# _framework density 20.198779999999999
#
# number of rings (size 3 to 8) (size 9 to 14) (size 15 to 20)
#    0.000    0.500    5.000    3.000    0.000    3.000 
#    0.000    0.000    0.000    0.000    0.000    0.000 
#    0.000    0.000    0.000    0.000    0.000    0.000 
#
# Total GULP energy -178734.024155 kJ/mol
# GULP energy per Si atom -5585.438255 kJ/mol
# Density = 2.015281 g / cm^3
# Si number density = 20.198780 Si / 1000 Ang^3
#
#
#
# Elastic Constant Matrix: (Units=GPa)
#
#
# Indices 1 2 3 4 5 6 
#
# 1 122.5442 54.3334 38.1452 0.0000 0.0000 0.0000
# 2 54.3334 106.8534 50.7454 0.0000 0.0000 0.0000
# 3 38.1452 50.7454 118.1732 0.0000 0.0000 0.0000
# 4 0.0000 0.0000 0.0000 47.7509 0.0000 0.0000
# 5 0.0000 0.0000 0.0000 0.0000 43.1418 0.0000
# 6 0.0000 0.0000 0.0000 0.0000 0.0000 38.3897
#
#
#
# Elastic Compliance Matrix: (Units=1/GPa)
#
#
# Indices 1 2 3 4 5 6 
#
# 1 0.010718 -0.004782 -0.001406 0.000000 0.000000 0.000000
# 2 -0.004782 0.013890 -0.004421 0.000000 0.000000 0.000000
# 3 -0.001406 -0.004421 0.010814 0.000000 0.000000 0.000000
# 4 0.000000 0.000000 0.000000 0.020942 0.000000 0.000000
# 5 0.000000 0.000000 0.000000 0.000000 0.023179 0.000000
# 6 0.000000 0.000000 0.000000 0.000000 0.000000 0.026049
#
#
# Mechanical properties :
#
#
# Convention : Reuss Voigt Hill
#
# Bulk Modulus (GPa) = 70.40279 70.44652 70.42466
# Shear Modulus (GPa) = 38.00947 39.47959 38.74453
#
# Velocity S-wave (km/s) = 4.34264 4.42583 4.38443
# Velocity P-wave (km/s) = 7.75083 7.81471 7.78283
#
# Compressibility (1/GPa) = 0.01420398
#
# Stress axis : x y z
#
# Youngs Moduli (GPa) = 93.29730 71.99507 92.46906
#
# Poissons Ratio (x) = 0.34431 0.13003
# Poissons Ratio (y) = 0.44618 0.40879
# Poissons Ratio (z) = 0.13119 0.31828
#
# Static dielectric constant tensor:
#      x y z
#    x 1.687000 0.000000 0.000000 
#    y 0.000000 1.819970 0.000000 
#    z 0.000000 0.000000 1.663940 
# 
# From -- ./inp_files/17611.got.cif
#   From: 2010.05.17/outbox.cif.g08.bks.cpg/sg54_9_cif.got.tgz:17611.got - 2010.06.03 13:09:01.
