data_PCOD9424713
_publ_section_title
;
Structure prediction by ZEFSAII (Michael W. Deem and Ramdas Pophale) SiO2 
 PCOD9424713
Probable space group: P B A M
;
_chemical_formula_sum "Si O2"
_cell_formula_units_Z 52
_cell_length_a 14.582105
_cell_length_b 5.420421
_cell_length_c 31.244385
_cell_angle_alpha 90.000000
_cell_angle_beta 90.000000
_cell_angle_gamma 90.000000
_cell_volume 2469.592064
_symmetry_space_group_name_H-M "P B A M"
_symmetry_group_IT_number 55
_symmetry_cell_setting 'orthorhombic'
loop_
_space_group_symop_operation_xyz
x,y,z
-x,-y,z
1/2+x,1/2-y,-z
1/2-x,1/2+y,-z
-x,-y,-z
x,y,-z
1/2-x,1/2+y,z
1/2+x,1/2-y,z
loop_
_atom_site_type_symbol
_atom_site_label
_atom_site_fract_x
_atom_site_fract_y
_atom_site_fract_z
Si Si1 0.856511 0.604873 0.370658
Si Si2 0.642982 0.604911 0.405139
Si Si3 0.390714 0.992701 0.182190
Si Si4 0.192078 0.990692 0.500000
Si Si5 0.689995 0.562843 0.952701
Si Si6 0.108842 0.992699 0.861123
Si Si7 0.190582 0.460194 0.725450
O O1 0.749845 0.623129 0.387999
O O2 0.897181 0.371251 0.395047
O O3 0.858422 0.549618 0.320426
O O4 0.897194 0.871124 0.380621
O O5 0.640847 0.547250 0.455323
O O6 0.355078 0.754722 0.156178
O O7 0.500000 0.000000 0.176052
O O8 0.354855 0.254324 0.164527
O O9 0.369995 0.959904 0.232069
O O10 0.233945 0.266103 0.500000
O O11 0.756694 0.324005 0.950487
O O12 0.627287 0.542756 0.911190
O O13 0.645207 0.552884 0.000000
O O14 0.000000 0.000000 0.853996
O O15 0.252006 0.213434 0.726396
#
# Coordination Sequence:
#
# PCOD9424713 Si02
#       7
#     8   8   8   4   8   8   8
#     4  10  16  27  38  56  87 115 149 195 241 278
#     4  10  16  25  36  54  88 119 152 188 239 291
#     4  10  23  39  53  75 107 138 169 217 264 297
#     4  12  16  20  34  52  74 124 156 174 224 306
#     4  10  21  36  57  85 115 141 169 211 261 301
#     4  10  21  39  58  76 104 141 176 210 254 303
#     4  12  21  32  52  76  95 128 176 207 250 305
#
# _framework density 21.056107999999998
#
# number of rings (size 3 to 8) (size 9 to 14) (size 15 to 20)
#    0.000    1.538    6.154    1.846    0.000    4.000 
#    0.000    0.000    0.000    5.538    0.000    0.000 
#    0.000    0.000    0.000    7.615    0.000    0.308 
#
# Total GULP energy -290300.004772 kJ/mol
# GULP energy per Si atom -5582.692399 kJ/mol
# Density = 2.100818 g / cm^3
# Si number density = 21.056108 Si / 1000 Ang^3
#
#
#
# Elastic Constant Matrix: (Units=GPa)
#
#
# Indices 1 2 3 4 5 6 
#
# 1 32.2312 13.9322 -3.4683 0.0000 0.0000 0.0000
# 2 13.9322 166.1631 15.2819 0.0000 0.0000 0.0000
# 3 -3.4683 15.2819 125.8349 0.0000 0.0000 0.0000
# 4 0.0000 0.0000 0.0000 44.3959 0.0000 0.0000
# 5 0.0000 0.0000 0.0000 0.0000 -62.4204 0.0000
# 6 0.0000 0.0000 0.0000 0.0000 0.0000 0.5384
#
#
#
# Elastic Compliance Matrix: (Units=1/GPa)
#
#
# Indices 1 2 3 4 5 6 
#
# 1 0.032382 -0.002829 0.001236 0.000000 0.000000 0.000000
# 2 -0.002829 0.006333 -0.000847 0.000000 0.000000 0.000000
# 3 0.001236 -0.000847 0.008084 0.000000 0.000000 0.000000
# 4 0.000000 0.000000 0.000000 0.022525 0.000000 0.000000
# 5 0.000000 0.000000 0.000000 0.000000 -0.016020 0.000000
# 6 0.000000 0.000000 0.000000 0.000000 0.000000 1.857190
#
#
# Mechanical properties :
#
#
# Convention : Reuss Voigt Hill
#
# Bulk Modulus (GPa) = 23.85550 41.74677 32.80114
# Shear Modulus (GPa) = 2.59155 16.40168 9.49662
#
# Velocity S-wave (km/s) = 1.11061 2.79400 2.12601
# Velocity P-wave (km/s) = 3.60537 5.50255 4.65171
#
# Compressibility (1/GPa) = 0.04191905
#
# Stress axis : x y z
#
# Youngs Moduli (GPa) = 30.88176 157.89625 123.70320
#
# Poissons Ratio (x) = 0.44665 -0.15290
# Poissons Ratio (y) = 0.08736 0.10479
# Poissons Ratio (z) = -0.03817 0.13375
#
# Static dielectric constant tensor:
#      x y z
#    x 2.288340 0.000000 0.000000 
#    y 0.000000 1.776560 0.000000 
#    z 0.000000 0.000000 1.741410 
# 
# From -- ./inp_files/24000.got.cif
#   From: 2010.05.17/outbox.cif.g08.bks.cpg/sg55_12_cif.got.tgz:24000.got - 2010.06.03 13:27:54.
