data_PCOD9424409
_publ_section_title
;
Structure prediction by ZEFSAII (Michael W. Deem and Ramdas Pophale) SiO2 
 PCOD9424409
Probable space group: P C C A
;
_chemical_formula_sum "Si O2"
_cell_formula_units_Z 32
_cell_length_a 9.664445
_cell_length_b 14.862267
_cell_length_c 9.981409
_cell_angle_alpha 90.000000
_cell_angle_beta 90.000000
_cell_angle_gamma 90.000000
_cell_volume 1433.685291
_symmetry_space_group_name_H-M "P C C A"
_symmetry_group_IT_number 54
_symmetry_cell_setting 'orthorhombic'
loop_
_space_group_symop_operation_xyz
x,y,z
1/2-x,-y,z
1/2+x,-y,1/2-z
-x,y,1/2-z
-x,-y,-z
1/2+x,y,-z
1/2-x,y,1/2+z
x,-y,1/2+z
loop_
_atom_site_type_symbol
_atom_site_label
_atom_site_fract_x
_atom_site_fract_y
_atom_site_fract_z
Si Si1 0.545700 0.917287 0.594133
Si Si2 0.302273 0.808650 0.484742
Si Si3 0.142537 0.728626 0.725922
Si Si4 0.910036 0.471751 0.372828
O O1 0.500000 0.930020 0.750000
O O2 0.455409 0.836979 0.528708
O O3 0.500000 0.000000 0.500000
O O4 0.293582 0.111662 0.422738
O O5 0.237504 0.779764 0.624264
O O6 0.295750 0.728339 0.375440
O O7 0.102908 0.634551 0.658018
O O8 0.000000 0.781473 0.750000
O O9 0.750000 0.500000 0.381143
O O10 0.000000 0.511356 0.250000
O O11 0.000000 0.500000 0.500000
#
# Coordination Sequence:
#
# PCOD9424409 Si02
#       4
#     8   8   8   8
#     4  12  28  45  71 103 142 195 244 310 373 444
#     4  12  25  47  71 103 143 185 250 300 369 440
#     4  11  26  45  74 106 142 189 242 307 364 449
#     4  11  27  48  74 110 151 196 248 307 381 460
#
# _framework density 22.320098999999999
#
# number of rings (size 3 to 8) (size 9 to 14) (size 15 to 20)
#    0.000    0.500    5.000    1.500   14.000    2.000 
#    0.000    0.000    0.000    0.000    0.000    0.000 
#    0.000    0.000    0.000    0.000    0.000    0.000 
#
# Total GULP energy -178567.344582 kJ/mol
# GULP energy per Si atom -5580.229518 kJ/mol
# Density = 2.226930 g / cm^3
# Si number density = 22.320099 Si / 1000 Ang^3
#
#
#
# Elastic Constant Matrix: (Units=GPa)
#
#
# Indices 1 2 3 4 5 6 
#
# 1 110.8329 -6.2019 35.3629 0.0000 0.0000 0.0000
# 2 -6.2019 41.0870 23.9932 0.0000 0.0000 0.0000
# 3 35.3629 23.9932 200.5561 0.0000 0.0000 0.0000
# 4 0.0000 0.0000 0.0000 35.7819 0.0000 0.0000
# 5 0.0000 0.0000 0.0000 0.0000 40.4576 0.0000
# 6 0.0000 0.0000 0.0000 0.0000 0.0000 32.9906
#
#
#
# Elastic Compliance Matrix: (Units=1/GPa)
#
#
# Indices 1 2 3 4 5 6 
#
# 1 0.009828 0.002683 -0.002054 0.000000 0.000000 0.000000
# 2 0.002683 0.026899 -0.003691 0.000000 0.000000 0.000000
# 3 -0.002054 -0.003691 0.005790 0.000000 0.000000 0.000000
# 4 0.000000 0.000000 0.000000 0.027947 0.000000 0.000000
# 5 0.000000 0.000000 0.000000 0.000000 0.024717 0.000000
# 6 0.000000 0.000000 0.000000 0.000000 0.000000 0.030312
#
#
# Mechanical properties :
#
#
# Convention : Reuss Voigt Hill
#
# Bulk Modulus (GPa) = 27.47796 50.97602 39.22699
# Shear Modulus (GPa) = 34.78310 41.80081 38.29196
#
# Velocity S-wave (km/s) = 3.95191 4.33227 4.14645
# Velocity P-wave (km/s) = 5.75856 6.92192 6.36687
#
# Compressibility (1/GPa) = 0.03639281
#
# Stress axis : x y z
#
# Youngs Moduli (GPa) = 101.74962 37.17605 172.71564
#
# Poissons Ratio (x) = -0.09974 0.35474
# Poissons Ratio (y) = -0.27298 0.63751
# Poissons Ratio (z) = 0.20898 0.13722
#
# Static dielectric constant tensor:
#      x y z
#    x 1.874630 0.000000 0.000000 
#    y 0.000000 1.928020 0.000000 
#    z 0.000000 0.000000 1.840660 
# 
# From -- ./inp_files/2779.got.cif
#   From: 2010.05.17/outbox.cif.g08.bks.cpg/sg54_2_cif.got.tgz:2779.got - 2010.06.03 13:09:01.
