data_PCOD9424735
_publ_section_title
;
Structure prediction by ZEFSAII (Michael W. Deem and Ramdas Pophale) SiO2 
 PCOD9424735
Probable space group: P B A M
;
_chemical_formula_sum "Si O2"
_cell_formula_units_Z 60
_cell_length_a 5.253918
_cell_length_b 13.578592
_cell_length_c 35.455237
_cell_angle_alpha 90.000000
_cell_angle_beta 90.000000
_cell_angle_gamma 90.000000
_cell_volume 2529.405288
_symmetry_space_group_name_H-M "P B A M"
_symmetry_group_IT_number 55
_symmetry_cell_setting 'orthorhombic'
loop_
_space_group_symop_operation_xyz
x,y,z
-x,-y,z
1/2+x,1/2-y,-z
1/2-x,1/2+y,-z
-x,-y,-z
x,y,-z
1/2-x,1/2+y,z
1/2+x,1/2-y,z
loop_
_atom_site_type_symbol
_atom_site_label
_atom_site_fract_x
_atom_site_fract_y
_atom_site_fract_z
Si Si1 0.670798 0.684372 0.688764
Si Si2 0.784980 0.316341 0.958516
Si Si3 0.750694 0.431150 0.500000
Si Si4 0.242239 0.815064 0.770683
Si Si5 0.145168 0.369361 0.390190
Si Si6 0.555892 0.612723 0.151497
Si Si7 0.054827 0.611934 0.880266
Si Si8 0.644500 0.356482 0.579730
O O1 0.385784 0.728507 0.687378
O O2 0.707215 0.635418 0.729679
O O3 0.741378 0.623977 0.651640
O O4 0.009608 0.234820 0.956661
O O5 0.834255 0.382940 0.922211
O O6 0.806963 0.364609 0.000000
O O7 0.500000 0.500000 0.500000
O O8 0.743501 0.363348 0.537276
O O9 0.000000 0.500000 0.500000
O O10 0.526075 0.770778 0.771855
O O11 0.174879 0.878872 0.807096
O O12 0.108250 0.253571 0.403090
O O13 0.365573 0.403646 0.418124
O O14 0.860374 0.407512 0.394723
O O15 0.500000 0.500000 0.141551
O O16 0.769528 0.654428 0.123099
O O17 0.270899 0.655279 0.147402
O O18 0.000000 0.500000 0.868933
#
# Coordination Sequence:
#
# PCOD9424735 Si02
#       8
#     8   8   4   8   8   8   8   8
#     4  10  16  30  50  83 113 129 158 211 275 321
#     4  10  21  36  54  80 110 142 176 227 288 337
#     4  12  26  42  52  72 110 156 186 210 256 318
#     4  10  21  32  53  83 112 143 178 224 274 334
#     4  10  17  32  57  89 101 123 168 224 284 299
#     4  10  21  37  53  76 111 147 185 224 275 328
#     4  10  21  36  56  77 103 145 189 231 269 323
#     4  10  20  33  57  79 105 136 169 221 263 315
#
# _framework density 23.72099
#
# number of rings (size 3 to 8) (size 9 to 14) (size 15 to 20)
#    0.000    1.867    2.667    2.400    0.000    5.600 
#    0.000    0.000    0.000    7.200    0.000    0.000 
#    0.000    0.000    0.000    0.000    0.000    0.000 
#
# Total GULP energy -334900.993688 kJ/mol
# GULP energy per Si atom -5581.683228 kJ/mol
# Density = 2.366700 g / cm^3
# Si number density = 23.720990 Si / 1000 Ang^3
#
#
#
# Elastic Constant Matrix: (Units=GPa)
#
#
# Indices 1 2 3 4 5 6 
#
# 1 144.8894 3.1823 17.2350 0.0000 0.0000 0.0000
# 2 3.1823 42.1431 -14.9693 0.0000 0.0000 0.0000
# 3 17.2350 -14.9693 151.0001 0.0000 0.0000 0.0000
# 4 0.0000 0.0000 0.0000 20.0199 0.0000 0.0000
# 5 0.0000 0.0000 0.0000 0.0000 37.7401 0.0000
# 6 0.0000 0.0000 0.0000 0.0000 0.0000 22.4276
#
#
#
# Elastic Compliance Matrix: (Units=1/GPa)
#
#
# Indices 1 2 3 4 5 6 
#
# 1 0.007026 -0.000845 -0.000886 0.000000 0.000000 0.000000
# 2 -0.000845 0.024696 0.002545 0.000000 0.000000 0.000000
# 3 -0.000886 0.002545 0.006976 0.000000 0.000000 0.000000
# 4 0.000000 0.000000 0.000000 0.049950 0.000000 0.000000
# 5 0.000000 0.000000 0.000000 0.000000 0.026497 0.000000
# 6 0.000000 0.000000 0.000000 0.000000 0.000000 0.044588
#
#
# Mechanical properties :
#
#
# Convention : Reuss Voigt Hill
#
# Bulk Modulus (GPa) = 24.79800 38.76985 31.78392
# Shear Modulus (GPa) = 29.14650 38.20985 33.67818
#
# Velocity S-wave (km/s) = 3.50912 4.01784 3.77206
# Velocity P-wave (km/s) = 5.18606 6.15659 5.69205
#
# Compressibility (1/GPa) = 0.04032583
#
# Stress axis : x y z
#
# Youngs Moduli (GPa) = 142.33389 40.49171 143.35125
#
# Poissons Ratio (x) = 0.03422 0.12697
# Poissons Ratio (y) = 0.12029 -0.36479
# Poissons Ratio (z) = 0.12606 -0.10304
#
# Static dielectric constant tensor:
#      x y z
#    x 1.974100 0.000000 0.000000 
#    y 0.000000 2.091640 0.000000 
#    z 0.000000 0.000000 1.902280 
# 
# From -- ./inp_files/24113.got.cif
#   From: 2010.05.17/outbox.cif.g08.bks.cpg/sg55_13_cif.got.tgz:24113.got - 2010.06.03 13:27:54.
