data_PCOD9424896
_publ_section_title
;
Structure prediction by ZEFSAII (Michael W. Deem and Ramdas Pophale) SiO2 
 PCOD9424896
Probable space group: P B A M
;
_chemical_formula_sum "Si O2"
_cell_formula_units_Z 56
_cell_length_a 21.270628
_cell_length_b 19.076632
_cell_length_c 8.770154
_cell_angle_alpha 90.000000
_cell_angle_beta 90.000000
_cell_angle_gamma 90.000000
_cell_volume 3558.682427
_symmetry_space_group_name_H-M "P B A M"
_symmetry_group_IT_number 55
_symmetry_cell_setting 'orthorhombic'
loop_
_space_group_symop_operation_xyz
x,y,z
-x,-y,z
1/2+x,1/2-y,-z
1/2-x,1/2+y,-z
-x,-y,-z
x,y,-z
1/2-x,1/2+y,z
1/2+x,1/2-y,z
loop_
_atom_site_type_symbol
_atom_site_label
_atom_site_fract_x
_atom_site_fract_y
_atom_site_fract_z
Si Si1 0.251847 0.924075 0.315582
Si Si2 0.743251 0.917102 0.683736
Si Si3 0.815638 0.286037 0.819478
Si Si4 0.308808 0.784396 0.683439
Si Si5 0.002060 0.918442 0.181910
Si Si6 0.120642 0.151264 0.681924
Si Si7 0.623873 0.655773 0.682733
O O1 0.249411 0.928467 0.500000
O O2 0.305345 0.866536 0.277960
O O3 0.184621 0.891014 0.267997
O O4 0.262076 0.002929 0.260859
O O5 0.737011 0.914423 0.500000
O O6 0.692502 0.864213 0.754543
O O7 0.813806 0.888721 0.718040
O O8 0.750201 0.249590 0.769023
O O9 0.866990 0.234190 0.747040
O O10 0.822045 0.287235 0.000000
O O11 0.297332 0.778083 0.500000
O O12 0.367135 0.733636 0.716538
O O13 0.060848 0.880136 0.259029
O O14 0.937485 0.881546 0.230869
O O15 0.009435 0.915529 0.000000
O O16 0.000000 0.000000 0.229002
O O17 0.110333 0.144106 0.500000
O O18 0.624702 0.658682 0.500000
#
# Coordination Sequence:
#
# PCOD9424896 Si02
#       7
#     8   8   8   8   8   8   8
#     4   8  14  26  47  70  89 112 145 187 225 258
#     4   9  16  28  46  68  92 118 149 182 219 263
#     4  10  18  28  43  65  92 119 147 182 226 269
#     4   8  15  29  46  65  88 116 152 188 222 263
#     4  11  23  34  44  64  94 123 152 188 227 267
#     4   9  17  29  45  64  89 122 158 189 215 258
#     4  10  19  33  50  65  86 120 159 192 223 263
#
# _framework density 15.736162
#
# number of rings (size 3 to 8) (size 9 to 14) (size 15 to 20)
#    0.000    2.714    0.000    4.714    0.000    4.571 
#    0.000    3.571    0.000    0.000    0.000    1.000 
#    0.000    8.000    0.000    0.000    0.000    0.000 
#
# Total GULP energy -311853.229603 kJ/mol
# GULP energy per Si atom -5568.807671 kJ/mol
# Density = 1.570035 g / cm^3
# Si number density = 15.736162 Si / 1000 Ang^3
#
#
#
# Elastic Constant Matrix: (Units=GPa)
#
#
# Indices 1 2 3 4 5 6 
#
# 1 62.3295 58.6555 31.3358 0.0000 0.0000 0.0000
# 2 58.6555 164.7317 43.0923 0.0000 0.0000 0.0000
# 3 31.3358 43.0923 39.6278 0.0000 0.0000 0.0000
# 4 0.0000 0.0000 0.0000 15.7574 0.0000 0.0000
# 5 0.0000 0.0000 0.0000 0.0000 10.0912 0.0000
# 6 0.0000 0.0000 0.0000 0.0000 0.0000 23.6873
#
#
#
# Elastic Compliance Matrix: (Units=1/GPa)
#
#
# Indices 1 2 3 4 5 6 
#
# 1 0.030840 -0.006431 -0.017394 0.000000 0.000000 0.000000
# 2 -0.006431 0.009825 -0.005598 0.000000 0.000000 0.000000
# 3 -0.017394 -0.005598 0.045077 0.000000 0.000000 0.000000
# 4 0.000000 0.000000 0.000000 0.063462 0.000000 0.000000
# 5 0.000000 0.000000 0.000000 0.000000 0.099096 0.000000
# 6 0.000000 0.000000 0.000000 0.000000 0.000000 0.042217
#
#
# Mechanical properties :
#
#
# Convention : Reuss Voigt Hill
#
# Bulk Modulus (GPa) = 37.18091 59.20624 48.19357
# Shear Modulus (GPa) = 13.95366 18.81421 16.38393
#
# Velocity S-wave (km/s) = 2.98102 3.46150 3.23021
# Velocity P-wave (km/s) = 5.96051 7.32680 6.67868
#
# Compressibility (1/GPa) = 0.02689552
#
# Stress axis : x y z
#
# Youngs Moduli (GPa) = 32.42490 101.78223 22.18447
#
# Poissons Ratio (x) = 0.65459 0.38587
# Poissons Ratio (y) = 0.20853 0.12420
# Poissons Ratio (z) = 0.56399 0.56981
#
# Static dielectric constant tensor:
#      x y z
#    x 1.501220 0.000000 0.000000 
#    y 0.000000 1.568530 0.000000 
#    z 0.000000 0.000000 1.524410 
# 
# From -- ./inp_files/8889.got.cif
#   From: 2010.05.17/outbox.cif.g08.bks.cpg/sg55_5_cif.got.tgz:8889.got - 2010.06.03 13:27:54.
