data_PCOD9424532
_publ_section_title
;
Structure prediction by ZEFSAII (Michael W. Deem and Ramdas Pophale) SiO2 
 PCOD9424532
Probable space group: P C C A
;
_chemical_formula_sum "Si O2"
_cell_formula_units_Z 32
_cell_length_a 4.757781
_cell_length_b 7.968815
_cell_length_c 35.654432
_cell_angle_alpha 90.000000
_cell_angle_beta 90.000000
_cell_angle_gamma 90.000000
_cell_volume 1351.797735
_symmetry_space_group_name_H-M "P C C A"
_symmetry_group_IT_number 54
_symmetry_cell_setting 'orthorhombic'
loop_
_space_group_symop_operation_xyz
x,y,z
1/2-x,-y,z
1/2+x,-y,1/2-z
-x,y,1/2-z
-x,-y,-z
1/2+x,y,-z
1/2-x,y,1/2+z
x,-y,1/2+z
loop_
_atom_site_type_symbol
_atom_site_label
_atom_site_fract_x
_atom_site_fract_y
_atom_site_fract_z
Si Si1 0.250000 0.500000 0.723811
Si Si2 0.179670 0.243745 0.165930
Si Si3 0.250000 0.000000 0.224231
Si Si4 0.030957 0.339237 0.905488
Si Si5 0.250000 0.500000 0.029032
Si Si6 0.250000 0.000000 0.379048
O O1 0.500000 0.572345 0.750000
O O2 0.426800 0.383039 0.694708
O O3 0.357465 0.329383 0.133197
O O4 0.365070 0.140183 0.195941
O O5 0.967748 0.110508 0.146535
O O6 0.500000 0.934982 0.250000
O O7 0.250000 0.500000 0.905809
O O8 0.150152 0.151553 0.905477
O O9 0.824300 0.356718 0.940796
O O10 0.500000 0.500000 0.000000
#
# Coordination Sequence:
#
# PCOD9424532 Si02
#       6
#     4   8   4   8   4   4
#     4  12  29  46  71 110 158 218 280 346 427 488
#     4  12  26  46  73 111 156 215 276 344 400 492
#     4  12  25  44  68 103 156 208 262 338 407 458
#     4  12  26  50  86 121 163 215 272 330 409 496
#     4  12  27  54  85 124 170 214 258 330 419 502
#     4  12  25  48  82 123 156 202 292 332 401 482
#
# _framework density 23.672183
#
# number of rings (size 3 to 8) (size 9 to 14) (size 15 to 20)
#    0.000    0.000    3.750    6.000    5.250    0.000 
#    0.000    1.250    0.000    0.000    0.000    0.000 
#    0.000    0.000    0.000    0.000    0.000    0.000 
#
# Total GULP energy -178174.664668 kJ/mol
# GULP energy per Si atom -5567.958271 kJ/mol
# Density = 2.361830 g / cm^3
# Si number density = 23.672183 Si / 1000 Ang^3
#
#
#
# Elastic Constant Matrix: (Units=GPa)
#
#
# Indices 1 2 3 4 5 6 
#
# 1 119.6898 52.3039 65.8895 0.0000 0.0000 0.0000
# 2 52.3039 165.4362 69.0399 0.0000 0.0000 0.0000
# 3 65.8895 69.0399 191.7086 0.0000 0.0000 0.0000
# 4 0.0000 0.0000 0.0000 28.1156 0.0000 0.0000
# 5 0.0000 0.0000 0.0000 0.0000 44.3240 0.0000
# 6 0.0000 0.0000 0.0000 0.0000 0.0000 43.2347
#
#
#
# Elastic Compliance Matrix: (Units=1/GPa)
#
#
# Indices 1 2 3 4 5 6 
#
# 1 0.010961 -0.002228 -0.002965 0.000000 0.000000 0.000000
# 2 -0.002228 0.007567 -0.001959 0.000000 0.000000 0.000000
# 3 -0.002965 -0.001959 0.006941 0.000000 0.000000 0.000000
# 4 0.000000 0.000000 0.000000 0.035567 0.000000 0.000000
# 5 0.000000 0.000000 0.000000 0.000000 0.022561 0.000000
# 6 0.000000 0.000000 0.000000 0.000000 0.000000 0.023130
#
#
# Mechanical properties :
#
#
# Convention : Reuss Voigt Hill
#
# Bulk Modulus (GPa) = 89.57273 94.58902 92.08087
# Shear Modulus (GPa) = 40.07961 42.44161 41.26061
#
# Velocity S-wave (km/s) = 4.11921 4.23885 4.17945
# Velocity P-wave (km/s) = 7.78105 8.00011 7.89134
#
# Compressibility (1/GPa) = 0.01116411
#
# Stress axis : x y z
#
# Youngs Moduli (GPa) = 91.23515 132.15879 144.07579
#
# Poissons Ratio (x) = 0.29446 0.42715
# Poissons Ratio (y) = 0.20328 0.28227
# Poissons Ratio (z) = 0.27049 0.25893
#
# Static dielectric constant tensor:
#      x y z
#    x 2.056150 0.000000 0.000000 
#    y 0.000000 2.167550 0.000000 
#    z 0.000000 0.000000 1.583210 
# 
# From -- ./inp_files/26916.got.cif
#   From: 2010.05.17/outbox.cif.g08.bks.cpg/sg54_14_cif.got.tgz:26916.got - 2010.06.03 13:09:01.
