data_PCOD9424207
_publ_section_title
;
Structure prediction by ZEFSAII (Michael W. Deem and Ramdas Pophale) SiO2 
 PCOD9424207
Probable space group: P C C A
;
_chemical_formula_sum "Si O2"
_cell_formula_units_Z 40
_cell_length_a 12.304182
_cell_length_b 9.302596
_cell_length_c 14.735217
_cell_angle_alpha 90.000000
_cell_angle_beta 90.000000
_cell_angle_gamma 90.000000
_cell_volume 1686.605231
_symmetry_space_group_name_H-M "P C C A"
_symmetry_group_IT_number 54
_symmetry_cell_setting 'orthorhombic'
loop_
_space_group_symop_operation_xyz
x,y,z
1/2-x,-y,z
1/2+x,-y,1/2-z
-x,y,1/2-z
-x,-y,-z
1/2+x,y,-z
1/2-x,y,1/2+z
x,-y,1/2+z
loop_
_atom_site_type_symbol
_atom_site_label
_atom_site_fract_x
_atom_site_fract_y
_atom_site_fract_z
Si Si1 0.500000 0.983688 0.250000
Si Si2 0.283506 0.836891 0.532848
Si Si3 0.335093 0.180453 0.354643
Si Si4 0.987297 0.635017 0.432941
Si Si5 0.500000 0.475700 0.750000
Si Si6 0.328837 0.749930 0.202064
O O1 0.431658 0.074292 0.323419
O O2 0.411776 0.882905 0.202567
O O3 0.260090 0.852719 0.425848
O O4 0.401914 0.760484 0.540685
O O5 0.209915 0.734221 0.598271
O O6 0.250000 0.000000 0.566162
O O7 0.395461 0.299694 0.413341
O O8 0.277572 0.219055 0.260906
O O9 0.000000 0.500000 0.500000
O O10 0.963545 0.571418 0.333921
O O11 0.604652 0.372157 0.743638
#
# Coordination Sequence:
#
# PCOD9424207 Si02
#       6
#     4   8   8   8   4   8
#     4  11  23  44  70 104 143 183 242 308 370 449
#     4  12  26  44  71 104 140 189 248 310 377 449
#     4  12  25  44  72 101 144 194 242 306 378 448
#     4  12  27  45  67 103 142 187 245 303 369 455
#     4  11  25  44  68  98 143 189 238 306 370 437
#     4  11  24  43  70 104 141 189 245 301 373 452
#
# _framework density 23.716277999999999
#
# number of rings (size 3 to 8) (size 9 to 14) (size 15 to 20)
#    0.000    0.400    0.000    9.600    0.000   13.600 
#    0.000    0.000    0.000    0.000    0.000    0.000 
#    0.000    0.000    0.000    0.000    0.000    0.000 
#
# Total GULP energy -223063.920440 kJ/mol
# GULP energy per Si atom -5576.598011 kJ/mol
# Density = 2.366230 g / cm^3
# Si number density = 23.716278 Si / 1000 Ang^3
#
#
#
# Elastic Constant Matrix: (Units=GPa)
#
#
# Indices 1 2 3 4 5 6 
#
# 1 100.5384 49.2639 42.7999 0.0000 0.0000 0.0000
# 2 49.2639 81.1009 33.5869 0.0000 0.0000 0.0000
# 3 42.7999 33.5869 127.7956 0.0000 0.0000 0.0000
# 4 0.0000 0.0000 0.0000 11.8375 0.0000 0.0000
# 5 0.0000 0.0000 0.0000 0.0000 94.0764 0.0000
# 6 0.0000 0.0000 0.0000 0.0000 0.0000 -3.8556
#
#
#
# Elastic Compliance Matrix: (Units=1/GPa)
#
#
# Indices 1 2 3 4 5 6 
#
# 1 0.015104 -0.007944 -0.002970 0.000000 0.000000 0.000000
# 2 -0.007944 0.018015 -0.002074 0.000000 0.000000 0.000000
# 3 -0.002970 -0.002074 0.009365 0.000000 0.000000 0.000000
# 4 0.000000 0.000000 0.000000 0.084477 0.000000 0.000000
# 5 0.000000 0.000000 0.000000 0.000000 0.010630 0.000000
# 6 0.000000 0.000000 0.000000 0.000000 0.000000 -0.259360
#
#
# Mechanical properties :
#
#
# Convention : Reuss Voigt Hill
#
# Bulk Modulus (GPa) = 60.58437 62.30403 61.44420
# Shear Modulus (GPa) = -55.37722 32.66393 -11.35664
#
# Velocity S-wave (km/s) = -4.83741 3.71520 -2.19065
# Velocity P-wave (km/s) = 2.36639 6.68814 4.42331
#
# Compressibility (1/GPa) = 0.01650591
#
# Stress axis : x y z
#
# Youngs Moduli (GPa) = 66.20859 55.50930 106.78162
#
# Poissons Ratio (x) = 0.44099 0.31719
# Poissons Ratio (y) = 0.52599 0.22146
# Poissons Ratio (z) = 0.19667 0.11513
#
# Static dielectric constant tensor:
#      x y z
#    x 2.047730 0.000000 0.000000 
#    y 0.000000 2.339030 0.000000 
#    z 0.000000 0.000000 1.863930 
# 
# From -- ./inp_files/17128.got.cif
#   From: 2010.05.17/outbox.cif.g08.bks.cpg/sg54_9_cif.got.tgz:17128.got - 2010.06.03 13:09:01.
