data_PCOD9424986
_publ_section_title
;
Structure prediction by ZEFSAII (Michael W. Deem and Ramdas Pophale) SiO2 
 PCOD9424986
Probable space group: P B A M
;
_chemical_formula_sum "Si O2"
_cell_formula_units_Z 56
_cell_length_a 20.257547
_cell_length_b 17.096719
_cell_length_c 7.401345
_cell_angle_alpha 90.000000
_cell_angle_beta 90.000000
_cell_angle_gamma 90.000000
_cell_volume 2563.363980
_symmetry_space_group_name_H-M "P B A M"
_symmetry_group_IT_number 55
_symmetry_cell_setting 'orthorhombic'
loop_
_space_group_symop_operation_xyz
x,y,z
-x,-y,z
1/2+x,1/2-y,-z
1/2-x,1/2+y,-z
-x,-y,-z
x,y,-z
1/2-x,1/2+y,z
1/2+x,1/2-y,z
loop_
_atom_site_type_symbol
_atom_site_label
_atom_site_fract_x
_atom_site_fract_y
_atom_site_fract_z
Si Si1 0.978290 0.131707 0.290393
Si Si2 0.123737 0.138401 0.798559
Si Si3 0.125810 0.312518 0.779171
Si Si4 0.775685 0.173229 0.220410
Si Si5 0.859668 0.025448 0.781445
Si Si6 0.890058 0.283289 0.209748
Si Si7 0.496192 0.091325 0.778909
O O1 0.992668 0.144701 0.500000
O O2 0.931039 0.057595 0.271377
O O3 0.939237 0.208260 0.220301
O O4 0.046344 0.119322 0.190203
O O5 0.123140 0.223277 0.713519
O O6 0.155044 0.061414 0.713284
O O7 0.152898 0.147755 0.000000
O O8 0.199754 0.335679 0.727672
O O9 0.063262 0.363807 0.721164
O O10 0.121866 0.312413 0.000000
O O11 0.811704 0.094148 0.278787
O O12 0.820542 0.247551 0.282852
O O13 0.777744 0.176542 0.000000
O O14 0.857383 0.021873 0.000000
O O15 0.932206 0.357384 0.282007
O O16 0.877455 0.301652 0.000000
O O17 0.500000 0.000000 0.725339
O O18 0.494645 0.092625 0.000000
#
# Coordination Sequence:
#
# PCOD9424986 Si02
#       7
#     8   8   8   8   8   8   8
#     4  11  20  29  47  73  98 123 158 202 244 283
#     4  10  18  30  48  69  96 132 162 190 240 298
#     4   9  16  28  46  69  99 126 158 200 243 283
#     4   8  15  28  45  67  95 126 158 199 236 280
#     4   9  18  31  47  68  97 129 161 190 236 295
#     4   9  16  31  51  70  98 130 161 195 241 297
#     4   9  16  27  46  73  99 125 156 199 250 290
#
# _framework density 21.846294
#
# number of rings (size 3 to 8) (size 9 to 14) (size 15 to 20)
#    0.000    2.714    1.429    2.571    0.000    2.286 
#    2.571    0.000    0.000    3.857    0.000    0.000 
#    0.000    0.000    0.000    0.000    0.000    0.000 
#
# Total GULP energy -312148.565226 kJ/mol
# GULP energy per Si atom -5574.081522 kJ/mol
# Density = 2.179657 g / cm^3
# Si number density = 21.846294 Si / 1000 Ang^3
#
#
#
# Elastic Constant Matrix: (Units=GPa)
#
#
# Indices 1 2 3 4 5 6 
#
# 1 91.4604 41.7291 1.0610 0.0000 0.0000 0.0000
# 2 41.7291 146.4594 -3.0669 0.0000 0.0000 0.0000
# 3 1.0610 -3.0669 77.5359 0.0000 0.0000 0.0000
# 4 0.0000 0.0000 0.0000 -18.7906 0.0000 0.0000
# 5 0.0000 0.0000 0.0000 0.0000 124.9916 0.0000
# 6 0.0000 0.0000 0.0000 0.0000 0.0000 6.4304
#
#
#
# Elastic Compliance Matrix: (Units=1/GPa)
#
#
# Indices 1 2 3 4 5 6 
#
# 1 0.012575 -0.003589 -0.000314 0.000000 0.000000 0.000000
# 2 -0.003589 0.007858 0.000360 0.000000 0.000000 0.000000
# 3 -0.000314 0.000360 0.012916 0.000000 0.000000 0.000000
# 4 0.000000 0.000000 0.000000 -0.053218 0.000000 0.000000
# 5 0.000000 0.000000 0.000000 0.000000 0.008001 0.000000
# 6 0.000000 0.000000 0.000000 0.000000 0.000000 0.155511
#
#
# Mechanical properties :
#
#
# Convention : Reuss Voigt Hill
#
# Bulk Modulus (GPa) = 38.07819 43.87803 40.97811
# Shear Modulus (GPa) = 31.35124 40.90846 36.12985
#
# Velocity S-wave (km/s) = 3.79236 4.33200 4.07113
# Velocity P-wave (km/s) = 6.05342 6.71938 6.39508
#
# Compressibility (1/GPa) = 0.02626175
#
# Stress axis : x y z
#
# Youngs Moduli (GPa) = 79.52269 127.25773 77.42467
#
# Poissons Ratio (x) = 0.45678 0.02432
# Poissons Ratio (y) = 0.28544 -0.02787
# Poissons Ratio (z) = 0.02497 -0.04580
#
# Static dielectric constant tensor:
#      x y z
#    x 1.788330 0.000000 0.000000 
#    y 0.000000 1.811150 0.000000 
#    z 0.000000 0.000000 2.322750 
# 
# From -- ./inp_files/8665.got.cif
#   From: 2010.05.17/outbox.cif.g08.bks.cpg/sg55_5_cif.got.tgz:8665.got - 2010.06.03 13:27:54.
