data_PCOD9424158
_publ_section_title
;
Structure prediction by ZEFSAII (Michael W. Deem and Ramdas Pophale) SiO2 
 PCOD9424158
Probable space group: P C C A
;
_chemical_formula_sum "Si O2"
_cell_formula_units_Z 40
_cell_length_a 8.498732
_cell_length_b 10.958865
_cell_length_c 18.934259
_cell_angle_alpha 90.000000
_cell_angle_beta 90.000000
_cell_angle_gamma 90.000000
_cell_volume 1763.469793
_symmetry_space_group_name_H-M "P C C A"
_symmetry_group_IT_number 54
_symmetry_cell_setting 'orthorhombic'
loop_
_space_group_symop_operation_xyz
x,y,z
1/2-x,-y,z
1/2+x,-y,1/2-z
-x,y,1/2-z
-x,-y,-z
1/2+x,y,-z
1/2-x,y,1/2+z
x,-y,1/2+z
loop_
_atom_site_type_symbol
_atom_site_label
_atom_site_fract_x
_atom_site_fract_y
_atom_site_fract_z
Si Si1 0.049338 0.322861 0.826602
Si Si2 0.993471 0.880278 0.953144
Si Si3 0.552785 0.450400 0.923001
Si Si4 0.905664 0.235207 0.175481
Si Si5 0.820467 0.747414 0.431398
O O1 0.222676 0.269221 0.819536
O O2 0.000000 0.364516 0.750000
O O3 0.018032 0.436113 0.877718
O O4 0.922603 0.231478 0.861275
O O5 0.076235 0.880794 0.876874
O O6 0.814167 0.846895 0.938978
O O7 0.067606 0.772071 0.001843
O O8 0.000000 0.000000 0.000000
O O9 0.479695 0.342673 0.872840
O O10 0.726920 0.382732 0.931084
O O11 0.500000 0.500000 0.000000
O O12 0.000000 0.226679 0.250000
#
# Coordination Sequence:
#
# PCOD9424158 Si02
#       5
#     8   8   8   8   8
#     4  12  24  40  64 100 144 188 225 272 343 428
#     4  11  23  44  71  97 129 175 232 296 360 417
#     4  11  23  40  64  99 142 190 233 276 336 415
#     4  11  24  44  67 100 142 183 231 290 349 420
#     4  11  24  40  65 102 136 176 234 294 346 418
#
# _framework density 22.682556000000002
#
# number of rings (size 3 to 8) (size 9 to 14) (size 15 to 20)
#    0.000    0.800    0.000    9.600    0.000    4.800 
#    0.000    1.000    0.000    7.200    0.000    0.000 
#    0.000    0.000    0.000    0.000    0.000    0.000 
#
# Total GULP energy -222854.971553 kJ/mol
# GULP energy per Si atom -5571.374289 kJ/mol
# Density = 2.263093 g / cm^3
# Si number density = 22.682556 Si / 1000 Ang^3
#
#
#
# Elastic Constant Matrix: (Units=GPa)
#
#
# Indices 1 2 3 4 5 6 
#
# 1 150.9050 41.3157 77.2699 0.0000 0.0000 0.0000
# 2 41.3157 101.9718 58.2365 0.0000 0.0000 0.0000
# 3 77.2699 58.2365 238.2027 0.0000 0.0000 0.0000
# 4 0.0000 0.0000 0.0000 27.3702 0.0000 0.0000
# 5 0.0000 0.0000 0.0000 0.0000 45.3624 0.0000
# 6 0.0000 0.0000 0.0000 0.0000 0.0000 11.5260
#
#
#
# Elastic Compliance Matrix: (Units=1/GPa)
#
#
# Indices 1 2 3 4 5 6 
#
# 1 0.008326 -0.002128 -0.002181 0.000000 0.000000 0.000000
# 2 -0.002128 0.011942 -0.002229 0.000000 0.000000 0.000000
# 3 -0.002181 -0.002229 0.005450 0.000000 0.000000 0.000000
# 4 0.000000 0.000000 0.000000 0.036536 0.000000 0.000000
# 5 0.000000 0.000000 0.000000 0.000000 0.022045 0.000000
# 6 0.000000 0.000000 0.000000 0.000000 0.000000 0.086760
#
#
# Mechanical properties :
#
#
# Convention : Reuss Voigt Hill
#
# Bulk Modulus (GPa) = 79.09794 93.85817 86.47806
# Shear Modulus (GPa) = 26.54644 37.80221 32.17433
#
# Velocity S-wave (km/s) = 3.42474 4.08680 3.77033
# Velocity P-wave (km/s) = 7.11238 7.98361 7.56056
#
# Compressibility (1/GPa) = 0.01264255
#
# Stress axis : x y z
#
# Youngs Moduli (GPa) = 120.10800 83.73797 183.47055
#
# Poissons Ratio (x) = 0.17820 0.40006
# Poissons Ratio (y) = 0.25560 0.40901
# Poissons Ratio (z) = 0.26190 0.18668
#
# Static dielectric constant tensor:
#      x y z
#    x 1.980670 0.000000 0.000000 
#    y 0.000000 2.070600 0.000000 
#    z 0.000000 0.000000 1.277830 
# 
# From -- ./inp_files/16320.got.cif
#   From: 2010.05.17/outbox.cif.g08.bks.cpg/sg54_9_cif.got.tgz:16320.got - 2010.06.03 13:09:01.
