data_PCOD9424907
_publ_section_title
;
Structure prediction by ZEFSAII (Michael W. Deem and Ramdas Pophale) SiO2 
 PCOD9424907
Probable space group: P B A M
;
_chemical_formula_sum "Si O2"
_cell_formula_units_Z 56
_cell_length_a 29.957931
_cell_length_b 13.800547
_cell_length_c 8.962221
_cell_angle_alpha 90.000000
_cell_angle_beta 90.000000
_cell_angle_gamma 90.000000
_cell_volume 3705.303321
_symmetry_space_group_name_H-M "P B A M"
_symmetry_group_IT_number 55
_symmetry_cell_setting 'orthorhombic'
loop_
_space_group_symop_operation_xyz
x,y,z
-x,-y,z
1/2+x,1/2-y,-z
1/2-x,1/2+y,-z
-x,-y,-z
x,y,-z
1/2-x,1/2+y,z
1/2+x,1/2-y,z
loop_
_atom_site_type_symbol
_atom_site_label
_atom_site_fract_x
_atom_site_fract_y
_atom_site_fract_z
Si Si1 0.768307 0.608065 0.322834
Si Si2 0.817561 0.783013 0.821651
Si Si3 0.270464 0.095361 0.823465
Si Si4 0.181803 0.796095 0.821981
Si Si5 0.593616 0.398345 0.822261
Si Si6 0.404028 0.388911 0.320253
Si Si7 0.003062 0.117541 0.671660
O O1 0.763970 0.613683 0.500000
O O2 0.804241 0.686017 0.264502
O O3 0.779646 0.500099 0.270175
O O4 0.721556 0.639136 0.246375
O O5 0.778812 0.861897 0.789707
O O6 0.865468 0.827645 0.784633
O O7 0.815403 0.764114 0.000000
O O8 0.303931 0.184723 0.795256
O O9 0.271851 0.072195 0.000000
O O10 0.135503 0.825567 0.747311
O O11 0.180189 0.811716 0.000000
O O12 0.600445 0.501864 0.742428
O O13 0.545790 0.357369 0.770080
O O14 0.593664 0.413812 0.000000
O O15 0.401992 0.391985 0.500000
O O16 0.453673 0.350907 0.278726
O O17 0.010532 0.147194 0.500000
O O18 0.000000 0.000000 0.672608
#
# Coordination Sequence:
#
# PCOD9424907 Si02
#       7
#     8   8   8   8   8   8   8
#     4  11  21  31  47  69  92 119 150 186 224 265
#     4   9  19  33  47  65  90 121 154 185 221 263
#     4   9  18  33  49  64  89 122 151 184 224 264
#     4  10  20  33  49  67  89 120 154 186 222 265
#     4  10  18  28  46  69  92 122 157 189 221 263
#     4  10  19  30  45  66  94 124 151 185 227 269
#     4   8  16  29  42  61  92 124 149 180 226 270
#
# _framework density 15.113473000000001
#
# number of rings (size 3 to 8) (size 9 to 14) (size 15 to 20)
#    0.000    2.429    0.000    5.143    0.000    8.286 
#    0.000    0.000    0.000    0.000    0.000    1.000 
#    0.000    8.000    0.000    0.000    0.000    0.000 
#
# Total GULP energy -312268.614168 kJ/mol
# GULP energy per Si atom -5576.225253 kJ/mol
# Density = 1.507907 g / cm^3
# Si number density = 15.113473 Si / 1000 Ang^3
#
#
#
# Elastic Constant Matrix: (Units=GPa)
#
#
# Indices 1 2 3 4 5 6 
#
# 1 144.1464 54.3491 63.3974 0.0000 0.0000 0.0000
# 2 54.3491 69.6923 51.8663 0.0000 0.0000 0.0000
# 3 63.3974 51.8663 73.8098 0.0000 0.0000 0.0000
# 4 0.0000 0.0000 0.0000 -0.3571 0.0000 0.0000
# 5 0.0000 0.0000 0.0000 0.0000 27.7910 0.0000
# 6 0.0000 0.0000 0.0000 0.0000 0.0000 18.6605
#
#
#
# Elastic Compliance Matrix: (Units=1/GPa)
#
#
# Indices 1 2 3 4 5 6 
#
# 1 0.011520 -0.003396 -0.007509 0.000000 0.000000 0.000000
# 2 -0.003396 0.031080 -0.018923 0.000000 0.000000 0.000000
# 3 -0.007509 -0.018923 0.033295 0.000000 0.000000 0.000000
# 4 0.000000 0.000000 0.000000 -2.800353 0.000000 0.000000
# 5 0.000000 0.000000 0.000000 0.000000 0.035983 0.000000
# 6 0.000000 0.000000 0.000000 0.000000 0.000000 0.053589
#
#
# Mechanical properties :
#
#
# Convention : Reuss Voigt Hill
#
# Bulk Modulus (GPa) = 61.57708 69.65267 65.61487
# Shear Modulus (GPa) = -1.94566 17.08793 7.57113
#
# Velocity S-wave (km/s) = -1.13585 3.36615 2.24062
# Velocity P-wave (km/s) = 6.25391 7.82908 7.08540
#
# Compressibility (1/GPa) = 0.01623981
#
# Stress axis : x y z
#
# Youngs Moduli (GPa) = 86.80391 32.17509 30.03424
#
# Poissons Ratio (x) = 0.10926 0.22552
# Poissons Ratio (y) = 0.29476 0.56835
# Poissons Ratio (z) = 0.65180 0.60886
#
# Static dielectric constant tensor:
#      x y z
#    x 1.510880 0.000000 0.000000 
#    y 0.000000 1.476660 0.000000 
#    z 0.000000 0.000000 1.502740 
# 
# From -- ./inp_files/10879.got.cif
#   From: 2010.05.17/outbox.cif.g08.bks.cpg/sg55_6_cif.got.tgz:10879.got - 2010.06.03 13:27:54.
