data_PCOD9424718
_publ_section_title
;
Structure prediction by ZEFSAII (Michael W. Deem and Ramdas Pophale) SiO2 
 PCOD9424718
Probable space group: P B A M
;
_chemical_formula_sum "Si O2"
_cell_formula_units_Z 32
_cell_length_a 12.932540
_cell_length_b 5.421762
_cell_length_c 19.158190
_cell_angle_alpha 90.000000
_cell_angle_beta 90.000000
_cell_angle_gamma 90.000000
_cell_volume 1343.317757
_symmetry_space_group_name_H-M "P B A M"
_symmetry_group_IT_number 55
_symmetry_cell_setting 'orthorhombic'
loop_
_space_group_symop_operation_xyz
x,y,z
-x,-y,z
1/2+x,1/2-y,-z
1/2-x,1/2+y,-z
-x,-y,-z
x,y,-z
1/2-x,1/2+y,z
1/2+x,1/2-y,z
loop_
_atom_site_type_symbol
_atom_site_label
_atom_site_fract_x
_atom_site_fract_y
_atom_site_fract_z
Si Si1 0.143800 0.356213 0.580514
Si Si2 0.432163 0.250197 0.076972
Si Si3 0.186996 0.725697 0.779358
Si Si4 0.880731 0.142924 0.634742
O O1 0.156318 0.282071 0.500000
O O2 0.094431 0.625752 0.585903
O O3 0.256550 0.385478 0.616152
O O4 0.084975 0.136289 0.620138
O O5 0.500000 0.500000 0.080270
O O6 0.359714 0.250405 0.143892
O O7 0.500000 0.000000 0.080781
O O8 0.380586 0.249172 0.000000
O O9 0.231274 0.449880 0.772190
O O10 0.109701 0.775961 0.715026
#
# Coordination Sequence:
#
# PCOD9424718 Si02
#       4
#     8   8   8   8
#     4  10  16  25  41  63 107 151 173 207 277 335
#     4  10  23  43  62  82 113 152 191 228 273 341
#     4  12  21  35  58  86 118 147 178 240 291 326
#     4  10  16  27  39  69 106 140 166 223 273 320
#
# _framework density 23.821617
#
# number of rings (size 3 to 8) (size 9 to 14) (size 15 to 20)
#    0.000    1.500    5.000    5.250    0.000    1.000 
#    0.000    0.000    0.000    0.000    0.000    0.000 
#    0.000   34.000    0.000    0.000    0.000    0.000 
#
# Total GULP energy -178873.027481 kJ/mol
# GULP energy per Si atom -5589.782109 kJ/mol
# Density = 2.376740 g / cm^3
# Si number density = 23.821617 Si / 1000 Ang^3
#
#
#
# Elastic Constant Matrix: (Units=GPa)
#
#
# Indices 1 2 3 4 5 6 
#
# 1 9.7429 6.0737 -6.0142 0.0000 0.0000 0.0000
# 2 6.0737 134.7446 -10.4595 0.0000 0.0000 0.0000
# 3 -6.0142 -10.4595 189.7859 0.0000 0.0000 0.0000
# 4 0.0000 0.0000 0.0000 43.4644 0.0000 0.0000
# 5 0.0000 0.0000 0.0000 0.0000 -155.7293 0.0000
# 6 0.0000 0.0000 0.0000 0.0000 0.0000 48.1280
#
#
#
# Elastic Compliance Matrix: (Units=1/GPa)
#
#
# Indices 1 2 3 4 5 6 
#
# 1 0.107451 -0.004599 0.003152 0.000000 0.000000 0.000000
# 2 -0.004599 0.007650 0.000276 0.000000 0.000000 0.000000
# 3 0.003152 0.000276 0.005384 0.000000 0.000000 0.000000
# 4 0.000000 0.000000 0.000000 0.023007 0.000000 0.000000
# 5 0.000000 0.000000 0.000000 0.000000 -0.006421 0.000000
# 6 0.000000 0.000000 0.000000 0.000000 0.000000 0.020778
#
#
# Mechanical properties :
#
#
# Convention : Reuss Voigt Hill
#
# Bulk Modulus (GPa) = 8.46434 34.83039 21.64737
# Shear Modulus (GPa) = 25.05356 10.15085 17.60220
#
# Velocity S-wave (km/s) = 3.24653 2.06650 2.72125
# Velocity P-wave (km/s) = 4.19693 4.51076 4.35668
#
# Compressibility (1/GPa) = 0.11814265
#
# Stress axis : x y z
#
# Youngs Moduli (GPa) = 9.30658 130.71637 185.72960
#
# Poissons Ratio (x) = 0.60113 -0.58535
# Poissons Ratio (y) = 0.04280 -0.05124
# Poissons Ratio (z) = -0.02933 -0.03606
#
# Static dielectric constant tensor:
#      x y z
#    x 2.147650 0.000000 0.000000 
#    y 0.000000 1.954330 0.000000 
#    z 0.000000 0.000000 1.832440 
# 
# From -- ./inp_files/16438.got.cif
#   From: 2010.05.17/outbox.cif.g08.bks.cpg/sg55_9_cif.got.tgz:16438.got - 2010.06.03 13:27:54.
