data_PCOD9424446
_publ_section_title
;
Structure prediction by ZEFSAII (Michael W. Deem and Ramdas Pophale) SiO2 
 PCOD9424446
Probable space group: P C C A
;
_chemical_formula_sum "Si O2"
_cell_formula_units_Z 40
_cell_length_a 16.088038
_cell_length_b 6.759298
_cell_length_c 17.763243
_cell_angle_alpha 90.000000
_cell_angle_beta 90.000000
_cell_angle_gamma 90.000000
_cell_volume 1931.643309
_symmetry_space_group_name_H-M "P C C A"
_symmetry_group_IT_number 54
_symmetry_cell_setting 'orthorhombic'
loop_
_space_group_symop_operation_xyz
x,y,z
1/2-x,-y,z
1/2+x,-y,1/2-z
-x,y,1/2-z
-x,-y,-z
1/2+x,y,-z
1/2-x,y,1/2+z
x,-y,1/2+z
loop_
_atom_site_type_symbol
_atom_site_label
_atom_site_fract_x
_atom_site_fract_y
_atom_site_fract_z
Si Si1 0.000000 0.092761 0.250000
Si Si2 0.415702 0.238345 0.155833
Si Si3 0.750000 0.000000 0.094280
Si Si4 0.582970 0.132614 0.512388
Si Si5 0.450788 0.576493 0.353471
Si Si6 0.694221 0.678130 0.707671
O O1 0.059921 0.247915 0.292145
O O2 0.027649 0.945195 0.183766
O O3 0.465046 0.448023 0.159529
O O4 0.343813 0.226447 0.217905
O O5 0.391045 0.207303 0.070121
O O6 0.836092 0.024134 0.047914
O O7 0.742798 0.184121 0.150558
O O8 0.556993 0.314470 0.566731
O O9 0.500000 0.000000 0.500000
O O10 0.380606 0.414798 0.340431
O O11 0.750000 0.500000 0.734685
#
# Coordination Sequence:
#
# PCOD9424446 Si02
#       6
#     4   8   4   8   8   8
#     4  12  20  42  76 100 136 182 256 296 358 458
#     4  12  25  43  73 105 141 188 248 303 373 439
#     4  12  28  50  74 106 152 196 252 306 382 442
#     4  12  26  48  75 108 149 197 241 313 381 441
#     4  12  23  47  73 104 140 194 246 302 372 453
#     4  12  25  46  71 100 145 195 244 306 368 441
#
# _framework density 20.707756
#
# number of rings (size 3 to 8) (size 9 to 14) (size 15 to 20)
#    0.000    0.000    8.000    3.000    0.000    0.800 
#    7.200    0.000    0.000    0.000    0.000    0.000 
#    0.000    0.000    0.000    0.000    0.000    0.000 
#
# Total GULP energy -223337.537881 kJ/mol
# GULP energy per Si atom -5583.438447 kJ/mol
# Density = 2.066062 g / cm^3
# Si number density = 20.707756 Si / 1000 Ang^3
#
#
#
# Elastic Constant Matrix: (Units=GPa)
#
#
# Indices 1 2 3 4 5 6 
#
# 1 88.9422 19.2212 28.9630 0.0000 0.0000 0.0000
# 2 19.2212 77.0973 40.1380 0.0000 0.0000 0.0000
# 3 28.9630 40.1380 130.6642 0.0000 0.0000 0.0000
# 4 0.0000 0.0000 0.0000 33.8984 0.0000 0.0000
# 5 0.0000 0.0000 0.0000 0.0000 26.2082 0.0000
# 6 0.0000 0.0000 0.0000 0.0000 0.0000 28.8651
#
#
#
# Elastic Compliance Matrix: (Units=1/GPa)
#
#
# Indices 1 2 3 4 5 6 
#
# 1 0.012365 -0.001971 -0.002135 0.000000 0.000000 0.000000
# 2 -0.001971 0.015754 -0.004402 0.000000 0.000000 0.000000
# 3 -0.002135 -0.004402 0.009479 0.000000 0.000000 0.000000
# 4 0.000000 0.000000 0.000000 0.029500 0.000000 0.000000
# 5 0.000000 0.000000 0.000000 0.000000 0.038156 0.000000
# 6 0.000000 0.000000 0.000000 0.000000 0.000000 0.034644
#
#
# Mechanical properties :
#
#
# Convention : Reuss Voigt Hill
#
# Bulk Modulus (GPa) = 48.59096 52.59423 50.59259
# Shear Modulus (GPa) = 30.52974 31.68643 31.10809
#
# Velocity S-wave (km/s) = 3.84385 3.91599 3.88008
# Velocity P-wave (km/s) = 6.57391 6.77496 6.67519
#
# Compressibility (1/GPa) = 0.02057996
#
# Stress axis : x y z
#
# Youngs Moduli (GPa) = 80.87650 63.47588 105.49761
#
# Poissons Ratio (x) = 0.12511 0.22527
# Poissons Ratio (y) = 0.15940 0.46445
# Poissons Ratio (z) = 0.17269 0.27945
#
# Static dielectric constant tensor:
#      x y z
#    x 1.622690 0.000000 0.000000 
#    y 0.000000 1.743310 0.000000 
#    z 0.000000 0.000000 1.732370 
# 
# From -- ./inp_files/18408.got.cif
#   From: 2010.05.17/outbox.cif.g08.bks.cpg/sg54_10_cif.got.tgz:18408.got - 2010.06.03 13:09:01.
