data_PCOD9424150
_publ_section_title
;
Structure prediction by ZEFSAII (Michael W. Deem and Ramdas Pophale) SiO2 
 PCOD9424150
Probable space group: P C C A
;
_chemical_formula_sum "Si O2"
_cell_formula_units_Z 32
_cell_length_a 6.637092
_cell_length_b 12.460915
_cell_length_c 16.553596
_cell_angle_alpha 90.000000
_cell_angle_beta 90.000000
_cell_angle_gamma 90.000000
_cell_volume 1369.052564
_symmetry_space_group_name_H-M "P C C A"
_symmetry_group_IT_number 54
_symmetry_cell_setting 'orthorhombic'
loop_
_space_group_symop_operation_xyz
x,y,z
1/2-x,-y,z
1/2+x,-y,1/2-z
-x,y,1/2-z
-x,-y,-z
1/2+x,y,-z
1/2-x,y,1/2+z
x,-y,1/2+z
loop_
_atom_site_type_symbol
_atom_site_label
_atom_site_fract_x
_atom_site_fract_y
_atom_site_fract_z
Si Si1 0.749743 0.279270 0.431002
Si Si2 0.512873 0.068147 0.584105
Si Si3 0.557115 0.855530 0.658359
Si Si4 0.089003 0.576702 0.930005
O O1 0.869370 0.167763 0.431887
O O2 0.544625 0.242500 0.389339
O O3 0.695673 0.330270 0.517270
O O4 0.898057 0.366078 0.388514
O O5 0.219187 0.119363 0.377883
O O6 0.500000 0.000000 0.500000
O O7 0.458982 0.973125 0.645230
O O8 0.500000 0.829316 0.750000
O O9 0.250000 0.500000 0.885434
O O10 0.000000 0.500000 0.000000
#
# Coordination Sequence:
#
# PCOD9424150 Si02
#       4
#     8   8   8   8
#     4  11  23  38  69  95 141 183 228 288 374 424
#     4  11  27  41  67 103 147 187 246 296 347 432
#     4  11  28  44  64 103 155 195 240 287 365 452
#     4   9  21  39  66 108 131 163 236 319 370 417
#
# _framework density 23.373828
#
# number of rings (size 3 to 8) (size 9 to 14) (size 15 to 20)
#    0.000    1.500    0.000    2.250   31.500    0.000 
#    0.000    0.000    0.000    0.000   58.500    0.000 
#    0.000    0.000    0.000    0.000    0.000    0.000 
#
# Total GULP energy -178260.315240 kJ/mol
# GULP energy per Si atom -5570.634851 kJ/mol
# Density = 2.332063 g / cm^3
# Si number density = 23.373828 Si / 1000 Ang^3
#
#
#
# Elastic Constant Matrix: (Units=GPa)
#
#
# Indices 1 2 3 4 5 6 
#
# 1 142.1312 56.5994 48.4812 0.0000 0.0000 0.0000
# 2 56.5994 134.4830 31.1603 0.0000 0.0000 0.0000
# 3 48.4812 31.1603 78.3853 0.0000 0.0000 0.0000
# 4 0.0000 0.0000 0.0000 11.1634 0.0000 0.0000
# 5 0.0000 0.0000 0.0000 0.0000 10.0433 0.0000
# 6 0.0000 0.0000 0.0000 0.0000 0.0000 92.6424
#
#
#
# Elastic Compliance Matrix: (Units=1/GPa)
#
#
# Indices 1 2 3 4 5 6 
#
# 1 0.009927 -0.003035 -0.004933 0.000000 0.000000 0.000000
# 2 -0.003035 0.009118 -0.001748 0.000000 0.000000 0.000000
# 3 -0.004933 -0.001748 0.016504 0.000000 0.000000 0.000000
# 4 0.000000 0.000000 0.000000 0.089578 0.000000 0.000000
# 5 0.000000 0.000000 0.000000 0.000000 0.099568 0.000000
# 6 0.000000 0.000000 0.000000 0.000000 0.000000 0.010794
#
#
# Mechanical properties :
#
#
# Convention : Reuss Voigt Hill
#
# Bulk Modulus (GPa) = 62.04688 69.72014 65.88351
# Shear Modulus (GPa) = 19.20907 37.35375 28.28141
#
# Velocity S-wave (km/s) = 2.86985 4.00196 3.48222
# Velocity P-wave (km/s) = 6.13062 7.15872 6.66452
#
# Compressibility (1/GPa) = 0.01611685
#
# Stress axis : x y z
#
# Youngs Moduli (GPa) = 100.73419 109.67198 60.59299
#
# Poissons Ratio (x) = 0.33284 0.29893
# Poissons Ratio (y) = 0.30572 0.10589
# Poissons Ratio (z) = 0.49697 0.19166
#
# Static dielectric constant tensor:
#      x y z
#    x 1.978850 0.000000 0.000000 
#    y 0.000000 1.913700 0.000000 
#    z 0.000000 0.000000 1.901650 
# 
# From -- ./inp_files/11386.got.cif
#   From: 2010.05.17/outbox.cif.g08.bks.cpg/sg54_6_cif.got.tgz:11386.got - 2010.06.03 13:09:01.
