data_PCOD9424575
_publ_section_title
;
Structure prediction by ZEFSAII (Michael W. Deem and Ramdas Pophale) SiO2 
 PCOD9424575
Probable space group: P C C A
;
_chemical_formula_sum "Si O2"
_cell_formula_units_Z 28
_cell_length_a 15.530934
_cell_length_b 5.073998
_cell_length_c 13.844885
_cell_angle_alpha 90.000000
_cell_angle_beta 90.000000
_cell_angle_gamma 90.000000
_cell_volume 1091.031321
_symmetry_space_group_name_H-M "P C C A"
_symmetry_group_IT_number 54
_symmetry_cell_setting 'orthorhombic'
loop_
_space_group_symop_operation_xyz
x,y,z
1/2-x,-y,z
1/2+x,-y,1/2-z
-x,y,1/2-z
-x,-y,-z
1/2+x,y,-z
1/2-x,y,1/2+z
x,-y,1/2+z
loop_
_atom_site_type_symbol
_atom_site_label
_atom_site_fract_x
_atom_site_fract_y
_atom_site_fract_z
Si Si1 0.750000 0.500000 0.249501
Si Si2 0.819141 0.190932 0.426119
Si Si3 0.893234 0.525613 0.589455
Si Si4 0.998829 0.964192 0.134773
O O1 0.777646 0.275462 0.324552
O O2 0.669529 0.455050 0.178962
O O3 0.844002 0.440159 0.492486
O O4 0.908193 0.046905 0.402782
O O5 0.750000 0.000000 0.476885
O O6 0.928467 0.820100 0.600648
O O7 0.972981 0.324706 0.599294
O O8 0.000000 0.968390 0.250000
#
# Coordination Sequence:
#
# PCOD9424575 Si02
#       4
#     4   8   8   8
#     4  12  28  50  78 114 156 206 258 330 382 462
#     4  12  29  48  81 113 157 205 263 322 390 461
#     4  12  29  50  80 111 159 202 260 317 392 460
#     4  12  26  52  78 114 157 206 253 319 388 467
#
# _framework density 25.663792999999998
#
# number of rings (size 3 to 8) (size 9 to 14) (size 15 to 20)
#    0.000    0.000    2.857    5.143   12.000    0.000 
#    0.000    0.000    0.000    0.000    0.000    0.000 
#    0.000    0.000    0.000    0.000    0.000    0.000 
#
# Total GULP energy -157308.732778 kJ/mol
# GULP energy per Si atom -5618.169028 kJ/mol
# Density = 2.560538 g / cm^3
# Si number density = 25.663793 Si / 1000 Ang^3
#
#
#
# Elastic Constant Matrix: (Units=GPa)
#
#
# Indices 1 2 3 4 5 6 
#
# 1 124.8247 21.1003 25.4817 0.0000 0.0000 0.0000
# 2 21.1003 91.8851 28.3440 0.0000 0.0000 0.0000
# 3 25.4817 28.3440 138.5764 0.0000 0.0000 0.0000
# 4 0.0000 0.0000 0.0000 42.6853 0.0000 0.0000
# 5 0.0000 0.0000 0.0000 0.0000 33.4051 0.0000
# 6 0.0000 0.0000 0.0000 0.0000 0.0000 54.5063
#
#
#
# Elastic Compliance Matrix: (Units=1/GPa)
#
#
# Indices 1 2 3 4 5 6 
#
# 1 0.008532 -0.001575 -0.001247 0.000000 0.000000 0.000000
# 2 -0.001575 0.011907 -0.002146 0.000000 0.000000 0.000000
# 3 -0.001247 -0.002146 0.007884 0.000000 0.000000 0.000000
# 4 0.000000 0.000000 0.000000 0.023427 0.000000 0.000000
# 5 0.000000 0.000000 0.000000 0.000000 0.029936 0.000000
# 6 0.000000 0.000000 0.000000 0.000000 0.000000 0.018346
#
#
# Mechanical properties :
#
#
# Convention : Reuss Voigt Hill
#
# Bulk Modulus (GPa) = 54.38183 56.12649 55.25416
# Shear Modulus (GPa) = 43.06768 44.81003 43.93885
#
# Velocity S-wave (km/s) = 4.10097 4.18310 4.14224
# Velocity P-wave (km/s) = 6.60757 6.72670 6.66740
#
# Compressibility (1/GPa) = 0.01838849
#
# Stress axis : x y z
#
# Youngs Moduli (GPa) = 117.20674 83.98648 126.83282
#
# Poissons Ratio (x) = 0.13225 0.15813
# Poissons Ratio (y) = 0.18456 0.27216
# Poissons Ratio (z) = 0.14613 0.18022
#
# Static dielectric constant tensor:
#      x y z
#    x 2.013350 0.000000 0.000000 
#    y 0.000000 2.014160 0.000000 
#    z 0.000000 0.000000 1.974930 
# 
# From -- ./inp_files/17523.got.cif
#   From: 2010.05.17/outbox.cif.g08.bks.cpg/sg54_9_cif.got.tgz:17523.got - 2010.06.03 13:09:01.
