data_PCOD9424556
_publ_section_title
;
Structure prediction by ZEFSAII (Michael W. Deem and Ramdas Pophale) SiO2 
 PCOD9424556
Probable space group: P C C A
;
_chemical_formula_sum "Si O2"
_cell_formula_units_Z 40
_cell_length_a 22.903774
_cell_length_b 6.712018
_cell_length_c 11.717311
_cell_angle_alpha 90.000000
_cell_angle_beta 90.000000
_cell_angle_gamma 90.000000
_cell_volume 1801.308587
_symmetry_space_group_name_H-M "P C C A"
_symmetry_group_IT_number 54
_symmetry_cell_setting 'orthorhombic'
loop_
_space_group_symop_operation_xyz
x,y,z
1/2-x,-y,z
1/2+x,-y,1/2-z
-x,y,1/2-z
-x,-y,-z
1/2+x,y,-z
1/2-x,y,1/2+z
x,-y,1/2+z
loop_
_atom_site_type_symbol
_atom_site_label
_atom_site_fract_x
_atom_site_fract_y
_atom_site_fract_z
Si Si1 0.888218 0.648323 0.855677
Si Si2 0.000000 0.446783 0.750000
Si Si3 0.650759 0.006751 0.693611
Si Si4 0.250000 0.000000 0.993518
Si Si5 0.956258 0.851125 0.062380
Si Si6 0.707048 0.336345 0.344133
O O1 0.941808 0.570557 0.777757
O O2 0.852980 0.807704 0.779141
O O3 0.846036 0.468074 0.893735
O O4 0.916153 0.750325 0.966129
O O5 0.989283 0.311656 0.638483
O O6 0.693800 0.023810 0.586754
O O7 0.586111 0.966630 0.648504
O O8 0.676266 0.816826 0.759724
O O9 0.244585 0.801308 0.070263
O O10 0.000000 0.000000 0.000000
O O11 0.750000 0.500000 0.289341
#
# Coordination Sequence:
#
# PCOD9424556 Si02
#       6
#     8   4   8   4   8   8
#     4  12  27  46  76 107 153 195 255 304 374 460
#     4  12  26  48  74 114 152 200 248 312 382 446
#     4  12  26  49  72 109 153 200 244 321 378 441
#     4  12  28  44  78 106 148 196 254 316 378 442
#     4  12  26  46  77 111 154 200 250 311 375 449
#     4  12  26  48  72 108 145 193 255 307 377 448
#
# _framework density 22.206078000000002
#
# number of rings (size 3 to 8) (size 9 to 14) (size 15 to 20)
#    0.000    0.000    2.000    8.400    5.600    4.000 
#    0.000    0.000    0.000    0.000    0.000    0.000 
#    0.000    0.000    0.000    0.000    0.000    0.000 
#
# Total GULP energy -223970.099563 kJ/mol
# GULP energy per Si atom -5599.252489 kJ/mol
# Density = 2.215554 g / cm^3
# Si number density = 22.206078 Si / 1000 Ang^3
#
#
#
# Elastic Constant Matrix: (Units=GPa)
#
#
# Indices 1 2 3 4 5 6 
#
# 1 117.2195 68.1695 41.8759 0.0000 0.0000 0.0000
# 2 68.1695 147.6940 73.3902 0.0000 0.0000 0.0000
# 3 41.8759 73.3902 106.5353 0.0000 0.0000 0.0000
# 4 0.0000 0.0000 0.0000 28.8006 0.0000 0.0000
# 5 0.0000 0.0000 0.0000 0.0000 82.8794 0.0000
# 6 0.0000 0.0000 0.0000 0.0000 0.0000 60.1709
#
#
#
# Elastic Compliance Matrix: (Units=1/GPa)
#
#
# Indices 1 2 3 4 5 6 
#
# 1 0.011787 -0.004771 -0.001346 0.000000 0.000000 0.000000
# 2 -0.004771 0.012226 -0.006547 0.000000 0.000000 0.000000
# 3 -0.001346 -0.006547 0.014426 0.000000 0.000000 0.000000
# 4 0.000000 0.000000 0.000000 0.034721 0.000000 0.000000
# 5 0.000000 0.000000 0.000000 0.000000 0.012066 0.000000
# 6 0.000000 0.000000 0.000000 0.000000 0.000000 0.016619
#
#
# Mechanical properties :
#
#
# Convention : Reuss Voigt Hill
#
# Bulk Modulus (GPa) = 76.27848 82.03554 79.15701
# Shear Modulus (GPa) = 38.01011 46.90441 42.45726
#
# Velocity S-wave (km/s) = 4.14176 4.60089 4.37735
# Velocity P-wave (km/s) = 7.56948 8.07758 7.82765
#
# Compressibility (1/GPa) = 0.01310986
#
# Stress axis : x y z
#
# Youngs Moduli (GPa) = 84.84142 81.79123 69.32059
#
# Poissons Ratio (x) = 0.39026 0.09331
# Poissons Ratio (y) = 0.40481 0.45384
# Poissons Ratio (z) = 0.11420 0.53548
#
# Static dielectric constant tensor:
#      x y z
#    x 1.793160 0.000000 0.000000 
#    y 0.000000 1.814630 0.000000 
#    z 0.000000 0.000000 1.827220 
# 
# From -- ./inp_files/10189.got.cif
#   From: 2010.05.17/outbox.cif.g08.bks.cpg/sg54_6_cif.got.tgz:10189.got - 2010.06.03 13:09:01.
