data_PCOD9424054
_publ_section_title
;
Structure prediction by ZEFSAII (Michael W. Deem and Ramdas Pophale) SiO2 
 PCOD9424054
Probable space group: P C C A
;
_chemical_formula_sum "Si O2"
_cell_formula_units_Z 60
_cell_length_a 24.159318
_cell_length_b 8.586413
_cell_length_c 14.786286
_cell_angle_alpha 90.000000
_cell_angle_beta 90.000000
_cell_angle_gamma 90.000000
_cell_volume 3067.294998
_symmetry_space_group_name_H-M "P C C A"
_symmetry_group_IT_number 54
_symmetry_cell_setting 'orthorhombic'
loop_
_space_group_symop_operation_xyz
x,y,z
1/2-x,-y,z
1/2+x,-y,1/2-z
-x,y,1/2-z
-x,-y,-z
1/2+x,y,-z
1/2-x,y,1/2+z
x,-y,1/2+z
loop_
_atom_site_type_symbol
_atom_site_label
_atom_site_fract_x
_atom_site_fract_y
_atom_site_fract_z
Si Si1 0.497595 0.177124 0.540708
Si Si2 0.433958 0.332996 0.392351
Si Si3 0.500000 0.134150 0.250000
Si Si4 0.101814 0.681942 0.866097
Si Si5 0.807577 0.911217 0.334293
Si Si6 0.819958 0.152211 0.621069
Si Si7 0.410555 0.882486 0.189456
Si Si8 0.701784 0.807470 0.038502
O O1 0.476198 0.310148 0.474280
O O2 0.557713 0.214467 0.578820
O O3 0.450997 0.190626 0.616941
O O4 0.500000 0.000000 0.500000
O O5 0.469457 0.245047 0.318292
O O6 0.420370 0.507334 0.364137
O O7 0.376331 0.238795 0.407289
O O8 0.450026 0.021658 0.222626
O O9 0.105420 0.763454 0.768475
O O10 0.159732 0.685337 0.918420
O O11 0.817250 0.842470 0.232086
O O12 0.803423 0.814951 0.428948
O O13 0.750000 0.000000 0.326664
O O14 0.856165 0.036486 0.349269
O O15 0.764180 0.219236 0.574531
O O16 0.817912 0.973400 0.583850
#
# Coordination Sequence:
#
# PCOD9424054 Si02
#       8
#     8   8   4   8   8   8   8   8
#     4  12  23  42  68  95 129 173 230 273 324 407
#     4  12  27  41  65  98 141 176 218 279 353 400
#     4  12  22  42  68  96 126 180 222 274 322 406
#     4  12  25  44  62  98 138 179 212 284 348 401
#     4  12  21  38  70 103 120 163 231 287 318 383
#     4  11  21  43  66  98 131 172 227 279 331 390
#     4  12  22  41  69  93 129 175 230 271 333 393
#     4  11  23  41  71  94 131 172 231 277 327 394
#
# _framework density 19.561209999999999
#
# number of rings (size 3 to 8) (size 9 to 14) (size 15 to 20)
#    0.000    0.267    8.000    2.800    1.867    0.533 
#    2.400    0.000    0.000    1.600    0.000    0.000 
#    0.000    0.000    0.000    0.000    0.000    0.000 
#
# Total GULP energy -334683.854008 kJ/mol
# GULP energy per Si atom -5578.064233 kJ/mol
# Density = 1.951669 g / cm^3
# Si number density = 19.561210 Si / 1000 Ang^3
#
#
#
# Elastic Constant Matrix: (Units=GPa)
#
#
# Indices 1 2 3 4 5 6 
#
# 1 77.9375 -14.0207 -9.4653 0.0000 0.0000 0.0000
# 2 -14.0207 35.6790 0.5918 0.0000 0.0000 0.0000
# 3 -9.4653 0.5918 97.2363 0.0000 0.0000 0.0000
# 4 0.0000 0.0000 0.0000 27.0747 0.0000 0.0000
# 5 0.0000 0.0000 0.0000 0.0000 67.0058 0.0000
# 6 0.0000 0.0000 0.0000 0.0000 0.0000 38.7912
#
#
#
# Elastic Compliance Matrix: (Units=1/GPa)
#
#
# Indices 1 2 3 4 5 6 
#
# 1 0.013976 0.005470 0.001327 0.000000 0.000000 0.000000
# 2 0.005470 0.030172 0.000349 0.000000 0.000000 0.000000
# 3 0.001327 0.000349 0.010411 0.000000 0.000000 0.000000
# 4 0.000000 0.000000 0.000000 0.036935 0.000000 0.000000
# 5 0.000000 0.000000 0.000000 0.000000 0.014924 0.000000
# 6 0.000000 0.000000 0.000000 0.000000 0.000000 0.025779
#
#
# Mechanical properties :
#
#
# Convention : Reuss Voigt Hill
#
# Bulk Modulus (GPa) = 14.52407 18.34047 16.43227
# Shear Modulus (GPa) = 35.49754 42.15749 38.82751
#
# Velocity S-wave (km/s) = 4.26454 4.64740 4.46008
# Velocity P-wave (km/s) = 5.62934 6.18014 5.91116
#
# Compressibility (1/GPa) = 0.06885123
#
# Stress axis : x y z
#
# Youngs Moduli (GPa) = 71.55107 33.14383 96.04956
#
# Poissons Ratio (x) = -0.18130 -0.12748
# Poissons Ratio (y) = -0.39139 -0.03351
# Poissons Ratio (z) = -0.09496 -0.01156
#
# Static dielectric constant tensor:
#      x y z
#    x 1.619580 0.000000 0.000000 
#    y 0.000000 1.664870 0.000000 
#    z 0.000000 0.000000 1.707360 
# 
# From -- ./inp_files/14969.got.cif
#   From: 2010.05.17/outbox.cif.g08.bks.cpg/sg54_8_cif.got.tgz:14969.got - 2010.06.03 13:09:01.
