data_PCOD9424453
_publ_section_title
;
Structure prediction by ZEFSAII (Michael W. Deem and Ramdas Pophale) SiO2 
 PCOD9424453
Probable space group: P C C A
;
_chemical_formula_sum "Si O2"
_cell_formula_units_Z 40
_cell_length_a 8.510859
_cell_length_b 9.649296
_cell_length_c 22.410103
_cell_angle_alpha 90.000000
_cell_angle_beta 90.000000
_cell_angle_gamma 90.000000
_cell_volume 1840.402765
_symmetry_space_group_name_H-M "P C C A"
_symmetry_group_IT_number 54
_symmetry_cell_setting 'orthorhombic'
loop_
_space_group_symop_operation_xyz
x,y,z
1/2-x,-y,z
1/2+x,-y,1/2-z
-x,y,1/2-z
-x,-y,-z
1/2+x,y,-z
1/2-x,y,1/2+z
x,-y,1/2+z
loop_
_atom_site_type_symbol
_atom_site_label
_atom_site_fract_x
_atom_site_fract_y
_atom_site_fract_z
Si Si1 0.562754 0.484420 0.186256
Si Si2 0.433796 0.032805 0.933533
Si Si3 0.389888 0.697798 0.098307
Si Si4 0.449271 0.223542 0.128412
Si Si5 0.375608 0.602857 0.972036
O O1 0.750000 0.500000 0.184164
O O2 0.500000 0.535121 0.250000
O O3 0.466234 0.569757 0.134733
O O4 0.521922 0.321660 0.178906
O O5 0.475438 0.190157 0.915905
O O6 0.250000 0.000000 0.934401
O O7 0.513264 0.936365 0.882997
O O8 0.500000 0.000000 0.000000
O O9 0.237619 0.755145 0.132071
O O10 0.312788 0.670323 0.032809
O O11 0.539879 0.290989 0.070972
O O12 0.250000 0.500000 0.943024
O O13 0.500000 0.500000 0.000000
#
# Coordination Sequence:
#
# PCOD9424453 Si02
#       5
#     8   8   8   8   8
#     4  12  26  46  72  98 128 169 222 275 326 382
#     4  12  26  40  61  95 139 180 217 262 330 398
#     4  12  24  42  64  96 133 172 218 271 325 390
#     4  12  24  41  65  95 133 173 219 270 325 389
#     4  12  22  34  59  95 131 170 214 265 328 387
#
# _framework density 21.734370999999999
#
# number of rings (size 3 to 8) (size 9 to 14) (size 15 to 20)
#    0.000    0.000    6.000    5.400    2.800    0.000 
#    0.000    1.000    0.000    0.000    0.000    0.000 
#    0.000    0.000    0.000    0.000    0.000    0.000 
#
# Total GULP energy -223402.462293 kJ/mol
# GULP energy per Si atom -5585.061557 kJ/mol
# Density = 2.168490 g / cm^3
# Si number density = 21.734371 Si / 1000 Ang^3
#
#
#
# Elastic Constant Matrix: (Units=GPa)
#
#
# Indices 1 2 3 4 5 6 
#
# 1 144.3019 3.3200 18.5487 0.0000 0.0000 0.0000
# 2 3.3200 77.8746 15.5551 0.0000 0.0000 0.0000
# 3 18.5487 15.5551 97.7169 0.0000 0.0000 0.0000
# 4 0.0000 0.0000 0.0000 16.3038 0.0000 0.0000
# 5 0.0000 0.0000 0.0000 0.0000 20.4060 0.0000
# 6 0.0000 0.0000 0.0000 0.0000 0.0000 39.7945
#
#
#
# Elastic Compliance Matrix: (Units=1/GPa)
#
#
# Indices 1 2 3 4 5 6 
#
# 1 0.007103 -0.000035 -0.001343 0.000000 0.000000 0.000000
# 2 -0.000035 0.013263 -0.002105 0.000000 0.000000 0.000000
# 3 -0.001343 -0.002105 0.010824 0.000000 0.000000 0.000000
# 4 0.000000 0.000000 0.000000 0.061335 0.000000 0.000000
# 5 0.000000 0.000000 0.000000 0.000000 0.049005 0.000000
# 6 0.000000 0.000000 0.000000 0.000000 0.000000 0.025129
#
#
# Mechanical properties :
#
#
# Convention : Reuss Voigt Hill
#
# Bulk Modulus (GPa) = 41.27864 43.86013 42.56938
# Shear Modulus (GPa) = 27.51804 34.13217 30.82511
#
# Velocity S-wave (km/s) = 3.56210 3.96716 3.77007
# Velocity P-wave (km/s) = 5.99597 6.41937 6.21128
#
# Compressibility (1/GPa) = 0.02422561
#
# Stress axis : x y z
#
# Youngs Moduli (GPa) = 140.77920 75.39745 92.39086
#
# Poissons Ratio (x) = 0.00261 0.12407
# Poissons Ratio (y) = 0.00487 0.19446
# Poissons Ratio (z) = 0.18905 0.15869
#
# Static dielectric constant tensor:
#      x y z
#    x 1.756520 0.000000 0.000000 
#    y 0.000000 2.153970 0.000000 
#    z 0.000000 0.000000 1.999570 
# 
# From -- ./inp_files/23229.got.cif
#   From: 2010.05.17/outbox.cif.g08.bks.cpg/sg54_12_cif.got.tgz:23229.got - 2010.06.03 13:09:01.
