data_PCOD9424512
_publ_section_title
;
Structure prediction by ZEFSAII (Michael W. Deem and Ramdas Pophale) SiO2 
 PCOD9424512
Probable space group: P C C A
;
_chemical_formula_sum "Si O2"
_cell_formula_units_Z 40
_cell_length_a 13.906236
_cell_length_b 8.897576
_cell_length_c 12.616283
_cell_angle_alpha 90.000000
_cell_angle_beta 90.000000
_cell_angle_gamma 90.000000
_cell_volume 1561.035300
_symmetry_space_group_name_H-M "P C C A"
_symmetry_group_IT_number 54
_symmetry_cell_setting 'orthorhombic'
loop_
_space_group_symop_operation_xyz
x,y,z
1/2-x,-y,z
1/2+x,-y,1/2-z
-x,y,1/2-z
-x,-y,-z
1/2+x,y,-z
1/2-x,y,1/2+z
x,-y,1/2+z
loop_
_atom_site_type_symbol
_atom_site_label
_atom_site_fract_x
_atom_site_fract_y
_atom_site_fract_z
Si Si1 0.913688 0.582023 0.439361
Si Si2 0.750000 0.000000 0.853720
Si Si3 0.536200 0.818175 0.628664
Si Si4 0.000000 0.603625 0.750000
Si Si5 0.619832 0.115170 0.676476
Si Si6 0.235990 0.741643 0.473922
O O1 0.928915 0.496588 0.325249
O O2 0.809969 0.607310 0.492589
O O3 0.000000 0.500000 0.500000
O O4 0.947088 0.754130 0.434234
O O5 0.656584 0.020275 0.778511
O O6 0.736493 0.148501 0.924738
O O7 0.500000 0.790756 0.750000
O O8 0.628754 0.726799 0.578299
O O9 0.557269 0.992749 0.615984
O O10 0.066855 0.726451 0.807958
O O11 0.714506 0.162693 0.617194
#
# Coordination Sequence:
#
# PCOD9424512 Si02
#       6
#     8   4   8   4   8   8
#     4  12  29  51  76 120 171 221 280 349 447 531
#     4  12  24  44  78 122 166 216 288 360 428 490
#     4  12  25  52  83 117 164 228 289 363 434 514
#     4  12  28  50  74 120 166 224 282 342 448 518
#     4  12  25  47  80 121 163 220 289 360 419 518
#     4  12  27  49  80 122 167 220 294 350 438 523
#
# _framework density 25.624019000000001
#
# number of rings (size 3 to 8) (size 9 to 14) (size 15 to 20)
#    0.000    0.000    8.000    1.200    2.800    1.600 
#    0.000    2.000    0.000    0.000    0.000    0.000 
#    0.000    0.000    0.000    0.000    0.000    0.000 
#
# Total GULP energy -222933.091517 kJ/mol
# GULP energy per Si atom -5573.327288 kJ/mol
# Density = 2.556570 g / cm^3
# Si number density = 25.624019 Si / 1000 Ang^3
#
#
#
# Elastic Constant Matrix: (Units=GPa)
#
#
# Indices 1 2 3 4 5 6 
#
# 1 168.1274 86.3414 65.2596 0.0000 0.0000 0.0000
# 2 86.3414 129.3625 42.8129 0.0000 0.0000 0.0000
# 3 65.2596 42.8129 88.7126 0.0000 0.0000 0.0000
# 4 0.0000 0.0000 0.0000 -33.3457 0.0000 0.0000
# 5 0.0000 0.0000 0.0000 0.0000 87.7450 0.0000
# 6 0.0000 0.0000 0.0000 0.0000 0.0000 67.3669
#
#
#
# Elastic Compliance Matrix: (Units=1/GPa)
#
#
# Indices 1 2 3 4 5 6 
#
# 1 0.010817 -0.005458 -0.005323 0.000000 0.000000 0.000000
# 2 -0.005458 0.011953 -0.001754 0.000000 0.000000 0.000000
# 3 -0.005323 -0.001754 0.016035 0.000000 0.000000 0.000000
# 4 0.000000 0.000000 0.000000 -0.029989 0.000000 0.000000
# 5 0.000000 0.000000 0.000000 0.000000 0.011397 0.000000
# 6 0.000000 0.000000 0.000000 0.000000 0.000000 0.014844
#
#
# Mechanical properties :
#
#
# Convention : Reuss Voigt Hill
#
# Bulk Modulus (GPa) = 72.80565 86.11446 79.46005
# Shear Modulus (GPa) = 77.27317 37.13915 57.20616
#
# Velocity S-wave (km/s) = 5.49745 3.81121 4.73008
# Velocity P-wave (km/s) = 8.29281 7.28334 7.80441
#
# Compressibility (1/GPa) = 0.01373520
#
# Stress axis : x y z
#
# Youngs Moduli (GPa) = 92.44656 83.65782 62.36473
#
# Poissons Ratio (x) = 0.45660 0.33199
# Poissons Ratio (y) = 0.50457 0.10937
# Poissons Ratio (z) = 0.49212 0.14671
#
# Static dielectric constant tensor:
#      x y z
#    x 1.830660 0.000000 0.000000 
#    y 0.000000 1.841460 0.000000 
#    z 0.000000 0.000000 2.380050 
# 
# From -- ./inp_files/13955.got.cif
#   From: 2010.05.17/outbox.cif.g08.bks.cpg/sg54_7_cif.got.tgz:13955.got - 2010.06.03 13:09:01.
