data_PCOD9424471
_publ_section_title
;
Structure prediction by ZEFSAII (Michael W. Deem and Ramdas Pophale) SiO2 
 PCOD9424471
Probable space group: P C C A
;
_chemical_formula_sum "Si O2"
_cell_formula_units_Z 32
_cell_length_a 13.615255
_cell_length_b 10.186336
_cell_length_c 9.198451
_cell_angle_alpha 90.000000
_cell_angle_beta 90.000000
_cell_angle_gamma 90.000000
_cell_volume 1275.729142
_symmetry_space_group_name_H-M "P C C A"
_symmetry_group_IT_number 54
_symmetry_cell_setting 'orthorhombic'
loop_
_space_group_symop_operation_xyz
x,y,z
1/2-x,-y,z
1/2+x,-y,1/2-z
-x,y,1/2-z
-x,-y,-z
1/2+x,y,-z
1/2-x,y,1/2+z
x,-y,1/2+z
loop_
_atom_site_type_symbol
_atom_site_label
_atom_site_fract_x
_atom_site_fract_y
_atom_site_fract_z
Si Si1 0.655659 0.759851 0.239046
Si Si2 0.434942 0.134491 0.501846
Si Si3 0.500000 0.332034 0.250000
Si Si4 0.679713 0.619057 0.932175
Si Si5 0.750000 0.000000 0.105855
O O1 0.568892 0.774265 0.355955
O O2 0.750436 0.701397 0.323139
O O3 0.679722 0.909401 0.198731
O O4 0.647125 0.689440 0.081803
O O5 0.458982 0.231009 0.369974
O O6 0.500000 0.000000 0.500000
O O7 0.322878 0.089069 0.484140
O O8 0.415605 0.413418 0.166711
O O9 0.750000 0.500000 0.976087
#
# Coordination Sequence:
#
# PCOD9424471 Si02
#       5
#     8   8   4   8   4
#     4  12  25  49  76 117 167 210 266 342 420 488
#     4  12  26  45  78 126 166 214 261 328 427 517
#     4  12  26  52  78 122 164 214 284 336 414 498
#     4  12  27  52  83 115 164 222 286 344 408 485
#     4  12  22  44  76 118 168 208 256 338 420 500
#
# _framework density 25.083694999999999
#
# number of rings (size 3 to 8) (size 9 to 14) (size 15 to 20)
#    0.000    0.000    5.000    4.500    0.000    3.000 
#    0.000   15.000    0.000    0.000    0.000    0.000 
#    0.000    0.000    0.000    0.000    0.000    0.000 
#
# Total GULP energy -179064.623027 kJ/mol
# GULP energy per Si atom -5595.769470 kJ/mol
# Density = 2.502660 g / cm^3
# Si number density = 25.083695 Si / 1000 Ang^3
#
#
#
# Elastic Constant Matrix: (Units=GPa)
#
#
# Indices 1 2 3 4 5 6 
#
# 1 110.2329 8.5527 74.1665 0.0000 0.0000 0.0000
# 2 8.5527 50.9308 34.4103 0.0000 0.0000 0.0000
# 3 74.1665 34.4103 222.9112 0.0000 0.0000 0.0000
# 4 0.0000 0.0000 0.0000 25.8427 0.0000 0.0000
# 5 0.0000 0.0000 0.0000 0.0000 17.2031 0.0000
# 6 0.0000 0.0000 0.0000 0.0000 0.0000 38.3249
#
#
#
# Elastic Compliance Matrix: (Units=1/GPa)
#
#
# Indices 1 2 3 4 5 6 
#
# 1 0.011713 0.000744 -0.004012 0.000000 0.000000 0.000000
# 2 0.000744 0.021968 -0.003639 0.000000 0.000000 0.000000
# 3 -0.004012 -0.003639 0.006383 0.000000 0.000000 0.000000
# 4 0.000000 0.000000 0.000000 0.038696 0.000000 0.000000
# 5 0.000000 0.000000 0.000000 0.000000 0.058129 0.000000
# 6 0.000000 0.000000 0.000000 0.000000 0.000000 0.026093
#
#
# Mechanical properties :
#
#
# Convention : Reuss Voigt Hill
#
# Bulk Modulus (GPa) = 38.09517 68.70376 53.39947
# Shear Modulus (GPa) = 26.94760 34.07051 30.50905
#
# Velocity S-wave (km/s) = 3.28122 3.68947 3.49132
# Velocity P-wave (km/s) = 5.43833 6.75270 6.13084
#
# Compressibility (1/GPa) = 0.02625005
#
# Stress axis : x y z
#
# Youngs Moduli (GPa) = 85.37248 45.52087 156.67480
#
# Poissons Ratio (x) = -0.03385 0.62859
# Poissons Ratio (y) = -0.06349 0.57007
# Poissons Ratio (z) = 0.34252 0.16563
#
# Static dielectric constant tensor:
#      x y z
#    x 2.008490 0.000000 0.000000 
#    y 0.000000 1.977850 0.000000 
#    z 0.000000 0.000000 2.126050 
# 
# From -- ./inp_files/3291.got.cif
#   From: 2010.05.17/outbox.cif.g08.bks.cpg/sg54_2_cif.got.tgz:3291.got - 2010.06.03 13:09:01.
