data_PCOD9424748
_publ_section_title
;
Structure prediction by ZEFSAII (Michael W. Deem and Ramdas Pophale) SiO2 
 PCOD9424748
Probable space group: P B A M
;
_chemical_formula_sum "Si O2"
_cell_formula_units_Z 48
_cell_length_a 8.519536
_cell_length_b 16.964053
_cell_length_c 15.464925
_cell_angle_alpha 90.000000
_cell_angle_beta 90.000000
_cell_angle_gamma 90.000000
_cell_volume 2235.081589
_symmetry_space_group_name_H-M "P B A M"
_symmetry_group_IT_number 55
_symmetry_cell_setting 'orthorhombic'
loop_
_space_group_symop_operation_xyz
x,y,z
-x,-y,z
1/2+x,1/2-y,-z
1/2-x,1/2+y,-z
-x,-y,-z
x,y,-z
1/2-x,1/2+y,z
1/2+x,1/2-y,z
loop_
_atom_site_type_symbol
_atom_site_label
_atom_site_fract_x
_atom_site_fract_y
_atom_site_fract_z
Si Si1 0.411708 0.381904 0.690829
Si Si2 0.743580 0.949955 0.000000
Si Si3 0.752815 0.206410 0.839608
Si Si4 0.323999 0.023817 0.500000
Si Si5 0.756032 0.948021 0.690895
Si Si6 0.574716 0.591217 0.500000
Si Si7 0.592216 0.619166 0.000000
Si Si8 0.906096 0.369271 0.840384
O O1 0.329619 0.316645 0.747725
O O2 0.583980 0.406471 0.723285
O O3 0.300723 0.459522 0.696614
O O4 0.446801 0.365222 0.589864
O O5 0.638659 0.928305 0.917307
O O6 0.907548 0.900646 0.000000
O O7 0.806215 0.038880 0.000000
O O8 0.777876 0.299273 0.847900
O O9 0.576800 0.171744 0.846141
O O10 0.855428 0.166552 0.915196
O O11 0.276577 0.066490 0.589151
O O12 0.500000 0.000000 0.500000
O O13 0.251208 0.936668 0.500000
O O14 0.618402 0.916387 0.751027
O O15 0.500000 0.500000 0.500000
#
# Coordination Sequence:
#
# PCOD9424748 Si02
#       8
#     8   4   8   4   8   4   4   8
#     4  10  19  37  63  91 124 162 209 258 314 368
#     4  11  24  45  70  95 125 159 202 255 313 375
#     4  12  26  42  63  90 126 168 209 256 311 380
#     4  10  20  32  59  92 129 158 206 260 308 360
#     4  10  20  37  61  92 126 162 207 261 312 368
#     4  10  16  36  59  92 121 166 202 254 314 362
#     4  11  24  45  70  95 123 159 204 255 314 368
#     4  12  26  42  62  90 127 167 208 255 314 376
#
# _framework density 21.475726000000002
#
# number of rings (size 3 to 8) (size 9 to 14) (size 15 to 20)
#    0.000    1.167    3.333    5.000    4.667    5.333 
#    0.000    0.833    0.000    0.000    0.000    0.000 
#    0.000    0.000    0.000    0.000    0.000    0.000 
#
# Total GULP energy -267994.064764 kJ/mol
# GULP energy per Si atom -5583.209683 kJ/mol
# Density = 2.142685 g / cm^3
# Si number density = 21.475726 Si / 1000 Ang^3
#
#
#
# Elastic Constant Matrix: (Units=GPa)
#
#
# Indices 1 2 3 4 5 6 
#
# 1 80.0747 8.3589 14.6892 0.0000 0.0000 0.0000
# 2 8.3589 57.0027 36.9522 0.0000 0.0000 0.0000
# 3 14.6892 36.9522 133.3146 0.0000 0.0000 0.0000
# 4 0.0000 0.0000 0.0000 -37.7923 0.0000 0.0000
# 5 0.0000 0.0000 0.0000 0.0000 30.1374 0.0000
# 6 0.0000 0.0000 0.0000 0.0000 0.0000 34.0993
#
#
#
# Elastic Compliance Matrix: (Units=1/GPa)
#
#
# Indices 1 2 3 4 5 6 
#
# 1 0.012810 -0.001175 -0.001086 0.000000 0.000000 0.000000
# 2 -0.001175 0.021493 -0.005828 0.000000 0.000000 0.000000
# 3 -0.001086 -0.005828 0.009236 0.000000 0.000000 0.000000
# 4 0.000000 0.000000 0.000000 -0.026460 0.000000 0.000000
# 5 0.000000 0.000000 0.000000 0.000000 0.033181 0.000000
# 6 0.000000 0.000000 0.000000 0.000000 0.000000 0.029326
#
#
# Mechanical properties :
#
#
# Convention : Reuss Voigt Hill
#
# Bulk Modulus (GPa) = 36.54638 43.37696 39.96167
# Shear Modulus (GPa) = 47.67139 19.31499 33.49319
#
# Velocity S-wave (km/s) = 4.71657 3.00223 3.95344
# Velocity P-wave (km/s) = 6.83490 5.67978 6.28393
#
# Compressibility (1/GPa) = 0.02736249
#
# Stress axis : x y z
#
# Youngs Moduli (GPa) = 78.06303 46.52599 108.27030
#
# Poissons Ratio (x) = 0.05465 0.11757
# Poissons Ratio (y) = 0.09169 0.63101
# Poissons Ratio (z) = 0.08477 0.27116
#
# Static dielectric constant tensor:
#      x y z
#    x 1.866010 0.000000 0.000000 
#    y 0.000000 1.751070 0.000000 
#    z 0.000000 0.000000 1.791270 
# 
# From -- ./inp_files/17449.got.cif
#   From: 2010.05.17/outbox.cif.g08.bks.cpg/sg55_9_cif.got.tgz:17449.got - 2010.06.03 13:27:54.
