data_PCOD9424157
_publ_section_title
;
Structure prediction by ZEFSAII (Michael W. Deem and Ramdas Pophale) SiO2 
 PCOD9424157
Probable space group: P C C A
;
_chemical_formula_sum "Si O2"
_cell_formula_units_Z 40
_cell_length_a 18.675693
_cell_length_b 11.052366
_cell_length_c 8.688300
_cell_angle_alpha 90.000000
_cell_angle_beta 90.000000
_cell_angle_gamma 90.000000
_cell_volume 1793.357167
_symmetry_space_group_name_H-M "P C C A"
_symmetry_group_IT_number 54
_symmetry_cell_setting 'orthorhombic'
loop_
_space_group_symop_operation_xyz
x,y,z
1/2-x,-y,z
1/2+x,-y,1/2-z
-x,y,1/2-z
-x,-y,-z
1/2+x,y,-z
1/2-x,y,1/2+z
x,-y,1/2+z
loop_
_atom_site_type_symbol
_atom_site_label
_atom_site_fract_x
_atom_site_fract_y
_atom_site_fract_z
Si Si1 0.924451 0.755995 0.337044
Si Si2 0.073686 0.326171 0.323325
Si Si3 0.184383 0.752508 0.590524
Si Si4 0.826411 0.555055 0.168125
Si Si5 0.297689 0.881999 0.781185
O O1 0.937148 0.743086 0.517713
O O2 0.876261 0.643126 0.273224
O O3 0.874254 0.871618 0.300473
O O4 0.000000 0.758253 0.250000
O O5 0.113971 0.247660 0.194066
O O6 0.124799 0.438344 0.359961
O O7 0.000000 0.370046 0.250000
O O8 0.186267 0.630327 0.489483
O O9 0.249324 0.775148 0.706981
O O10 0.189666 0.854918 0.460262
O O11 0.750000 0.500000 0.221237
O O12 0.250000 0.000000 0.761587
#
# Coordination Sequence:
#
# PCOD9424157 Si02
#       5
#     8   8   8   8   8
#     4  11  24  43  67  99 140 182 230 285 340 404
#     4  12  24  40  63  98 144 186 221 267 334 410
#     4  11  24  40  64  98 133 172 226 283 332 404
#     4  11  23  40  64  98 139 186 232 273 329 404
#     4  11  23  44  71  96 126 170 225 286 348 400
#
# _framework density 22.304537
#
# number of rings (size 3 to 8) (size 9 to 14) (size 15 to 20)
#    0.000    0.800    0.000    9.600    0.000    5.600 
#    0.000    2.000    0.000    9.600    0.000    1.400 
#    0.000    0.000    0.000    0.000    0.000    0.000 
#
# Total GULP energy -223722.413309 kJ/mol
# GULP energy per Si atom -5593.060333 kJ/mol
# Density = 2.225377 g / cm^3
# Si number density = 22.304537 Si / 1000 Ang^3
#
#
#
# Elastic Constant Matrix: (Units=GPa)
#
#
# Indices 1 2 3 4 5 6 
#
# 1 185.9940 64.4263 54.9706 0.0000 0.0000 0.0000
# 2 64.4263 84.2282 49.0429 0.0000 0.0000 0.0000
# 3 54.9706 49.0429 151.6831 0.0000 0.0000 0.0000
# 4 0.0000 0.0000 0.0000 -33.6447 0.0000 0.0000
# 5 0.0000 0.0000 0.0000 0.0000 41.8080 0.0000
# 6 0.0000 0.0000 0.0000 0.0000 0.0000 32.4236
#
#
#
# Elastic Compliance Matrix: (Units=1/GPa)
#
#
# Indices 1 2 3 4 5 6 
#
# 1 0.007449 -0.005083 -0.001056 0.000000 0.000000 0.000000
# 2 -0.005083 0.018094 -0.004008 0.000000 0.000000 0.000000
# 3 -0.001056 -0.004008 0.008271 0.000000 0.000000 0.000000
# 4 0.000000 0.000000 0.000000 -0.029722 0.000000 0.000000
# 5 0.000000 0.000000 0.000000 0.000000 0.023919 0.000000
# 6 0.000000 0.000000 0.000000 0.000000 0.000000 0.030842
#
#
# Mechanical properties :
#
#
# Convention : Reuss Voigt Hill
#
# Bulk Modulus (GPa) = 73.96346 84.30944 79.13645
# Shear Modulus (GPa) = 59.76905 25.01506 42.39206
#
# Velocity S-wave (km/s) = 5.18218 3.35255 4.36432
# Velocity P-wave (km/s) = 8.30899 7.27100 7.80726
#
# Compressibility (1/GPa) = 0.01352019
#
# Stress axis : x y z
#
# Youngs Moduli (GPa) = 134.23892 55.26566 120.89805
#
# Poissons Ratio (x) = 0.28092 0.12769
# Poissons Ratio (y) = 0.68235 0.48459
# Poissons Ratio (z) = 0.14178 0.22152
#
# Static dielectric constant tensor:
#      x y z
#    x 1.806540 0.000000 0.000000 
#    y 0.000000 1.893270 0.000000 
#    z 0.000000 0.000000 1.826660 
# 
# From -- ./inp_files/3959.got.cif
#   From: 2010.05.17/outbox.cif.g08.bks.cpg/sg54_2_cif.got.tgz:3959.got - 2010.06.03 13:09:01.
