data_PCOD9424474
_publ_section_title
;
Structure prediction by ZEFSAII (Michael W. Deem and Ramdas Pophale) SiO2 
 PCOD9424474
Probable space group: P C C A
;
_chemical_formula_sum "Si O2"
_cell_formula_units_Z 60
_cell_length_a 25.655229
_cell_length_b 8.780561
_cell_length_c 11.444542
_cell_angle_alpha 90.000000
_cell_angle_beta 90.000000
_cell_angle_gamma 90.000000
_cell_volume 2578.081113
_symmetry_space_group_name_H-M "P C C A"
_symmetry_group_IT_number 54
_symmetry_cell_setting 'orthorhombic'
loop_
_space_group_symop_operation_xyz
x,y,z
1/2-x,-y,z
1/2+x,-y,1/2-z
-x,y,1/2-z
-x,-y,-z
1/2+x,y,-z
1/2-x,y,1/2+z
x,-y,1/2+z
loop_
_atom_site_type_symbol
_atom_site_label
_atom_site_fract_x
_atom_site_fract_y
_atom_site_fract_z
Si Si1 0.612589 0.126348 0.739145
Si Si2 0.766599 0.822808 0.744818
Si Si3 0.624722 0.607477 0.916064
Si Si4 0.466861 0.669186 0.407505
Si Si5 0.086543 0.718184 0.553171
Si Si6 0.500000 0.613167 0.750000
Si Si7 0.234554 0.324540 0.502081
Si Si8 0.604206 0.224154 0.203328
O O1 0.671030 0.185343 0.726933
O O2 0.565550 0.226081 0.683320
O O3 0.603521 0.132492 0.878228
O O4 0.609683 0.955051 0.695605
O O5 0.753052 0.753396 0.874416
O O6 0.746134 0.749879 0.620976
O O7 0.750000 0.000000 0.747558
O O8 0.611572 0.431291 0.885706
O O9 0.671857 0.657633 0.998014
O O10 0.639910 0.694530 0.797508
O O11 0.572429 0.652033 0.985637
O O12 0.523779 0.725068 0.446339
O O13 0.481025 0.507180 0.348606
O O14 0.108842 0.709579 0.424533
O O15 0.451555 0.726155 0.744849
O O16 0.250000 0.500000 0.507693
#
# Coordination Sequence:
#
# PCOD9424474 Si02
#       8
#     8   8   8   8   8   4   8   8
#     4  12  28  47  74 108 154 200 256 307 383 458
#     4  12  28  54  79 111 157 206 255 332 412 464
#     4  12  25  48  75 108 148 196 254 311 376 450
#     4  12  23  48  74 104 153 204 241 304 371 446
#     4  12  26  45  74 108 157 201 244 302 370 450
#     4  12  22  46  70 108 150 206 246 298 364 442
#     4  12  28  49  84 114 150 196 272 336 392 463
#     4  12  28  42  71 110 147 200 253 295 367 450
#
# _framework density 23.273123999999999
#
# number of rings (size 3 to 8) (size 9 to 14) (size 15 to 20)
#    0.000    0.000    5.333    3.600    3.733    6.933 
#    0.000    0.000    0.000    0.000    0.000    0.000 
#    0.000    0.000    0.000    0.000    0.000    0.000 
#
# Total GULP energy -335026.921216 kJ/mol
# GULP energy per Si atom -5583.782020 kJ/mol
# Density = 2.322015 g / cm^3
# Si number density = 23.273124 Si / 1000 Ang^3
#
#
#
# Elastic Constant Matrix: (Units=GPa)
#
#
# Indices 1 2 3 4 5 6 
#
# 1 88.9567 20.7959 32.4060 0.0000 0.0000 0.0000
# 2 20.7959 96.5959 57.4234 0.0000 0.0000 0.0000
# 3 32.4060 57.4234 154.6438 0.0000 0.0000 0.0000
# 4 0.0000 0.0000 0.0000 106.4100 0.0000 0.0000
# 5 0.0000 0.0000 0.0000 0.0000 44.1544 0.0000
# 6 0.0000 0.0000 0.0000 0.0000 0.0000 17.0883
#
#
#
# Elastic Compliance Matrix: (Units=1/GPa)
#
#
# Indices 1 2 3 4 5 6 
#
# 1 0.012323 -0.001435 -0.002050 0.000000 0.000000 0.000000
# 2 -0.001435 0.013452 -0.004694 0.000000 0.000000 0.000000
# 3 -0.002050 -0.004694 0.008639 0.000000 0.000000 0.000000
# 4 0.000000 0.000000 0.000000 0.009398 0.000000 0.000000
# 5 0.000000 0.000000 0.000000 0.000000 0.022648 0.000000
# 6 0.000000 0.000000 0.000000 0.000000 0.000000 0.058520
#
#
# Mechanical properties :
#
#
# Convention : Reuss Voigt Hill
#
# Bulk Modulus (GPa) = 55.37989 62.38301 58.88145
# Shear Modulus (GPa) = 33.93137 48.83528 41.38333
#
# Velocity S-wave (km/s) = 3.82247 4.58575 4.22140
# Velocity P-wave (km/s) = 6.58248 7.40957 7.00824
#
# Compressibility (1/GPa) = 0.01805710
#
# Stress axis : x y z
#
# Youngs Moduli (GPa) = 81.14586 74.33849 115.75172
#
# Poissons Ratio (x) = 0.10665 0.23726
# Poissons Ratio (y) = 0.11641 0.54339
# Poissons Ratio (z) = 0.16633 0.34898
#
# Static dielectric constant tensor:
#      x y z
#    x 2.098910 0.000000 0.000000 
#    y 0.000000 1.783080 0.000000 
#    z 0.000000 0.000000 2.023880 
# 
# From -- ./inp_files/10339.got.cif
#   From: 2010.05.17/outbox.cif.g08.bks.cpg/sg54_6_cif.got.tgz:10339.got - 2010.06.03 13:09:01.
