data_PCOD9424295
_publ_section_title
;
Structure prediction by ZEFSAII (Michael W. Deem and Ramdas Pophale) SiO2 
 PCOD9424295
Probable space group: P C C A
;
_chemical_formula_sum "Si O2"
_cell_formula_units_Z 48
_cell_length_a 18.399975
_cell_length_b 7.763740
_cell_length_c 16.613754
_cell_angle_alpha 90.000000
_cell_angle_beta 90.000000
_cell_angle_gamma 90.000000
_cell_volume 2373.318319
_symmetry_space_group_name_H-M "P C C A"
_symmetry_group_IT_number 54
_symmetry_cell_setting 'orthorhombic'
loop_
_space_group_symop_operation_xyz
x,y,z
1/2-x,-y,z
1/2+x,-y,1/2-z
-x,y,1/2-z
-x,-y,-z
1/2+x,y,-z
1/2-x,y,1/2+z
x,-y,1/2+z
loop_
_atom_site_type_symbol
_atom_site_label
_atom_site_fract_x
_atom_site_fract_y
_atom_site_fract_z
Si Si1 0.711833 0.825153 0.655352
Si Si2 0.306872 0.652565 0.670849
Si Si3 0.965153 0.258749 0.054533
Si Si4 0.026891 0.554432 0.165799
Si Si5 0.549335 0.123058 0.101170
Si Si6 0.798355 0.675053 0.504326
O O1 0.699343 0.732525 0.740519
O O2 0.634113 0.843693 0.612947
O O3 0.763749 0.753675 0.585023
O O4 0.750000 0.000000 0.679732
O O5 0.250000 0.500000 0.671844
O O6 0.387316 0.575791 0.662038
O O7 0.292484 0.755404 0.586442
O O8 0.885308 0.317427 0.022599
O O9 0.998684 0.423415 0.098405
O O10 0.959898 0.083476 0.108076
O O11 0.017723 0.191568 0.983564
O O12 0.000000 0.479119 0.250000
O O13 0.992785 0.745908 0.159366
O O14 0.750000 0.500000 0.497711
#
# Coordination Sequence:
#
# PCOD9424295 Si02
#       6
#     8   8   8   8   8   8
#     4  12  25  45  70  98 144 186 229 295 360 419
#     4  11  27  46  67 106 139 183 239 290 354 428
#     4  11  25  45  73 106 136 186 242 290 356 429
#     4  12  25  44  73 103 143 186 232 297 357 423
#     4  11  24  46  71 102 142 183 238 295 354 422
#     4  11  24  44  73 101 138 188 238 288 355 425
#
# _framework density 20.224847
#
# number of rings (size 3 to 8) (size 9 to 14) (size 15 to 20)
#    0.000    0.667    5.000    2.000    7.000    1.333 
#    3.000    0.000    0.000    0.000    0.000    0.000 
#    0.000    0.000    0.000    0.000    0.000    0.000 
#
# Total GULP energy -267412.018349 kJ/mol
# GULP energy per Si atom -5571.083716 kJ/mol
# Density = 2.017881 g / cm^3
# Si number density = 20.224847 Si / 1000 Ang^3
#
#
#
# Elastic Constant Matrix: (Units=GPa)
#
#
# Indices 1 2 3 4 5 6 
#
# 1 179.4964 58.6211 65.9164 0.0000 0.0000 0.0000
# 2 58.6211 90.4524 49.1968 0.0000 0.0000 0.0000
# 3 65.9164 49.1968 135.7204 0.0000 0.0000 0.0000
# 4 0.0000 0.0000 0.0000 -1.9416 0.0000 0.0000
# 5 0.0000 0.0000 0.0000 0.0000 44.3472 0.0000
# 6 0.0000 0.0000 0.0000 0.0000 0.0000 24.4132
#
#
#
# Elastic Compliance Matrix: (Units=1/GPa)
#
#
# Indices 1 2 3 4 5 6 
#
# 1 0.007641 -0.003654 -0.002386 0.000000 0.000000 0.000000
# 2 -0.003654 0.015518 -0.003850 0.000000 0.000000 0.000000
# 3 -0.002386 -0.003850 0.009923 0.000000 0.000000 0.000000
# 4 0.000000 0.000000 0.000000 -0.515045 0.000000 0.000000
# 5 0.000000 0.000000 0.000000 0.000000 0.022549 0.000000
# 6 0.000000 0.000000 0.000000 0.000000 0.000000 0.040961
#
#
# Mechanical properties :
#
#
# Convention : Reuss Voigt Hill
#
# Bulk Modulus (GPa) = 75.18825 83.68196 79.43510
# Shear Modulus (GPa) = -12.68269 28.82610 8.07170
#
# Velocity S-wave (km/s) = -2.50688 3.77939 1.99991
# Velocity P-wave (km/s) = 5.37379 7.77886 6.68537
#
# Compressibility (1/GPa) = 0.01329995
#
# Stress axis : x y z
#
# Youngs Moduli (GPa) = 130.87534 64.44206 100.77747
#
# Poissons Ratio (x) = 0.23547 0.24050
# Poissons Ratio (y) = 0.47821 0.38803
# Poissons Ratio (z) = 0.31233 0.24812
#
# Static dielectric constant tensor:
#      x y z
#    x 1.672590 0.000000 0.000000 
#    y 0.000000 1.725180 0.000000 
#    z 0.000000 0.000000 1.830980 
# 
# From -- ./inp_files/14148.got.cif
#   From: 2010.05.17/outbox.cif.g08.bks.cpg/sg54_8_cif.got.tgz:14148.got - 2010.06.03 13:09:01.
