data_PCOD9424322
_publ_section_title
;
Structure prediction by ZEFSAII (Michael W. Deem and Ramdas Pophale) SiO2 
 PCOD9424322
Probable space group: P C C A
;
_chemical_formula_sum "Si O2"
_cell_formula_units_Z 40
_cell_length_a 14.536204
_cell_length_b 8.784134
_cell_length_c 14.424956
_cell_angle_alpha 90.000000
_cell_angle_beta 90.000000
_cell_angle_gamma 90.000000
_cell_volume 1841.893259
_symmetry_space_group_name_H-M "P C C A"
_symmetry_group_IT_number 54
_symmetry_cell_setting 'orthorhombic'
loop_
_space_group_symop_operation_xyz
x,y,z
1/2-x,-y,z
1/2+x,-y,1/2-z
-x,y,1/2-z
-x,-y,-z
1/2+x,y,-z
1/2-x,y,1/2+z
x,-y,1/2+z
loop_
_atom_site_type_symbol
_atom_site_label
_atom_site_fract_x
_atom_site_fract_y
_atom_site_fract_z
Si Si1 0.359456 0.831924 0.117776
Si Si2 0.479745 0.677548 0.484163
Si Si3 0.228332 0.675786 0.252507
Si Si4 0.763476 0.323127 0.035065
Si Si5 0.938238 0.846077 0.337350
O O1 0.310948 0.776370 0.211481
O O2 0.384315 0.008108 0.124209
O O3 0.452660 0.741794 0.093701
O O4 0.288435 0.784862 0.036772
O O5 0.500000 0.500000 0.500000
O O6 0.372670 0.702160 0.461259
O O7 0.495297 0.769577 0.579779
O O8 0.250000 0.500000 0.233561
O O9 0.222213 0.695391 0.362590
O O10 0.135804 0.725429 0.200850
O O11 0.750000 0.500000 0.005991
O O12 0.000000 0.892714 0.250000
#
# Coordination Sequence:
#
# PCOD9424322 Si02
#       5
#     8   8   8   8   8
#     4  12  25  49  69 109 151 192 239 305 377 439
#     4  12  25  45  77 103 144 199 254 305 367 446
#     4  11  25  47  75 103 144 192 245 308 363 435
#     4  11  24  46  76 109 144 198 251 307 368 432
#     4  12  28  48  71 110 149 193 243 309 374 449
#
# _framework density 21.716785000000002
#
# number of rings (size 3 to 8) (size 9 to 14) (size 15 to 20)
#    0.000    0.400    4.000    4.200    5.600    0.000 
#    3.600    0.000    0.000    0.000    0.000    0.000 
#    0.000    0.000    0.000    0.000    0.000    0.000 
#
# Total GULP energy -224100.185413 kJ/mol
# GULP energy per Si atom -5602.504635 kJ/mol
# Density = 2.166736 g / cm^3
# Si number density = 21.716785 Si / 1000 Ang^3
#
#
#
# Elastic Constant Matrix: (Units=GPa)
#
#
# Indices 1 2 3 4 5 6 
#
# 1 102.0958 11.7713 -3.8165 0.0000 0.0000 0.0000
# 2 11.7713 123.8163 40.3712 0.0000 0.0000 0.0000
# 3 -3.8165 40.3712 74.3538 0.0000 0.0000 0.0000
# 4 0.0000 0.0000 0.0000 70.9952 0.0000 0.0000
# 5 0.0000 0.0000 0.0000 0.0000 35.7214 0.0000
# 6 0.0000 0.0000 0.0000 0.0000 0.0000 38.9233
#
#
#
# Elastic Compliance Matrix: (Units=1/GPa)
#
#
# Indices 1 2 3 4 5 6 
#
# 1 0.009998 -0.001358 0.001251 0.000000 0.000000 0.000000
# 2 -0.001358 0.009998 -0.005498 0.000000 0.000000 0.000000
# 3 0.001251 -0.005498 0.016499 0.000000 0.000000 0.000000
# 4 0.000000 0.000000 0.000000 0.014085 0.000000 0.000000
# 5 0.000000 0.000000 0.000000 0.000000 0.027994 0.000000
# 6 0.000000 0.000000 0.000000 0.000000 0.000000 0.025692
#
#
# Mechanical properties :
#
#
# Convention : Reuss Voigt Hill
#
# Bulk Modulus (GPa) = 39.55195 44.10198 41.82697
# Shear Modulus (GPa) = 40.35294 45.92399 43.13846
#
# Velocity S-wave (km/s) = 4.31530 4.60355 4.46175
# Velocity P-wave (km/s) = 6.56363 6.97200 6.77089
#
# Compressibility (1/GPa) = 0.02528320
#
# Stress axis : x y z
#
# Youngs Moduli (GPa) = 100.01915 100.01568 60.61026
#
# Poissons Ratio (x) = 0.13585 -0.07581
# Poissons Ratio (y) = 0.13586 0.33326
# Poissons Ratio (z) = -0.12510 0.54993
#
# Static dielectric constant tensor:
#      x y z
#    x 1.793140 0.000000 0.000000 
#    y 0.000000 1.754860 0.000000 
#    z 0.000000 0.000000 1.779740 
# 
# From -- ./inp_files/13181.got.cif
#   From: 2010.05.17/outbox.cif.g08.bks.cpg/sg54_7_cif.got.tgz:13181.got - 2010.06.03 13:09:01.
