data_PCOD9424855
_publ_section_title
;
Structure prediction by ZEFSAII (Michael W. Deem and Ramdas Pophale) SiO2 
 PCOD9424855
Probable space group: P B A M
;
_chemical_formula_sum "Si O2"
_cell_formula_units_Z 48
_cell_length_a 5.379519
_cell_length_b 30.107838
_cell_length_c 13.171854
_cell_angle_alpha 90.000000
_cell_angle_beta 90.000000
_cell_angle_gamma 90.000000
_cell_volume 2133.388377
_symmetry_space_group_name_H-M "P B A M"
_symmetry_group_IT_number 55
_symmetry_cell_setting 'orthorhombic'
loop_
_space_group_symop_operation_xyz
x,y,z
-x,-y,z
1/2+x,1/2-y,-z
1/2-x,1/2+y,-z
-x,-y,-z
x,y,-z
1/2-x,1/2+y,z
1/2+x,1/2-y,z
loop_
_atom_site_type_symbol
_atom_site_label
_atom_site_fract_x
_atom_site_fract_y
_atom_site_fract_z
Si Si1 0.566653 0.766333 0.117302
Si Si2 0.602480 0.280449 0.500000
Si Si3 0.153426 0.938726 0.886847
Si Si4 0.623443 0.451084 0.681834
Si Si5 0.500000 0.000000 0.782458
Si Si6 0.076245 0.357561 0.197500
Si Si7 0.074870 0.143515 0.331136
O O1 0.840868 0.761941 0.164609
O O2 0.467335 0.815864 0.124966
O O3 0.602338 0.752459 0.000000
O O4 0.354453 0.249419 0.500000
O O5 0.597972 0.314751 0.594385
O O6 0.358864 0.900585 0.869165
O O7 0.967687 0.935434 0.793408
O O8 0.288110 0.984363 0.858148
O O9 0.053547 0.936848 0.000000
O O10 0.500000 0.500000 0.656480
O O11 0.566033 0.406694 0.619452
O O12 0.910352 0.462115 0.704517
O O13 0.320129 0.350446 0.267454
O O14 0.827958 0.359057 0.264944
#
# Coordination Sequence:
#
# PCOD9424855 Si02
#       7
#     8   4   8   8   4   8   8
#     4  10  21  36  54  81 117 158 206 257 303 355
#     4  12  28  50  75 105 130 156 196 266 334 406
#     4  10  20  32  51  85 127 173 220 261 302 348
#     4   9  20  37  59  89 127 176 218 266 310 373
#     4  10  17  34  54  81 122 168 220 257 310 346
#     4  11  22  39  62  89 123 166 208 252 310 375
#     4  11  24  44  67  94 127 160 204 258 325 385
#
# _framework density 22.499420000000001
#
# number of rings (size 3 to 8) (size 9 to 14) (size 15 to 20)
#    0.000    1.667    1.667    2.750    0.000    7.667 
#    0.000    2.083    0.000    0.500    0.000    0.000 
#    0.000    0.000    0.000    0.000    0.000    0.000 
#
# Total GULP energy -267419.979215 kJ/mol
# GULP energy per Si atom -5571.249567 kJ/mol
# Density = 2.244821 g / cm^3
# Si number density = 22.499420 Si / 1000 Ang^3
#
#
#
# Elastic Constant Matrix: (Units=GPa)
#
#
# Indices 1 2 3 4 5 6 
#
# 1 130.3651 28.7136 32.8290 0.0000 0.0000 0.0000
# 2 28.7136 137.4767 34.4995 0.0000 0.0000 0.0000
# 3 32.8290 34.4995 63.3607 0.0000 0.0000 0.0000
# 4 0.0000 0.0000 0.0000 22.4664 0.0000 0.0000
# 5 0.0000 0.0000 0.0000 0.0000 12.0205 0.0000
# 6 0.0000 0.0000 0.0000 0.0000 0.0000 36.5383
#
#
#
# Elastic Compliance Matrix: (Units=1/GPa)
#
#
# Indices 1 2 3 4 5 6 
#
# 1 0.008900 -0.000813 -0.004169 0.000000 0.000000 0.000000
# 2 -0.000813 0.008499 -0.004207 0.000000 0.000000 0.000000
# 3 -0.004169 -0.004207 0.020233 0.000000 0.000000 0.000000
# 4 0.000000 0.000000 0.000000 0.044511 0.000000 0.000000
# 5 0.000000 0.000000 0.000000 0.000000 0.083191 0.000000
# 6 0.000000 0.000000 0.000000 0.000000 0.000000 0.027369
#
#
# Mechanical properties :
#
#
# Convention : Reuss Voigt Hill
#
# Bulk Modulus (GPa) = 51.93225 58.14298 55.03762
# Shear Modulus (GPa) = 22.98878 29.88240 26.43559
#
# Velocity S-wave (km/s) = 3.19995 3.64832 3.43147
# Velocity P-wave (km/s) = 6.06503 6.60644 6.34152
#
# Compressibility (1/GPa) = 0.01925586
#
# Stress axis : x y z
#
# Youngs Moduli (GPa) = 112.36567 117.65557 49.42398
#
# Poissons Ratio (x) = 0.09561 0.20603
# Poissons Ratio (y) = 0.09132 0.20792
# Poissons Ratio (z) = 0.46841 0.49495
#
# Static dielectric constant tensor:
#      x y z
#    x 1.887600 0.000000 0.000000 
#    y 0.000000 1.953940 0.000000 
#    z 0.000000 0.000000 1.830690 
# 
# From -- ./inp_files/16674.got.cif
#   From: 2010.05.17/outbox.cif.g08.bks.cpg/sg55_9_cif.got.tgz:16674.got - 2010.06.03 13:27:54.
