data_PCOD9424644
_publ_section_title
;
Structure prediction by ZEFSAII (Michael W. Deem and Ramdas Pophale) SiO2 
 PCOD9424644
Probable space group: P C C A
;
_chemical_formula_sum "Si O2"
_cell_formula_units_Z 64
_cell_length_a 18.000000
_cell_length_b 9.000000
_cell_length_c 21.000000
_cell_angle_alpha 90.000000
_cell_angle_beta 90.000000
_cell_angle_gamma 90.000000
_cell_volume 3402.000000
_symmetry_space_group_name_H-M "P C C A"
_symmetry_group_IT_number 54
_symmetry_cell_setting 'orthorhombic'
loop_
_space_group_symop_operation_xyz
x,y,z
1/2-x,-y,z
1/2+x,-y,1/2-z
-x,y,1/2-z
-x,-y,-z
1/2+x,y,-z
1/2-x,y,1/2+z
x,-y,1/2+z
loop_
_atom_site_type_symbol
_atom_site_label
_atom_site_fract_x
_atom_site_fract_y
_atom_site_fract_z
Si Si1 0.163307 0.463730 0.754415
Si Si2 0.088892 0.856047 0.261944
Si Si3 0.403599 0.909663 0.623518
Si Si4 0.936997 0.048101 0.114990
Si Si5 0.673885 0.923844 0.002958
Si Si6 0.668638 0.567743 0.013193
Si Si7 0.931781 0.401477 0.134027
Si Si8 0.092610 0.448811 0.619650
O O1 0.250000 0.500000 0.765803
O O2 0.137136 0.293590 0.767868
O O3 0.111280 0.558751 0.801290
O O4 0.143217 0.490687 0.680287
O O5 0.114169 0.939120 0.197389
O O6 0.000000 0.821173 0.250000
O O7 0.094103 0.957561 0.324250
O O8 0.345204 0.957223 0.570416
O O9 0.414649 0.730887 0.619762
O O10 0.480149 0.988761 0.606347
O O11 0.938371 0.223851 0.128411
O O12 0.889451 0.023183 0.051520
O O13 0.750000 0.000000 0.021756
O O14 0.677526 0.745774 0.008285
O O15 0.750000 0.500000 0.020601
O O16 0.616986 0.539897 0.074402
O O17 0.629498 0.511856 0.948148
O O18 0.012439 0.477238 0.129819
#
# Coordination Sequence:
#
# PCOD9424644 Si02
#       8
#     8   8   8   8   8   8   8   8
#     4  11  22  37  58  83 112 149 186 228 280 333
#     4   9  19  38  60  80 108 147 183 223 277 333
#     4   9  19  38  59  79 107 144 185 226 275 328
#     4  10  21  36  57  84 112 143 183 230 276 326
#     4  10  22  37  55  81 112 146 185 225 271 330
#     4  10  22  39  57  83 116 148 184 230 283 331
#     4  11  22  36  58  87 113 144 189 233 274 329
#     4  10  21  39  60  83 111 147 190 233 276 332
#
# _framework density 18.812463000000001
#
# number of rings (size 3 to 8) (size 9 to 14) (size 15 to 20)
#    0.000    2.000    0.000    4.125    0.000    8.000 
#    0.000    4.375    0.000    0.000    0.000    0.000 
#    0.000    0.000    0.000    0.000    0.000    0.000 
#
# Total GULP energy -357335.448219 kJ/mol
# GULP energy per Si atom -5583.366378 kJ/mol
# Density = 1.876965 g / cm^3
# Si number density = 18.812463 Si / 1000 Ang^3
#
#
#
# Elastic Constant Matrix: (Units=GPa)
#
#
# Indices 1 2 3 4 5 6 
#
# 1 79.1813 24.5346 12.1141 0.0000 0.0000 0.0000
# 2 24.5346 20.6432 20.3777 0.0000 0.0000 0.0000
# 3 12.1141 20.3777 74.2609 0.0000 0.0000 0.0000
# 4 0.0000 0.0000 0.0000 23.6388 0.0000 0.0000
# 5 0.0000 0.0000 0.0000 0.0000 30.1654 0.0000
# 6 0.0000 0.0000 0.0000 0.0000 0.0000 23.4222
#
#
#
# Elastic Compliance Matrix: (Units=1/GPa)
#
#
# Indices 1 2 3 4 5 6 
#
# 1 0.021135 -0.029783 0.004725 0.000000 0.000000 0.000000
# 2 -0.029783 0.108409 -0.024890 0.000000 0.000000 0.000000
# 3 0.004725 -0.024890 0.019525 0.000000 0.000000 0.000000
# 4 0.000000 0.000000 0.000000 0.042303 0.000000 0.000000
# 5 0.000000 0.000000 0.000000 0.000000 0.033151 0.000000
# 6 0.000000 0.000000 0.000000 0.000000 0.000000 0.042695
#
#
# Mechanical properties :
#
#
# Convention : Reuss Voigt Hill
#
# Bulk Modulus (GPa) = 20.33620 32.01535 26.17578
# Shear Modulus (GPa) = 13.03770 23.24921 18.14345
#
# Velocity S-wave (km/s) = 2.63541 3.51927 3.10891
# Velocity P-wave (km/s) = 4.48263 5.79385 5.17990
#
# Compressibility (1/GPa) = 0.04917339
#
# Stress axis : x y z
#
# Youngs Moduli (GPa) = 47.31546 9.22435 51.21608
#
# Poissons Ratio (x) = 0.27473 -0.24199
# Poissons Ratio (y) = 1.40919 1.27475
# Poissons Ratio (z) = -0.22356 0.22959
#
# Static dielectric constant tensor:
#      x y z
#    x 1.618030 0.000000 0.000000 
#    y 0.000000 1.634810 0.000000 
#    z 0.000000 0.000000 1.666690 
# 
# From -- ./inp_files/21976.got.cif
#   From: 2010.05.17/outbox.ucp.g08.bks.cvg/sg54_11_cif.got.tgz:21976.got - 2010.06.11 16:34:40.
