data_PCOD9424283
_publ_section_title
;
Structure prediction by ZEFSAII (Michael W. Deem and Ramdas Pophale) SiO2 
 PCOD9424283
Probable space group: P C C A
;
_chemical_formula_sum "Si O2"
_cell_formula_units_Z 32
_cell_length_a 18.020494
_cell_length_b 6.216460
_cell_length_c 13.090641
_cell_angle_alpha 90.000000
_cell_angle_beta 90.000000
_cell_angle_gamma 90.000000
_cell_volume 1466.461780
_symmetry_space_group_name_H-M "P C C A"
_symmetry_group_IT_number 54
_symmetry_cell_setting 'orthorhombic'
loop_
_space_group_symop_operation_xyz
x,y,z
1/2-x,-y,z
1/2+x,-y,1/2-z
-x,y,1/2-z
-x,-y,-z
1/2+x,y,-z
1/2-x,y,1/2+z
x,-y,1/2+z
loop_
_atom_site_type_symbol
_atom_site_label
_atom_site_fract_x
_atom_site_fract_y
_atom_site_fract_z
Si Si1 0.584323 0.800912 0.285141
Si Si2 0.173907 0.542317 0.328960
Si Si3 0.179907 0.833124 0.132000
Si Si4 0.088530 0.519367 0.514011
O O1 0.500000 0.803498 0.250000
O O2 0.633383 0.677996 0.201906
O O3 0.595694 0.661477 0.386064
O O4 0.614713 0.029481 0.316286
O O5 0.250000 0.500000 0.386391
O O6 0.197137 0.674322 0.227658
O O7 0.119316 0.639531 0.413355
O O8 0.139655 0.692079 0.042374
O O9 0.250000 0.000000 0.110004
O O10 0.000000 0.500000 0.500000
#
# Coordination Sequence:
#
# PCOD9424283 Si02
#       4
#     8   8   8   8
#     4  11  24  44  68  97 139 180 228 288 349 420
#     4  11  24  45  67  94 139 182 225 282 355 416
#     4  11  26  45  69 100 138 182 236 289 351 423
#     4  11  26  44  68 104 140 180 232 289 360 424
#
# _framework density 21.821231000000001
#
# number of rings (size 3 to 8) (size 9 to 14) (size 15 to 20)
#    0.000    1.000    5.000    0.000    7.000    3.000 
#    0.000    0.000    0.000    0.000    0.000    0.000 
#    0.000    0.000    0.000    0.000    0.000    0.000 
#
# Total GULP energy -178259.453134 kJ/mol
# GULP energy per Si atom -5570.607910 kJ/mol
# Density = 2.177156 g / cm^3
# Si number density = 21.821231 Si / 1000 Ang^3
#
#
#
# Elastic Constant Matrix: (Units=GPa)
#
#
# Indices 1 2 3 4 5 6 
#
# 1 151.4436 39.1632 34.3850 0.0000 0.0000 0.0000
# 2 39.1632 83.4667 17.1602 0.0000 0.0000 0.0000
# 3 34.3850 17.1602 89.6585 0.0000 0.0000 0.0000
# 4 0.0000 0.0000 0.0000 48.4588 0.0000 0.0000
# 5 0.0000 0.0000 0.0000 0.0000 44.3581 0.0000
# 6 0.0000 0.0000 0.0000 0.0000 0.0000 30.1523
#
#
#
# Elastic Compliance Matrix: (Units=1/GPa)
#
#
# Indices 1 2 3 4 5 6 
#
# 1 0.007999 -0.003250 -0.002446 0.000000 0.000000 0.000000
# 2 -0.003250 0.013792 -0.001393 0.000000 0.000000 0.000000
# 3 -0.002446 -0.001393 0.012358 0.000000 0.000000 0.000000
# 4 0.000000 0.000000 0.000000 0.020636 0.000000 0.000000
# 5 0.000000 0.000000 0.000000 0.000000 0.022544 0.000000
# 6 0.000000 0.000000 0.000000 0.000000 0.000000 0.033165
#
#
# Mechanical properties :
#
#
# Convention : Reuss Voigt Hill
#
# Bulk Modulus (GPa) = 50.07280 56.22064 53.14672
# Shear Modulus (GPa) = 38.07217 40.18451 39.12834
#
# Velocity S-wave (km/s) = 4.18153 4.29596 4.23913
# Velocity P-wave (km/s) = 6.80516 7.10121 6.95476
#
# Compressibility (1/GPa) = 0.01997092
#
# Stress axis : x y z
#
# Youngs Moduli (GPa) = 125.01683 72.50392 80.91923
#
# Poissons Ratio (x) = 0.23566 0.19789
# Poissons Ratio (y) = 0.40635 0.11274
# Poissons Ratio (z) = 0.30574 0.10102
#
# Static dielectric constant tensor:
#      x y z
#    x 1.854750 0.000000 0.000000 
#    y 0.000000 1.816000 0.000000 
#    z 0.000000 0.000000 2.942060 
# 
# From -- ./inp_files/9219.got.cif
#   From: 2010.05.17/outbox.cif.g08.bks.cpg/sg54_5_cif.got.tgz:9219.got - 2010.06.03 13:09:01.
