data_PCOD9424565
_publ_section_title
;
Structure prediction by ZEFSAII (Michael W. Deem and Ramdas Pophale) SiO2 
 PCOD9424565
Probable space group: P C C A
;
_chemical_formula_sum "Si O2"
_cell_formula_units_Z 40
_cell_length_a 16.717249
_cell_length_b 8.941389
_cell_length_c 11.380976
_cell_angle_alpha 90.000000
_cell_angle_beta 90.000000
_cell_angle_gamma 90.000000
_cell_volume 1701.176240
_symmetry_space_group_name_H-M "P C C A"
_symmetry_group_IT_number 54
_symmetry_cell_setting 'orthorhombic'
loop_
_space_group_symop_operation_xyz
x,y,z
1/2-x,-y,z
1/2+x,-y,1/2-z
-x,y,1/2-z
-x,-y,-z
1/2+x,y,-z
1/2-x,y,1/2+z
x,-y,1/2+z
loop_
_atom_site_type_symbol
_atom_site_label
_atom_site_fract_x
_atom_site_fract_y
_atom_site_fract_z
Si Si1 0.310266 0.624310 0.786830
Si Si2 0.799862 0.153888 0.113568
Si Si3 0.446714 0.631627 0.951486
Si Si4 0.409063 0.834807 0.612958
Si Si5 0.420249 0.820665 0.178428
O O1 0.250000 0.500000 0.736555
O O2 0.262452 0.711675 0.888682
O O3 0.386280 0.562112 0.856990
O O4 0.347265 0.746078 0.697433
O O5 0.844065 0.179118 0.237008
O O6 0.750000 0.000000 0.108437
O O7 0.866146 0.160559 0.013341
O O8 0.507257 0.748305 0.891421
O O9 0.500000 0.500000 0.000000
O O10 0.410193 0.719157 0.063301
O O11 0.427625 0.004951 0.645409
O O12 0.500000 0.774947 0.250000
#
# Coordination Sequence:
#
# PCOD9424565 Si02
#       5
#     8   8   8   8   8
#     4  12  29  48  76 111 155 198 255 320 394 461
#     4  12  27  48  73 113 150 200 255 320 388 457
#     4  12  28  50  80 108 153 203 262 315 388 474
#     4  12  27  49  77 110 152 203 258 321 387 466
#     4  12  26  48  79 109 149 201 256 320 378 465
#
# _framework density 23.513144
#
# number of rings (size 3 to 8) (size 9 to 14) (size 15 to 20)
#    0.000    0.000    4.000    4.800    8.400    0.800 
#    0.000    0.000    0.000    0.000    0.000    0.000 
#    0.000    0.000    0.000    0.000    0.000    0.000 
#
# Total GULP energy -224108.464198 kJ/mol
# GULP energy per Si atom -5602.711605 kJ/mol
# Density = 2.345963 g / cm^3
# Si number density = 23.513144 Si / 1000 Ang^3
#
#
#
# Elastic Constant Matrix: (Units=GPa)
#
#
# Indices 1 2 3 4 5 6 
#
# 1 79.1750 -1.5202 27.8236 0.0000 0.0000 0.0000
# 2 -1.5202 80.0177 18.2922 0.0000 0.0000 0.0000
# 3 27.8236 18.2922 90.0221 0.0000 0.0000 0.0000
# 4 0.0000 0.0000 0.0000 18.1420 0.0000 0.0000
# 5 0.0000 0.0000 0.0000 0.0000 39.2331 0.0000
# 6 0.0000 0.0000 0.0000 0.0000 0.0000 46.3591
#
#
#
# Elastic Compliance Matrix: (Units=1/GPa)
#
#
# Indices 1 2 3 4 5 6 
#
# 1 0.014306 0.001345 -0.004695 0.000000 0.000000 0.000000
# 2 0.001345 0.013232 -0.003105 0.000000 0.000000 0.000000
# 3 -0.004695 -0.003105 0.013190 0.000000 0.000000 0.000000
# 4 0.000000 0.000000 0.000000 0.055121 0.000000 0.000000
# 5 0.000000 0.000000 0.000000 0.000000 0.025489 0.000000
# 6 0.000000 0.000000 0.000000 0.000000 0.000000 0.021571
#
#
# Mechanical properties :
#
#
# Convention : Reuss Voigt Hill
#
# Bulk Modulus (GPa) = 35.94540 37.60066 36.77303
# Shear Modulus (GPa) = 30.28632 34.38812 32.33722
#
# Velocity S-wave (km/s) = 3.59285 3.82842 3.71250
# Velocity P-wave (km/s) = 5.70368 5.96393 5.83526
#
# Compressibility (1/GPa) = 0.02781997
#
# Stress axis : x y z
#
# Youngs Moduli (GPa) = 69.90086 75.57154 75.81329
#
# Poissons Ratio (x) = -0.10165 0.35594
# Poissons Ratio (y) = -0.09402 0.23536
# Poissons Ratio (z) = 0.32818 0.23461
#
# Static dielectric constant tensor:
#      x y z
#    x 2.082840 0.000000 0.000000 
#    y 0.000000 1.936390 0.000000 
#    z 0.000000 0.000000 1.890790 
# 
# From -- ./inp_files/8706.got.cif
#   From: 2010.05.17/outbox.cif.g08.bks.cpg/sg54_5_cif.got.tgz:8706.got - 2010.06.03 13:09:01.
