data_PCOD9424824
_publ_section_title
;
Structure prediction by ZEFSAII (Michael W. Deem and Ramdas Pophale) SiO2 
 PCOD9424824
Probable space group: P B A M
;
_chemical_formula_sum "Si O2"
_cell_formula_units_Z 32
_cell_length_a 5.298513
_cell_length_b 27.386760
_cell_length_c 12.230763
_cell_angle_alpha 90.000000
_cell_angle_beta 90.000000
_cell_angle_gamma 90.000000
_cell_volume 1774.795059
_symmetry_space_group_name_H-M "P B A M"
_symmetry_group_IT_number 55
_symmetry_cell_setting 'orthorhombic'
loop_
_space_group_symop_operation_xyz
x,y,z
-x,-y,z
1/2+x,1/2-y,-z
1/2-x,1/2+y,-z
-x,-y,-z
x,y,-z
1/2-x,1/2+y,z
1/2+x,1/2-y,z
loop_
_atom_site_type_symbol
_atom_site_label
_atom_site_fract_x
_atom_site_fract_y
_atom_site_fract_z
Si Si1 0.048444 0.108761 0.315341
Si Si2 0.983828 0.221445 0.367803
Si Si3 0.853943 0.051409 0.127386
Si Si4 0.947468 0.554866 0.666135
O O1 0.315517 0.089073 0.356974
O O2 0.014022 0.165907 0.330113
O O3 0.019423 0.092607 0.188356
O O4 0.815976 0.079071 0.370563
O O5 0.984083 0.220633 0.500000
O O6 0.721922 0.245960 0.332104
O O7 0.604070 0.051255 0.202456
O O8 0.809388 0.059140 0.000000
O O9 0.000000 0.000000 0.142617
O O10 0.000000 0.500000 0.627590
#
# Coordination Sequence:
#
# PCOD9424824 Si02
#       4
#     8   8   8   8
#     4  10  19  32  52  76 105 137 167 216 264 300
#     4  10  21  38  60  81  97 124 175 229 270 310
#     4   9  18  30  50  79 109 142 178 207 240 296
#     4  10  17  31  47  75 108 141 170 202 246 304
#
# _framework density 18.030249000000001
#
# number of rings (size 3 to 8) (size 9 to 14) (size 15 to 20)
#    1.500    0.750    2.500    2.250    0.000    1.500 
#    0.000    0.000    0.000    9.750    0.000    0.000 
#    0.000    0.000    0.000    0.000    0.000    0.000 
#
# Total GULP energy -178201.755474 kJ/mol
# GULP energy per Si atom -5568.804859 kJ/mol
# Density = 1.798921 g / cm^3
# Si number density = 18.030249 Si / 1000 Ang^3
#
#
#
# Elastic Constant Matrix: (Units=GPa)
#
#
# Indices 1 2 3 4 5 6 
#
# 1 104.8800 13.3346 12.4900 0.0000 0.0000 0.0000
# 2 13.3346 78.5244 11.0144 0.0000 0.0000 0.0000
# 3 12.4900 11.0144 60.8797 0.0000 0.0000 0.0000
# 4 0.0000 0.0000 0.0000 16.7959 0.0000 0.0000
# 5 0.0000 0.0000 0.0000 0.0000 -25.5699 0.0000
# 6 0.0000 0.0000 0.0000 0.0000 0.0000 34.3770
#
#
#
# Elastic Compliance Matrix: (Units=1/GPa)
#
#
# Indices 1 2 3 4 5 6 
#
# 1 0.009929 -0.001437 -0.001777 0.000000 0.000000 0.000000
# 2 -0.001437 0.013274 -0.002107 0.000000 0.000000 0.000000
# 3 -0.001777 -0.002107 0.017172 0.000000 0.000000 0.000000
# 4 0.000000 0.000000 0.000000 0.059538 0.000000 0.000000
# 5 0.000000 0.000000 0.000000 0.000000 -0.039108 0.000000
# 6 0.000000 0.000000 0.000000 0.000000 0.000000 0.029089
#
#
# Mechanical properties :
#
#
# Convention : Reuss Voigt Hill
#
# Bulk Modulus (GPa) = 33.63206 35.32913 34.48059
# Shear Modulus (GPa) = 45.27065 18.95027 32.11046
#
# Velocity S-wave (km/s) = 5.01624 3.24547 4.22467
# Velocity P-wave (km/s) = 7.22799 5.80353 6.55457
#
# Compressibility (1/GPa) = 0.02973354
#
# Stress axis : x y z
#
# Youngs Moduli (GPa) = 100.71494 75.33289 58.23570
#
# Poissons Ratio (x) = 0.10824 0.10349
# Poissons Ratio (y) = 0.14471 0.12269
# Poissons Ratio (z) = 0.17898 0.15871
#
# Static dielectric constant tensor:
#      x y z
#    x 1.647470 0.000000 0.000000 
#    y 0.000000 1.578350 0.000000 
#    z 0.000000 0.000000 1.635540 
# 
# From -- ./inp_files/11286.got.cif
#   From: 2010.05.17/outbox.cif.g08.bks.cpg/sg55_6_cif.got.tgz:11286.got - 2010.06.03 13:27:54.
