data_PCOD9424139
_publ_section_title
;
Structure prediction by ZEFSAII (Michael W. Deem and Ramdas Pophale) SiO2 
 PCOD9424139
Probable space group: P C C A
;
_chemical_formula_sum "Si O2"
_cell_formula_units_Z 44
_cell_length_a 10.541276
_cell_length_b 12.166998
_cell_length_c 13.414577
_cell_angle_alpha 90.000000
_cell_angle_beta 90.000000
_cell_angle_gamma 90.000000
_cell_volume 1720.495749
_symmetry_space_group_name_H-M "P C C A"
_symmetry_group_IT_number 54
_symmetry_cell_setting 'orthorhombic'
loop_
_space_group_symop_operation_xyz
x,y,z
1/2-x,-y,z
1/2+x,-y,1/2-z
-x,y,1/2-z
-x,-y,-z
1/2+x,y,-z
1/2-x,y,1/2+z
x,-y,1/2+z
loop_
_atom_site_type_symbol
_atom_site_label
_atom_site_fract_x
_atom_site_fract_y
_atom_site_fract_z
Si Si1 0.750000 0.000000 0.423216
Si Si2 0.838932 0.859488 0.082535
Si Si3 0.834216 0.308365 0.876151
Si Si4 0.847437 0.316625 0.109426
Si Si5 0.075404 0.826920 0.620401
Si Si6 0.500000 0.135713 0.250000
Si Si7 0.250000 0.500000 0.257636
O O1 0.727409 0.092664 0.509621
O O2 0.859173 0.054851 0.356331
O O3 0.788264 0.743443 0.119369
O O4 0.898697 0.921104 0.175768
O O5 0.943797 0.847833 0.997802
O O6 0.689711 0.260603 0.871018
O O7 0.920117 0.215491 0.823923
O O8 0.830663 0.418863 0.811976
O O9 0.867560 0.334196 0.991335
O O10 0.840015 0.427169 0.171535
O O11 0.946496 0.228297 0.154566
#
# Coordination Sequence:
#
# PCOD9424139 Si02
#       7
#     4   8   8   8   8   4   4
#     4   8  18  42  74 104 130 194 232 320 406 456
#     4   9  20  39  70 101 141 186 246 301 392 457
#     4  11  24  43  66 101 140 195 252 314 384 458
#     4  11  22  45  68 103 145 199 258 320 370 476
#     4   9  21  42  71 101 139 179 256 315 381 467
#     4  12  20  44  66  96 148 192 230 324 368 462
#     4  12  26  42  68 104 152 204 250 310 392 438
#
# _framework density 25.574024999999999
#
# number of rings (size 3 to 8) (size 9 to 14) (size 15 to 20)
#    1.091    0.727    3.636    0.545    0.000    2.909 
#    3.273    4.545    0.000    0.000    0.000    0.000 
#    0.000    0.000    0.000    0.000    0.000    0.000 
#
# Total GULP energy -245230.011582 kJ/mol
# GULP energy per Si atom -5573.409354 kJ/mol
# Density = 2.551582 g / cm^3
# Si number density = 25.574025 Si / 1000 Ang^3
#
#
#
# Elastic Constant Matrix: (Units=GPa)
#
#
# Indices 1 2 3 4 5 6 
#
# 1 75.7106 16.7734 26.9814 0.0000 0.0000 0.0000
# 2 16.7734 90.8904 27.3282 0.0000 0.0000 0.0000
# 3 26.9814 27.3282 134.3128 0.0000 0.0000 0.0000
# 4 0.0000 0.0000 0.0000 48.3594 0.0000 0.0000
# 5 0.0000 0.0000 0.0000 0.0000 33.9306 0.0000
# 6 0.0000 0.0000 0.0000 0.0000 0.0000 31.7403
#
#
#
# Elastic Compliance Matrix: (Units=1/GPa)
#
#
# Indices 1 2 3 4 5 6 
#
# 1 0.014535 -0.001922 -0.002529 0.000000 0.000000 0.000000
# 2 -0.001922 0.011973 -0.002050 0.000000 0.000000 0.000000
# 3 -0.002529 -0.002050 0.008370 0.000000 0.000000 0.000000
# 4 0.000000 0.000000 0.000000 0.020679 0.000000 0.000000
# 5 0.000000 0.000000 0.000000 0.000000 0.029472 0.000000
# 6 0.000000 0.000000 0.000000 0.000000 0.000000 0.031506
#
#
# Mechanical properties :
#
#
# Convention : Reuss Voigt Hill
#
# Bulk Modulus (GPa) = 45.70987 49.23107 47.47047
# Shear Modulus (GPa) = 36.54184 38.12811 37.33497
#
# Velocity S-wave (km/s) = 3.78413 3.86540 3.82498
# Velocity P-wave (km/s) = 6.08319 6.26210 6.17330
#
# Compressibility (1/GPa) = 0.02187711
#
# Stress axis : x y z
#
# Youngs Moduli (GPa) = 68.79831 83.51868 119.46810
#
# Poissons Ratio (x) = 0.16053 0.30212
# Poissons Ratio (y) = 0.13223 0.24492
# Poissons Ratio (z) = 0.17398 0.17122
#
# Static dielectric constant tensor:
#      x y z
#    x 2.137390 0.000000 0.000000 
#    y 0.000000 2.129990 0.000000 
#    z 0.000000 0.000000 2.042550 
# 
# From -- ./inp_files/12606.got.cif
#   From: 2010.05.17/outbox.cif.g08.bks.cpg/sg54_7_cif.got.tgz:12606.got - 2010.06.03 13:09:01.
