data_PCOD9424015
_publ_section_title
;
Structure prediction by ZEFSAII (Michael W. Deem and Ramdas Pophale) SiO2 
 PCOD9424015
Probable space group: P C C A
;
_chemical_formula_sum "Si O2"
_cell_formula_units_Z 48
_cell_length_a 16.496583
_cell_length_b 5.808324
_cell_length_c 23.257494
_cell_angle_alpha 90.000000
_cell_angle_beta 90.000000
_cell_angle_gamma 90.000000
_cell_volume 2228.474907
_symmetry_space_group_name_H-M "P C C A"
_symmetry_group_IT_number 54
_symmetry_cell_setting 'orthorhombic'
loop_
_space_group_symop_operation_xyz
x,y,z
1/2-x,-y,z
1/2+x,-y,1/2-z
-x,y,1/2-z
-x,-y,-z
1/2+x,y,-z
1/2-x,y,1/2+z
x,-y,1/2+z
loop_
_atom_site_type_symbol
_atom_site_label
_atom_site_fract_x
_atom_site_fract_y
_atom_site_fract_z
Si Si1 0.250000 0.500000 0.217350
Si Si2 0.870135 0.220747 0.854943
Si Si3 0.359843 0.874411 0.237306
Si Si4 0.436305 0.219640 0.329737
Si Si5 0.102631 0.246728 0.513881
Si Si6 0.908123 0.746845 0.038799
Si Si7 0.000000 0.586542 0.750000
O O1 0.176273 0.572210 0.176158
O O2 0.285748 0.709620 0.254012
O O3 0.859736 0.232774 0.922582
O O4 0.966436 0.202644 0.841301
O O5 0.834818 0.009462 0.819478
O O6 0.440582 0.745786 0.215182
O O7 0.392976 0.026832 0.290582
O O8 0.398719 0.251230 0.392227
O O9 0.439026 0.441472 0.288843
O O10 0.123153 0.497503 0.485343
O O11 0.004423 0.251587 0.522610
O O12 0.122182 0.999651 0.483441
#
# Coordination Sequence:
#
# PCOD9424015 Si02
#       7
#     4   8   8   8   8   8   4
#     4  12  26  40  64 100 140 176 226 300 364 424
#     4  11  22  39  64  95 133 174 226 285 355 415
#     4  12  23  40  62  98 139 179 231 285 353 421
#     4  11  21  38  63 100 132 180 226 285 349 413
#     4   9  20  36  58  93 129 170 215 280 339 404
#     4   9  20  35  59  93 131 167 222 278 333 403
#     4  12  20  36  64  96 134 180 224 292 340 420
#
# _framework density 21.539394999999999
#
# number of rings (size 3 to 8) (size 9 to 14) (size 15 to 20)
#    0.000    1.333    5.000    0.500    4.667    1.333 
#    0.000    0.000    0.000    1.000    4.333    0.000 
#    0.000    0.000    0.000    0.000    0.000    0.000 
#
# Total GULP energy -267217.390516 kJ/mol
# GULP energy per Si atom -5567.028969 kJ/mol
# Density = 2.149037 g / cm^3
# Si number density = 21.539395 Si / 1000 Ang^3
#
#
#
# Elastic Constant Matrix: (Units=GPa)
#
#
# Indices 1 2 3 4 5 6 
#
# 1 62.0070 39.9731 41.6877 0.0000 0.0000 0.0000
# 2 39.9731 160.2255 94.3486 0.0000 0.0000 0.0000
# 3 41.6877 94.3486 156.3147 0.0000 0.0000 0.0000
# 4 0.0000 0.0000 0.0000 -26.5940 0.0000 0.0000
# 5 0.0000 0.0000 0.0000 0.0000 5.6865 0.0000
# 6 0.0000 0.0000 0.0000 0.0000 0.0000 39.8150
#
#
#
# Elastic Compliance Matrix: (Units=1/GPa)
#
#
# Indices 1 2 3 4 5 6 
#
# 1 0.020506 -0.002941 -0.003694 0.000000 0.000000 0.000000
# 2 -0.002941 0.010104 -0.005314 0.000000 0.000000 0.000000
# 3 -0.003694 -0.005314 0.010590 0.000000 0.000000 0.000000
# 4 0.000000 0.000000 0.000000 -0.037602 0.000000 0.000000
# 5 0.000000 0.000000 0.000000 0.000000 0.175855 0.000000
# 6 0.000000 0.000000 0.000000 0.000000 0.000000 0.025116
#
#
# Mechanical properties :
#
#
# Convention : Reuss Voigt Hill
#
# Bulk Modulus (GPa) = 57.79477 81.17400 69.48438
# Shear Modulus (GPa) = 21.34605 17.28401 19.31503
#
# Velocity S-wave (km/s) = 3.15147 2.83581 2.99779
# Velocity P-wave (km/s) = 6.33504 6.96351 6.65670
#
# Compressibility (1/GPa) = 0.01730260
#
# Stress axis : x y z
#
# Youngs Moduli (GPa) = 48.76523 98.96772 94.42710
#
# Poissons Ratio (x) = 0.29105 0.34880
# Poissons Ratio (y) = 0.14341 0.50183
# Poissons Ratio (z) = 0.18013 0.52596
#
# Static dielectric constant tensor:
#      x y z
#    x 1.801980 0.000000 0.000000 
#    y 0.000000 1.954800 0.000000 
#    z 0.000000 0.000000 1.728510 
# 
# From -- ./inp_files/24618.got.cif
#   From: 2010.05.17/outbox.cif.g08.bks.cpg/sg54_13_cif.got.tgz:24618.got - 2010.06.03 13:09:01.
