data_PCOD9424878
_publ_section_title
;
Structure prediction by ZEFSAII (Michael W. Deem and Ramdas Pophale) SiO2 
 PCOD9424878
Probable space group: P B A M
;
_chemical_formula_sum "Si O2"
_cell_formula_units_Z 36
_cell_length_a 14.072428
_cell_length_b 11.673239
_cell_length_c 8.613143
_cell_angle_alpha 90.000000
_cell_angle_beta 90.000000
_cell_angle_gamma 90.000000
_cell_volume 1414.888023
_symmetry_space_group_name_H-M "P B A M"
_symmetry_group_IT_number 55
_symmetry_cell_setting 'orthorhombic'
loop_
_space_group_symop_operation_xyz
x,y,z
-x,-y,z
1/2+x,1/2-y,-z
1/2-x,1/2+y,-z
-x,-y,-z
x,y,-z
1/2-x,1/2+y,z
1/2+x,1/2-y,z
loop_
_atom_site_type_symbol
_atom_site_label
_atom_site_fract_x
_atom_site_fract_y
_atom_site_fract_z
Si Si1 0.000000 0.500000 0.250503
Si Si2 0.135772 0.302884 0.326692
Si Si3 0.205601 0.978045 0.688769
Si Si4 0.971040 0.150237 0.315912
Si Si5 0.839591 0.337151 0.172408
O O1 0.060148 0.406437 0.341994
O O2 0.079055 0.567091 0.157114
O O3 0.163973 0.264128 0.500000
O O4 0.226178 0.371116 0.256706
O O5 0.068536 0.205342 0.249797
O O6 0.210643 0.978974 0.500000
O O7 0.095142 0.957430 0.733960
O O8 0.251516 0.094554 0.753601
O O9 0.987505 0.137574 0.500000
O O10 0.891765 0.248666 0.285702
O O11 0.818867 0.291388 0.000000
#
# Coordination Sequence:
#
# PCOD9424878 Si02
#       5
#     4   8   8   8   8
#     4   8  14  24  38  60  87 110 131 162 211 262
#     4   8  13  23  41  63  84 106 135 171 209 247
#     4   9  17  29  45  64  86 112 141 173 209 249
#     4   9  17  29  45  64  86 112 141 173 209 249
#     4  10  18  27  42  64  89 113 138 171 211 254
#
# _framework density 25.443709999999999
#
# number of rings (size 3 to 8) (size 9 to 14) (size 15 to 20)
#    0.000    3.111    0.000    1.333    0.000    6.222 
#    0.000    0.000    0.000    1.333    0.000    9.333 
#    0.000    0.000    0.000    0.000    0.000    0.000 
#
# Total GULP energy -200558.289708 kJ/mol
# GULP energy per Si atom -5571.063603 kJ/mol
# Density = 2.538580 g / cm^3
# Si number density = 25.443710 Si / 1000 Ang^3
#
#
#
# Elastic Constant Matrix: (Units=GPa)
#
#
# Indices 1 2 3 4 5 6 
#
# 1 178.5657 13.2198 7.8660 0.0000 0.0000 0.0000
# 2 13.2198 76.2658 -1.0625 0.0000 0.0000 0.0000
# 3 7.8660 -1.0625 39.2556 0.0000 0.0000 0.0000
# 4 0.0000 0.0000 0.0000 9.6343 0.0000 0.0000
# 5 0.0000 0.0000 0.0000 0.0000 -36.2763 0.0000
# 6 0.0000 0.0000 0.0000 0.0000 0.0000 51.7448
#
#
#
# Elastic Compliance Matrix: (Units=1/GPa)
#
#
# Indices 1 2 3 4 5 6 
#
# 1 0.005727 -0.001009 -0.001175 0.000000 0.000000 0.000000
# 2 -0.001009 0.013295 0.000562 0.000000 0.000000 0.000000
# 3 -0.001175 0.000562 0.025725 0.000000 0.000000 0.000000
# 4 0.000000 0.000000 0.000000 0.103796 0.000000 0.000000
# 5 0.000000 0.000000 0.000000 0.000000 -0.027566 0.000000
# 6 0.000000 0.000000 0.000000 0.000000 0.000000 0.019326
#
#
# Mechanical properties :
#
#
# Convention : Reuss Voigt Hill
#
# Bulk Modulus (GPa) = 24.09494 37.12597 30.61045
# Shear Modulus (GPa) = 31.77045 23.29149 27.53097
#
# Velocity S-wave (km/s) = 3.53747 3.02886 3.29300
# Velocity P-wave (km/s) = 5.11618 5.18219 5.14929
#
# Compressibility (1/GPa) = 0.04150250
#
# Stress axis : x y z
#
# Youngs Moduli (GPa) = 174.62275 75.21753 38.87314
#
# Poissons Ratio (x) = 0.07590 0.04567
# Poissons Ratio (y) = 0.17620 -0.02185
# Poissons Ratio (z) = 0.20515 -0.04227
#
# Static dielectric constant tensor:
#      x y z
#    x 2.038060 0.000000 0.000000 
#    y 0.000000 2.180260 0.000000 
#    z 0.000000 0.000000 2.017260 
# 
# From -- ./inp_files/5088.got.cif
#   From: 2010.05.17/outbox.cif.g08.bks.cpg/sg55_3_cif.got.tgz:5088.got - 2010.06.03 13:27:54.
