data_PCOD9424699
_publ_section_title
;
Structure prediction by ZEFSAII (Michael W. Deem and Ramdas Pophale) SiO2 
 PCOD9424699
Probable space group: P B A M
;
_chemical_formula_sum "Si O2"
_cell_formula_units_Z 42
_cell_length_a 13.860453
_cell_length_b 5.366062
_cell_length_c 23.315903
_cell_angle_alpha 90.000000
_cell_angle_beta 90.000000
_cell_angle_gamma 90.000000
_cell_volume 1734.144771
_symmetry_space_group_name_H-M "P B A M"
_symmetry_group_IT_number 55
_symmetry_cell_setting 'orthorhombic'
loop_
_space_group_symop_operation_xyz
x,y,z
-x,-y,z
1/2+x,1/2-y,-z
1/2-x,1/2+y,-z
-x,-y,-z
x,y,-z
1/2-x,1/2+y,z
1/2+x,1/2-y,z
loop_
_atom_site_type_symbol
_atom_site_label
_atom_site_fract_x
_atom_site_fract_y
_atom_site_fract_z
Si Si1 0.197212 0.865868 0.000000
Si Si2 0.314433 0.240429 0.377054
Si Si3 0.910048 0.864088 0.096827
Si Si4 0.870474 0.138407 0.254626
Si Si5 0.186847 0.826422 0.500000
Si Si6 0.000000 0.500000 0.000000
Si Si7 0.649230 0.138886 0.790055
O O1 0.141191 0.926868 0.941946
O O2 0.277664 0.078601 0.000000
O O3 0.235813 0.467970 0.374724
O O4 0.377206 0.279073 0.320400
O O5 0.363978 0.277998 0.439090
O O6 0.845693 0.733112 0.144587
O O7 0.000000 0.000000 0.125971
O O8 0.949515 0.672904 0.050131
O O9 0.899572 0.370310 0.215166
O O10 0.755708 0.108265 0.237377
O O11 0.905141 0.858349 0.244215
O O12 0.269989 0.607882 0.500000
#
# Coordination Sequence:
#
# PCOD9424699 Si02
#       7
#     4   8   8   8   4   2   8
#     4  11  28  43  68  94 114 145 188 243 279 339
#     4  10  14  26  39  65 105 150 187 233 282 338
#     4  11  27  45  66  86 124 156 191 234 302 358
#     4  10  18  33  50  83 112 144 184 247 288 324
#     4   8  16  20  36  58  94 152 198 215 271 352
#     4  10  24  48  64  78 108 154 180 226 290 352
#     4  10  21  33  57  77 107 144 188 224 282 344
#
# _framework density 24.219434
#
# number of rings (size 3 to 8) (size 9 to 14) (size 15 to 20)
#    0.000    1.905    3.810    1.143   13.333    0.000 
#    0.000    0.000    0.000    0.000    0.000    0.000 
#    0.000    0.000    0.000    9.429    0.000    0.381 
#
# Total GULP energy -234137.779295 kJ/mol
# GULP energy per Si atom -5574.709031 kJ/mol
# Density = 2.416431 g / cm^3
# Si number density = 24.219434 Si / 1000 Ang^3
#
#
#
# Elastic Constant Matrix: (Units=GPa)
#
#
# Indices 1 2 3 4 5 6 
#
# 1 29.2645 28.9233 11.2023 0.0000 0.0000 0.0000
# 2 28.9233 140.9580 -12.0900 0.0000 0.0000 0.0000
# 3 11.2023 -12.0900 155.0347 0.0000 0.0000 0.0000
# 4 0.0000 0.0000 0.0000 68.6452 0.0000 0.0000
# 5 0.0000 0.0000 0.0000 0.0000 12.2779 0.0000
# 6 0.0000 0.0000 0.0000 0.0000 0.0000 34.0457
#
#
#
# Elastic Compliance Matrix: (Units=1/GPa)
#
#
# Indices 1 2 3 4 5 6 
#
# 1 0.045220 -0.009623 -0.004018 0.000000 0.000000 0.000000
# 2 -0.009623 0.009190 0.001412 0.000000 0.000000 0.000000
# 3 -0.004018 0.001412 0.006851 0.000000 0.000000 0.000000
# 4 0.000000 0.000000 0.000000 0.014568 0.000000 0.000000
# 5 0.000000 0.000000 0.000000 0.000000 0.081447 0.000000
# 6 0.000000 0.000000 0.000000 0.000000 0.000000 0.029372
#
#
# Mechanical properties :
#
#
# Convention : Reuss Voigt Hill
#
# Bulk Modulus (GPa) = 27.17217 42.36982 34.77099
# Shear Modulus (GPa) = 22.38398 42.80855 32.59627
#
# Velocity S-wave (km/s) = 3.04339 4.20876 3.67259
# Velocity P-wave (km/s) = 4.85728 6.41485 5.68962
#
# Compressibility (1/GPa) = 0.03680236
#
# Stress axis : x y z
#
# Youngs Moduli (GPa) = 22.11393 108.81325 145.97248
#
# Poissons Ratio (x) = 1.04716 0.58651
# Poissons Ratio (y) = 0.21281 -0.20612
# Poissons Ratio (z) = 0.08885 -0.15365
#
# Static dielectric constant tensor:
#      x y z
#    x 2.152510 0.000000 0.000000 
#    y 0.000000 1.977410 0.000000 
#    z 0.000000 0.000000 1.896510 
# 
# From -- ./inp_files/22325.got.cif
#   From: 2010.05.17/outbox.cif.g08.bks.cpg/sg55_12_cif.got.tgz:22325.got - 2010.06.03 13:27:54.
