data_PCOD9424625
_publ_section_title
;
Structure prediction by ZEFSAII (Michael W. Deem and Ramdas Pophale) SiO2 
 PCOD9424625
Probable space group: P C C A
;
_chemical_formula_sum "Si O2"
_cell_formula_units_Z 48
_cell_length_a 27.000000
_cell_length_b 6.000000
_cell_length_c 15.000000
_cell_angle_alpha 90.000000
_cell_angle_beta 90.000000
_cell_angle_gamma 90.000000
_cell_volume 2430.000000
_symmetry_space_group_name_H-M "P C C A"
_symmetry_group_IT_number 54
_symmetry_cell_setting 'orthorhombic'
loop_
_space_group_symop_operation_xyz
x,y,z
1/2-x,-y,z
1/2+x,-y,1/2-z
-x,y,1/2-z
-x,-y,-z
1/2+x,y,-z
1/2-x,y,1/2+z
x,-y,1/2+z
loop_
_atom_site_type_symbol
_atom_site_label
_atom_site_fract_x
_atom_site_fract_y
_atom_site_fract_z
Si Si1 0.121723 0.924812 0.900235
Si Si2 0.707404 0.352814 0.676942
Si Si3 0.875120 0.055935 0.395927
Si Si4 0.441347 0.309148 0.748754
Si Si5 0.127286 0.699974 0.253567
Si Si6 0.271084 0.753881 0.127174
O O1 0.175308 0.805832 0.886364
O O2 0.082489 0.777208 0.842684
O O3 0.123268 0.147587 0.840959
O O4 0.111475 0.974662 0.004199
O O5 0.750000 0.500000 0.631379
O O6 0.668483 0.519240 0.723379
O O7 0.730530 0.235760 0.764204
O O8 0.917166 0.172315 0.334165
O O9 0.828730 0.225387 0.401698
O O10 0.859463 0.848102 0.332478
O O11 0.500000 0.286298 0.750000
O O12 0.423020 0.563104 0.737381
O O13 0.250000 0.500000 0.104782
O O14 0.250000 0.000000 0.095455
#
# Coordination Sequence:
#
# PCOD9424625 Si02
#       6
#     8   8   8   8   8   8
#     4  10  23  40  63  96 129 169 221 283 346 411
#     4  10  20  37  62  87 128 176 225 268 333 408
#     4  11  22  42  66  92 139 170 223 288 346 410
#     4  10  23  43  66  94 124 174 229 283 360 421
#     4  10  20  42  61  87 127 174 213 286 344 408
#     4  11  22  39  68  96 133 185 230 275 344 414
#
# _framework density 19.753086
#
# number of rings (size 3 to 8) (size 9 to 14) (size 15 to 20)
#    0.000    1.667    5.000    2.000    0.000    6.000 
#    3.000    2.500    0.000    0.000    0.000    0.000 
#    0.000    0.000    0.000    0.000    0.000    0.000 
#
# Total GULP energy -267715.874905 kJ/mol
# GULP energy per Si atom -5577.414061 kJ/mol
# Density = 1.970813 g / cm^3
# Si number density = 19.753086 Si / 1000 Ang^3
#
#
#
# Elastic Constant Matrix: (Units=GPa)
#
#
# Indices 1 2 3 4 5 6 
#
# 1 126.3226 40.9189 25.6355 0.0000 0.0000 0.0000
# 2 40.9189 119.6951 35.7047 0.0000 0.0000 0.0000
# 3 25.6355 35.7047 141.5905 0.0000 0.0000 0.0000
# 4 0.0000 0.0000 0.0000 10.1416 0.0000 0.0000
# 5 0.0000 0.0000 0.0000 0.0000 17.1396 0.0000
# 6 0.0000 0.0000 0.0000 0.0000 0.0000 26.8780
#
#
#
# Elastic Compliance Matrix: (Units=1/GPa)
#
#
# Indices 1 2 3 4 5 6 
#
# 1 0.009013 -0.002805 -0.000924 0.000000 0.000000 0.000000
# 2 -0.002805 0.009907 -0.001990 0.000000 0.000000 0.000000
# 3 -0.000924 -0.001990 0.007732 0.000000 0.000000 0.000000
# 4 0.000000 0.000000 0.000000 0.098603 0.000000 0.000000
# 5 0.000000 0.000000 0.000000 0.000000 0.058344 0.000000
# 6 0.000000 0.000000 0.000000 0.000000 0.000000 0.037205
#
#
# Mechanical properties :
#
#
# Convention : Reuss Voigt Hill
#
# Bulk Modulus (GPa) = 65.73909 65.79182 65.76546
# Shear Modulus (GPa) = 21.06901 29.85512 25.46206
#
# Velocity S-wave (km/s) = 3.26946 3.89191 3.59418
# Velocity P-wave (km/s) = 6.89965 7.31952 7.11268
#
# Compressibility (1/GPa) = 0.01521165
#
# Stress axis : x y z
#
# Youngs Moduli (GPa) = 110.95677 100.93566 129.33437
#
# Poissons Ratio (x) = 0.28315 0.11955
# Poissons Ratio (y) = 0.31127 0.25743
# Poissons Ratio (z) = 0.10256 0.20090
#
# Static dielectric constant tensor:
#      x y z
#    x 1.740350 0.000000 0.000000 
#    y 0.000000 1.767920 0.000000 
#    z 0.000000 0.000000 1.658550 
# 
# From -- ./inp_files/15130.got.cif
#   From: 2010.05.17/outbox.ucp.g08.bks.cvg/sg54_8_cif.got.tgz:15130.got - 2010.06.11 16:34:40.
