data_PCOD9424387
_publ_section_title
;
Structure prediction by ZEFSAII (Michael W. Deem and Ramdas Pophale) SiO2 
 PCOD9424387
Probable space group: P C C A
;
_chemical_formula_sum "Si O2"
_cell_formula_units_Z 36
_cell_length_a 19.881992
_cell_length_b 6.118092
_cell_length_c 12.443528
_cell_angle_alpha 90.000000
_cell_angle_beta 90.000000
_cell_angle_gamma 90.000000
_cell_volume 1513.628957
_symmetry_space_group_name_H-M "P C C A"
_symmetry_group_IT_number 54
_symmetry_cell_setting 'orthorhombic'
loop_
_space_group_symop_operation_xyz
x,y,z
1/2-x,-y,z
1/2+x,-y,1/2-z
-x,y,1/2-z
-x,-y,-z
1/2+x,y,-z
1/2-x,y,1/2+z
x,-y,1/2+z
loop_
_atom_site_type_symbol
_atom_site_label
_atom_site_fract_x
_atom_site_fract_y
_atom_site_fract_z
Si Si1 0.296358 0.178047 0.342110
Si Si2 0.485133 0.254042 0.632910
Si Si3 0.899386 0.077655 0.009654
Si Si4 0.250000 0.500000 0.509297
Si Si5 0.864755 0.576431 0.343276
O O1 0.247813 0.296496 0.427975
O O2 0.332693 0.359891 0.269934
O O3 0.250000 0.000000 0.281668
O O4 0.354117 0.048588 0.405376
O O5 0.500000 0.151503 0.750000
O O6 0.556792 0.263283 0.572723
O O7 0.437896 0.463529 0.657026
O O8 0.444171 0.101398 0.551936
O O9 0.865033 0.201739 0.911767
O O10 0.188365 0.560558 0.587251
#
# Coordination Sequence:
#
# PCOD9424387 Si02
#       5
#     8   8   8   4   8
#     4  12  27  46  77 111 149 200 252 311 380 458
#     4  11  26  45  73 106 146 193 247 301 372 448
#     4  11  25  48  72 105 152 192 245 308 374 441
#     4  12  26  46  72 110 148 192 246 316 376 444
#     4  12  27  44  75 105 148 190 247 306 375 438
#
# _framework density 23.783899999999999
#
# number of rings (size 3 to 8) (size 9 to 14) (size 15 to 20)
#    0.000    0.444    4.444    2.667    6.222    8.000 
#    0.000    0.000    0.000    0.000    0.000    0.000 
#    0.000    0.000    0.000    0.000    0.000    0.000 
#
# Total GULP energy -201049.497178 kJ/mol
# GULP energy per Si atom -5584.708255 kJ/mol
# Density = 2.372977 g / cm^3
# Si number density = 23.783900 Si / 1000 Ang^3
#
#
#
# Elastic Constant Matrix: (Units=GPa)
#
#
# Indices 1 2 3 4 5 6 
#
# 1 69.6881 29.1654 50.3284 0.0000 0.0000 0.0000
# 2 29.1654 62.1117 30.4828 0.0000 0.0000 0.0000
# 3 50.3284 30.4828 96.4396 0.0000 0.0000 0.0000
# 4 0.0000 0.0000 0.0000 42.9224 0.0000 0.0000
# 5 0.0000 0.0000 0.0000 0.0000 40.5626 0.0000
# 6 0.0000 0.0000 0.0000 0.0000 0.0000 20.1401
#
#
#
# Elastic Compliance Matrix: (Units=1/GPa)
#
#
# Indices 1 2 3 4 5 6 
#
# 1 0.024954 -0.006304 -0.011030 0.000000 0.000000 0.000000
# 2 -0.006304 0.020649 -0.003237 0.000000 0.000000 0.000000
# 3 -0.011030 -0.003237 0.017148 0.000000 0.000000 0.000000
# 4 0.000000 0.000000 0.000000 0.023298 0.000000 0.000000
# 5 0.000000 0.000000 0.000000 0.000000 0.024653 0.000000
# 6 0.000000 0.000000 0.000000 0.000000 0.000000 0.049652
#
#
# Mechanical properties :
#
#
# Convention : Reuss Voigt Hill
#
# Bulk Modulus (GPa) = 46.27647 49.79918 48.03783
# Shear Modulus (GPa) = 23.95798 28.60921 26.28359
#
# Velocity S-wave (km/s) = 3.17727 3.47202 3.32791
# Velocity P-wave (km/s) = 5.74103 6.08744 5.91677
#
# Compressibility (1/GPa) = 0.02160925
#
# Stress axis : x y z
#
# Youngs Moduli (GPa) = 40.07419 48.42898 58.31472
#
# Poissons Ratio (x) = 0.30531 0.64320
# Poissons Ratio (y) = 0.25264 0.18875
# Poissons Ratio (z) = 0.44201 0.15675
#
# Static dielectric constant tensor:
#      x y z
#    x 2.033560 0.000000 0.000000 
#    y 0.000000 1.917490 0.000000 
#    z 0.000000 0.000000 1.867940 
# 
# From -- ./inp_files/9720.got.cif
#   From: 2010.05.17/outbox.cif.g08.bks.cpg/sg54_5_cif.got.tgz:9720.got - 2010.06.03 13:09:01.
