data_PCOD9424013
_publ_section_title
;
Structure prediction by ZEFSAII (Michael W. Deem and Ramdas Pophale) SiO2 
 PCOD9424013
Probable space group: P C C A
;
_chemical_formula_sum "Si O2"
_cell_formula_units_Z 60
_cell_length_a 9.239576
_cell_length_b 12.744009
_cell_length_c 24.244617
_cell_angle_alpha 90.000000
_cell_angle_beta 90.000000
_cell_angle_gamma 90.000000
_cell_volume 2854.785219
_symmetry_space_group_name_H-M "P C C A"
_symmetry_group_IT_number 54
_symmetry_cell_setting 'orthorhombic'
loop_
_space_group_symop_operation_xyz
x,y,z
1/2-x,-y,z
1/2+x,-y,1/2-z
-x,y,1/2-z
-x,-y,-z
1/2+x,y,-z
1/2-x,y,1/2+z
x,-y,1/2+z
loop_
_atom_site_type_symbol
_atom_site_label
_atom_site_fract_x
_atom_site_fract_y
_atom_site_fract_z
Si Si1 0.750000 0.000000 0.129708
Si Si2 0.270011 0.264871 0.056985
Si Si3 0.505070 0.318717 0.880124
Si Si4 0.999637 0.871745 0.401769
Si Si5 0.791412 0.302018 0.564811
Si Si6 0.867250 0.182555 0.211719
Si Si7 0.984159 0.464536 0.936103
Si Si8 0.645025 0.899029 0.784414
O O1 0.609230 0.031161 0.093863
O O2 0.809282 0.093235 0.169396
O O3 0.149952 0.255550 0.104672
O O4 0.380002 0.166895 0.054896
O O5 0.365076 0.371232 0.065570
O O6 0.187364 0.277510 0.999469
O O7 0.376837 0.295288 0.923334
O O8 0.431842 0.280334 0.823177
O O9 0.543910 0.439639 0.894450
O O10 0.910272 0.879622 0.345679
O O11 0.115822 0.778104 0.399546
O O12 0.862002 0.412970 0.577812
O O13 0.733974 0.194201 0.254289
O O14 0.000000 0.147026 0.250000
O O15 0.000000 0.500000 0.000000
O O16 0.500000 0.916736 0.750000
O O17 0.750000 0.000000 0.784234
#
# Coordination Sequence:
#
# PCOD9424013 Si02
#       8
#     4   8   8   8   8   8   8   8
#     4  12  22  44  68  94 130 168 234 276 334 398
#     4  11  23  38  64 100 134 173 223 277 334 402
#     4  12  22  38  63 101 140 163 218 282 338 394
#     4  11  24  41  65  96 133 174 224 279 338 400
#     4  11  21  41  65  97 133 176 220 276 334 395
#     4  12  25  42  67  98 131 174 218 282 341 395
#     4  11  21  37  68  98 132 170 221 275 327 391
#     4  12  21  39  67  96 125 168 230 282 333 391
#
# _framework density 21.017341999999999
#
# number of rings (size 3 to 8) (size 9 to 14) (size 15 to 20)
#    0.000    0.533    6.000    3.600    0.000    0.000 
#    0.000    0.667    1.467   12.800    0.000    0.000 
#    0.000    0.000    0.000    0.000    0.000    0.000 
#
# Total GULP energy -334674.974969 kJ/mol
# GULP energy per Si atom -5577.916249 kJ/mol
# Density = 2.096951 g / cm^3
# Si number density = 21.017342 Si / 1000 Ang^3
#
#
#
# Elastic Constant Matrix: (Units=GPa)
#
#
# Indices 1 2 3 4 5 6 
#
# 1 143.3340 29.3560 34.2396 0.0000 0.0000 0.0000
# 2 29.3560 45.6928 29.8522 0.0000 0.0000 0.0000
# 3 34.2396 29.8522 48.5331 0.0000 0.0000 0.0000
# 4 0.0000 0.0000 0.0000 2.5846 0.0000 0.0000
# 5 0.0000 0.0000 0.0000 0.0000 36.6144 0.0000
# 6 0.0000 0.0000 0.0000 0.0000 0.0000 40.3146
#
#
#
# Elastic Compliance Matrix: (Units=1/GPa)
#
#
# Indices 1 2 3 4 5 6 
#
# 1 0.008572 -0.002602 -0.004447 0.000000 0.000000 0.000000
# 2 -0.002602 0.037378 -0.021155 0.000000 0.000000 0.000000
# 3 -0.004447 -0.021155 0.036754 0.000000 0.000000 0.000000
# 4 0.000000 0.000000 0.000000 0.386907 0.000000 0.000000
# 5 0.000000 0.000000 0.000000 0.000000 0.027312 0.000000
# 6 0.000000 0.000000 0.000000 0.000000 0.000000 0.024805
#
#
# Mechanical properties :
#
#
# Convention : Reuss Voigt Hill
#
# Bulk Modulus (GPa) = 38.02873 47.16173 42.59523
# Shear Modulus (GPa) = 8.51931 25.51019 17.01475
#
# Velocity S-wave (km/s) = 2.01551 3.48770 2.84836
# Velocity P-wave (km/s) = 4.85279 6.22148 5.57927
#
# Compressibility (1/GPa) = 0.02629591
#
# Stress axis : x y z
#
# Youngs Moduli (GPa) = 116.66043 26.75358 27.20762
#
# Poissons Ratio (x) = 0.06961 0.12099
# Poissons Ratio (y) = 0.30352 0.57559
# Poissons Ratio (z) = 0.51880 0.56598
#
# Static dielectric constant tensor:
#      x y z
#    x 1.817950 0.000000 0.000000 
#    y 0.000000 1.847830 0.000000 
#    z 0.000000 0.000000 1.803350 
# 
# From -- ./inp_files/25940.got.cif
#   From: 2010.05.17/outbox.cif.g08.bks.cpg/sg54_13_cif.got.tgz:25940.got - 2010.06.03 13:09:01.
