data_PCOD9425324
_publ_section_title
;
Structure prediction by ZEFSAII (Michael W. Deem and Ramdas Pophale) SiO2 
 PCOD9425324
Probable space group: P B A M
;
_chemical_formula_sum "Si O2"
_cell_formula_units_Z 64
_cell_length_a 21.486428
_cell_length_b 17.175118
_cell_length_c 8.047047
_cell_angle_alpha 90.000000
_cell_angle_beta 90.000000
_cell_angle_gamma 90.000000
_cell_volume 2969.617336
_symmetry_space_group_name_H-M "P B A M"
_symmetry_group_IT_number 55
_symmetry_cell_setting 'orthorhombic'
loop_
_space_group_symop_operation_xyz
x,y,z
-x,-y,z
1/2+x,1/2-y,-z
1/2-x,1/2+y,-z
-x,-y,-z
x,y,-z
1/2-x,1/2+y,z
1/2+x,1/2-y,z
loop_
_atom_site_type_symbol
_atom_site_label
_atom_site_fract_x
_atom_site_fract_y
_atom_site_fract_z
Si Si1 0.642144 0.636339 0.307706
Si Si2 0.403939 0.209299 0.200383
Si Si3 0.322744 0.628830 0.202898
Si Si4 0.127450 0.421563 0.314623
Si Si5 0.308755 0.076313 0.800796
Si Si6 0.998698 0.585540 0.810424
Si Si7 0.724545 0.199069 0.197666
Si Si8 0.429626 0.516612 0.802398
O O1 0.654174 0.619554 0.500000
O O2 0.594505 0.707902 0.286676
O O3 0.704214 0.673726 0.228274
O O4 0.613188 0.559664 0.225575
O O5 0.341286 0.159272 0.232879
O O6 0.458825 0.152753 0.260539
O O7 0.408017 0.221231 0.000000
O O8 0.262967 0.576553 0.253289
O O9 0.301802 0.716231 0.252035
O O10 0.387564 0.589887 0.260648
O O11 0.323976 0.628735 0.000000
O O12 0.102449 0.416183 0.500000
O O13 0.150436 0.508429 0.277095
O O14 0.073329 0.393925 0.192585
O O15 0.185239 0.365808 0.290532
O O16 0.310379 0.065336 0.000000
O O17 0.000000 0.500000 0.730498
O O18 0.022352 0.575720 0.000000
O O19 0.714498 0.194881 0.000000
O O20 0.500000 0.500000 0.735949
O O21 0.436744 0.529266 0.000000
#
# Coordination Sequence:
#
# PCOD9425324 Si02
#       8
#     8   8   8   8   8   8   8   8
#     4  12  25  41  63  95 131 163 203 261 335 391
#     4  10  20  37  64  90 116 160 216 263 304 366
#     4   9  19  37  65  93 115 149 206 270 319 360
#     4  12  25  37  54  89 131 165 198 244 314 376
#     4  10  18  36  62  87 114 157 213 258 303 364
#     4  10  20  38  60  83 114 159 214 254 291 356
#     4  11  22  41  65  89 120 162 214 264 313 372
#     4  10  22  42  68  96 126 167 221 271 315 381
#
# _framework density 21.551597999999998
#
# number of rings (size 3 to 8) (size 9 to 14) (size 15 to 20)
#    0.000    1.500    2.500    3.375    0.000    3.500 
#    0.000    3.750    0.000    0.000    0.000    0.000 
#    0.000    0.000    0.000    0.000    0.000    0.000 
#
# Total GULP energy -357199.286645 kJ/mol
# GULP energy per Si atom -5581.238854 kJ/mol
# Density = 2.150255 g / cm^3
# Si number density = 21.551598 Si / 1000 Ang^3
#
#
#
# Elastic Constant Matrix: (Units=GPa)
#
#
# Indices 1 2 3 4 5 6 
#
# 1 77.9062 24.2556 0.2158 0.0000 0.0000 0.0000
# 2 24.2556 72.4917 -8.1611 0.0000 0.0000 0.0000
# 3 0.2158 -8.1611 27.7389 0.0000 0.0000 0.0000
# 4 0.0000 0.0000 0.0000 68.4020 0.0000 0.0000
# 5 0.0000 0.0000 0.0000 0.0000 7.6354 0.0000
# 6 0.0000 0.0000 0.0000 0.0000 0.0000 31.9710
#
#
#
# Elastic Compliance Matrix: (Units=1/GPa)
#
#
# Indices 1 2 3 4 5 6 
#
# 1 0.014395 -0.004995 -0.001581 0.000000 0.000000 0.000000
# 2 -0.004995 0.016000 0.004746 0.000000 0.000000 0.000000
# 3 -0.001581 0.004746 0.037459 0.000000 0.000000 0.000000
# 4 0.000000 0.000000 0.000000 0.014619 0.000000 0.000000
# 5 0.000000 0.000000 0.000000 0.000000 0.130968 0.000000
# 6 0.000000 0.000000 0.000000 0.000000 0.000000 0.031278
#
#
# Mechanical properties :
#
#
# Convention : Reuss Voigt Hill
#
# Bulk Modulus (GPa) = 15.57754 23.41750 19.49752
# Shear Modulus (GPa) = 18.53368 32.39012 25.46190
#
# Velocity S-wave (km/s) = 2.93570 3.88094 3.44094
# Velocity P-wave (km/s) = 4.32838 5.56522 4.98530
#
# Compressibility (1/GPa) = 0.06419500
#
# Stress axis : x y z
#
# Youngs Moduli (GPa) = 69.46664 62.49907 26.69574
#
# Poissons Ratio (x) = 0.31217 0.04222
# Poissons Ratio (y) = 0.34697 -0.12671
# Poissons Ratio (z) = 0.10986 -0.29664
#
# Static dielectric constant tensor:
#      x y z
#    x 1.839340 0.000000 0.000000 
#    y 0.000000 1.784910 0.000000 
#    z 0.000000 0.000000 1.799930 
# 
# From -- ./inp_files/9009.got.cif
#   From: 2010.05.17/outbox.cif.g08.bks.cpg/sg55_5_cif.got.tgz:9009.got - 2010.06.03 13:27:54.
