data_PCOD9425330
_publ_section_title
;
Structure prediction by ZEFSAII (Michael W. Deem and Ramdas Pophale) SiO2 
 PCOD9425330
Probable space group: P B A M
;
_chemical_formula_sum "Si O2"
_cell_formula_units_Z 48
_cell_length_a 14.086453
_cell_length_b 7.630914
_cell_length_c 19.652646
_cell_angle_alpha 90.000000
_cell_angle_beta 90.000000
_cell_angle_gamma 90.000000
_cell_volume 2112.512274
_symmetry_space_group_name_H-M "P B A M"
_symmetry_group_IT_number 55
_symmetry_cell_setting 'orthorhombic'
loop_
_space_group_symop_operation_xyz
x,y,z
-x,-y,z
1/2+x,1/2-y,-z
1/2-x,1/2+y,-z
-x,-y,-z
x,y,-z
1/2-x,1/2+y,z
1/2+x,1/2-y,z
loop_
_atom_site_type_symbol
_atom_site_label
_atom_site_fract_x
_atom_site_fract_y
_atom_site_fract_z
Si Si1 0.860589 0.135094 0.250796
Si Si2 0.909653 0.752517 0.000000
Si Si3 0.297382 0.126962 0.000000
Si Si4 0.079006 0.347716 0.576226
Si Si5 0.077056 0.777638 0.110353
Si Si6 0.345075 0.956404 0.713070
Si Si7 0.500000 0.000000 0.201508
Si Si8 0.500000 0.500000 0.639310
O O1 0.903687 0.100258 0.175611
O O2 0.864155 0.336955 0.277272
O O3 0.750496 0.089083 0.249413
O O4 0.912209 0.029928 0.309947
O O5 0.817119 0.877679 0.000000
O O6 0.981579 0.789821 0.063880
O O7 0.861837 0.554502 0.000000
O O8 0.332599 0.245137 0.063217
O O9 0.118996 0.342497 0.500000
O O10 0.153508 0.393735 0.635599
O O11 0.026322 0.167363 0.594227
O O12 0.000000 0.500000 0.579769
O O13 0.068810 0.595881 0.150589
O O14 0.436619 0.874955 0.751202
#
# Coordination Sequence:
#
# PCOD9425330 Si02
#       8
#     8   4   4   8   8   8   4   4
#     4  11  25  41  71  99 143 186 242 304 366 425
#     4  11  23  45  68  94 148 179 247 291 360 446
#     4  11  23  41  70  98 136 190 234 292 364 444
#     4  11  22  43  73 104 147 195 237 293 364 430
#     4  10  21  42  64  97 130 190 235 294 362 431
#     4  11  22  42  65 105 137 183 238 303 353 436
#     4  10  18  37  67  86 132 180 234 282 364 406
#     4  12  23  48  68 109 146 192 248 294 368 427
#
# _framework density 22.721761999999998
#
# number of rings (size 3 to 8) (size 9 to 14) (size 15 to 20)
#    0.000    1.167    4.167    2.750    2.333    0.000 
#    6.000    5.000    0.000    0.000    0.000    0.000 
#    0.000    0.000    0.000    0.000    0.000    0.000 
#
# Total GULP energy -267904.615470 kJ/mol
# GULP energy per Si atom -5581.346156 kJ/mol
# Density = 2.267005 g / cm^3
# Si number density = 22.721762 Si / 1000 Ang^3
#
#
#
# Elastic Constant Matrix: (Units=GPa)
#
#
# Indices 1 2 3 4 5 6 
#
# 1 136.5980 17.6273 57.3047 0.0000 0.0000 0.0000
# 2 17.6273 97.8103 34.2247 0.0000 0.0000 0.0000
# 3 57.3047 34.2247 181.6236 0.0000 0.0000 0.0000
# 4 0.0000 0.0000 0.0000 -3.8103 0.0000 0.0000
# 5 0.0000 0.0000 0.0000 0.0000 -1.2573 0.0000
# 6 0.0000 0.0000 0.0000 0.0000 0.0000 29.9425
#
#
#
# Elastic Compliance Matrix: (Units=1/GPa)
#
#
# Indices 1 2 3 4 5 6 
#
# 1 0.008474 -0.000633 -0.002554 0.000000 0.000000 0.000000
# 2 -0.000633 0.010993 -0.001872 0.000000 0.000000 0.000000
# 3 -0.002554 -0.001872 0.006665 0.000000 0.000000 0.000000
# 4 0.000000 0.000000 0.000000 -0.262447 0.000000 0.000000
# 5 0.000000 0.000000 0.000000 0.000000 -0.795327 0.000000
# 6 0.000000 0.000000 0.000000 0.000000 0.000000 0.033397
#
#
# Mechanical properties :
#
#
# Convention : Reuss Voigt Hill
#
# Bulk Modulus (GPa) = 62.45019 70.48281 66.46650
# Shear Modulus (GPa) = -5.08756 25.43333 10.17288
#
# Velocity S-wave (km/s) = -1.49798 3.34928 2.11822
# Velocity P-wave (km/s) = 4.95505 6.78559 5.94124
#
# Compressibility (1/GPa) = 0.01601276
#
# Stress axis : x y z
#
# Youngs Moduli (GPa) = 118.00710 90.96766 150.04874
#
# Poissons Ratio (x) = 0.05762 0.38327
# Poissons Ratio (y) = 0.07475 0.28084
# Poissons Ratio (z) = 0.30143 0.17026
#
# Static dielectric constant tensor:
#      x y z
#    x 1.875520 0.000000 0.000000 
#    y 0.000000 2.057430 0.000000 
#    z 0.000000 0.000000 1.847900 
# 
# From -- ./inp_files/21556.got.cif
#   From: 2010.05.17/outbox.cif.g08.bks.cpg/sg55_11_cif.got.tgz:21556.got - 2010.06.03 13:27:54.
