data_PCOD9425306
_publ_section_title
;
Structure prediction by ZEFSAII (Michael W. Deem and Ramdas Pophale) SiO2 
 PCOD9425306
Probable space group: P B A M
;
_chemical_formula_sum "Si O2"
_cell_formula_units_Z 56
_cell_length_a 14.848832
_cell_length_b 22.099383
_cell_length_c 7.500417
_cell_angle_alpha 90.000000
_cell_angle_beta 90.000000
_cell_angle_gamma 90.000000
_cell_volume 2461.262030
_symmetry_space_group_name_H-M "P B A M"
_symmetry_group_IT_number 55
_symmetry_cell_setting 'orthorhombic'
loop_
_space_group_symop_operation_xyz
x,y,z
-x,-y,z
1/2+x,1/2-y,-z
1/2-x,1/2+y,-z
-x,-y,-z
x,y,-z
1/2-x,1/2+y,z
1/2+x,1/2-y,z
loop_
_atom_site_type_symbol
_atom_site_label
_atom_site_fract_x
_atom_site_fract_y
_atom_site_fract_z
Si Si1 0.217103 0.479396 0.782698
Si Si2 0.406862 0.323938 0.202932
Si Si3 0.401340 0.091941 0.782131
Si Si4 0.584399 0.539213 0.218328
Si Si5 0.098897 0.370941 0.215687
Si Si6 0.701918 0.788687 0.211578
Si Si7 0.905856 0.769777 0.703145
O O1 0.150596 0.532250 0.722096
O O2 0.319894 0.489057 0.729850
O O3 0.180495 0.413753 0.726954
O O4 0.214799 0.479617 0.000000
O O5 0.415196 0.391048 0.280106
O O6 0.340095 0.273824 0.285254
O O7 0.506105 0.294301 0.198299
O O8 0.373627 0.333582 0.000000
O O9 0.505471 0.097007 0.731915
O O10 0.349953 0.152357 0.720229
O O11 0.399449 0.091151 0.000000
O O12 0.500000 0.500000 0.280139
O O13 0.580018 0.539867 0.000000
O O14 0.099007 0.302752 0.282761
O O15 0.100983 0.366744 0.000000
O O16 0.808639 0.793132 0.235488
O O17 0.683481 0.787197 0.000000
O O18 0.918989 0.787966 0.500000
#
# Coordination Sequence:
#
# PCOD9425306 Si02
#       7
#     8   8   8   8   8   8   8
#     4   9  17  29  52  86 118 145 177 232 291 336
#     4  10  20  38  61  85 112 148 191 238 287 335
#     4   9  17  30  54  88 115 139 179 235 292 338
#     4   9  18  30  49  82 117 145 180 228 282 335
#     4  10  18  35  58  84 114 146 189 235 284 337
#     4  10  20  36  59  86 113 146 192 240 290 342
#     4  12  25  37  55  83 116 154 193 233 286 341
#
# _framework density 22.752555000000001
#
# number of rings (size 3 to 8) (size 9 to 14) (size 15 to 20)
#    0.000    2.143    1.429    2.571    2.000    4.571 
#    0.000    0.000    0.000    3.000    0.000    0.000 
#    0.000    0.000    0.000    0.000    0.000    0.000 
#
# Total GULP energy -313019.518970 kJ/mol
# GULP energy per Si atom -5589.634267 kJ/mol
# Density = 2.270077 g / cm^3
# Si number density = 22.752555 Si / 1000 Ang^3
#
#
#
# Elastic Constant Matrix: (Units=GPa)
#
#
# Indices 1 2 3 4 5 6 
#
# 1 90.0438 -10.9054 -9.2474 0.0000 0.0000 0.0000
# 2 -10.9054 49.5416 1.7838 0.0000 0.0000 0.0000
# 3 -9.2474 1.7838 56.1119 0.0000 0.0000 0.0000
# 4 0.0000 0.0000 0.0000 -241.3888 0.0000 0.0000
# 5 0.0000 0.0000 0.0000 0.0000 79.0456 0.0000
# 6 0.0000 0.0000 0.0000 0.0000 0.0000 35.8648
#
#
#
# Elastic Compliance Matrix: (Units=1/GPa)
#
#
# Indices 1 2 3 4 5 6 
#
# 1 0.011595 0.002486 0.001832 0.000000 0.000000 0.000000
# 2 0.002486 0.020741 -0.000250 0.000000 0.000000 0.000000
# 3 0.001832 -0.000250 0.018131 0.000000 0.000000 0.000000
# 4 0.000000 0.000000 0.000000 -0.004143 0.000000 0.000000
# 5 0.000000 0.000000 0.000000 0.000000 0.012651 0.000000
# 6 0.000000 0.000000 0.000000 0.000000 0.000000 0.027882
#
#
# Mechanical properties :
#
#
# Convention : Reuss Voigt Hill
#
# Bulk Modulus (GPa) = 17.06340 17.66215 17.36278
# Shear Modulus (GPa) = 50.88741 -11.02458 19.93141
#
# Velocity S-wave (km/s) = 4.73436 -2.20362 2.96295
# Velocity P-wave (km/s) = 6.11566 1.14235 4.39922
#
# Compressibility (1/GPa) = 0.05860495
#
# Stress axis : x y z
#
# Youngs Moduli (GPa) = 86.24433 48.21282 55.15303
#
# Poissons Ratio (x) = -0.11988 -0.10103
# Poissons Ratio (y) = -0.21444 0.01377
# Poissons Ratio (z) = -0.15799 0.01203
#
# Static dielectric constant tensor:
#      x y z
#    x 1.807830 0.000000 0.000000 
#    y 0.000000 1.814430 0.000000 
#    z 0.000000 0.000000 1.984330 
# 
# From -- ./inp_files/6046.got.cif
#   From: 2010.05.17/outbox.cif.g08.bks.cpg/sg55_4_cif.got.tgz:6046.got - 2010.06.03 13:27:54.
