data_PCOD9425576
_publ_section_title
;
Structure prediction by ZEFSAII (Michael W. Deem and Ramdas Pophale) SiO2 
 PCOD9425576
Probable space group: P B A M
;
_chemical_formula_sum "Si O2"
_cell_formula_units_Z 32
_cell_length_a 16.809267
_cell_length_b 5.000501
_cell_length_c 18.673344
_cell_angle_alpha 90.000000
_cell_angle_beta 90.000000
_cell_angle_gamma 90.000000
_cell_volume 1569.583382
_symmetry_space_group_name_H-M "P B A M"
_symmetry_group_IT_number 55
_symmetry_cell_setting 'orthorhombic'
loop_
_space_group_symop_operation_xyz
x,y,z
-x,-y,z
1/2+x,1/2-y,-z
1/2-x,1/2+y,-z
-x,-y,-z
x,y,-z
1/2-x,1/2+y,z
1/2+x,1/2-y,z
loop_
_atom_site_type_symbol
_atom_site_label
_atom_site_fract_x
_atom_site_fract_y
_atom_site_fract_z
Si Si1 0.803385 0.210947 0.000000
Si Si2 0.190896 0.394558 0.807943
Si Si3 0.693639 0.167531 0.500000
Si Si4 0.080933 0.130686 0.081218
Si Si5 0.194923 0.460935 0.349546
O O1 0.856746 0.109533 0.934394
O O2 0.772783 0.511320 0.000000
O O3 0.244493 0.657341 0.815156
O O4 0.122541 0.333963 0.865267
O O5 0.156131 0.401609 0.727040
O O6 0.730627 0.463193 0.500000
O O7 0.651794 0.106234 0.575684
O O8 0.064873 0.240107 0.000000
O O9 0.000000 0.000000 0.108409
O O10 0.228104 0.762317 0.350329
#
# Coordination Sequence:
#
# PCOD9425576 Si02
#       5
#     4   8   4   8   8
#     4  10  19  34  53  70  88 116 150 186 225 268
#     4  10  19  32  50  70  92 122 158 191 227 274
#     4   8  12  20  34  56  87 114 137 176 224 260
#     4   9  20  36  50  71  96 122 154 192 236 277
#     4   8  14  23  38  61  87 114 145 181 221 264
#
# _framework density 20.387574000000001
#
# number of rings (size 3 to 8) (size 9 to 14) (size 15 to 20)
#    0.750    2.250    0.000    1.500    0.000    0.000 
#    0.000    6.250    0.000    0.000    0.000    0.875 
#    0.000    0.000    0.000   57.750    0.000    0.500 
#
# Total GULP energy -178292.463635 kJ/mol
# GULP energy per Si atom -5571.639489 kJ/mol
# Density = 2.034117 g / cm^3
# Si number density = 20.387574 Si / 1000 Ang^3
#
#
#
# Elastic Constant Matrix: (Units=GPa)
#
#
# Indices 1 2 3 4 5 6 
#
# 1 35.9301 3.3140 3.6993 0.0000 0.0000 0.0000
# 2 3.3140 90.2325 2.9453 0.0000 0.0000 0.0000
# 3 3.6993 2.9453 126.9017 0.0000 0.0000 0.0000
# 4 0.0000 0.0000 0.0000 22.4180 0.0000 0.0000
# 5 0.0000 0.0000 0.0000 0.0000 7.7136 0.0000
# 6 0.0000 0.0000 0.0000 0.0000 0.0000 4.2741
#
#
#
# Elastic Compliance Matrix: (Units=1/GPa)
#
#
# Indices 1 2 3 4 5 6 
#
# 1 0.028006 -0.001003 -0.000793 0.000000 0.000000 0.000000
# 2 -0.001003 0.011127 -0.000229 0.000000 0.000000 0.000000
# 3 -0.000793 -0.000229 0.007909 0.000000 0.000000 0.000000
# 4 0.000000 0.000000 0.000000 0.044607 0.000000 0.000000
# 5 0.000000 0.000000 0.000000 0.000000 0.129641 0.000000
# 6 0.000000 0.000000 0.000000 0.000000 0.000000 0.233966
#
#
# Mechanical properties :
#
#
# Convention : Reuss Voigt Hill
#
# Bulk Modulus (GPa) = 23.26033 30.33127 26.79580
# Shear Modulus (GPa) = 10.55664 23.08818 16.82241
#
# Velocity S-wave (km/s) = 2.27799 3.36886 2.87562
# Velocity P-wave (km/s) = 4.28402 5.48105 4.91908
#
# Compressibility (1/GPa) = 0.04299165
#
# Stress axis : x y z
#
# Youngs Moduli (GPa) = 35.70667 89.87321 126.44538
#
# Poissons Ratio (x) = 0.09011 0.10029
# Poissons Ratio (y) = 0.03580 0.02896
# Poissons Ratio (z) = 0.02832 0.02058
#
# Static dielectric constant tensor:
#      x y z
#    x 1.669610 0.000000 0.000000 
#    y 0.000000 1.749940 0.000000 
#    z 0.000000 0.000000 1.884880 
# 
# From -- ./inp_files/22891.got.cif
#   From: 2010.05.17/outbox.cif.g08.bks.cpg/sg55_12_cif.got.tgz:22891.got - 2010.06.03 13:27:54.
