data_PCOD9425073
_publ_section_title
;
Structure prediction by ZEFSAII (Michael W. Deem and Ramdas Pophale) SiO2 
 PCOD9425073
Probable space group: P B A M
;
_chemical_formula_sum "Si O2"
_cell_formula_units_Z 56
_cell_length_a 20.926785
_cell_length_b 16.353463
_cell_length_c 7.789796
_cell_angle_alpha 90.000000
_cell_angle_beta 90.000000
_cell_angle_gamma 90.000000
_cell_volume 2665.866085
_symmetry_space_group_name_H-M "P B A M"
_symmetry_group_IT_number 55
_symmetry_cell_setting 'orthorhombic'
loop_
_space_group_symop_operation_xyz
x,y,z
-x,-y,z
1/2+x,1/2-y,-z
1/2-x,1/2+y,-z
-x,-y,-z
x,y,-z
1/2-x,1/2+y,z
1/2+x,1/2-y,z
loop_
_atom_site_type_symbol
_atom_site_label
_atom_site_fract_x
_atom_site_fract_y
_atom_site_fract_z
Si Si1 0.087245 0.540313 0.197195
Si Si2 0.038696 0.380363 0.307207
Si Si3 0.309906 0.490147 0.198016
Si Si4 0.282008 0.132902 0.207649
Si Si5 0.940621 0.939610 0.303921
Si Si6 0.668716 0.692843 0.793332
Si Si7 0.981854 0.214246 0.709447
O O1 0.086956 0.442505 0.216732
O O2 0.151731 0.585929 0.240970
O O3 0.029860 0.574382 0.309596
O O4 0.071161 0.559387 0.000000
O O5 0.062234 0.366926 0.500000
O O6 0.017677 0.295199 0.226948
O O7 0.270607 0.567683 0.272814
O O8 0.383091 0.519052 0.204614
O O9 0.309025 0.397216 0.271924
O O10 0.288044 0.482513 0.000000
O O11 0.292083 0.226723 0.269569
O O12 0.273442 0.139469 0.000000
O O13 0.918018 0.924356 0.500000
O O14 0.972873 0.858810 0.230620
O O15 0.000000 0.000000 0.313761
O O16 0.592694 0.705854 0.758334
O O17 0.674837 0.690946 0.000000
O O18 0.981923 0.214731 0.500000
#
# Coordination Sequence:
#
# PCOD9425073 Si02
#       7
#     8   8   8   8   8   8   8
#     4  10  18  31  52  75 105 140 175 216 266 319
#     4  10  19  31  49  76 108 137 175 221 262 308
#     4  10  21  37  57  81 107 139 181 226 270 321
#     4   9  19  36  54  78 110 142 178 222 268 318
#     4  10  20  36  57  79 108 141 171 219 281 326
#     4  10  19  34  58  79 102 139 181 220 262 317
#     4  10  20  34  54  78 107 140 174 216 267 321
#
# _framework density 21.006305999999999
#
# number of rings (size 3 to 8) (size 9 to 14) (size 15 to 20)
#    0.000    2.143    2.857    1.714    0.000    1.429 
#    2.571    2.143    0.000    0.000    0.000    0.000 
#    0.000    0.000    0.000    0.000    0.000    0.000 
#
# Total GULP energy -311935.237220 kJ/mol
# GULP energy per Si atom -5570.272093 kJ/mol
# Density = 2.095849 g / cm^3
# Si number density = 21.006306 Si / 1000 Ang^3
#
#
#
# Elastic Constant Matrix: (Units=GPa)
#
#
# Indices 1 2 3 4 5 6 
#
# 1 48.4674 59.6720 5.2780 0.0000 0.0000 0.0000
# 2 59.6720 218.4000 5.9336 0.0000 0.0000 0.0000
# 3 5.2780 5.9336 31.8532 0.0000 0.0000 0.0000
# 4 0.0000 0.0000 0.0000 18.0178 0.0000 0.0000
# 5 0.0000 0.0000 0.0000 0.0000 17.2990 0.0000
# 6 0.0000 0.0000 0.0000 0.0000 0.0000 32.3344
#
#
#
# Elastic Compliance Matrix: (Units=1/GPa)
#
#
# Indices 1 2 3 4 5 6 
#
# 1 0.031504 -0.008509 -0.003635 0.000000 0.000000 0.000000
# 2 -0.008509 0.006900 0.000125 0.000000 0.000000 0.000000
# 3 -0.003635 0.000125 0.031973 0.000000 0.000000 0.000000
# 4 0.000000 0.000000 0.000000 0.055501 0.000000 0.000000
# 5 0.000000 0.000000 0.000000 0.000000 0.057807 0.000000
# 6 0.000000 0.000000 0.000000 0.000000 0.000000 0.030927
#
#
# Mechanical properties :
#
#
# Convention : Reuss Voigt Hill
#
# Bulk Modulus (GPa) = 21.58031 48.94310 35.26171
# Shear Modulus (GPa) = 19.67750 28.71937 24.19844
#
# Velocity S-wave (km/s) = 3.06395 3.70155 3.39774
# Velocity P-wave (km/s) = 4.77625 6.45124 5.67587
#
# Compressibility (1/GPa) = 0.04633854
#
# Stress axis : x y z
#
# Youngs Moduli (GPa) = 31.74167 144.92300 31.27624
#
# Poissons Ratio (x) = 1.23314 0.11369
# Poissons Ratio (y) = 0.27009 -0.00390
# Poissons Ratio (z) = 0.11539 -0.01805
#
# Static dielectric constant tensor:
#      x y z
#    x 1.704840 0.000000 0.000000 
#    y 0.000000 1.686020 0.000000 
#    z 0.000000 0.000000 1.808210 
# 
# From -- ./inp_files/8916.got.cif
#   From: 2010.05.17/outbox.cif.g08.bks.cpg/sg55_5_cif.got.tgz:8916.got - 2010.06.03 13:27:54.
