data_PCOD9425466
_publ_section_title
;
Structure prediction by ZEFSAII (Michael W. Deem and Ramdas Pophale) SiO2 
 PCOD9425466
Probable space group: P B A M
;
_chemical_formula_sum "Si O2"
_cell_formula_units_Z 64
_cell_length_a 12.301217
_cell_length_b 26.064751
_cell_length_c 11.173555
_cell_angle_alpha 90.000000
_cell_angle_beta 90.000000
_cell_angle_gamma 90.000000
_cell_volume 3582.556359
_symmetry_space_group_name_H-M "P B A M"
_symmetry_group_IT_number 55
_symmetry_cell_setting 'orthorhombic'
loop_
_space_group_symop_operation_xyz
x,y,z
-x,-y,z
1/2+x,1/2-y,-z
1/2-x,1/2+y,-z
-x,-y,-z
x,y,-z
1/2-x,1/2+y,z
1/2+x,1/2-y,z
loop_
_atom_site_type_symbol
_atom_site_label
_atom_site_fract_x
_atom_site_fract_y
_atom_site_fract_z
Si Si1 0.040889 0.293647 0.292820
Si Si2 0.635892 0.854232 0.141574
Si Si3 0.718869 0.131457 0.627896
Si Si4 0.911801 0.199200 0.288681
Si Si5 0.513858 0.387349 0.861027
Si Si6 0.272108 0.551866 0.855636
Si Si7 0.228694 0.932618 0.860248
Si Si8 0.269809 0.744590 0.861416
O O1 0.117190 0.329968 0.370208
O O2 0.125376 0.263705 0.207803
O O3 0.961239 0.329844 0.216341
O O4 0.969452 0.247875 0.349412
O O5 0.676392 0.909852 0.183558
O O6 0.737347 0.814828 0.154329
O O7 0.608498 0.855556 0.000000
O O8 0.718799 0.102743 0.500000
O O9 0.829098 0.165243 0.634601
O O10 0.717428 0.100242 0.753341
O O11 0.995941 0.161165 0.224246
O O12 0.833916 0.223574 0.186334
O O13 0.611988 0.423873 0.820168
O O14 0.399029 0.417601 0.859424
O O15 0.533369 0.371672 0.000000
O O16 0.259191 0.492336 0.827124
O O17 0.271956 0.554080 0.000000
O O18 0.265766 0.924060 0.000000
O O19 0.284880 0.754934 0.000000
#
# Coordination Sequence:
#
# PCOD9425466 Si02
#       8
#     8   8   8   8   8   8   8   8
#     4  10  19  31  48  69  96 133 171 201 237 292
#     4   9  17  27  43  72 106 135 164 203 250 294
#     4  10  22  38  55  74  97 129 166 203 247 299
#     4   9  18  30  47  72 100 130 164 201 242 295
#     4   9  15  25  46  76 106 134 164 201 249 301
#     4   9  16  27  46  73 103 133 167 209 253 293
#     4   9  18  33  53  76 101 131 169 211 251 292
#     4   9  16  26  42  70 108 141 166 198 243 293
#
# _framework density 17.864339999999999
#
# number of rings (size 3 to 8) (size 9 to 14) (size 15 to 20)
#    0.000    2.750    0.000    1.875    0.000    8.000 
#    0.000    0.625    0.000    9.750    0.000    0.000 
#    0.000    0.000    0.000    0.000    0.000    0.000 
#
# Total GULP energy -356483.384185 kJ/mol
# GULP energy per Si atom -5570.052878 kJ/mol
# Density = 1.782368 g / cm^3
# Si number density = 17.864340 Si / 1000 Ang^3
#
#
#
# Elastic Constant Matrix: (Units=GPa)
#
#
# Indices 1 2 3 4 5 6 
#
# 1 61.6474 30.0034 27.8694 0.0000 0.0000 0.0000
# 2 30.0034 104.3816 45.0157 0.0000 0.0000 0.0000
# 3 27.8694 45.0157 80.9382 0.0000 0.0000 0.0000
# 4 0.0000 0.0000 0.0000 4.3798 0.0000 0.0000
# 5 0.0000 0.0000 0.0000 0.0000 -14.2246 0.0000
# 6 0.0000 0.0000 0.0000 0.0000 0.0000 20.3410
#
#
#
# Elastic Compliance Matrix: (Units=1/GPa)
#
#
# Indices 1 2 3 4 5 6 
#
# 1 0.020243 -0.003700 -0.004912 0.000000 0.000000 0.000000
# 2 -0.003700 0.013280 -0.006112 0.000000 0.000000 0.000000
# 3 -0.004912 -0.006112 0.017446 0.000000 0.000000 0.000000
# 4 0.000000 0.000000 0.000000 0.228322 0.000000 0.000000
# 5 0.000000 0.000000 0.000000 0.000000 -0.070301 0.000000
# 6 0.000000 0.000000 0.000000 0.000000 0.000000 0.049162
#
#
# Mechanical properties :
#
#
# Convention : Reuss Voigt Hill
#
# Bulk Modulus (GPa) = 46.46860 50.30493 48.38677
# Shear Modulus (GPa) = 16.96220 11.70447 14.33333
#
# Velocity S-wave (km/s) = 3.08474 2.56244 2.83564
# Velocity P-wave (km/s) = 6.22542 6.08073 6.15350
#
# Compressibility (1/GPa) = 0.02151991
#
# Stress axis : x y z
#
# Youngs Moduli (GPa) = 49.40013 75.30395 57.32069
#
# Poissons Ratio (x) = 0.27863 0.28158
# Poissons Ratio (y) = 0.18279 0.35032
# Poissons Ratio (z) = 0.24267 0.46023
#
# Static dielectric constant tensor:
#      x y z
#    x 1.615980 0.000000 0.000000 
#    y 0.000000 1.642490 0.000000 
#    z 0.000000 0.000000 1.591770 
# 
# From -- ./inp_files/13632.got.cif
#   From: 2010.05.17/outbox.cif.g08.bks.cpg/sg55_7_cif.got.tgz:13632.got - 2010.06.03 13:27:54.
