data_PCOD9425175
_publ_section_title
;
Structure prediction by ZEFSAII (Michael W. Deem and Ramdas Pophale) SiO2 
 PCOD9425175
Probable space group: P B A M
;
_chemical_formula_sum "Si O2"
_cell_formula_units_Z 52
_cell_length_a 14.733892
_cell_length_b 19.768855
_cell_length_c 9.302224
_cell_angle_alpha 90.000000
_cell_angle_beta 90.000000
_cell_angle_gamma 90.000000
_cell_volume 2709.479012
_symmetry_space_group_name_H-M "P B A M"
_symmetry_group_IT_number 55
_symmetry_cell_setting 'orthorhombic'
loop_
_space_group_symop_operation_xyz
x,y,z
-x,-y,z
1/2+x,1/2-y,-z
1/2-x,1/2+y,-z
-x,-y,-z
x,y,-z
1/2-x,1/2+y,z
1/2+x,1/2-y,z
loop_
_atom_site_type_symbol
_atom_site_label
_atom_site_fract_x
_atom_site_fract_y
_atom_site_fract_z
Si Si1 0.897517 0.873382 0.665545
Si Si2 0.408973 0.166064 0.673271
Si Si3 0.500000 0.500000 0.761995
Si Si4 0.278516 0.050233 0.672952
Si Si5 0.813737 0.064074 0.160425
Si Si6 0.292496 0.283281 0.827181
Si Si7 0.598948 0.224008 0.673693
O O1 0.875774 0.861707 0.500000
O O2 0.803023 0.900640 0.728894
O O3 0.930065 0.800764 0.717303
O O4 0.968016 0.934155 0.675982
O O5 0.398599 0.175948 0.500000
O O6 0.369133 0.091849 0.707406
O O7 0.350199 0.223916 0.752339
O O8 0.514617 0.175871 0.709218
O O9 0.409784 0.475108 0.841277
O O10 0.272676 0.043678 0.500000
O O11 0.254949 0.977717 0.739471
O O12 0.831469 0.141583 0.202900
O O13 0.775356 0.065091 0.000000
O O14 0.192261 0.286370 0.757667
O O15 0.289530 0.272992 0.000000
O O16 0.613300 0.219068 0.500000
#
# Coordination Sequence:
#
# PCOD9425175 Si02
#       7
#     8   8   4   8   8   8   8
#     4   9  16  29  50  79 112 141 175 225 281 340
#     4  10  20  37  61  86 112 146 192 243 291 342
#     4  10  18  32  54  82 111 146 185 234 285 350
#     4   9  18  34  55  79 107 140 182 231 281 338
#     4  10  22  37  53  78 114 151 188 232 287 346
#     4  11  23  38  56  84 121 156 192 238 289 353
#     4  10  20  36  59  84 113 151 195 243 288 340
#
# _framework density 19.191880999999999
#
# number of rings (size 3 to 8) (size 9 to 14) (size 15 to 20)
#    0.000    2.154    1.538    1.846    0.000    3.077 
#    0.000    1.538    0.000    4.615    0.000    0.000 
#    0.000    0.000    0.000    0.000    0.000    0.000 
#
# Total GULP energy -289581.941498 kJ/mol
# GULP energy per Si atom -5568.883490 kJ/mol
# Density = 1.914820 g / cm^3
# Si number density = 19.191881 Si / 1000 Ang^3
#
#
#
# Elastic Constant Matrix: (Units=GPa)
#
#
# Indices 1 2 3 4 5 6 
#
# 1 62.4967 -5.3093 15.5880 0.0000 0.0000 0.0000
# 2 -5.3093 51.4405 10.3580 0.0000 0.0000 0.0000
# 3 15.5880 10.3580 28.7942 0.0000 0.0000 0.0000
# 4 0.0000 0.0000 0.0000 23.7741 0.0000 0.0000
# 5 0.0000 0.0000 0.0000 0.0000 6.0284 0.0000
# 6 0.0000 0.0000 0.0000 0.0000 0.0000 27.4878
#
#
#
# Elastic Compliance Matrix: (Units=1/GPa)
#
#
# Indices 1 2 3 4 5 6 
#
# 1 0.019395 0.004437 -0.012096 0.000000 0.000000 0.000000
# 2 0.004437 0.021973 -0.010307 0.000000 0.000000 0.000000
# 3 -0.012096 -0.010307 0.044985 0.000000 0.000000 0.000000
# 4 0.000000 0.000000 0.000000 0.042063 0.000000 0.000000
# 5 0.000000 0.000000 0.000000 0.000000 0.165882 0.000000
# 6 0.000000 0.000000 0.000000 0.000000 0.000000 0.036380
#
#
# Mechanical properties :
#
#
# Convention : Reuss Voigt Hill
#
# Bulk Modulus (GPa) = 19.83223 20.44500 20.13861
# Shear Modulus (GPa) = 13.04072 19.59770 16.31921
#
# Velocity S-wave (km/s) = 2.60953 3.19900 2.91919
# Velocity P-wave (km/s) = 4.40859 4.93162 4.67742
#
# Compressibility (1/GPa) = 0.05042298
#
# Stress axis : x y z
#
# Youngs Moduli (GPa) = 51.56033 45.50997 22.22970
#
# Poissons Ratio (x) = -0.20194 0.26889
# Poissons Ratio (y) = -0.22879 0.22911
# Poissons Ratio (z) = 0.62366 0.46905
#
# Static dielectric constant tensor:
#      x y z
#    x 1.678320 0.000000 0.000000 
#    y 0.000000 1.698720 0.000000 
#    z 0.000000 0.000000 1.669100 
# 
# From -- ./inp_files/5900.got.cif
#   From: 2010.05.17/outbox.cif.g08.bks.cpg/sg55_3_cif.got.tgz:5900.got - 2010.06.03 13:27:54.
