data_PCOD9425559
_publ_section_title
;
Structure prediction by ZEFSAII (Michael W. Deem and Ramdas Pophale) SiO2 
 PCOD9425559
Probable space group: P B A M
;
_chemical_formula_sum "Si O2"
_cell_formula_units_Z 64
_cell_length_a 24.225229
_cell_length_b 14.667491
_cell_length_c 9.064273
_cell_angle_alpha 90.000000
_cell_angle_beta 90.000000
_cell_angle_gamma 90.000000
_cell_volume 3220.747651
_symmetry_space_group_name_H-M "P B A M"
_symmetry_group_IT_number 55
_symmetry_cell_setting 'orthorhombic'
loop_
_space_group_symop_operation_xyz
x,y,z
-x,-y,z
1/2+x,1/2-y,-z
1/2-x,1/2+y,-z
-x,-y,-z
x,y,-z
1/2-x,1/2+y,z
1/2+x,1/2-y,z
loop_
_atom_site_type_symbol
_atom_site_label
_atom_site_fract_x
_atom_site_fract_y
_atom_site_fract_z
Si Si1 0.055007 0.558288 0.823412
Si Si2 0.144379 0.438730 0.330092
Si Si3 0.299407 0.661652 0.174250
Si Si4 0.249282 0.852703 0.823981
Si Si5 0.560649 0.539558 0.172391
Si Si6 0.327911 0.485399 0.674029
Si Si7 0.095116 0.239962 0.331328
Si Si8 0.480991 0.262889 0.173022
O O1 0.108261 0.517868 0.742539
O O2 0.045207 0.664940 0.791359
O O3 0.000000 0.500000 0.782961
O O4 0.062175 0.547883 0.000000
O O5 0.159034 0.458490 0.500000
O O6 0.198459 0.408439 0.240357
O O7 0.105843 0.348460 0.329179
O O8 0.259110 0.745941 0.209546
O O9 0.291758 0.569252 0.263905
O O10 0.359513 0.697928 0.223028
O O11 0.297420 0.643700 0.000000
O O12 0.195684 0.894674 0.749263
O O13 0.247273 0.862953 0.000000
O O14 0.500000 0.500000 0.206723
O O15 0.609340 0.501466 0.272217
O O16 0.557474 0.648964 0.188425
O O17 0.571966 0.517622 0.000000
O O18 0.324470 0.480442 0.500000
O O19 0.103907 0.208151 0.500000
O O20 0.034400 0.221536 0.272953
O O21 0.498254 0.259129 0.000000
#
# Coordination Sequence:
#
# PCOD9425559 Si02
#       8
#     8   8   8   8   8   8   8   8
#     4  10  19  32  52  80 118 163 208 251 300 368
#     4  10  20  34  54  83 119 158 200 251 306 356
#     4  10  21  39  65  91 116 155 203 249 297 358
#     4  10  22  42  67  91 118 156 205 253 299 361
#     4  10  22  41  64  89 119 158 207 258 306 365
#     4  12  25  42  66  95 128 161 199 254 316 375
#     4  10  19  31  53  85 120 154 195 248 300 355
#     4  10  20  34  54  82 116 159 204 248 300 360
#
# _framework density 19.871162999999999
#
# number of rings (size 3 to 8) (size 9 to 14) (size 15 to 20)
#    0.000    1.750    1.250    3.375    0.000    5.000 
#    2.250    0.000    0.000    0.000    0.000    0.000 
#    0.000    0.000    0.000    0.000    0.000    0.000 
#
# Total GULP energy -357619.055985 kJ/mol
# GULP energy per Si atom -5587.797750 kJ/mol
# Density = 1.982594 g / cm^3
# Si number density = 19.871163 Si / 1000 Ang^3
#
#
#
# Elastic Constant Matrix: (Units=GPa)
#
#
# Indices 1 2 3 4 5 6 
#
# 1 49.2978 21.8929 35.3979 0.0000 0.0000 0.0000
# 2 21.8929 101.0388 43.1239 0.0000 0.0000 0.0000
# 3 35.3979 43.1239 80.0558 0.0000 0.0000 0.0000
# 4 0.0000 0.0000 0.0000 19.5311 0.0000 0.0000
# 5 0.0000 0.0000 0.0000 0.0000 -0.7659 0.0000
# 6 0.0000 0.0000 0.0000 0.0000 0.0000 23.8748
#
#
#
# Elastic Compliance Matrix: (Units=1/GPa)
#
#
# Indices 1 2 3 4 5 6 
#
# 1 0.029812 -0.001082 -0.012599 0.000000 0.000000 0.000000
# 2 -0.001082 0.012891 -0.006466 0.000000 0.000000 0.000000
# 3 -0.012599 -0.006466 0.021545 0.000000 0.000000 0.000000
# 4 0.000000 0.000000 0.000000 0.051200 0.000000 0.000000
# 5 0.000000 0.000000 0.000000 0.000000 -1.305602 0.000000
# 6 0.000000 0.000000 0.000000 0.000000 0.000000 0.041885
#
#
# Mechanical properties :
#
#
# Convention : Reuss Voigt Hill
#
# Bulk Modulus (GPa) = 41.74556 47.91354 44.82955
# Shear Modulus (GPa) = -4.54550 17.19317 6.32384
#
# Velocity S-wave (km/s) = -1.51408 2.94467 1.78587
# Velocity P-wave (km/s) = 4.24230 5.97712 5.18281
#
# Compressibility (1/GPa) = 0.02395464
#
# Stress axis : x y z
#
# Youngs Moduli (GPa) = 33.54341 77.57188 46.41466
#
# Poissons Ratio (x) = 0.08396 0.58477
# Poissons Ratio (y) = 0.03631 0.30010
# Poissons Ratio (z) = 0.42261 0.50155
#
# Static dielectric constant tensor:
#      x y z
#    x 1.681350 0.000000 0.000000 
#    y 0.000000 1.749510 0.000000 
#    z 0.000000 0.000000 1.667870 
# 
# From -- ./inp_files/9772.got.cif
#   From: 2010.05.17/outbox.cif.g08.bks.cpg/sg55_5_cif.got.tgz:9772.got - 2010.06.03 13:27:54.
