data_PCOD9425433
_publ_section_title
;
Structure prediction by ZEFSAII (Michael W. Deem and Ramdas Pophale) SiO2 
 PCOD9425433
Probable space group: P B A M
;
_chemical_formula_sum "Si O2"
_cell_formula_units_Z 64
_cell_length_a 17.736620
_cell_length_b 22.367212
_cell_length_c 7.538259
_cell_angle_alpha 90.000000
_cell_angle_beta 90.000000
_cell_angle_gamma 90.000000
_cell_volume 2990.568610
_symmetry_space_group_name_H-M "P B A M"
_symmetry_group_IT_number 55
_symmetry_cell_setting 'orthorhombic'
loop_
_space_group_symop_operation_xyz
x,y,z
-x,-y,z
1/2+x,1/2-y,-z
1/2-x,1/2+y,-z
-x,-y,-z
x,y,-z
1/2-x,1/2+y,z
1/2+x,1/2-y,z
loop_
_atom_site_type_symbol
_atom_site_label
_atom_site_fract_x
_atom_site_fract_y
_atom_site_fract_z
Si Si1 0.149956 0.779381 0.705468
Si Si2 0.593097 0.939275 0.214029
Si Si3 0.727378 0.125255 0.215583
Si Si4 0.573108 0.076529 0.783922
Si Si5 0.286293 0.158412 0.290144
Si Si6 0.537480 0.619776 0.283639
Si Si7 0.868321 0.887752 0.295488
Si Si8 0.159723 0.977823 0.793226
O O1 0.128812 0.770262 0.500000
O O2 0.226352 0.818372 0.715642
O O3 0.168434 0.714995 0.785900
O O4 0.085133 0.822690 0.780158
O O5 0.512616 0.911825 0.273230
O O6 0.663478 0.900681 0.273094
O O7 0.593306 0.008531 0.269645
O O8 0.593681 0.939551 0.000000
O O9 0.640870 0.119292 0.272653
O O10 0.773721 0.065879 0.272128
O O11 0.730522 0.127130 0.000000
O O12 0.572693 0.077170 0.000000
O O13 0.276887 0.170206 0.500000
O O14 0.202941 0.146892 0.214986
O O15 0.538416 0.618787 0.500000
O O16 0.451758 0.619995 0.218575
O O17 0.583689 0.561072 0.226657
O O18 0.874732 0.868347 0.500000
O O19 0.848322 0.958031 0.294144
O O20 0.174314 0.989374 0.000000
#
# Coordination Sequence:
#
# PCOD9425433 Si02
#       8
#     8   8   8   8   8   8   8   8
#     4   9  19  36  52  68  95 131 170 207 244 286
#     4   9  17  32  54  75  99 133 165 196 246 305
#     4   9  17  31  51  74 100 130 164 202 244 289
#     4   8  15  30  52  77 102 128 163 202 241 298
#     4  10  21  36  50  71 102 131 166 213 253 285
#     4   9  18  34  53  70  95 136 173 197 238 301
#     4  10  20  33  50  72  99 133 167 199 242 303
#     4  10  19  30  50  80 108 129 155 202 253 291
#
# _framework density 21.400611000000001
#
# number of rings (size 3 to 8) (size 9 to 14) (size 15 to 20)
#    0.000    2.750    0.000    2.250    0.000    4.500 
#    2.250    2.500    0.000    0.000    0.000    0.000 
#    0.000    0.000    0.000    0.000    0.000    0.000 
#
# Total GULP energy -357139.441636 kJ/mol
# GULP energy per Si atom -5580.303776 kJ/mol
# Density = 2.135190 g / cm^3
# Si number density = 21.400611 Si / 1000 Ang^3
#
#
#
# Elastic Constant Matrix: (Units=GPa)
#
#
# Indices 1 2 3 4 5 6 
#
# 1 84.9217 6.3493 -10.0400 0.0000 0.0000 0.0000
# 2 6.3493 41.8205 -7.3724 0.0000 0.0000 0.0000
# 3 -10.0400 -7.3724 51.8687 0.0000 0.0000 0.0000
# 4 0.0000 0.0000 0.0000 8.3768 0.0000 0.0000
# 5 0.0000 0.0000 0.0000 0.0000 15.4616 0.0000
# 6 0.0000 0.0000 0.0000 0.0000 0.0000 10.1650
#
#
#
# Elastic Compliance Matrix: (Units=1/GPa)
#
#
# Indices 1 2 3 4 5 6 
#
# 1 0.012138 -0.001465 0.002141 0.000000 0.000000 0.000000
# 2 -0.001465 0.024703 0.003228 0.000000 0.000000 0.000000
# 3 0.002141 0.003228 0.020153 0.000000 0.000000 0.000000
# 4 0.000000 0.000000 0.000000 0.119377 0.000000 0.000000
# 5 0.000000 0.000000 0.000000 0.000000 0.064676 0.000000
# 6 0.000000 0.000000 0.000000 0.000000 0.000000 0.098377
#
#
# Mechanical properties :
#
#
# Convention : Reuss Voigt Hill
#
# Bulk Modulus (GPa) = 15.43189 17.38721 16.40955
# Shear Modulus (GPa) = 14.15559 19.44563 16.80061
#
# Velocity S-wave (km/s) = 2.57467 3.01765 2.80492
# Velocity P-wave (km/s) = 4.00814 4.50376 4.26316
#
# Compressibility (1/GPa) = 0.06480087
#
# Stress axis : x y z
#
# Youngs Moduli (GPa) = 82.38405 40.48068 49.62127
#
# Poissons Ratio (x) = 0.05932 -0.10625
# Poissons Ratio (y) = 0.12072 -0.16015
# Poissons Ratio (z) = -0.17641 -0.13065
#
# Static dielectric constant tensor:
#      x y z
#    x 1.785880 0.000000 0.000000 
#    y 0.000000 1.743090 0.000000 
#    z 0.000000 0.000000 1.825040 
# 
# From -- ./inp_files/8200.got.cif
#   From: 2010.05.17/outbox.cif.g08.bks.cpg/sg55_5_cif.got.tgz:8200.got - 2010.06.03 13:27:54.
