data_PCOD9425318
_publ_section_title
;
Structure prediction by ZEFSAII (Michael W. Deem and Ramdas Pophale) SiO2 
 PCOD9425318
Probable space group: P B A M
;
_chemical_formula_sum "Si O2"
_cell_formula_units_Z 48
_cell_length_a 14.354201
_cell_length_b 7.921828
_cell_length_c 16.645341
_cell_angle_alpha 90.000000
_cell_angle_beta 90.000000
_cell_angle_gamma 90.000000
_cell_volume 1892.766883
_symmetry_space_group_name_H-M "P B A M"
_symmetry_group_IT_number 55
_symmetry_cell_setting 'orthorhombic'
loop_
_space_group_symop_operation_xyz
x,y,z
-x,-y,z
1/2+x,1/2-y,-z
1/2-x,1/2+y,-z
-x,-y,-z
x,y,-z
1/2-x,1/2+y,z
1/2+x,1/2-y,z
loop_
_atom_site_type_symbol
_atom_site_label
_atom_site_fract_x
_atom_site_fract_y
_atom_site_fract_z
Si Si1 0.386420 0.132112 0.159455
Si Si2 0.342436 0.193547 0.327857
Si Si3 0.767700 0.669841 0.091100
Si Si4 0.876508 0.888665 0.500000
Si Si5 0.557063 0.337561 0.147352
Si Si6 0.374515 0.596699 0.324294
Si Si7 0.161452 0.709890 0.500000
O O1 0.387293 0.095197 0.253963
O O2 0.318758 0.295877 0.149250
O O3 0.487792 0.182580 0.130386
O O4 0.329021 0.992156 0.112738
O O5 0.366125 0.392618 0.322902
O O6 0.230764 0.168597 0.320782
O O7 0.370521 0.131040 0.416326
O O8 0.844600 0.816070 0.104851
O O9 0.735154 0.667825 0.000000
O O10 0.917373 0.850793 0.588687
O O11 0.773848 0.806107 0.500000
O O12 0.862710 0.091821 0.500000
O O13 0.500000 0.500000 0.121249
O O14 0.574050 0.346859 0.243496
#
# Coordination Sequence:
#
# PCOD9425318 Si02
#       7
#     8   8   8   4   8   8   4
#     4  12  24  44  71  99 133 173 218 274 332 405
#     4  10  18  35  62  92 135 175 223 269 322 386
#     4  12  28  49  73 100 129 169 218 275 344 407
#     4   8  16  30  54  87 134 172 223 275 317 382
#     4  12  25  43  68 100 136 172 222 270 329 400
#     4  10  19  36  60  97 132 180 227 272 330 389
#     4   8  16  28  53  92 125 174 220 267 314 374
#
# _framework density 25.359701000000001
#
# number of rings (size 3 to 8) (size 9 to 14) (size 15 to 20)
#    0.000    1.333    3.333    3.000    0.000    2.333 
#    0.000    1.250    0.000    0.000    0.000    2.333 
#    0.000    0.000    0.000    0.000    0.000    0.000 
#
# Total GULP energy -268757.896436 kJ/mol
# GULP energy per Si atom -5599.122842 kJ/mol
# Density = 2.530198 g / cm^3
# Si number density = 25.359701 Si / 1000 Ang^3
#
#
#
# Elastic Constant Matrix: (Units=GPa)
#
#
# Indices 1 2 3 4 5 6 
#
# 1 95.3643 -0.8373 -5.2774 0.0000 0.0000 0.0000
# 2 -0.8373 52.3659 -2.3860 0.0000 0.0000 0.0000
# 3 -5.2774 -2.3860 123.8585 0.0000 0.0000 0.0000
# 4 0.0000 0.0000 0.0000 83.0049 0.0000 0.0000
# 5 0.0000 0.0000 0.0000 0.0000 0.3039 0.0000
# 6 0.0000 0.0000 0.0000 0.0000 0.0000 32.9258
#
#
#
# Elastic Compliance Matrix: (Units=1/GPa)
#
#
# Indices 1 2 3 4 5 6 
#
# 1 0.010513 0.000189 0.000452 0.000000 0.000000 0.000000
# 2 0.000189 0.019117 0.000376 0.000000 0.000000 0.000000
# 3 0.000452 0.000376 0.008100 0.000000 0.000000 0.000000
# 4 0.000000 0.000000 0.000000 0.012047 0.000000 0.000000
# 5 0.000000 0.000000 0.000000 0.000000 3.290056 0.000000
# 6 0.000000 0.000000 0.000000 0.000000 0.000000 0.030371
#
#
# Mechanical properties :
#
#
# Convention : Reuss Voigt Hill
#
# Bulk Modulus (GPa) = 25.14926 28.28748 26.71837
# Shear Modulus (GPa) = 1.47867 41.91956 21.69911
#
# Velocity S-wave (km/s) = 0.76442 4.07012 2.92833
# Velocity P-wave (km/s) = 3.27379 5.76772 4.68957
#
# Compressibility (1/GPa) = 0.03976260
#
# Stress axis : x y z
#
# Youngs Moduli (GPa) = 95.12261 52.31064 123.45346
#
# Poissons Ratio (x) = -0.00987 -0.05575
# Poissons Ratio (y) = -0.01795 -0.04646
# Poissons Ratio (z) = -0.04295 -0.01968
#
# Static dielectric constant tensor:
#      x y z
#    x 1.933580 0.000000 0.000000 
#    y 0.000000 2.181610 0.000000 
#    z 0.000000 0.000000 1.971230 
# 
# From -- ./inp_files/21526.got.cif
#   From: 2010.05.17/outbox.cif.g08.bks.cpg/sg55_11_cif.got.tgz:21526.got - 2010.06.03 13:27:54.
