data_PCOD9425761
_publ_section_title
;
Structure prediction by ZEFSAII (Michael W. Deem and Ramdas Pophale) SiO2 
 PCOD9425761
Probable space group: P B A M
;
_chemical_formula_sum "Si O2"
_cell_formula_units_Z 64
_cell_length_a 23.562617
_cell_length_b 8.820000
_cell_length_c 17.238518
_cell_angle_alpha 90.000000
_cell_angle_beta 90.000000
_cell_angle_gamma 90.000000
_cell_volume 3582.548148
_symmetry_space_group_name_H-M "P B A M"
_symmetry_group_IT_number 55
_symmetry_cell_setting 'orthorhombic'
loop_
_space_group_symop_operation_xyz
x,y,z
-x,-y,z
1/2+x,1/2-y,-z
1/2-x,1/2+y,-z
-x,-y,-z
x,y,-z
1/2-x,1/2+y,z
1/2+x,1/2-y,z
loop_
_atom_site_type_symbol
_atom_site_label
_atom_site_fract_x
_atom_site_fract_y
_atom_site_fract_z
Si Si1 0.465107 0.156615 0.911188
Si Si2 0.117333 0.149664 0.415370
Si Si3 0.965840 0.849323 0.794359
Si Si4 0.732319 0.930851 0.701943
Si Si5 0.761992 0.697865 0.412400
Si Si6 0.376156 0.137594 0.777064
Si Si7 0.362242 0.491111 0.261636
Si Si8 0.552610 0.089758 0.669231
O O1 0.504498 0.285090 0.871419
O O2 0.410176 0.130465 0.857362
O O3 0.500000 0.000000 0.909631
O O4 0.451239 0.194063 0.000000
O O5 0.098493 0.097968 0.500000
O O6 0.183829 0.192572 0.418983
O O7 0.086525 0.304808 0.390228
O O8 0.112216 0.029252 0.346779
O O9 0.969540 0.710309 0.733760
O O10 0.900173 0.902868 0.795199
O O11 0.000000 0.000000 0.769465
O O12 0.719558 0.049042 0.633109
O O13 0.796153 0.957859 0.733587
O O14 0.723716 0.776409 0.652854
O O15 0.687219 0.930189 0.770983
O O16 0.740037 0.671789 0.500000
O O17 0.371902 0.316340 0.758164
O O18 0.409793 0.035225 0.714151
O O19 0.500000 0.000000 0.633644
#
# Coordination Sequence:
#
# PCOD9425761 Si02
#       8
#     8   8   8   8   8   8   8   8
#     4  11  23  40  65  97 122 146 183 242 305 346
#     4   9  20  35  50  75 115 152 194 250 297 338
#     4  11  19  36  61  88 118 147 188 241 293 349
#     4  11  21  34  54  84 112 157 201 239 291 354
#     4  10  19  33  50  77 113 149 197 253 292 327
#     4  12  20  39  59  85 118 152 203 239 288 368
#     4  10  22  35  56  84 112 157 201 241 294 345
#     4  11  19  33  59  83 109 153 199 237 295 350
#
# _framework density 17.864380000000001
#
# number of rings (size 3 to 8) (size 9 to 14) (size 15 to 20)
#    0.000    1.375    6.250    0.375    0.000    1.000 
#    0.000    0.625    0.000   14.250    0.000    0.000 
#    0.000    0.000    0.000    0.000    0.000    0.000 
#
# Total GULP energy -356476.912760 kJ/mol
# GULP energy per Si atom -5569.951762 kJ/mol
# Density = 1.782372 g / cm^3
# Si number density = 17.864380 Si / 1000 Ang^3
#
#
#
# Elastic Constant Matrix: (Units=GPa)
#
#
# Indices 1 2 3 4 5 6 
#
# 1 85.0613 23.2740 51.2345 0.0000 0.0000 0.0000
# 2 23.2740 58.8908 12.9759 0.0000 0.0000 0.0000
# 3 51.2345 12.9759 97.5304 0.0000 0.0000 0.0000
# 4 0.0000 0.0000 0.0000 23.3507 0.0000 0.0000
# 5 0.0000 0.0000 0.0000 0.0000 17.1103 0.0000
# 6 0.0000 0.0000 0.0000 0.0000 0.0000 12.7204
#
#
#
# Elastic Compliance Matrix: (Units=1/GPa)
#
#
# Indices 1 2 3 4 5 6 
#
# 1 0.018724 -0.005390 -0.009119 0.000000 0.000000 0.000000
# 2 -0.005390 0.019045 0.000298 0.000000 0.000000 0.000000
# 3 -0.009119 0.000298 0.015004 0.000000 0.000000 0.000000
# 4 0.000000 0.000000 0.000000 0.042825 0.000000 0.000000
# 5 0.000000 0.000000 0.000000 0.000000 0.058444 0.000000
# 6 0.000000 0.000000 0.000000 0.000000 0.000000 0.078614
#
#
# Mechanical properties :
#
#
# Convention : Reuss Voigt Hill
#
# Bulk Modulus (GPa) = 41.06764 46.27237 43.67000
# Shear Modulus (GPa) = 18.57390 20.90284 19.73837
#
# Velocity S-wave (km/s) = 3.22796 3.42436 3.32761
# Velocity P-wave (km/s) = 6.07713 6.44928 6.26597
#
# Compressibility (1/GPa) = 0.02435007
#
# Stress axis : x y z
#
# Youngs Moduli (GPa) = 53.40879 52.50633 66.64995
#
# Poissons Ratio (x) = 0.28303 0.60776
# Poissons Ratio (y) = 0.28790 -0.01985
# Poissons Ratio (z) = 0.48701 -0.01564
#
# Static dielectric constant tensor:
#      x y z
#    x 1.669920 0.000000 0.000000 
#    y 0.000000 1.709450 0.000000 
#    z 0.000000 0.000000 1.618860 
# 
# From -- ./inp_files/22042.got.cif
#   From: 2010.05.17/outbox.cif.g08.bks.cpg/sg55_12_cif.got.tgz:22042.got - 2010.06.03 13:27:54.
