data_PCOD9425892
_publ_section_title
;
Structure prediction by ZEFSAII (Michael W. Deem and Ramdas Pophale) SiO2 
 PCOD9425892
Probable space group: P B A M
;
_chemical_formula_sum "Si O2"
_cell_formula_units_Z 64
_cell_length_a 21.705005
_cell_length_b 15.147453
_cell_length_c 8.197158
_cell_angle_alpha 90.000000
_cell_angle_beta 90.000000
_cell_angle_gamma 90.000000
_cell_volume 2695.025073
_symmetry_space_group_name_H-M "P B A M"
_symmetry_group_IT_number 55
_symmetry_cell_setting 'orthorhombic'
loop_
_space_group_symop_operation_xyz
x,y,z
-x,-y,z
1/2+x,1/2-y,-z
1/2-x,1/2+y,-z
-x,-y,-z
x,y,-z
1/2-x,1/2+y,z
1/2+x,1/2-y,z
loop_
_atom_site_type_symbol
_atom_site_label
_atom_site_fract_x
_atom_site_fract_y
_atom_site_fract_z
Si Si1 0.485448 0.592355 0.816307
Si Si2 0.438827 0.953311 0.191822
Si Si3 0.365908 0.231426 0.316301
Si Si4 0.301256 0.947434 0.804058
Si Si5 0.372908 0.408008 0.824279
Si Si6 0.187413 0.068111 0.307074
Si Si7 0.765684 0.751366 0.699626
Si Si8 0.492534 0.777717 0.306053
O O1 0.500000 0.500000 0.725779
O O2 0.556880 0.615570 0.844740
O O3 0.464915 0.680084 0.725523
O O4 0.459245 0.579571 0.000000
O O5 0.370232 0.971568 0.257918
O O6 0.452386 0.849978 0.214666
O O7 0.500000 0.000000 0.264250
O O8 0.436934 0.976322 0.000000
O O9 0.365656 0.197463 0.500000
O O10 0.354841 0.338199 0.312810
O O11 0.300482 0.209148 0.236782
O O12 0.434685 0.211123 0.252877
O O13 0.284496 0.845600 0.759737
O O14 0.249307 0.012545 0.733911
O O15 0.301487 0.954917 0.000000
O O16 0.364693 0.508658 0.774952
O O17 0.341237 0.392590 0.000000
O O18 0.178813 0.066789 0.500000
O O19 0.188981 0.169148 0.252527
O O20 0.763000 0.748348 0.500000
O O21 0.491424 0.792736 0.500000
#
# Coordination Sequence:
#
# PCOD9425892 Si02
#       8
#     8   8   8   8   8   8   8   8
#     4   9  19  36  58  84 117 159 199 241 299 360
#     4  10  24  45  64  86 122 167 208 253 310 363
#     4   9  18  35  57  82 114 149 190 244 301 355
#     4  11  24  42  64  92 124 160 208 259 304 362
#     4  10  19  33  55  83 114 151 195 240 291 352
#     4  11  23  38  59  87 121 161 199 244 308 371
#     4  10  22  39  61  88 121 162 198 242 310 370
#     4  10  21  36  59  89 117 151 200 253 301 357
#
# _framework density 23.74746
#
# number of rings (size 3 to 8) (size 9 to 14) (size 15 to 20)
#    0.000    2.000    1.250    1.500    1.750    4.500 
#    0.000    3.750    0.000    0.000    0.000    0.000 
#    0.000    0.000    0.000    0.000    0.000    0.000 
#
# Total GULP energy -356477.596758 kJ/mol
# GULP energy per Si atom -5569.962449 kJ/mol
# Density = 2.369341 g / cm^3
# Si number density = 23.747460 Si / 1000 Ang^3
#
#
#
# Elastic Constant Matrix: (Units=GPa)
#
#
# Indices 1 2 3 4 5 6 
#
# 1 62.9521 -15.3361 8.3649 0.0000 0.0000 0.0000
# 2 -15.3361 64.8157 -5.8829 0.0000 0.0000 0.0000
# 3 8.3649 -5.8829 37.1819 0.0000 0.0000 0.0000
# 4 0.0000 0.0000 0.0000 24.7153 0.0000 0.0000
# 5 0.0000 0.0000 0.0000 0.0000 13.9328 0.0000
# 6 0.0000 0.0000 0.0000 0.0000 0.0000 23.4618
#
#
#
# Elastic Compliance Matrix: (Units=1/GPa)
#
#
# Indices 1 2 3 4 5 6 
#
# 1 0.017242 0.003782 -0.003281 0.000000 0.000000 0.000000
# 2 0.003782 0.016483 0.001757 0.000000 0.000000 0.000000
# 3 -0.003281 0.001757 0.027911 0.000000 0.000000 0.000000
# 4 0.000000 0.000000 0.000000 0.040461 0.000000 0.000000
# 5 0.000000 0.000000 0.000000 0.000000 0.071773 0.000000
# 6 0.000000 0.000000 0.000000 0.000000 0.000000 0.042622
#
#
# Mechanical properties :
#
#
# Convention : Reuss Voigt Hill
#
# Bulk Modulus (GPa) = 15.11659 15.47130 15.29394
# Shear Modulus (GPa) = 21.36512 24.27557 22.82034
#
# Velocity S-wave (km/s) = 3.00272 3.20072 3.10330
# Velocity P-wave (km/s) = 4.28966 4.49316 4.39259
#
# Compressibility (1/GPa) = 0.06615249
#
# Stress axis : x y z
#
# Youngs Moduli (GPa) = 57.99669 60.66976 35.82838
#
# Poissons Ratio (x) = -0.22945 0.11754
# Poissons Ratio (y) = -0.21934 -0.06295
# Poissons Ratio (z) = 0.19027 -0.10660
#
# Static dielectric constant tensor:
#      x y z
#    x 2.040180 0.000000 0.000000 
#    y 0.000000 1.926460 0.000000 
#    z 0.000000 0.000000 1.905120 
# 
# From -- ./inp_files/9757.got.cif
#   From: 2010.05.17/outbox.cif.g08.bks.cpg/sg55_5_cif.got.tgz:9757.got - 2010.06.03 13:27:54.
