data_PCOD9425329
_publ_section_title
;
Structure prediction by ZEFSAII (Michael W. Deem and Ramdas Pophale) SiO2 
 PCOD9425329
Probable space group: P B A M
;
_chemical_formula_sum "Si O2"
_cell_formula_units_Z 58
_cell_length_a 18.271800
_cell_length_b 18.508547
_cell_length_c 7.777082
_cell_angle_alpha 90.000000
_cell_angle_beta 90.000000
_cell_angle_gamma 90.000000
_cell_volume 2630.088347
_symmetry_space_group_name_H-M "P B A M"
_symmetry_group_IT_number 55
_symmetry_cell_setting 'orthorhombic'
loop_
_space_group_symop_operation_xyz
x,y,z
-x,-y,z
1/2+x,1/2-y,-z
1/2-x,1/2+y,-z
-x,-y,-z
x,y,-z
1/2-x,1/2+y,z
1/2+x,1/2-y,z
loop_
_atom_site_type_symbol
_atom_site_label
_atom_site_fract_x
_atom_site_fract_y
_atom_site_fract_z
Si Si1 0.267569 0.292024 0.198201
Si Si2 0.090019 0.867494 0.300924
Si Si3 0.665977 0.081807 0.301022
Si Si4 0.814966 0.839297 0.696542
Si Si5 0.688023 0.501190 0.290038
Si Si6 0.500000 0.000000 0.500000
Si Si7 0.961504 0.769856 0.804207
Si Si8 0.505454 0.107025 0.195850
O O1 0.343469 0.310702 0.287659
O O2 0.205961 0.340751 0.289872
O O3 0.243917 0.209573 0.208271
O O4 0.271952 0.315103 0.000000
O O5 0.068922 0.878097 0.500000
O O6 0.126538 0.941503 0.232600
O O7 0.022310 0.831927 0.205963
O O8 0.643655 0.065896 0.500000
O O9 0.730387 0.028007 0.243696
O O10 0.591840 0.085927 0.196538
O O11 0.790332 0.846256 0.500000
O O12 0.891623 0.797130 0.701583
O O13 0.825240 0.919840 0.766693
O O14 0.685953 0.505110 0.500000
O O15 0.473466 0.057343 0.345788
O O16 0.994370 0.692094 0.753367
O O17 0.935712 0.759831 0.000000
O O18 0.476807 0.098489 0.000000
#
# Coordination Sequence:
#
# PCOD9425329 Si02
#       8
#     8   8   8   8   8   2   8   8
#     4  11  21  36  58  89 123 158 206 265 322 380
#     4  10  21  40  64  88 120 166 213 262 322 390
#     4  10  18  37  65  88 117 163 213 258 318 385
#     4  11  21  37  62  91 122 162 213 262 310 379
#     4   8  19  37  59  91 124 157 208 266 318 376
#     4  12  26  44  68  90 124 166 214 262 328 384
#     4  11  24  41  62  91 128 166 211 262 318 385
#     4  11  24  43  65  94 129 169 217 269 322 388
#
# _framework density 22.052491
#
# number of rings (size 3 to 8) (size 9 to 14) (size 15 to 20)
#    0.000    1.655    2.069    3.931    1.931    0.552 
#    2.483   11.034    0.000    0.000    0.000    0.000 
#    0.000    0.000    0.000    0.000    0.000    0.000 
#
# Total GULP energy -323500.752833 kJ/mol
# GULP energy per Si atom -5577.599187 kJ/mol
# Density = 2.200230 g / cm^3
# Si number density = 22.052491 Si / 1000 Ang^3
#
#
#
# Elastic Constant Matrix: (Units=GPa)
#
#
# Indices 1 2 3 4 5 6 
#
# 1 12.2322 -3.8871 -8.7819 0.0000 0.0000 0.0000
# 2 -3.8871 119.1996 18.7293 0.0000 0.0000 0.0000
# 3 -8.7819 18.7293 78.9107 0.0000 0.0000 0.0000
# 4 0.0000 0.0000 0.0000 101.6158 0.0000 0.0000
# 5 0.0000 0.0000 0.0000 0.0000 23.8004 0.0000
# 6 0.0000 0.0000 0.0000 0.0000 0.0000 -7.1858
#
#
#
# Elastic Compliance Matrix: (Units=1/GPa)
#
#
# Indices 1 2 3 4 5 6 
#
# 1 0.089075 0.001399 0.009581 0.000000 0.000000 0.000000
# 2 0.001399 0.008736 -0.001918 0.000000 0.000000 0.000000
# 3 0.009581 -0.001918 0.014194 0.000000 0.000000 0.000000
# 4 0.000000 0.000000 0.000000 0.009841 0.000000 0.000000
# 5 0.000000 0.000000 0.000000 0.000000 0.042016 0.000000
# 6 0.000000 0.000000 0.000000 0.000000 0.000000 -0.139164
#
#
# Mechanical properties :
#
#
# Convention : Reuss Voigt Hill
#
# Bulk Modulus (GPa) = 7.68464 24.71812 16.20138
# Shear Modulus (GPa) = 100.10033 37.26489 68.68261
#
# Velocity S-wave (km/s) = 6.74466 4.11521 5.58683
# Velocity P-wave (km/s) = 8.00913 5.81490 6.99854
#
# Compressibility (1/GPa) = 0.13012966
#
# Stress axis : x y z
#
# Youngs Moduli (GPa) = 11.22656 114.46548 70.45233
#
# Poissons Ratio (x) = -0.16018 -0.67500
# Poissons Ratio (y) = -0.01571 0.13511
# Poissons Ratio (z) = -0.10756 0.21952
#
# Static dielectric constant tensor:
#      x y z
#    x 1.835240 0.000000 0.000000 
#    y 0.000000 1.857750 0.000000 
#    z 0.000000 0.000000 1.806450 
# 
# From -- ./inp_files/7697.got.cif
#   From: 2010.05.17/outbox.cif.g08.bks.cpg/sg55_4_cif.got.tgz:7697.got - 2010.06.03 13:27:54.
