data_PCOD9425617
_publ_section_title
;
Structure prediction by ZEFSAII (Michael W. Deem and Ramdas Pophale) SiO2 
 PCOD9425617
Probable space group: P B A M
;
_chemical_formula_sum "Si O2"
_cell_formula_units_Z 64
_cell_length_a 19.171411
_cell_length_b 20.377555
_cell_length_c 7.481578
_cell_angle_alpha 90.000000
_cell_angle_beta 90.000000
_cell_angle_gamma 90.000000
_cell_volume 2922.801758
_symmetry_space_group_name_H-M "P B A M"
_symmetry_group_IT_number 55
_symmetry_cell_setting 'orthorhombic'
loop_
_space_group_symop_operation_xyz
x,y,z
-x,-y,z
1/2+x,1/2-y,-z
1/2-x,1/2+y,-z
-x,-y,-z
x,y,-z
1/2-x,1/2+y,z
1/2+x,1/2-y,z
loop_
_atom_site_type_symbol
_atom_site_label
_atom_site_fract_x
_atom_site_fract_y
_atom_site_fract_z
Si Si1 0.243570 0.621698 0.219461
Si Si2 0.402758 0.177614 0.208845
Si Si3 0.946610 0.056767 0.781317
Si Si4 0.826344 0.618260 0.710117
Si Si5 0.021952 0.427254 0.716519
Si Si6 0.490455 0.298002 0.219244
Si Si7 0.352752 0.732338 0.214791
Si Si8 0.293949 0.480832 0.792338
O O1 0.168468 0.647529 0.283178
O O2 0.302984 0.673291 0.274180
O O3 0.261740 0.548286 0.281762
O O4 0.241429 0.620462 0.000000
O O5 0.464595 0.124893 0.223402
O O6 0.433292 0.245486 0.282734
O O7 0.388681 0.190162 0.000000
O O8 0.868641 0.040505 0.717343
O O9 0.972154 0.128512 0.725045
O O10 0.946361 0.058139 0.000000
O O11 0.000000 0.000000 0.727139
O O12 0.825764 0.604956 0.500000
O O13 0.901040 0.592743 0.780827
O O14 0.823588 0.696189 0.737573
O O15 0.761807 0.577567 0.784956
O O16 0.022609 0.426037 0.500000
O O17 0.000000 0.500000 0.773913
O O18 0.567769 0.276517 0.278291
O O19 0.490872 0.296403 0.000000
O O20 0.354768 0.729179 0.000000
O O21 0.308019 0.495490 0.000000
#
# Coordination Sequence:
#
# PCOD9425617 Si02
#       8
#     8   8   8   8   8   8   8   8
#     4   9  19  33  54  83 111 137 177 229 273 322
#     4  10  19  32  51  79 109 136 173 222 268 315
#     4   9  17  30  53  83 113 141 178 227 274 323
#     4  11  23  37  53  78 111 144 182 225 269 322
#     4  10  21  37  55  74 102 141 180 217 262 317
#     4   9  17  29  49  78 106 137 177 221 267 314
#     4  10  19  35  58  79 107 145 183 223 274 327
#     4  10  20  35  57  84 111 145 184 223 276 332
#
# _framework density 21.896799000000001
#
# number of rings (size 3 to 8) (size 9 to 14) (size 15 to 20)
#    0.000    2.250    1.250    1.875    1.750    3.750 
#    0.000    1.250    0.000    1.125    0.000    0.000 
#    0.000    0.000    0.000    0.000    0.000    0.000 
#
# Total GULP energy -357691.096860 kJ/mol
# GULP energy per Si atom -5588.923388 kJ/mol
# Density = 2.184696 g / cm^3
# Si number density = 21.896799 Si / 1000 Ang^3
#
#
#
# Elastic Constant Matrix: (Units=GPa)
#
#
# Indices 1 2 3 4 5 6 
#
# 1 148.5896 79.3067 -6.2832 0.0000 0.0000 0.0000
# 2 79.3067 190.8060 -12.3944 0.0000 0.0000 0.0000
# 3 -6.2832 -12.3944 56.6235 0.0000 0.0000 0.0000
# 4 0.0000 0.0000 0.0000 -88.2662 0.0000 0.0000
# 5 0.0000 0.0000 0.0000 0.0000 17.8456 0.0000
# 6 0.0000 0.0000 0.0000 0.0000 0.0000 39.0894
#
#
#
# Elastic Compliance Matrix: (Units=1/GPa)
#
#
# Indices 1 2 3 4 5 6 
#
# 1 0.008650 -0.003584 0.000175 0.000000 0.000000 0.000000
# 2 -0.003584 0.006801 0.001091 0.000000 0.000000 0.000000
# 3 0.000175 0.001091 0.017919 0.000000 0.000000 0.000000
# 4 0.000000 0.000000 0.000000 -0.011329 0.000000 0.000000
# 5 0.000000 0.000000 0.000000 0.000000 0.056036 0.000000
# 6 0.000000 0.000000 0.000000 0.000000 0.000000 0.025582
#
#
# Mechanical properties :
#
#
# Convention : Reuss Voigt Hill
#
# Bulk Modulus (GPa) = 34.80029 57.47527 46.13778
# Shear Modulus (GPa) = 42.41845 16.09311 29.25578
#
# Velocity S-wave (km/s) = 4.40614 2.71394 3.65920
# Velocity P-wave (km/s) = 6.46628 6.01048 6.24254
#
# Compressibility (1/GPa) = 0.02873540
#
# Stress axis : x y z
#
# Youngs Moduli (GPa) = 115.60363 147.02738 55.80728
#
# Poissons Ratio (x) = 0.52695 -0.00979
# Poissons Ratio (y) = 0.41432 -0.06089
# Poissons Ratio (z) = -0.02027 -0.16042
#
# Static dielectric constant tensor:
#      x y z
#    x 1.764470 0.000000 0.000000 
#    y 0.000000 1.752770 0.000000 
#    z 0.000000 0.000000 1.830520 
# 
# From -- ./inp_files/8045.got.cif
#   From: 2010.05.17/outbox.cif.g08.bks.cpg/sg55_5_cif.got.tgz:8045.got - 2010.06.03 13:27:54.
