data_PCOD9425089
_publ_section_title
;
Structure prediction by ZEFSAII (Michael W. Deem and Ramdas Pophale) SiO2 
 PCOD9425089
Probable space group: P B A M
;
_chemical_formula_sum "Si O2"
_cell_formula_units_Z 56
_cell_length_a 14.387311
_cell_length_b 13.766706
_cell_length_c 13.324980
_cell_angle_alpha 90.000000
_cell_angle_beta 90.000000
_cell_angle_gamma 90.000000
_cell_volume 2639.223899
_symmetry_space_group_name_H-M "P B A M"
_symmetry_group_IT_number 55
_symmetry_cell_setting 'orthorhombic'
loop_
_space_group_symop_operation_xyz
x,y,z
-x,-y,z
1/2+x,1/2-y,-z
1/2-x,1/2+y,-z
-x,-y,-z
x,y,-z
1/2-x,1/2+y,z
1/2+x,1/2-y,z
loop_
_atom_site_type_symbol
_atom_site_label
_atom_site_fract_x
_atom_site_fract_y
_atom_site_fract_z
Si Si1 0.778475 0.542358 0.612433
Si Si2 0.162220 0.233158 0.812969
Si Si3 0.065814 0.711824 0.616947
Si Si4 0.440107 0.915180 0.243333
Si Si5 0.785134 0.836996 0.607589
Si Si6 0.610558 0.480616 0.886590
Si Si7 0.664737 0.658546 0.749958
O O1 0.817482 0.549475 0.500000
O O2 0.853606 0.535154 0.700164
O O3 0.707297 0.453141 0.611952
O O4 0.721352 0.635624 0.647423
O O5 0.098217 0.328290 0.827020
O O6 0.155490 0.207580 0.695284
O O7 0.136920 0.132523 0.866890
O O8 0.270463 0.269568 0.816940
O O9 0.044227 0.735723 0.500000
O O10 0.172967 0.673526 0.616716
O O11 0.071892 0.795093 0.703639
O O12 0.999675 0.631511 0.665710
O O13 0.500000 0.000000 0.192888
O O14 0.814847 0.799439 0.500000
O O15 0.500000 0.500000 0.880728
O O16 0.653143 0.558710 0.809839
O O17 0.640808 0.504143 0.000000
#
# Coordination Sequence:
#
# PCOD9425089 Si02
#       7
#     8   8   8   8   8   8   8
#     4  10  18  31  53  79 114 156 191 222 268 325
#     4  10  22  38  60  86 116 149 195 237 283 345
#     4  10  19  31  50  81 120 157 194 231 275 329
#     4  11  21  32  52  83 118 157 195 234 277 324
#     4   9  17  31  51  76 112 154 192 226 264 324
#     4  11  24  44  65  85 112 148 188 240 309 367
#     4  10  21  37  61  83 112 147 197 239 287 335
#
# _framework density 21.218359
#
# number of rings (size 3 to 8) (size 9 to 14) (size 15 to 20)
#    0.000    1.857    2.857    1.714    0.000    5.143 
#    0.000    0.000    0.000    2.571    0.000    0.000 
#    0.000    0.000    0.000    0.000    0.000    0.000 
#
# Total GULP energy -311935.526562 kJ/mol
# GULP energy per Si atom -5570.277260 kJ/mol
# Density = 2.117006 g / cm^3
# Si number density = 21.218359 Si / 1000 Ang^3
#
#
#
# Elastic Constant Matrix: (Units=GPa)
#
#
# Indices 1 2 3 4 5 6 
#
# 1 47.2566 18.6971 2.1631 0.0000 0.0000 0.0000
# 2 18.6971 118.7224 27.0096 0.0000 0.0000 0.0000
# 3 2.1631 27.0096 63.5306 0.0000 0.0000 0.0000
# 4 0.0000 0.0000 0.0000 16.1020 0.0000 0.0000
# 5 0.0000 0.0000 0.0000 0.0000 12.3564 0.0000
# 6 0.0000 0.0000 0.0000 0.0000 0.0000 36.9372
#
#
#
# Elastic Compliance Matrix: (Units=1/GPa)
#
#
# Indices 1 2 3 4 5 6 
#
# 1 0.022606 -0.003747 0.000824 0.000000 0.000000 0.000000
# 2 -0.003747 0.009946 -0.004101 0.000000 0.000000 0.000000
# 3 0.000824 -0.004101 0.017456 0.000000 0.000000 0.000000
# 4 0.000000 0.000000 0.000000 0.062104 0.000000 0.000000
# 5 0.000000 0.000000 0.000000 0.000000 0.080929 0.000000
# 6 0.000000 0.000000 0.000000 0.000000 0.000000 0.027073
#
#
# Mechanical properties :
#
#
# Convention : Reuss Voigt Hill
#
# Bulk Modulus (GPa) = 27.80999 36.13881 31.97440
# Shear Modulus (GPa) = 20.31279 25.18847 22.75063
#
# Velocity S-wave (km/s) = 3.09742 3.44918 3.27802
# Velocity P-wave (km/s) = 5.09186 5.73858 5.42486
#
# Compressibility (1/GPa) = 0.03595830
#
# Stress axis : x y z
#
# Youngs Moduli (GPa) = 44.23590 100.54133 57.28726
#
# Poissons Ratio (x) = 0.37678 -0.04718
# Poissons Ratio (y) = 0.16577 0.23493
# Poissons Ratio (z) = -0.03643 0.41231
#
# Static dielectric constant tensor:
#      x y z
#    x 1.817820 0.000000 0.000000 
#    y 0.000000 1.865430 0.000000 
#    z 0.000000 0.000000 1.729220 
# 
# From -- ./inp_files/14222.got.cif
#   From: 2010.05.17/outbox.cif.g08.bks.cpg/sg55_8_cif.got.tgz:14222.got - 2010.06.03 13:27:54.
