data_PCOD9425510
_publ_section_title
;
Structure prediction by ZEFSAII (Michael W. Deem and Ramdas Pophale) SiO2 
 PCOD9425510
Probable space group: P B A M
;
_chemical_formula_sum "Si O2"
_cell_formula_units_Z 64
_cell_length_a 19.692496
_cell_length_b 10.354449
_cell_length_c 16.651664
_cell_angle_alpha 90.000000
_cell_angle_beta 90.000000
_cell_angle_gamma 90.000000
_cell_volume 3395.356641
_symmetry_space_group_name_H-M "P B A M"
_symmetry_group_IT_number 55
_symmetry_cell_setting 'orthorhombic'
loop_
_space_group_symop_operation_xyz
x,y,z
-x,-y,z
1/2+x,1/2-y,-z
1/2-x,1/2+y,-z
-x,-y,-z
x,y,-z
1/2-x,1/2+y,z
1/2+x,1/2-y,z
loop_
_atom_site_type_symbol
_atom_site_label
_atom_site_fract_x
_atom_site_fract_y
_atom_site_fract_z
Si Si1 0.858568 0.203335 0.705719
Si Si2 0.214438 0.042203 0.905811
Si Si3 0.896992 0.782887 0.290381
Si Si4 0.839290 0.433811 0.408451
Si Si5 0.179301 0.032099 0.594226
Si Si6 0.574811 0.521231 0.172977
Si Si7 0.277624 0.810641 0.810770
Si Si8 0.045115 0.372308 0.412233
O O1 0.868570 0.336638 0.658173
O O2 0.785683 0.208406 0.750649
O O3 0.850363 0.093427 0.637892
O O4 0.910900 0.149232 0.772935
O O5 0.137660 0.992830 0.887911
O O6 0.220966 0.185085 0.868324
O O7 0.263012 0.941899 0.858965
O O8 0.228417 0.043074 0.000000
O O9 0.853056 0.845805 0.361754
O O10 0.917475 0.901259 0.234169
O O11 0.848031 0.690968 0.238353
O O12 0.959939 0.717318 0.335271
O O13 0.846682 0.380442 0.500000
O O14 0.760211 0.459318 0.393691
O O15 0.879349 0.568011 0.408288
O O16 0.165231 0.031200 0.500000
O O17 0.500000 0.500000 0.137415
O O18 0.033375 0.311121 0.500000
O O19 0.000000 0.500000 0.408275
#
# Coordination Sequence:
#
# PCOD9425510 Si02
#       8
#     8   8   8   8   8   8   8   8
#     4  10  19  32  52  73 108 133 172 224 260 309
#     4  10  21  38  60  86 113 138 164 211 268 335
#     4  10  19  34  54  73 106 138 176 226 265 306
#     4  10  20  30  48  72  99 136 176 220 264 303
#     4  10  19  31  50  76 104 140 179 224 277 311
#     4   9  21  36  54  80  99 136 177 212 257 311
#     4  10  20  34  57  85 110 137 171 211 274 327
#     4  10  22  35  47  68 101 145 189 219 257 304
#
# _framework density 18.849271999999999
#
# number of rings (size 3 to 8) (size 9 to 14) (size 15 to 20)
#    0.000    2.125    1.250    2.625    3.500    0.250 
#    0.000    0.000    0.000    2.250    0.000    0.000 
#    0.000   11.250    0.000    0.000    0.000    0.000 
#
# Total GULP energy -357075.292964 kJ/mol
# GULP energy per Si atom -5579.301453 kJ/mol
# Density = 1.880637 g / cm^3
# Si number density = 18.849272 Si / 1000 Ang^3
#
#
#
# Elastic Constant Matrix: (Units=GPa)
#
#
# Indices 1 2 3 4 5 6 
#
# 1 23.0110 -10.2333 -11.6832 0.0000 0.0000 0.0000
# 2 -10.2333 37.4045 14.3955 0.0000 0.0000 0.0000
# 3 -11.6832 14.3955 70.8751 0.0000 0.0000 0.0000
# 4 0.0000 0.0000 0.0000 20.3220 0.0000 0.0000
# 5 0.0000 0.0000 0.0000 0.0000 13.5170 0.0000
# 6 0.0000 0.0000 0.0000 0.0000 0.0000 14.0448
#
#
#
# Elastic Compliance Matrix: (Units=1/GPa)
#
#
# Indices 1 2 3 4 5 6 
#
# 1 0.051832 0.011816 0.006144 0.000000 0.000000 0.000000
# 2 0.011816 0.031695 -0.004490 0.000000 0.000000 0.000000
# 3 0.006144 -0.004490 0.016034 0.000000 0.000000 0.000000
# 4 0.000000 0.000000 0.000000 0.049208 0.000000 0.000000
# 5 0.000000 0.000000 0.000000 0.000000 0.073981 0.000000
# 6 0.000000 0.000000 0.000000 0.000000 0.000000 0.071201
#
#
# Mechanical properties :
#
#
# Convention : Reuss Voigt Hill
#
# Bulk Modulus (GPa) = 7.90506 12.91649 10.41078
# Shear Modulus (GPa) = 16.17192 18.83086 17.50139
#
# Velocity S-wave (km/s) = 2.93227 3.16416 3.05042
# Velocity P-wave (km/s) = 3.95819 4.49629 4.23579
#
# Compressibility (1/GPa) = 0.12650121
#
# Stress axis : x y z
#
# Youngs Moduli (GPa) = 19.29322 31.55030 62.36714
#
# Poissons Ratio (x) = -0.37279 -0.38319
# Poissons Ratio (y) = -0.22796 0.28002
# Poissons Ratio (z) = -0.11854 0.14166
#
# Static dielectric constant tensor:
#      x y z
#    x 1.683020 0.000000 0.000000 
#    y 0.000000 1.669420 0.000000 
#    z 0.000000 0.000000 1.649180 
# 
# From -- ./inp_files/19508.got.cif
#   From: 2010.05.17/outbox.cif.g08.bks.cpg/sg55_10_cif.got.tgz:19508.got - 2010.06.03 13:27:54.
