data_PCOD9425665
_publ_section_title
;
Structure prediction by ZEFSAII (Michael W. Deem and Ramdas Pophale) SiO2 
 PCOD9425665
Probable space group: P B A M
;
_chemical_formula_sum "Si O2"
_cell_formula_units_Z 64
_cell_length_a 11.962626
_cell_length_b 29.088087
_cell_length_c 9.216329
_cell_angle_alpha 90.000000
_cell_angle_beta 90.000000
_cell_angle_gamma 90.000000
_cell_volume 3207.005134
_symmetry_space_group_name_H-M "P B A M"
_symmetry_group_IT_number 55
_symmetry_cell_setting 'orthorhombic'
loop_
_space_group_symop_operation_xyz
x,y,z
-x,-y,z
1/2+x,1/2-y,-z
1/2-x,1/2+y,-z
-x,-y,-z
x,y,-z
1/2-x,1/2+y,z
1/2+x,1/2-y,z
loop_
_atom_site_type_symbol
_atom_site_label
_atom_site_fract_x
_atom_site_fract_y
_atom_site_fract_z
Si Si1 0.555890 0.428284 0.667924
Si Si2 0.511543 0.269887 0.172993
Si Si3 0.931278 0.679527 0.672080
Si Si4 0.322641 0.652490 0.173877
Si Si5 0.797259 0.168008 0.831679
Si Si6 0.388736 0.107824 0.674726
Si Si7 0.164766 0.941174 0.831764
Si Si8 0.786967 0.485730 0.666713
O O1 0.533601 0.416066 0.500000
O O2 0.588982 0.384384 0.764169
O O3 0.446528 0.450334 0.738148
O O4 0.666566 0.459717 0.668781
O O5 0.505075 0.222296 0.256380
O O6 0.625795 0.297643 0.207840
O O7 0.407596 0.303225 0.206722
O O8 0.510713 0.261785 0.000000
O O9 0.932182 0.684319 0.500000
O O10 0.994242 0.631856 0.708587
O O11 0.806976 0.680201 0.733035
O O12 0.207071 0.638320 0.248981
O O13 0.314366 0.648258 0.000000
O O14 0.816810 0.113427 0.821543
O O15 0.770521 0.178696 0.000000
O O16 0.370239 0.109331 0.500000
O O17 0.372203 0.054336 0.715937
O O18 0.267178 0.970183 0.765932
O O19 0.147453 0.953568 0.000000
O O20 0.812101 0.498796 0.500000
#
# Coordination Sequence:
#
# PCOD9425665 Si02
#       8
#     8   8   8   8   8   8   8   8
#     4  10  19  32  52  81 121 160 192 235 295 352
#     4  10  22  41  62  86 119 157 193 238 300 361
#     4  11  25  42  63  90 117 152 202 252 294 348
#     4  10  19  34  58  87 116 152 196 236 286 350
#     4  10  23  44  63  85 122 160 196 242 299 357
#     4   9  21  41  59  83 122 157 193 245 298 350
#     4  11  21  35  56  85 118 154 201 252 293 347
#     4   9  19  35  55  81 116 159 197 236 299 363
#
# _framework density 19.956313000000002
#
# number of rings (size 3 to 8) (size 9 to 14) (size 15 to 20)
#    0.000    2.000    1.250    2.625    1.750    7.500 
#    0.000    0.625    0.000    3.750    0.000    0.000 
#    0.000    0.000    0.000    0.000    0.000    0.000 
#
# Total GULP energy -357381.579632 kJ/mol
# GULP energy per Si atom -5584.087182 kJ/mol
# Density = 1.991089 g / cm^3
# Si number density = 19.956313 Si / 1000 Ang^3
#
#
#
# Elastic Constant Matrix: (Units=GPa)
#
#
# Indices 1 2 3 4 5 6 
#
# 1 31.0490 -7.8810 8.3723 0.0000 0.0000 0.0000
# 2 -7.8810 29.9082 7.9980 0.0000 0.0000 0.0000
# 3 8.3723 7.9980 23.3979 0.0000 0.0000 0.0000
# 4 0.0000 0.0000 0.0000 29.3728 0.0000 0.0000
# 5 0.0000 0.0000 0.0000 0.0000 25.2004 0.0000
# 6 0.0000 0.0000 0.0000 0.0000 0.0000 13.6571
#
#
#
# Elastic Compliance Matrix: (Units=1/GPa)
#
#
# Indices 1 2 3 4 5 6 
#
# 1 0.042006 0.016606 -0.020707 0.000000 0.000000 0.000000
# 2 0.016606 0.043365 -0.020765 0.000000 0.000000 0.000000
# 3 -0.020707 -0.020765 0.057247 0.000000 0.000000 0.000000
# 4 0.000000 0.000000 0.000000 0.034045 0.000000 0.000000
# 5 0.000000 0.000000 0.000000 0.000000 0.039682 0.000000
# 6 0.000000 0.000000 0.000000 0.000000 0.000000 0.073222
#
#
# Mechanical properties :
#
#
# Convention : Reuss Voigt Hill
#
# Bulk Modulus (GPa) = 10.76603 11.25931 11.01267
# Shear Modulus (GPa) = 13.50403 18.70379 16.10391
#
# Velocity S-wave (km/s) = 2.60413 3.06475 2.84378
# Velocity P-wave (km/s) = 3.80112 4.26355 4.03896
#
# Compressibility (1/GPa) = 0.09288474
#
# Stress axis : x y z
#
# Youngs Moduli (GPa) = 23.80609 23.06031 17.46831
#
# Poissons Ratio (x) = -0.38295 0.36172
# Poissons Ratio (y) = -0.39533 0.36274
# Poissons Ratio (z) = 0.49296 0.47885
#
# Static dielectric constant tensor:
#      x y z
#    x 1.701070 0.000000 0.000000 
#    y 0.000000 1.723360 0.000000 
#    z 0.000000 0.000000 1.671360 
# 
# From -- ./inp_files/4617.got.cif
#   From: 2010.05.17/outbox.cif.g08.bks.cpg/sg55_3_cif.got.tgz:4617.got - 2010.06.03 13:27:54.
