data_PCOD9425647
_publ_section_title
;
Structure prediction by ZEFSAII (Michael W. Deem and Ramdas Pophale) SiO2 
 PCOD9425647
Probable space group: P B A M
;
_chemical_formula_sum "Si O2"
_cell_formula_units_Z 54
_cell_length_a 32.403550
_cell_length_b 5.417554
_cell_length_c 14.440894
_cell_angle_alpha 90.000000
_cell_angle_beta 90.000000
_cell_angle_gamma 90.000000
_cell_volume 2535.069799
_symmetry_space_group_name_H-M "P B A M"
_symmetry_group_IT_number 55
_symmetry_cell_setting 'orthorhombic'
loop_
_space_group_symop_operation_xyz
x,y,z
-x,-y,z
1/2+x,1/2-y,-z
1/2-x,1/2+y,-z
-x,-y,-z
x,y,-z
1/2-x,1/2+y,z
1/2+x,1/2-y,z
loop_
_atom_site_type_symbol
_atom_site_label
_atom_site_fract_x
_atom_site_fract_y
_atom_site_fract_z
Si Si1 0.453122 0.496069 0.208995
Si Si2 0.621583 0.725833 0.895899
Si Si3 0.000000 0.500000 0.500000
Si Si4 0.776478 0.617467 0.000000
Si Si5 0.353788 0.969795 0.275322
Si Si6 0.737326 0.906852 0.315093
Si Si7 0.691590 0.389097 0.168268
Si Si8 0.438568 0.996357 0.672408
O O1 0.500000 0.500000 0.170976
O O2 0.416529 0.449532 0.134866
O O3 0.450148 0.256844 0.277661
O O4 0.446224 0.754140 0.263191
O O5 0.624521 0.933118 0.817970
O O6 0.665957 0.590661 0.887194
O O7 0.615696 0.814472 0.000000
O O8 0.965045 0.529965 0.418744
O O9 0.801360 0.670822 0.093914
O O10 0.755500 0.350826 0.000000
O O11 0.311130 0.111266 0.294626
O O12 0.389589 0.996348 0.348848
O O13 0.338375 0.696838 0.251098
O O14 0.754192 0.665591 0.364071
O O15 0.765346 0.941983 0.220651
#
# Coordination Sequence:
#
# PCOD9425647 Si02
#       8
#     8   8   2   4   8   8   8   8
#     4  11  22  45  64  90 128 171 199 258 321 373
#     4  11  23  36  56  85 121 173 228 267 303 352
#     4  12  24  46  76 118 118 154 192 250 340 402
#     4  12  26  34  48  78 115 163 217 285 312 332
#     4  10  22  39  54  83 128 166 207 260 316 360
#     4  10  19  32  52  77 110 162 215 246 298 360
#     4  11  21  33  53  77 117 166 218 265 308 351
#     4  11  24  40  71  97 131 153 193 254 324 401
#
# _framework density 21.301190999999999
#
# number of rings (size 3 to 8) (size 9 to 14) (size 15 to 20)
#    0.000    1.185    5.185    1.778    3.111    1.481 
#    0.000    0.000    0.000    2.667    0.000    4.148 
#    0.000    0.000    0.000    0.000    0.000    0.000 
#
# Total GULP energy -300689.467809 kJ/mol
# GULP energy per Si atom -5568.323478 kJ/mol
# Density = 2.125271 g / cm^3
# Si number density = 21.301191 Si / 1000 Ang^3
#
#
#
# Elastic Constant Matrix: (Units=GPa)
#
#
# Indices 1 2 3 4 5 6 
#
# 1 171.5454 24.7913 32.7408 0.0000 0.0000 0.0000
# 2 24.7913 109.7202 11.2122 0.0000 0.0000 0.0000
# 3 32.7408 11.2122 41.4431 0.0000 0.0000 0.0000
# 4 0.0000 0.0000 0.0000 -12.7560 0.0000 0.0000
# 5 0.0000 0.0000 0.0000 0.0000 29.4541 0.0000
# 6 0.0000 0.0000 0.0000 0.0000 0.0000 21.1977
#
#
#
# Elastic Compliance Matrix: (Units=1/GPa)
#
#
# Indices 1 2 3 4 5 6 
#
# 1 0.006978 -0.001042 -0.005231 0.000000 0.000000 0.000000
# 2 -0.001042 0.009529 -0.001755 0.000000 0.000000 0.000000
# 3 -0.005231 -0.001755 0.028737 0.000000 0.000000 0.000000
# 4 0.000000 0.000000 0.000000 -0.078395 0.000000 0.000000
# 5 0.000000 0.000000 0.000000 0.000000 0.033951 0.000000
# 6 0.000000 0.000000 0.000000 0.000000 0.000000 0.047175
#
#
# Mechanical properties :
#
#
# Convention : Reuss Voigt Hill
#
# Bulk Modulus (GPa) = 34.26033 51.13302 42.69667
# Shear Modulus (GPa) = 67.78683 24.51014 46.14848
#
# Velocity S-wave (km/s) = 5.64731 3.39580 4.65959
# Velocity P-wave (km/s) = 7.65777 6.27950 7.00263
#
# Compressibility (1/GPa) = 0.02918828
#
# Stress axis : x y z
#
# Youngs Moduli (GPa) = 143.29996 104.94408 34.79854
#
# Poissons Ratio (x) = 0.10937 0.18203
# Poissons Ratio (y) = 0.14935 0.06106
# Poissons Ratio (z) = 0.74961 0.18414
#
# Static dielectric constant tensor:
#      x y z
#    x 1.842070 0.000000 0.000000 
#    y 0.000000 1.861310 0.000000 
#    z 0.000000 0.000000 1.720440 
# 
# From -- ./inp_files/16787.got.cif
#   From: 2010.05.17/outbox.cif.g08.bks.cpg/sg55_9_cif.got.tgz:16787.got - 2010.06.03 13:27:54.
