data_PCOD9425322
_publ_section_title
;
Structure prediction by ZEFSAII (Michael W. Deem and Ramdas Pophale) SiO2 
 PCOD9425322
Probable space group: P B A M
;
_chemical_formula_sum "Si O2"
_cell_formula_units_Z 36
_cell_length_a 4.948635
_cell_length_b 24.183798
_cell_length_c 16.959241
_cell_angle_alpha 90.000000
_cell_angle_beta 90.000000
_cell_angle_gamma 90.000000
_cell_volume 2029.627510
_symmetry_space_group_name_H-M "P B A M"
_symmetry_group_IT_number 55
_symmetry_cell_setting 'orthorhombic'
loop_
_space_group_symop_operation_xyz
x,y,z
-x,-y,z
1/2+x,1/2-y,-z
1/2-x,1/2+y,-z
-x,-y,-z
x,y,-z
1/2-x,1/2+y,z
1/2+x,1/2-y,z
loop_
_atom_site_type_symbol
_atom_site_label
_atom_site_fract_x
_atom_site_fract_y
_atom_site_fract_z
Si Si1 0.018602 0.854085 0.341850
Si Si2 0.752981 0.537398 0.296050
Si Si3 0.341919 0.212508 0.090220
Si Si4 0.985850 0.641022 0.236073
Si Si5 0.563182 0.713736 0.500000
O O1 0.137332 0.916006 0.355630
O O2 0.238938 0.828297 0.281045
O O3 0.000302 0.820500 0.421526
O O4 0.737599 0.859115 0.296000
O O5 0.500000 0.500000 0.271630
O O6 0.124318 0.421895 0.229060
O O7 0.000000 0.500000 0.325379
O O8 0.538536 0.265449 0.100128
O O9 0.425449 0.168452 0.155382
O O10 0.377586 0.192952 0.000000
O O11 0.373806 0.767646 0.500000
#
# Coordination Sequence:
#
# PCOD9425322 Si02
#       5
#     8   8   8   8   4
#     4  10  22  37  56  85 106 148 190 216 270 333
#     4  10  18  36  59  81 106 139 183 232 277 314
#     4  10  21  35  54  83 117 147 178 224 272 317
#     4  10  20  35  59  82 109 144 190 221 264 342
#     4  12  26  40  56  79 122 149 174 230 272 314
#
# _framework density 17.737245999999999
#
# number of rings (size 3 to 8) (size 9 to 14) (size 15 to 20)
#    1.333    0.444    2.222    2.667    0.000    5.333 
#    0.000    1.111    0.000    1.333    0.000    0.000 
#    0.000    0.000    0.000    0.000    0.000    0.000 
#
# Total GULP energy -200434.406251 kJ/mol
# GULP energy per Si atom -5567.622396 kJ/mol
# Density = 1.769688 g / cm^3
# Si number density = 17.737246 Si / 1000 Ang^3
#
#
#
# Elastic Constant Matrix: (Units=GPa)
#
#
# Indices 1 2 3 4 5 6 
#
# 1 84.8248 3.1212 14.1081 0.0000 0.0000 0.0000
# 2 3.1212 57.5699 41.7826 0.0000 0.0000 0.0000
# 3 14.1081 41.7826 79.8865 0.0000 0.0000 0.0000
# 4 0.0000 0.0000 0.0000 -22.6397 0.0000 0.0000
# 5 0.0000 0.0000 0.0000 0.0000 25.3411 0.0000
# 6 0.0000 0.0000 0.0000 0.0000 0.0000 25.0529
#
#
#
# Elastic Compliance Matrix: (Units=1/GPa)
#
#
# Indices 1 2 3 4 5 6 
#
# 1 0.012221 0.001457 -0.002920 0.000000 0.000000 0.000000
# 2 0.001457 0.028172 -0.014992 0.000000 0.000000 0.000000
# 3 -0.002920 -0.014992 0.020875 0.000000 0.000000 0.000000
# 4 0.000000 0.000000 0.000000 -0.044170 0.000000 0.000000
# 5 0.000000 0.000000 0.000000 0.000000 0.039462 0.000000
# 6 0.000000 0.000000 0.000000 0.000000 0.000000 0.039916
#
#
# Mechanical properties :
#
#
# Convention : Reuss Voigt Hill
#
# Bulk Modulus (GPa) = 35.26461 37.81167 36.53814
# Shear Modulus (GPa) = 36.01337 16.43547 26.22442
#
# Velocity S-wave (km/s) = 4.51086 3.04733 3.84929
# Velocity P-wave (km/s) = 6.85969 5.80909 6.35613
#
# Compressibility (1/GPa) = 0.02835704
#
# Stress axis : x y z
#
# Youngs Moduli (GPa) = 81.82577 35.49642 47.90517
#
# Poissons Ratio (x) = -0.05171 0.13989
# Poissons Ratio (y) = -0.11921 0.71819
# Poissons Ratio (z) = 0.23895 0.53216
#
# Static dielectric constant tensor:
#      x y z
#    x 1.633970 0.000000 0.000000 
#    y 0.000000 1.633790 0.000000 
#    z 0.000000 0.000000 1.574260 
# 
# From -- ./inp_files/16491.got.cif
#   From: 2010.05.17/outbox.cif.g08.bks.cpg/sg55_9_cif.got.tgz:16491.got - 2010.06.03 13:27:54.
