data_PCOD9425976
_publ_section_title
;
Structure prediction by ZEFSAII (Michael W. Deem and Ramdas Pophale) SiO2 
 PCOD9425976
Probable space group: P B A M
;
_chemical_formula_sum "Si O2"
_cell_formula_units_Z 48
_cell_length_a 12.908244
_cell_length_b 13.737839
_cell_length_c 16.017651
_cell_angle_alpha 90.000000
_cell_angle_beta 90.000000
_cell_angle_gamma 90.000000
_cell_volume 2840.432122
_symmetry_space_group_name_H-M "P B A M"
_symmetry_group_IT_number 55
_symmetry_cell_setting 'orthorhombic'
loop_
_space_group_symop_operation_xyz
x,y,z
-x,-y,z
1/2+x,1/2-y,-z
1/2-x,1/2+y,-z
-x,-y,-z
x,y,-z
1/2-x,1/2+y,z
1/2+x,1/2-y,z
loop_
_atom_site_type_symbol
_atom_site_label
_atom_site_fract_x
_atom_site_fract_y
_atom_site_fract_z
Si Si1 0.492060 0.155665 0.000000
Si Si2 0.067774 0.280358 0.173709
Si Si3 0.478283 0.614195 0.594136
Si Si4 0.246735 0.438587 0.179852
Si Si5 0.319301 0.999882 0.000000
Si Si6 0.800115 0.864890 0.269160
Si Si7 0.120197 0.785444 0.722709
O O1 0.515750 0.215454 0.083185
O O2 0.582505 0.073748 0.000000
O O3 0.378892 0.104340 0.000000
O O4 0.142031 0.373761 0.187184
O O5 0.137283 0.185479 0.192458
O O6 0.973898 0.275113 0.238026
O O7 0.500000 0.500000 0.589827
O O8 0.462256 0.651406 0.500000
O O9 0.380169 0.626073 0.654923
O O10 0.575188 0.663545 0.640743
O O11 0.244735 0.476852 0.084124
O O12 0.253695 0.532944 0.238811
O O13 0.338370 0.366522 0.210999
O O14 0.712641 0.788299 0.293826
#
# Coordination Sequence:
#
# PCOD9425976 Si02
#       7
#     4   8   8   8   4   8   8
#     4   9  16  32  46  71 105 139 180 215 255 307
#     4   9  20  32  51  77 106 145 182 218 263 306
#     4  10  20  37  59  79 103 137 170 211 268 324
#     4  10  19  34  50  78 110 140 185 222 254 315
#     4   9  18  28  50  71 101 145 174 215 265 293
#     4  10  20  34  56  79 105 140 176 217 267 311
#     4  10  20  35  55  80 105 140 176 217 264 315
#
# _framework density 16.898837
#
# number of rings (size 3 to 8) (size 9 to 14) (size 15 to 20)
#    0.000    2.333    1.667    1.000    0.000    4.000 
#    0.000    3.333    0.000    3.000    0.000    4.667 
#    0.000    0.000    0.000    0.000    0.000    0.000 
#
# Total GULP energy -267355.410527 kJ/mol
# GULP energy per Si atom -5569.904386 kJ/mol
# Density = 1.686037 g / cm^3
# Si number density = 16.898837 Si / 1000 Ang^3
#
#
#
# Elastic Constant Matrix: (Units=GPa)
#
#
# Indices 1 2 3 4 5 6 
#
# 1 66.0726 45.7687 43.4733 0.0000 0.0000 0.0000
# 2 45.7687 77.3755 54.0840 0.0000 0.0000 0.0000
# 3 43.4733 54.0840 123.5112 0.0000 0.0000 0.0000
# 4 0.0000 0.0000 0.0000 21.8764 0.0000 0.0000
# 5 0.0000 0.0000 0.0000 0.0000 37.3178 0.0000
# 6 0.0000 0.0000 0.0000 0.0000 0.0000 14.0498
#
#
#
# Elastic Compliance Matrix: (Units=1/GPa)
#
#
# Indices 1 2 3 4 5 6 
#
# 1 0.026694 -0.013290 -0.003576 0.000000 0.000000 0.000000
# 2 -0.013290 0.025241 -0.006375 0.000000 0.000000 0.000000
# 3 -0.003576 -0.006375 0.012147 0.000000 0.000000 0.000000
# 4 0.000000 0.000000 0.000000 0.045711 0.000000 0.000000
# 5 0.000000 0.000000 0.000000 0.000000 0.026797 0.000000
# 6 0.000000 0.000000 0.000000 0.000000 0.000000 0.071175
#
#
# Mechanical properties :
#
#
# Convention : Reuss Voigt Hill
#
# Bulk Modulus (GPa) = 56.82023 61.51237 59.16630
# Shear Modulus (GPa) = 19.22229 22.89103 21.05666
#
# Velocity S-wave (km/s) = 3.37633 3.68447 3.53376
# Velocity P-wave (km/s) = 6.99258 7.38782 7.19291
#
# Compressibility (1/GPa) = 0.01759936
#
# Stress axis : x y z
#
# Youngs Moduli (GPa) = 37.46159 39.61752 82.32720
#
# Poissons Ratio (x) = 0.52653 0.29441
# Poissons Ratio (y) = 0.49787 0.52483
# Poissons Ratio (z) = 0.13397 0.25256
#
# Static dielectric constant tensor:
#      x y z
#    x 1.573590 0.000000 0.000000 
#    y 0.000000 1.580530 0.000000 
#    z 0.000000 0.000000 1.566030 
# 
# From -- ./inp_files/18302.got.cif
#   From: 2010.05.17/outbox.cif.g08.bks.cpg/sg55_10_cif.got.tgz:18302.got - 2010.06.03 13:27:54.
