data_PCOD9425511
_publ_section_title
;
Structure prediction by ZEFSAII (Michael W. Deem and Ramdas Pophale) SiO2 
 PCOD9425511
Probable space group: P B A M
;
_chemical_formula_sum "Si O2"
_cell_formula_units_Z 64
_cell_length_a 14.273883
_cell_length_b 20.699351
_cell_length_c 9.855390
_cell_angle_alpha 90.000000
_cell_angle_beta 90.000000
_cell_angle_gamma 90.000000
_cell_volume 2911.874656
_symmetry_space_group_name_H-M "P B A M"
_symmetry_group_IT_number 55
_symmetry_cell_setting 'orthorhombic'
loop_
_space_group_symop_operation_xyz
x,y,z
-x,-y,z
1/2+x,1/2-y,-z
1/2-x,1/2+y,-z
-x,-y,-z
x,y,-z
1/2-x,1/2+y,z
1/2+x,1/2-y,z
loop_
_atom_site_type_symbol
_atom_site_label
_atom_site_fract_x
_atom_site_fract_y
_atom_site_fract_z
Si Si1 0.792348 0.020973 0.653853
Si Si2 0.952191 0.130369 0.651761
Si Si3 0.055100 0.766438 0.147116
Si Si4 0.182324 0.640632 0.154719
Si Si5 0.150407 0.366854 0.658935
Si Si6 0.918384 0.945133 0.845885
Si Si7 0.831282 0.754068 0.843143
Si Si8 0.044899 0.568456 0.660475
O O1 0.783479 0.993371 0.500000
O O2 0.703108 0.065336 0.686245
O O3 0.877302 0.072950 0.645810
O O4 0.826842 0.973453 0.771974
O O5 0.982569 0.146196 0.500000
O O6 0.909460 0.191101 0.728779
O O7 0.036613 0.106414 0.745232
O O8 0.943350 0.761005 0.158838
O O9 0.104876 0.697870 0.148942
O O10 0.075430 0.797822 0.000000
O O11 0.275336 0.680784 0.196952
O O12 0.136147 0.589255 0.256099
O O13 0.192981 0.616074 0.000000
O O14 0.167473 0.352438 0.500000
O O15 0.186573 0.308396 0.750578
O O16 0.039857 0.380146 0.677540
O O17 0.902385 0.922737 0.000000
O O18 0.000000 0.000000 0.853499
O O19 0.803018 0.741924 0.000000
O O20 0.066179 0.564318 0.500000
O O21 0.000000 0.500000 0.702459
#
# Coordination Sequence:
#
# PCOD9425511 Si02
#       8
#     8   8   8   8   8   8   8   8
#     4   9  18  32  50  76 108 142 185 238 286 339
#     4  10  19  31  50  76 108 148 188 228 285 349
#     4  10  20  35  54  79 114 147 181 235 292 348
#     4  10  21  39  63  89 118 155 196 245 303 359
#     4  10  20  36  59  85 115 150 194 245 296 355
#     4   9  17  30  48  70 101 141 182 224 271 328
#     4  10  21  37  59  87 118 149 189 242 298 357
#     4  10  22  41  63  87 120 161 204 253 303 355
#
# _framework density 21.978967999999998
#
# number of rings (size 3 to 8) (size 9 to 14) (size 15 to 20)
#    0.000    2.250    1.250    1.500    0.000    4.250 
#    2.250    0.000    0.000    0.000    0.000    0.000 
#    0.000    0.000    0.000    0.000    0.000    0.000 
#
# Total GULP energy -357577.907138 kJ/mol
# GULP energy per Si atom -5587.154799 kJ/mol
# Density = 2.192894 g / cm^3
# Si number density = 21.978968 Si / 1000 Ang^3
#
#
#
# Elastic Constant Matrix: (Units=GPa)
#
#
# Indices 1 2 3 4 5 6 
#
# 1 128.1241 13.7442 27.5582 0.0000 0.0000 0.0000
# 2 13.7442 56.6715 41.8673 0.0000 0.0000 0.0000
# 3 27.5582 41.8673 115.2997 0.0000 0.0000 0.0000
# 4 0.0000 0.0000 0.0000 34.0053 0.0000 0.0000
# 5 0.0000 0.0000 0.0000 0.0000 15.8791 0.0000
# 6 0.0000 0.0000 0.0000 0.0000 0.0000 39.4785
#
#
#
# Elastic Compliance Matrix: (Units=1/GPa)
#
#
# Indices 1 2 3 4 5 6 
#
# 1 0.008251 -0.000744 -0.001702 0.000000 0.000000 0.000000
# 2 -0.000744 0.024182 -0.008603 0.000000 0.000000 0.000000
# 3 -0.001702 -0.008603 0.012204 0.000000 0.000000 0.000000
# 4 0.000000 0.000000 0.000000 0.029407 0.000000 0.000000
# 5 0.000000 0.000000 0.000000 0.000000 0.062976 0.000000
# 6 0.000000 0.000000 0.000000 0.000000 0.000000 0.025330
#
#
# Mechanical properties :
#
#
# Convention : Reuss Voigt Hill
#
# Bulk Modulus (GPa) = 44.36788 51.82607 48.09698
# Shear Modulus (GPa) = 26.04713 32.33429 29.19071
#
# Velocity S-wave (km/s) = 3.44625 3.83971 3.64829
# Velocity P-wave (km/s) = 6.00549 6.57943 6.29900
#
# Compressibility (1/GPa) = 0.02253883
#
# Stress axis : x y z
#
# Youngs Moduli (GPa) = 121.20054 41.35380 81.94188
#
# Poissons Ratio (x) = 0.03075 0.13947
# Poissons Ratio (y) = 0.09012 0.70495
# Poissons Ratio (z) = 0.20629 0.35577
#
# Static dielectric constant tensor:
#      x y z
#    x 1.842050 0.000000 0.000000 
#    y 0.000000 1.830210 0.000000 
#    z 0.000000 0.000000 1.779370 
# 
# From -- ./inp_files/6657.got.cif
#   From: 2010.05.17/outbox.cif.g08.bks.cpg/sg55_4_cif.got.tgz:6657.got - 2010.06.03 13:27:54.
