data_PCOD9425719
_publ_section_title
;
Structure prediction by ZEFSAII (Michael W. Deem and Ramdas Pophale) SiO2 
 PCOD9425719
Probable space group: P B A M
;
_chemical_formula_sum "Si O2"
_cell_formula_units_Z 56
_cell_length_a 18.058299
_cell_length_b 19.347293
_cell_length_c 7.795001
_cell_angle_alpha 90.000000
_cell_angle_beta 90.000000
_cell_angle_gamma 90.000000
_cell_volume 2723.411228
_symmetry_space_group_name_H-M "P B A M"
_symmetry_group_IT_number 55
_symmetry_cell_setting 'orthorhombic'
loop_
_space_group_symop_operation_xyz
x,y,z
-x,-y,z
1/2+x,1/2-y,-z
1/2-x,1/2+y,-z
-x,-y,-z
x,y,-z
1/2-x,1/2+y,z
1/2+x,1/2-y,z
loop_
_atom_site_type_symbol
_atom_site_label
_atom_site_fract_x
_atom_site_fract_y
_atom_site_fract_z
Si Si1 0.305999 0.392361 0.206756
Si Si2 0.242512 0.039831 0.204844
Si Si3 0.440991 0.903474 0.709676
Si Si4 0.402720 0.059794 0.706044
Si Si5 0.526898 0.577324 0.209541
Si Si6 0.879389 0.855862 0.795126
Si Si7 0.178623 0.293954 0.296365
O O1 0.262035 0.461003 0.269830
O O2 0.390779 0.401425 0.267344
O O3 0.259265 0.324874 0.255131
O O4 0.307640 0.393457 0.000000
O O5 0.320122 0.076847 0.239596
O O6 0.174523 0.084415 0.274173
O O7 0.234376 0.035558 0.000000
O O8 0.439529 0.902482 0.500000
O O9 0.526744 0.895518 0.763876
O O10 0.383264 0.847226 0.774190
O O11 0.417141 0.980603 0.762702
O O12 0.404129 0.059828 0.500000
O O13 0.500000 0.500000 0.259563
O O14 0.462969 0.630611 0.266469
O O15 0.530132 0.576396 0.000000
O O16 0.842488 0.782265 0.762785
O O17 0.882819 0.864869 0.000000
O O18 0.171949 0.293847 0.500000
#
# Coordination Sequence:
#
# PCOD9425719 Si02
#       7
#     8   8   8   8   8   8   8
#     4  10  19  34  60  88 112 142 184 231 281 337
#     4  10  19  32  54  84 112 136 174 229 276 322
#     4   8  16  31  52  74  99 138 181 219 262 319
#     4   9  16  31  54  76 101 137 180 220 265 320
#     4   9  16  33  62  88 108 140 185 232 284 339
#     4  10  21  38  58  81 112 146 183 229 280 336
#     4  11  22  38  56  78 112 152 189 228 280 338
#
# _framework density 20.562446999999999
#
# number of rings (size 3 to 8) (size 9 to 14) (size 15 to 20)
#    0.000    2.429    2.857    1.286    0.000    0.571 
#    2.571    3.571    0.000    0.857    0.000    0.000 
#    0.000    0.000    0.000    0.000    0.000    0.000 
#
# Total GULP energy -312294.835760 kJ/mol
# GULP energy per Si atom -5576.693496 kJ/mol
# Density = 2.051565 g / cm^3
# Si number density = 20.562447 Si / 1000 Ang^3
#
#
#
# Elastic Constant Matrix: (Units=GPa)
#
#
# Indices 1 2 3 4 5 6 
#
# 1 157.2851 37.4537 -1.6815 0.0000 0.0000 0.0000
# 2 37.4537 71.6758 -4.5073 0.0000 0.0000 0.0000
# 3 -1.6815 -4.5073 20.5224 0.0000 0.0000 0.0000
# 4 0.0000 0.0000 0.0000 5.6261 0.0000 0.0000
# 5 0.0000 0.0000 0.0000 0.0000 21.4533 0.0000
# 6 0.0000 0.0000 0.0000 0.0000 0.0000 30.2022
#
#
#
# Elastic Compliance Matrix: (Units=1/GPa)
#
#
# Indices 1 2 3 4 5 6 
#
# 1 0.007263 -0.003810 -0.000242 0.000000 0.000000 0.000000
# 2 -0.003810 0.016146 0.003234 0.000000 0.000000 0.000000
# 3 -0.000242 0.003234 0.049418 0.000000 0.000000 0.000000
# 4 0.000000 0.000000 0.000000 0.177743 0.000000 0.000000
# 5 0.000000 0.000000 0.000000 0.000000 0.046613 0.000000
# 6 0.000000 0.000000 0.000000 0.000000 0.000000 0.033110
#
#
# Mechanical properties :
#
#
# Convention : Reuss Voigt Hill
#
# Bulk Modulus (GPa) = 14.04683 34.66810 24.35747
# Shear Modulus (GPa) = 14.05841 26.00421 20.03131
#
# Velocity S-wave (km/s) = 2.61759 3.56004 3.12456
# Velocity P-wave (km/s) = 3.99773 5.81335 4.98883
#
# Compressibility (1/GPa) = 0.07119042
#
# Stress axis : x y z
#
# Youngs Moduli (GPa) = 137.69151 61.93451 20.23562
#
# Poissons Ratio (x) = 0.23598 0.00489
# Poissons Ratio (y) = 0.52464 -0.06544
# Poissons Ratio (z) = 0.03329 -0.20029
#
# Static dielectric constant tensor:
#      x y z
#    x 1.770550 0.000000 0.000000 
#    y 0.000000 1.721800 0.000000 
#    z 0.000000 0.000000 1.752680 
# 
# From -- ./inp_files/7863.got.cif
#   From: 2010.05.17/outbox.cif.g08.bks.cpg/sg55_4_cif.got.tgz:7863.got - 2010.06.03 13:27:54.
