data_PCOD9425508
_publ_section_title
;
Structure prediction by ZEFSAII (Michael W. Deem and Ramdas Pophale) SiO2 
 PCOD9425508
Probable space group: P B A M
;
_chemical_formula_sum "Si O2"
_cell_formula_units_Z 64
_cell_length_a 12.289361
_cell_length_b 28.658248
_cell_length_c 7.490007
_cell_angle_alpha 90.000000
_cell_angle_beta 90.000000
_cell_angle_gamma 90.000000
_cell_volume 2637.917215
_symmetry_space_group_name_H-M "P B A M"
_symmetry_group_IT_number 55
_symmetry_cell_setting 'orthorhombic'
loop_
_space_group_symop_operation_xyz
x,y,z
-x,-y,z
1/2+x,1/2-y,-z
1/2-x,1/2+y,-z
-x,-y,-z
x,y,-z
1/2-x,1/2+y,z
1/2+x,1/2-y,z
loop_
_atom_site_type_symbol
_atom_site_label
_atom_site_fract_x
_atom_site_fract_y
_atom_site_fract_z
Si Si1 0.279484 0.351711 0.203538
Si Si2 0.703238 0.993891 0.298356
Si Si3 0.915908 0.345772 0.705625
Si Si4 0.179760 0.179533 0.715727
Si Si5 0.079040 0.420089 0.718887
Si Si6 0.895612 0.062029 0.788649
Si Si7 0.115297 0.281558 0.791197
Si Si8 0.366264 0.577477 0.284715
O O1 0.175823 0.386763 0.212385
O O2 0.372225 0.385135 0.281369
O O3 0.227359 0.304808 0.282898
O O4 0.312417 0.341237 0.000000
O O5 0.667107 0.982148 0.500000
O O6 0.610195 0.027704 0.222184
O O7 0.810179 0.027651 0.303227
O O8 0.757524 0.948092 0.215658
O O9 0.890230 0.356926 0.500000
O O10 0.969840 0.393604 0.777637
O O11 0.010814 0.306912 0.709755
O O12 0.804924 0.324814 0.780682
O O13 0.178128 0.181465 0.500000
O O14 0.121290 0.226392 0.775415
O O15 0.127754 0.130840 0.774366
O O16 0.083260 0.419536 0.500000
O O17 0.022302 0.052355 0.766279
O O18 0.870010 0.060546 0.000000
O O19 0.111310 0.293925 0.000000
O O20 0.358897 0.576469 0.500000
#
# Coordination Sequence:
#
# PCOD9425508 Si02
#       8
#     8   8   8   8   8   8   8   8
#     4   8  16  30  47  71 100 126 157 201 250 296
#     4   9  17  31  51  74 101 134 170 207 250 302
#     4   9  18  35  57  78 102 132 167 209 256 305
#     4  10  22  38  53  73 104 139 172 208 253 304
#     4   8  14  27  50  76  97 122 161 204 244 290
#     4  10  19  31  50  76 104 133 167 209 255 302
#     4  10  20  35  56  79 102 131 169 212 256 305
#     4  10  21  35  48  67 101 140 173 207 251 302
#
# _framework density 24.261566999999999
#
# number of rings (size 3 to 8) (size 9 to 14) (size 15 to 20)
#    0.000    2.750    0.000    1.125    0.000    5.000 
#    0.000    3.125    0.000    3.750    0.000    0.000 
#    0.000   12.000    0.000    0.000    0.000    0.000 
#
# Total GULP energy -357087.873322 kJ/mol
# GULP energy per Si atom -5579.498021 kJ/mol
# Density = 2.420635 g / cm^3
# Si number density = 24.261567 Si / 1000 Ang^3
#
#
#
# Elastic Constant Matrix: (Units=GPa)
#
#
# Indices 1 2 3 4 5 6 
#
# 1 94.7619 36.5770 -7.1019 0.0000 0.0000 0.0000
# 2 36.5770 102.3570 -4.7330 0.0000 0.0000 0.0000
# 3 -7.1019 -4.7330 82.8350 0.0000 0.0000 0.0000
# 4 0.0000 0.0000 0.0000 2.9202 0.0000 0.0000
# 5 0.0000 0.0000 0.0000 0.0000 13.3498 0.0000
# 6 0.0000 0.0000 0.0000 0.0000 0.0000 29.6044
#
#
#
# Elastic Compliance Matrix: (Units=1/GPa)
#
#
# Indices 1 2 3 4 5 6 
#
# 1 0.012295 -0.004356 0.000805 0.000000 0.000000 0.000000
# 2 -0.004356 0.011339 0.000274 0.000000 0.000000 0.000000
# 3 0.000805 0.000274 0.012157 0.000000 0.000000 0.000000
# 4 0.000000 0.000000 0.000000 0.342440 0.000000 0.000000
# 5 0.000000 0.000000 0.000000 0.000000 0.074907 0.000000
# 6 0.000000 0.000000 0.000000 0.000000 0.000000 0.033779
#
#
# Mechanical properties :
#
#
# Convention : Reuss Voigt Hill
#
# Bulk Modulus (GPa) = 34.20284 36.60422 35.40353
# Shear Modulus (GPa) = 9.93611 26.18901 18.06256
#
# Velocity S-wave (km/s) = 2.02591 3.28905 2.73150
# Velocity P-wave (km/s) = 4.42725 5.43543 4.95704
#
# Compressibility (1/GPa) = 0.02923734
#
# Stress axis : x y z
#
# Youngs Moduli (GPa) = 81.33687 88.19052 82.25778
#
# Poissons Ratio (x) = 0.38417 -0.06623
# Poissons Ratio (y) = 0.35432 -0.02257
# Poissons Ratio (z) = -0.06549 -0.02420
#
# Static dielectric constant tensor:
#      x y z
#    x 1.925510 0.000000 0.000000 
#    y 0.000000 1.971290 0.000000 
#    z 0.000000 0.000000 2.191990 
# 
# From -- ./inp_files/4577.got.cif
#   From: 2010.05.17/outbox.cif.g08.bks.cpg/sg55_3_cif.got.tgz:4577.got - 2010.06.03 13:27:54.
