data_PCOD9425852
_publ_section_title
;
Structure prediction by ZEFSAII (Michael W. Deem and Ramdas Pophale) SiO2 
 PCOD9425852
Probable space group: P B A M
;
_chemical_formula_sum "Si O2"
_cell_formula_units_Z 64
_cell_length_a 18.154249
_cell_length_b 15.846331
_cell_length_c 11.145581
_cell_angle_alpha 90.000000
_cell_angle_beta 90.000000
_cell_angle_gamma 90.000000
_cell_volume 3206.341111
_symmetry_space_group_name_H-M "P B A M"
_symmetry_group_IT_number 55
_symmetry_cell_setting 'orthorhombic'
loop_
_space_group_symop_operation_xyz
x,y,z
-x,-y,z
1/2+x,1/2-y,-z
1/2-x,1/2+y,-z
-x,-y,-z
x,y,-z
1/2-x,1/2+y,z
1/2+x,1/2-y,z
loop_
_atom_site_type_symbol
_atom_site_label
_atom_site_fract_x
_atom_site_fract_y
_atom_site_fract_z
Si Si1 0.809944 0.891536 0.862420
Si Si2 0.208835 0.768991 0.135820
Si Si3 0.088087 0.506797 0.136857
Si Si4 0.931853 0.310317 0.143963
Si Si5 0.803358 0.019213 0.364639
Si Si6 0.174434 0.369977 0.710206
Si Si7 0.036181 0.914260 0.642080
Si Si8 0.568683 0.272094 0.747884
O O1 0.742601 0.825383 0.864748
O O2 0.879735 0.831877 0.829423
O O3 0.799959 0.956101 0.750623
O O4 0.816998 0.926077 0.000000
O O5 0.126319 0.760104 0.184282
O O6 0.265789 0.825891 0.204625
O O7 0.204593 0.800047 0.000000
O O8 0.095890 0.599971 0.191595
O O9 0.124724 0.435757 0.216608
O O10 0.000000 0.500000 0.129199
O O11 0.117538 0.502061 0.000000
O O12 0.014717 0.288010 0.176479
O O13 0.926971 0.316059 0.000000
O O14 0.814299 0.980476 0.500000
O O15 0.728521 0.073758 0.370537
O O16 0.875965 0.076309 0.340392
O O17 0.121444 0.291603 0.671913
O O18 0.025963 0.916163 0.500000
O O19 0.988137 0.834768 0.683318
O O20 0.000000 0.000000 0.694960
#
# Coordination Sequence:
#
# PCOD9425852 Si02
#       8
#     8   8   8   8   8   8   8   8
#     4  10  21  38  61  92 125 162 207 260 317 372
#     4   9  19  34  55  87 127 166 206 259 317 370
#     4  10  19  33  57  89 125 171 214 250 300 372
#     4  10  19  33  54  85 125 166 205 251 310 376
#     4  11  24  43  64  90 123 164 211 257 309 378
#     4  11  22  36  59  89 123 165 208 264 310 369
#     4  10  21  41  67  89 115 159 209 252 306 381
#     4  11  21  36  61  92 124 157 200 266 320 369
#
# _framework density 19.960445
#
# number of rings (size 3 to 8) (size 9 to 14) (size 15 to 20)
#    0.000    1.750    2.500    2.250    0.000    3.500 
#    0.000    3.750    0.000    6.375    0.000    0.000 
#    0.000    0.000    0.000    0.000    0.000    0.000 
#
# Total GULP energy -356374.839613 kJ/mol
# GULP energy per Si atom -5568.356869 kJ/mol
# Density = 1.991501 g / cm^3
# Si number density = 19.960445 Si / 1000 Ang^3
#
#
#
# Elastic Constant Matrix: (Units=GPa)
#
#
# Indices 1 2 3 4 5 6 
#
# 1 116.5084 33.0923 24.5276 0.0000 0.0000 0.0000
# 2 33.0923 96.9864 45.4283 0.0000 0.0000 0.0000
# 3 24.5276 45.4283 79.6316 0.0000 0.0000 0.0000
# 4 0.0000 0.0000 0.0000 24.9061 0.0000 0.0000
# 5 0.0000 0.0000 0.0000 0.0000 23.0648 0.0000
# 6 0.0000 0.0000 0.0000 0.0000 0.0000 33.2844
#
#
#
# Elastic Compliance Matrix: (Units=1/GPa)
#
#
# Indices 1 2 3 4 5 6 
#
# 1 0.009632 -0.002589 -0.001490 0.000000 0.000000 0.000000
# 2 -0.002589 0.014766 -0.007627 0.000000 0.000000 0.000000
# 3 -0.001490 -0.007627 0.017368 0.000000 0.000000 0.000000
# 4 0.000000 0.000000 0.000000 0.040151 0.000000 0.000000
# 5 0.000000 0.000000 0.000000 0.000000 0.043356 0.000000
# 6 0.000000 0.000000 0.000000 0.000000 0.000000 0.030044
#
#
# Mechanical properties :
#
#
# Convention : Reuss Voigt Hill
#
# Bulk Modulus (GPa) = 54.47960 55.46920 54.97440
# Shear Modulus (GPa) = 27.04962 28.92295 27.98629
#
# Velocity S-wave (km/s) = 3.68525 3.81072 3.74851
# Velocity P-wave (km/s) = 6.74248 6.87110 6.80710
#
# Compressibility (1/GPa) = 0.01835549
#
# Stress axis : x y z
#
# Youngs Moduli (GPa) = 103.82062 67.72222 57.57859
#
# Poissons Ratio (x) = 0.17530 0.08580
# Poissons Ratio (y) = 0.26874 0.43912
# Poissons Ratio (z) = 0.15470 0.51648
#
# Static dielectric constant tensor:
#      x y z
#    x 1.730360 0.000000 0.000000 
#    y 0.000000 1.761600 0.000000 
#    z 0.000000 0.000000 1.695290 
# 
# From -- ./inp_files/14984.got.cif
#   From: 2010.05.17/outbox.cif.g08.bks.cpg/sg55_8_cif.got.tgz:14984.got - 2010.06.03 13:27:54.
