data_PCOD9425545
_publ_section_title
;
Structure prediction by ZEFSAII (Michael W. Deem and Ramdas Pophale) SiO2 
 PCOD9425545
Probable space group: P B A M
;
_chemical_formula_sum "Si O2"
_cell_formula_units_Z 64
_cell_length_a 23.946216
_cell_length_b 8.494670
_cell_length_c 18.149455
_cell_angle_alpha 90.000000
_cell_angle_beta 90.000000
_cell_angle_gamma 90.000000
_cell_volume 3691.875067
_symmetry_space_group_name_H-M "P B A M"
_symmetry_group_IT_number 55
_symmetry_cell_setting 'orthorhombic'
loop_
_space_group_symop_operation_xyz
x,y,z
-x,-y,z
1/2+x,1/2-y,-z
1/2-x,1/2+y,-z
-x,-y,-z
x,y,-z
1/2-x,1/2+y,z
1/2+x,1/2-y,z
loop_
_atom_site_type_symbol
_atom_site_label
_atom_site_fract_x
_atom_site_fract_y
_atom_site_fract_z
Si Si1 0.457039 0.798093 0.320708
Si Si2 0.830293 0.389464 0.355782
Si Si3 0.774056 0.710076 0.411149
Si Si4 0.989555 0.828568 0.819167
Si Si5 0.089207 0.589212 0.776130
Si Si6 0.062396 0.423772 0.083369
Si Si7 0.566157 0.734973 0.415219
Si Si8 0.120948 0.097427 0.587344
O O1 0.457817 0.663267 0.258397
O O2 0.441415 0.952468 0.272966
O O3 0.514889 0.791402 0.365283
O O4 0.411057 0.745040 0.378214
O O5 0.802011 0.557176 0.373720
O O6 0.785014 0.257186 0.376457
O O7 0.857113 0.372063 0.273820
O O8 0.883838 0.359283 0.407828
O O9 0.769112 0.684857 0.500000
O O10 0.814420 0.862104 0.398807
O O11 0.044930 0.728194 0.795387
O O12 0.951852 0.740706 0.878707
O O13 0.000000 0.000000 0.847844
O O14 0.099667 0.515797 0.856897
O O15 0.000000 0.500000 0.082045
O O16 0.083320 0.419207 0.000000
O O17 0.548033 0.719004 0.500000
O O18 0.592735 0.567857 0.389125
O O19 0.113964 0.098379 0.500000
#
# Coordination Sequence:
#
# PCOD9425545 Si02
#       8
#     8   8   8   8   8   8   8   8
#     4  11  19  34  52  77 112 148 181 223 282 343
#     4  12  23  40  56  75 103 141 191 248 288 339
#     4  11  23  39  56  71  98 140 193 246 294 333
#     4  10  19  31  52  81 117 153 181 219 266 325
#     4  10  21  36  56  81 113 148 187 222 276 339
#     4   8  16  32  55  83 120 156 182 211 262 337
#     4  11  22  33  51  76 106 141 182 233 290 343
#     4  10  21  36  52  75 104 140 186 236 286 335
#
# _framework density 17.335364999999999
#
# number of rings (size 3 to 8) (size 9 to 14) (size 15 to 20)
#    0.000    1.625    2.500    4.500    0.000    2.250 
#    0.000    0.625    0.000    0.000    0.000    0.875 
#    0.000    0.000    0.000    0.000    0.000    0.000 
#
# Total GULP energy -356595.021825 kJ/mol
# GULP energy per Si atom -5571.797216 kJ/mol
# Density = 1.729591 g / cm^3
# Si number density = 17.335365 Si / 1000 Ang^3
#
#
#
# Elastic Constant Matrix: (Units=GPa)
#
#
# Indices 1 2 3 4 5 6 
#
# 1 78.4359 12.4953 40.9957 0.0000 0.0000 0.0000
# 2 12.4953 65.7387 26.5852 0.0000 0.0000 0.0000
# 3 40.9957 26.5852 79.7747 0.0000 0.0000 0.0000
# 4 0.0000 0.0000 0.0000 10.2653 0.0000 0.0000
# 5 0.0000 0.0000 0.0000 0.0000 21.7467 0.0000
# 6 0.0000 0.0000 0.0000 0.0000 0.0000 20.3977
#
#
#
# Elastic Compliance Matrix: (Units=1/GPa)
#
#
# Indices 1 2 3 4 5 6 
#
# 1 0.017438 0.000358 -0.009081 0.000000 0.000000 0.000000
# 2 0.000358 0.017588 -0.006045 0.000000 0.000000 0.000000
# 3 -0.009081 -0.006045 0.019216 0.000000 0.000000 0.000000
# 4 0.000000 0.000000 0.000000 0.097416 0.000000 0.000000
# 5 0.000000 0.000000 0.000000 0.000000 0.045984 0.000000
# 6 0.000000 0.000000 0.000000 0.000000 0.000000 0.049025
#
#
# Mechanical properties :
#
#
# Convention : Reuss Voigt Hill
#
# Bulk Modulus (GPa) = 40.47464 42.67797 41.57630
# Shear Modulus (GPa) = 17.57838 20.07348 18.82593
#
# Velocity S-wave (km/s) = 3.18782 3.40656 3.29900
# Velocity P-wave (km/s) = 6.07851 6.33603 6.20861
#
# Compressibility (1/GPa) = 0.02470683
#
# Stress axis : x y z
#
# Youngs Moduli (GPa) = 57.34460 56.85542 52.03896
#
# Poissons Ratio (x) = -0.02034 0.47255
# Poissons Ratio (y) = -0.02051 0.31459
# Poissons Ratio (z) = 0.52073 0.34370
#
# Static dielectric constant tensor:
#      x y z
#    x 1.615990 0.000000 0.000000 
#    y 0.000000 1.668260 0.000000 
#    z 0.000000 0.000000 1.587940 
# 
# From -- ./inp_files/22049.got.cif
#   From: 2010.05.17/outbox.cif.g08.bks.cpg/sg55_12_cif.got.tgz:22049.got - 2010.06.03 13:27:54.
