data_PCOD9425514
_publ_section_title
;
Structure prediction by ZEFSAII (Michael W. Deem and Ramdas Pophale) SiO2 
 PCOD9425514
Probable space group: P B A M
;
_chemical_formula_sum "Si O2"
_cell_formula_units_Z 64
_cell_length_a 33.411303
_cell_length_b 10.650715
_cell_length_c 7.488679
_cell_angle_alpha 90.000000
_cell_angle_beta 90.000000
_cell_angle_gamma 90.000000
_cell_volume 2664.878369
_symmetry_space_group_name_H-M "P B A M"
_symmetry_group_IT_number 55
_symmetry_cell_setting 'orthorhombic'
loop_
_space_group_symop_operation_xyz
x,y,z
-x,-y,z
1/2+x,1/2-y,-z
1/2-x,1/2+y,-z
-x,-y,-z
x,y,-z
1/2-x,1/2+y,z
1/2+x,1/2-y,z
loop_
_atom_site_type_symbol
_atom_site_label
_atom_site_fract_x
_atom_site_fract_y
_atom_site_fract_z
Si Si1 0.038641 0.743993 0.284888
Si Si2 0.737247 0.455529 0.219446
Si Si3 0.933079 0.981676 0.212265
Si Si4 0.873864 0.339096 0.715152
Si Si5 0.716418 0.190964 0.790220
Si Si6 0.346560 0.431671 0.209745
Si Si7 0.953693 0.705271 0.702891
Si Si8 0.868180 0.617575 0.715894
O O1 0.037756 0.733671 0.500000
O O2 0.080325 0.683810 0.222708
O O3 0.997521 0.683567 0.215958
O O4 0.041703 0.891750 0.240899
O O5 0.769480 0.556937 0.282971
O O6 0.739308 0.312326 0.282771
O O7 0.694174 0.509531 0.278047
O O8 0.738209 0.451470 0.000000
O O9 0.949199 0.856122 0.300321
O O10 0.888344 0.013742 0.282052
O O11 0.931804 0.958266 0.000000
O O12 0.874527 0.339962 0.500000
O O13 0.848402 0.218659 0.770561
O O14 0.859718 0.475145 0.775987
O O15 0.668703 0.204169 0.771662
O O16 0.725538 0.187096 0.000000
O O17 0.347364 0.459571 0.000000
O O18 0.954837 0.654676 0.500000
O O19 0.912148 0.656145 0.782680
O O20 0.869185 0.621754 0.500000
#
# Coordination Sequence:
#
# PCOD9425514 Si02
#       8
#     8   8   8   8   8   8   8   8
#     4   9  18  33  52  75 102 138 183 224 265 321
#     4   9  19  35  58  86 111 138 179 225 264 315
#     4  10  19  31  50  78 109 138 172 223 278 324
#     4   9  19  35  54  77 106 140 180 226 272 318
#     4  10  21  38  60  85 111 142 181 223 269 324
#     4   9  18  33  54  78 106 138 177 219 266 322
#     4  10  20  33  51  73 102 142 183 221 265 322
#     4  10  22  38  54  77 109 142 178 224 275 326
#
# _framework density 24.016103999999999
#
# number of rings (size 3 to 8) (size 9 to 14) (size 15 to 20)
#    0.000    2.500    0.000    1.500    1.750    5.000 
#    0.000    4.375    0.000    0.000    0.000    5.250 
#    0.000    0.000    0.000    0.000    0.000    0.000 
#
# Total GULP energy -357624.019345 kJ/mol
# GULP energy per Si atom -5587.875302 kJ/mol
# Density = 2.396144 g / cm^3
# Si number density = 24.016104 Si / 1000 Ang^3
#
#
#
# Elastic Constant Matrix: (Units=GPa)
#
#
# Indices 1 2 3 4 5 6 
#
# 1 58.8966 29.0184 -5.0379 0.0000 0.0000 0.0000
# 2 29.0184 84.1523 -3.3521 0.0000 0.0000 0.0000
# 3 -5.0379 -3.3521 71.9006 0.0000 0.0000 0.0000
# 4 0.0000 0.0000 0.0000 17.2480 0.0000 0.0000
# 5 0.0000 0.0000 0.0000 0.0000 10.7830 0.0000
# 6 0.0000 0.0000 0.0000 0.0000 0.0000 17.3243
#
#
#
# Elastic Compliance Matrix: (Units=1/GPa)
#
#
# Indices 1 2 3 4 5 6 
#
# 1 0.020542 -0.007039 0.001111 0.000000 0.000000 0.000000
# 2 -0.007039 0.014318 0.000174 0.000000 0.000000 0.000000
# 3 0.001111 0.000174 0.013994 0.000000 0.000000 0.000000
# 4 0.000000 0.000000 0.000000 0.057978 0.000000 0.000000
# 5 0.000000 0.000000 0.000000 0.000000 0.092739 0.000000
# 6 0.000000 0.000000 0.000000 0.000000 0.000000 0.057722
#
#
# Mechanical properties :
#
#
# Convention : Reuss Voigt Hill
#
# Bulk Modulus (GPa) = 26.77662 28.46738 27.62200
# Shear Modulus (GPa) = 17.77782 22.02579 19.90180
#
# Velocity S-wave (km/s) = 2.72370 3.03169 2.88181
# Velocity P-wave (km/s) = 4.58966 4.91264 4.75390
#
# Compressibility (1/GPa) = 0.03734601
#
# Stress axis : x y z
#
# Youngs Moduli (GPa) = 48.68012 69.84431 71.45887
#
# Poissons Ratio (x) = 0.49166 -0.07940
# Poissons Ratio (y) = 0.34268 -0.01245
# Poissons Ratio (z) = -0.05409 -0.01217
#
# Static dielectric constant tensor:
#      x y z
#    x 1.933620 0.000000 0.000000 
#    y 0.000000 1.895080 0.000000 
#    z 0.000000 0.000000 1.936410 
# 
# From -- ./inp_files/10840.got.cif
#   From: 2010.05.17/outbox.cif.g08.bks.cpg/sg55_6_cif.got.tgz:10840.got - 2010.06.03 13:27:54.
