data_PCOD9425005
_publ_section_title
;
Structure prediction by ZEFSAII (Michael W. Deem and Ramdas Pophale) SiO2 
 PCOD9425005
Probable space group: P B A M
;
_chemical_formula_sum "Si O2"
_cell_formula_units_Z 56
_cell_length_a 23.584070
_cell_length_b 10.402710
_cell_length_c 13.341864
_cell_angle_alpha 90.000000
_cell_angle_beta 90.000000
_cell_angle_gamma 90.000000
_cell_volume 3273.269443
_symmetry_space_group_name_H-M "P B A M"
_symmetry_group_IT_number 55
_symmetry_cell_setting 'orthorhombic'
loop_
_space_group_symop_operation_xyz
x,y,z
-x,-y,z
1/2+x,1/2-y,-z
1/2-x,1/2+y,-z
-x,-y,-z
x,y,-z
1/2-x,1/2+y,z
1/2+x,1/2-y,z
loop_
_atom_site_type_symbol
_atom_site_label
_atom_site_fract_x
_atom_site_fract_y
_atom_site_fract_z
Si Si1 0.562351 0.566034 0.881511
Si Si2 0.186012 0.297586 0.614873
Si Si3 0.124720 0.070610 0.709815
Si Si4 0.416626 0.216948 0.265071
Si Si5 0.819972 0.174576 0.615422
Si Si6 0.018500 0.198854 0.613964
Si Si7 0.581950 0.027083 0.613755
O O1 0.500000 0.500000 0.864112
O O2 0.609620 0.487029 0.818431
O O3 0.569129 0.713078 0.839580
O O4 0.572000 0.562474 0.000000
O O5 0.176101 0.247073 0.500000
O O6 0.162537 0.197910 0.696516
O O7 0.252348 0.321848 0.626335
O O8 0.146763 0.423798 0.620397
O O9 0.063693 0.108747 0.666478
O O10 0.156207 0.965351 0.642436
O O11 0.352920 0.236869 0.304976
O O12 0.457405 0.300130 0.337073
O O13 0.430382 0.070973 0.296298
O O14 0.833438 0.209548 0.500000
O O15 0.014250 0.162010 0.500000
O O16 0.044536 0.343626 0.620120
O O17 0.572896 0.972458 0.500000
#
# Coordination Sequence:
#
# PCOD9425005 Si02
#       7
#     8   8   8   8   8   8   8
#     4  10  21  39  58  76  99 130 175 229 284 322
#     4   9  19  33  50  75 112 149 176 202 240 306
#     4  10  19  34  53  75 101 139 180 215 261 306
#     4  11  20  31  51  78 101 135 178 215 260 315
#     4  10  20  29  46  76 109 144 174 207 246 300
#     4  10  18  30  49  77 114 146 168 201 247 314
#     4   9  18  31  48  73 109 149 174 195 240 306
#
# _framework density 17.108277999999999
#
# number of rings (size 3 to 8) (size 9 to 14) (size 15 to 20)
#    0.000    2.143    1.429    3.857    2.000    1.143 
#    0.000    2.143    0.000    8.571    0.000    0.000 
#    0.000    0.000    0.000    0.000    0.000    0.000 
#
# Total GULP energy -312012.391828 kJ/mol
# GULP energy per Si atom -5571.649854 kJ/mol
# Density = 1.706934 g / cm^3
# Si number density = 17.108278 Si / 1000 Ang^3
#
#
#
# Elastic Constant Matrix: (Units=GPa)
#
#
# Indices 1 2 3 4 5 6 
#
# 1 81.6182 2.9510 23.3628 0.0000 0.0000 0.0000
# 2 2.9510 57.1211 21.5536 0.0000 0.0000 0.0000
# 3 23.3628 21.5536 86.7970 0.0000 0.0000 0.0000
# 4 0.0000 0.0000 0.0000 23.9476 0.0000 0.0000
# 5 0.0000 0.0000 0.0000 0.0000 16.3961 0.0000
# 6 0.0000 0.0000 0.0000 0.0000 0.0000 11.2105
#
#
#
# Elastic Compliance Matrix: (Units=1/GPa)
#
#
# Indices 1 2 3 4 5 6 
#
# 1 0.013303 0.000732 -0.003763 0.000000 0.000000 0.000000
# 2 0.000732 0.019357 -0.005004 0.000000 0.000000 0.000000
# 3 -0.003763 -0.005004 0.013776 0.000000 0.000000 0.000000
# 4 0.000000 0.000000 0.000000 0.041758 0.000000 0.000000
# 5 0.000000 0.000000 0.000000 0.000000 0.060990 0.000000
# 6 0.000000 0.000000 0.000000 0.000000 0.000000 0.089202
#
#
# Mechanical properties :
#
#
# Convention : Reuss Voigt Hill
#
# Bulk Modulus (GPa) = 32.92921 35.69679 34.31300
# Shear Modulus (GPa) = 18.89811 22.15544 20.52678
#
# Velocity S-wave (km/s) = 3.32719 3.60253 3.46759
# Velocity P-wave (km/s) = 5.83520 6.18181 6.01101
#
# Compressibility (1/GPa) = 0.03036818
#
# Stress axis : x y z
#
# Youngs Moduli (GPa) = 75.17282 51.66101 72.58755
#
# Poissons Ratio (x) = -0.03784 0.27311
# Poissons Ratio (y) = -0.05506 0.36322
# Poissons Ratio (z) = 0.28284 0.25851
#
# Static dielectric constant tensor:
#      x y z
#    x 1.596800 0.000000 0.000000 
#    y 0.000000 1.649340 0.000000 
#    z 0.000000 0.000000 1.553620 
# 
# From -- ./inp_files/15711.got.cif
#   From: 2010.05.17/outbox.cif.g08.bks.cpg/sg55_8_cif.got.tgz:15711.got - 2010.06.03 13:27:54.
