data_PCOD9425010
_publ_section_title
;
Structure prediction by ZEFSAII (Michael W. Deem and Ramdas Pophale) SiO2 
 PCOD9425010
Probable space group: P B A M
;
_chemical_formula_sum "Si O2"
_cell_formula_units_Z 64
_cell_length_a 20.684058
_cell_length_b 19.530159
_cell_length_c 9.328434
_cell_angle_alpha 90.000000
_cell_angle_beta 90.000000
_cell_angle_gamma 90.000000
_cell_volume 3768.341638
_symmetry_space_group_name_H-M "P B A M"
_symmetry_group_IT_number 55
_symmetry_cell_setting 'orthorhombic'
loop_
_space_group_symop_operation_xyz
x,y,z
-x,-y,z
1/2+x,1/2-y,-z
1/2-x,1/2+y,-z
-x,-y,-z
x,y,-z
1/2-x,1/2+y,z
1/2+x,1/2-y,z
loop_
_atom_site_type_symbol
_atom_site_label
_atom_site_fract_x
_atom_site_fract_y
_atom_site_fract_z
Si Si1 0.086484 0.807759 0.330965
Si Si2 0.341011 0.834597 0.668638
Si Si3 0.786235 0.181468 0.164210
Si Si4 0.302433 0.484425 0.834165
Si Si5 0.486904 0.810940 0.671854
Si Si6 0.172776 0.498727 0.669933
Si Si7 0.948466 0.438251 0.168804
Si Si8 0.430772 0.468413 0.329254
O O1 0.101414 0.802404 0.500000
O O2 0.150899 0.789638 0.243645
O O3 0.027220 0.757644 0.299477
O O4 0.068595 0.886758 0.302566
O O5 0.330480 0.821808 0.500000
O O6 0.281120 0.804827 0.756584
O O7 0.411328 0.806843 0.710682
O O8 0.341636 0.917247 0.687777
O O9 0.794701 0.098569 0.168025
O O10 0.784116 0.203395 0.000000
O O11 0.241937 0.512071 0.743591
O O12 0.370839 0.498928 0.758967
O O13 0.300531 0.506100 0.000000
O O14 0.489501 0.824968 0.500000
O O15 0.520153 0.872333 0.757302
O O16 0.174212 0.512844 0.500000
O O17 0.116431 0.539851 0.749081
O O18 0.000000 0.500000 0.182060
O O19 0.936149 0.427176 0.000000
O O20 0.500000 0.500000 0.291682
O O21 0.419917 0.478602 0.500000
#
# Coordination Sequence:
#
# PCOD9425010 Si02
#       8
#     8   8   8   8   8   8   8   8
#     4   9  18  33  53  75 100 130 168 211 254 303
#     4   9  17  29  48  73  97 126 166 212 253 292
#     4   9  17  29  48  72  98 127 164 207 250 300
#     4   9  17  29  47  74 103 130 164 207 255 303
#     4  10  20  34  52  74 100 133 173 213 255 303
#     4  10  18  30  50  72  99 132 170 213 250 292
#     4  11  22  33  48  73 105 138 170 207 252 302
#     4   9  17  31  53  79 104 131 167 211 259 309
#
# _framework density 16.983598000000001
#
# number of rings (size 3 to 8) (size 9 to 14) (size 15 to 20)
#    0.000    2.500    1.250    1.500    0.000    5.250 
#    0.000    0.000    2.750    0.000    0.000    0.000 
#    0.000    0.000    0.000    0.000    0.000    0.000 
#
# Total GULP energy -356893.835211 kJ/mol
# GULP energy per Si atom -5576.466175 kJ/mol
# Density = 1.694494 g / cm^3
# Si number density = 16.983598 Si / 1000 Ang^3
#
#
#
# Elastic Constant Matrix: (Units=GPa)
#
#
# Indices 1 2 3 4 5 6 
#
# 1 200.6525 44.7082 103.6584 0.0000 0.0000 0.0000
# 2 44.7082 26.8442 36.3516 0.0000 0.0000 0.0000
# 3 103.6584 36.3516 93.1715 0.0000 0.0000 0.0000
# 4 0.0000 0.0000 0.0000 12.2237 0.0000 0.0000
# 5 0.0000 0.0000 0.0000 0.0000 11.7058 0.0000
# 6 0.0000 0.0000 0.0000 0.0000 0.0000 24.4748
#
#
#
# Elastic Compliance Matrix: (Units=1/GPa)
#
#
# Indices 1 2 3 4 5 6 
#
# 1 0.011920 -0.004015 -0.011695 0.000000 0.000000 0.000000
# 2 -0.004015 0.080333 -0.026875 0.000000 0.000000 0.000000
# 3 -0.011695 -0.026875 0.034230 0.000000 0.000000 0.000000
# 4 0.000000 0.000000 0.000000 0.081808 0.000000 0.000000
# 5 0.000000 0.000000 0.000000 0.000000 0.085428 0.000000
# 6 0.000000 0.000000 0.000000 0.000000 0.000000 0.040858
#
#
# Mechanical properties :
#
#
# Convention : Reuss Voigt Hill
#
# Bulk Modulus (GPa) = 24.20628 76.67831 50.44230
# Shear Modulus (GPa) = 11.53348 18.74420 15.13884
#
# Velocity S-wave (km/s) = 2.60877 3.32575 2.98884
# Velocity P-wave (km/s) = 4.83301 7.74558 6.45569
#
# Compressibility (1/GPa) = 0.04131159
#
# Stress axis : x y z
#
# Youngs Moduli (GPa) = 83.89021 12.44817 29.21397
#
# Poissons Ratio (x) = 0.04999 0.34167
# Poissons Ratio (y) = 0.33686 0.78513
# Poissons Ratio (z) = 0.98113 0.33455
#
# Static dielectric constant tensor:
#      x y z
#    x 1.558530 0.000000 0.000000 
#    y 0.000000 1.555760 0.000000 
#    z 0.000000 0.000000 1.567390 
# 
# From -- ./inp_files/8209.got.cif
#   From: 2010.05.17/outbox.cif.g08.bks.cpg/sg55_5_cif.got.tgz:8209.got - 2010.06.03 13:27:54.
