data_PCOD9425703
_publ_section_title
;
Structure prediction by ZEFSAII (Michael W. Deem and Ramdas Pophale) SiO2 
 PCOD9425703
Probable space group: P B A M
;
_chemical_formula_sum "Si O2"
_cell_formula_units_Z 48
_cell_length_a 8.375740
_cell_length_b 32.635552
_cell_length_c 7.619130
_cell_angle_alpha 90.000000
_cell_angle_beta 90.000000
_cell_angle_gamma 90.000000
_cell_volume 2082.665553
_symmetry_space_group_name_H-M "P B A M"
_symmetry_group_IT_number 55
_symmetry_cell_setting 'orthorhombic'
loop_
_space_group_symop_operation_xyz
x,y,z
-x,-y,z
1/2+x,1/2-y,-z
1/2-x,1/2+y,-z
-x,-y,-z
x,y,-z
1/2-x,1/2+y,z
1/2+x,1/2-y,z
loop_
_atom_site_type_symbol
_atom_site_label
_atom_site_fract_x
_atom_site_fract_y
_atom_site_fract_z
Si Si1 0.353455 0.822983 0.302135
Si Si2 0.354948 0.553617 0.207608
Si Si3 0.312479 0.131076 0.704394
Si Si4 0.191523 0.187301 0.000000
Si Si5 0.837369 0.521210 0.214648
Si Si6 0.332348 0.399355 0.787281
Si Si7 0.534016 0.232393 0.000000
O O1 0.356981 0.807489 0.500000
O O2 0.510140 0.851299 0.270199
O O3 0.207385 0.854148 0.277559
O O4 0.373396 0.786275 0.166968
O O5 0.206536 0.584189 0.237041
O O6 0.306418 0.508906 0.272582
O O7 0.505087 0.579185 0.276628
O O8 0.384226 0.548927 0.000000
O O9 0.272513 0.134991 0.500000
O O10 0.200796 0.158050 0.831231
O O11 0.354509 0.214597 0.000000
O O12 0.046904 0.218866 0.000000
O O13 0.802511 0.567582 0.267183
O O14 0.000000 0.500000 0.274278
O O15 0.838869 0.520909 0.000000
O O16 0.335179 0.397072 0.000000
#
# Coordination Sequence:
#
# PCOD9425703 Si02
#       7
#     8   8   8   4   8   8   4
#     4  10  21  38  60  85 114 151 192 232 279 338
#     4  10  19  32  53  82 116 152 192 239 288 335
#     4  10  21  38  60  85 114 151 192 232 279 338
#     4  10  22  40  62  87 116 147 184 230 281 340
#     4   9  17  29  50  79 112 154 199 239 282 333
#     4  10  19  32  53  82 116 152 192 239 288 335
#     4  10  22  40  62  87 116 147 184 230 281 340
#
# _framework density 23.047385999999999
#
# number of rings (size 3 to 8) (size 9 to 14) (size 15 to 20)
#    0.000    2.167    1.667    1.500    0.000    6.000 
#    0.000    0.833    0.000    5.000    0.000    0.000 
#    0.000    0.000    0.000    0.000    0.000    0.000 
#
# Total GULP energy -268354.723604 kJ/mol
# GULP energy per Si atom -5590.723408 kJ/mol
# Density = 2.299493 g / cm^3
# Si number density = 23.047386 Si / 1000 Ang^3
#
#
#
# Elastic Constant Matrix: (Units=GPa)
#
#
# Indices 1 2 3 4 5 6 
#
# 1 49.6768 -12.9381 0.3384 0.0000 0.0000 0.0000
# 2 -12.9381 67.7477 1.6969 0.0000 0.0000 0.0000
# 3 0.3384 1.6969 38.3031 0.0000 0.0000 0.0000
# 4 0.0000 0.0000 0.0000 -15.7189 0.0000 0.0000
# 5 0.0000 0.0000 0.0000 0.0000 8.2845 0.0000
# 6 0.0000 0.0000 0.0000 0.0000 0.0000 36.7555
#
#
#
# Elastic Compliance Matrix: (Units=1/GPa)
#
#
# Indices 1 2 3 4 5 6 
#
# 1 0.021189 0.004056 -0.000367 0.000000 0.000000 0.000000
# 2 0.004056 0.015553 -0.000725 0.000000 0.000000 0.000000
# 3 -0.000367 -0.000725 0.026143 0.000000 0.000000 0.000000
# 4 0.000000 0.000000 0.000000 -0.063618 0.000000 0.000000
# 5 0.000000 0.000000 0.000000 0.000000 0.120708 0.000000
# 6 0.000000 0.000000 0.000000 0.000000 0.000000 0.027207
#
#
# Mechanical properties :
#
#
# Convention : Reuss Voigt Hill
#
# Bulk Modulus (GPa) = 14.53212 14.88023 14.70618
# Shear Modulus (GPa) = 30.45215 16.97290 23.71253
#
# Velocity S-wave (km/s) = 3.63889 2.71668 3.21106
# Velocity P-wave (km/s) = 4.89636 4.03867 4.48805
#
# Compressibility (1/GPa) = 0.06881308
#
# Stress axis : x y z
#
# Youngs Moduli (GPa) = 47.19447 64.29483 38.25134
#
# Poissons Ratio (x) = -0.26076 0.01403
# Poissons Ratio (y) = -0.19141 0.02773
# Poissons Ratio (z) = 0.01732 0.04661
#
# Static dielectric constant tensor:
#      x y z
#    x 1.933120 0.000000 0.000000 
#    y 0.000000 1.790330 0.000000 
#    z 0.000000 0.000000 1.838690 
# 
# From -- ./inp_files/3000.got.cif
#   From: 2010.05.17/outbox.cif.g08.bks.cpg/sg55_2_cif.got.tgz:3000.got - 2010.06.03 13:27:54.
