data_PCOD9425832
_publ_section_title
;
Structure prediction by ZEFSAII (Michael W. Deem and Ramdas Pophale) SiO2 
 PCOD9425832
Probable space group: P B A M
;
_chemical_formula_sum "Si O2"
_cell_formula_units_Z 64
_cell_length_a 17.894361
_cell_length_b 8.364647
_cell_length_c 21.032496
_cell_angle_alpha 90.000000
_cell_angle_beta 90.000000
_cell_angle_gamma 90.000000
_cell_volume 3148.144276
_symmetry_space_group_name_H-M "P B A M"
_symmetry_group_IT_number 55
_symmetry_cell_setting 'orthorhombic'
loop_
_space_group_symop_operation_xyz
x,y,z
-x,-y,z
1/2+x,1/2-y,-z
1/2-x,1/2+y,-z
-x,-y,-z
x,y,-z
1/2-x,1/2+y,z
1/2+x,1/2-y,z
loop_
_atom_site_type_symbol
_atom_site_label
_atom_site_fract_x
_atom_site_fract_y
_atom_site_fract_z
Si Si1 0.924111 0.437189 0.304945
Si Si2 0.141738 0.043172 0.931251
Si Si3 0.923344 0.065971 0.666125
Si Si4 0.695129 0.087865 0.932004
Si Si5 0.643319 0.065918 0.427595
Si Si6 0.808632 0.566604 0.793148
Si Si7 0.356727 0.562604 0.208334
Si Si8 0.303398 0.568464 0.572446
O O1 0.929645 0.252014 0.320294
O O2 0.913225 0.531802 0.371086
O O3 0.854342 0.472320 0.259595
O O4 0.000000 0.500000 0.273317
O O5 0.215344 0.931732 0.931333
O O6 0.172343 0.226237 0.931451
O O7 0.107381 0.026411 0.861000
O O8 0.102782 0.018714 0.000000
O O9 0.908967 0.976510 0.732727
O O10 0.853470 0.029475 0.621071
O O11 0.000000 0.000000 0.636707
O O12 0.670054 0.013228 0.865194
O O13 0.668900 0.018455 0.000000
O O14 0.616199 0.039361 0.500000
O O15 0.672875 0.247137 0.423153
O O16 0.715593 0.954259 0.415866
O O17 0.830554 0.752847 0.788168
O O18 0.720107 0.539115 0.785514
O O19 0.316583 0.512611 0.500000
#
# Coordination Sequence:
#
# PCOD9425832 Si02
#       8
#     8   8   8   8   8   8   8   8
#     4  12  25  40  57  78 108 144 183 225 270 320
#     4   8  14  25  44  72 104 136 171 215 265 314
#     4  12  25  40  57  78 108 144 183 225 270 320
#     4   8  14  25  44  72 104 136 171 215 265 314
#     4  10  21  39  63  89 115 143 177 217 262 313
#     4  10  19  33  54  80 110 143 181 223 268 319
#     4  10  19  33  54  80 110 143 181 223 268 319
#     4  10  21  39  63  89 115 143 177 217 262 313
#
# _framework density 20.329436999999999
#
# number of rings (size 3 to 8) (size 9 to 14) (size 15 to 20)
#    0.000    2.000    0.000    4.500    0.000    3.000 
#    0.000    0.000    0.000    0.750    0.000    0.000 
#    0.000    0.000    0.000    0.000    0.000    0.000 
#
# Total GULP energy -357159.032518 kJ/mol
# GULP energy per Si atom -5580.609883 kJ/mol
# Density = 2.028317 g / cm^3
# Si number density = 20.329437 Si / 1000 Ang^3
#
#
#
# Elastic Constant Matrix: (Units=GPa)
#
#
# Indices 1 2 3 4 5 6 
#
# 1 27.8477 -5.4026 12.4964 0.0000 0.0000 0.0000
# 2 -5.4026 46.1671 3.3894 0.0000 0.0000 0.0000
# 3 12.4964 3.3894 74.0447 0.0000 0.0000 0.0000
# 4 0.0000 0.0000 0.0000 265.4173 0.0000 0.0000
# 5 0.0000 0.0000 0.0000 0.0000 -7.2058 0.0000
# 6 0.0000 0.0000 0.0000 0.0000 0.0000 21.4771
#
#
#
# Elastic Compliance Matrix: (Units=1/GPa)
#
#
# Indices 1 2 3 4 5 6 
#
# 1 0.040059 0.005202 -0.006999 0.000000 0.000000 0.000000
# 2 0.005202 0.022409 -0.001904 0.000000 0.000000 0.000000
# 3 -0.006999 -0.001904 0.014774 0.000000 0.000000 0.000000
# 4 0.000000 0.000000 0.000000 0.003768 0.000000 0.000000
# 5 0.000000 0.000000 0.000000 0.000000 -0.138776 0.000000
# 6 0.000000 0.000000 0.000000 0.000000 0.000000 0.046561
#
#
# Mechanical properties :
#
#
# Convention : Reuss Voigt Hill
#
# Bulk Modulus (GPa) = 14.31834 18.78065 16.54949
# Shear Modulus (GPa) = 256.71841 65.10946 160.91394
#
# Velocity S-wave (km/s) = 11.24959 5.66540 8.90646
# Velocity P-wave (km/s) = 13.25882 7.21483 10.67357
#
# Compressibility (1/GPa) = 0.06984049
#
# Stress axis : x y z
#
# Youngs Moduli (GPa) = 24.96288 44.62504 67.68789
#
# Poissons Ratio (x) = -0.23213 0.47374
# Poissons Ratio (y) = -0.12985 0.12885
# Poissons Ratio (z) = 0.17471 0.08495
#
# Static dielectric constant tensor:
#      x y z
#    x 1.684360 0.000000 0.000000 
#    y 0.000000 1.710850 0.000000 
#    z 0.000000 0.000000 1.776780 
# 
# From -- ./inp_files/23077.got.cif
#   From: 2010.05.17/outbox.cif.g08.bks.cpg/sg55_12_cif.got.tgz:23077.got - 2010.06.03 13:27:54.
