data_PCOD9425643
_publ_section_title
;
Structure prediction by ZEFSAII (Michael W. Deem and Ramdas Pophale) SiO2 
 PCOD9425643
Probable space group: P B A M
;
_chemical_formula_sum "Si O2"
_cell_formula_units_Z 64
_cell_length_a 17.556980
_cell_length_b 22.609012
_cell_length_c 7.751917
_cell_angle_alpha 90.000000
_cell_angle_beta 90.000000
_cell_angle_gamma 90.000000
_cell_volume 3077.092225
_symmetry_space_group_name_H-M "P B A M"
_symmetry_group_IT_number 55
_symmetry_cell_setting 'orthorhombic'
loop_
_space_group_symop_operation_xyz
x,y,z
-x,-y,z
1/2+x,1/2-y,-z
1/2-x,1/2+y,-z
-x,-y,-z
x,y,-z
1/2-x,1/2+y,z
1/2+x,1/2-y,z
loop_
_atom_site_type_symbol
_atom_site_label
_atom_site_fract_x
_atom_site_fract_y
_atom_site_fract_z
Si Si1 0.840868 0.474215 0.289332
Si Si2 0.792232 0.158661 0.793096
Si Si3 0.650325 0.782580 0.198805
Si Si4 0.227530 0.126020 0.702774
Si Si5 0.574475 0.424620 0.792090
Si Si6 0.636049 0.107846 0.291737
Si Si7 0.595813 0.558766 0.210487
Si Si8 0.534352 0.882081 0.702644
O O1 0.842009 0.475524 0.500000
O O2 0.767861 0.435175 0.237306
O O3 0.842573 0.541585 0.230029
O O4 0.914255 0.436363 0.228720
O O5 0.830978 0.218472 0.724934
O O6 0.703041 0.152291 0.757590
O O7 0.836568 0.100569 0.727816
O O8 0.801062 0.159926 0.000000
O O9 0.727889 0.820815 0.208415
O O10 0.584718 0.823102 0.279957
O O11 0.628136 0.775233 0.000000
O O12 0.243645 0.132101 0.500000
O O13 0.137998 0.120854 0.731166
O O14 0.486967 0.415398 0.739674
O O15 0.597668 0.490720 0.731482
O O16 0.575724 0.424813 0.000000
O O17 0.634718 0.106835 0.500000
O O18 0.551039 0.122443 0.227315
O O19 0.597720 0.557128 0.000000
O O20 0.526090 0.894795 0.500000
#
# Coordination Sequence:
#
# PCOD9425643 Si02
#       8
#     8   8   8   8   8   8   8   8
#     4   8  15  29  51  78 107 139 167 196 248 311
#     4  10  21  37  53  72 101 137 177 218 258 298
#     4  10  21  37  54  70  96 138 182 218 254 301
#     4  10  19  32  52  77 106 136 170 216 259 303
#     4   9  16  30  54  80 105 134 171 209 256 317
#     4  10  19  32  54  82 108 135 167 205 256 316
#     4   8  16  32  53  76 104 137 170 211 259 309
#     4   9  18  34  55  78 106 137 168 210 255 304
#
# _framework density 20.798856000000001
#
# number of rings (size 3 to 8) (size 9 to 14) (size 15 to 20)
#    0.000    2.750    0.000    3.375    0.000    3.000 
#    2.250    4.375    0.000    3.750    0.000    0.000 
#    0.000    0.000    0.000    0.000    0.000    0.000 
#
# Total GULP energy -357062.168708 kJ/mol
# GULP energy per Si atom -5579.096386 kJ/mol
# Density = 2.075152 g / cm^3
# Si number density = 20.798856 Si / 1000 Ang^3
#
#
#
# Elastic Constant Matrix: (Units=GPa)
#
#
# Indices 1 2 3 4 5 6 
#
# 1 84.5151 12.0480 -11.0644 0.0000 0.0000 0.0000
# 2 12.0480 50.7728 -5.8546 0.0000 0.0000 0.0000
# 3 -11.0644 -5.8546 27.6035 0.0000 0.0000 0.0000
# 4 0.0000 0.0000 0.0000 10.8174 0.0000 0.0000
# 5 0.0000 0.0000 0.0000 0.0000 16.2871 0.0000
# 6 0.0000 0.0000 0.0000 0.0000 0.0000 10.4384
#
#
#
# Elastic Compliance Matrix: (Units=1/GPa)
#
#
# Indices 1 2 3 4 5 6 
#
# 1 0.012791 -0.002505 0.004596 0.000000 0.000000 0.000000
# 2 -0.002505 0.020680 0.003382 0.000000 0.000000 0.000000
# 3 0.004596 0.003382 0.038787 0.000000 0.000000 0.000000
# 4 0.000000 0.000000 0.000000 0.092444 0.000000 0.000000
# 5 0.000000 0.000000 0.000000 0.000000 0.061398 0.000000
# 6 0.000000 0.000000 0.000000 0.000000 0.000000 0.095800
#
#
# Mechanical properties :
#
#
# Convention : Reuss Voigt Hill
#
# Bulk Modulus (GPa) = 12.01889 17.01662 14.51775
# Shear Modulus (GPa) = 14.76280 18.69274 16.72777
#
# Velocity S-wave (km/s) = 2.66708 3.00115 2.83903
# Velocity P-wave (km/s) = 3.90840 4.49538 4.21213
#
# Compressibility (1/GPa) = 0.08320239
#
# Stress axis : x y z
#
# Youngs Moduli (GPa) = 78.18000 48.35581 25.78207
#
# Poissons Ratio (x) = 0.12115 -0.11849
# Poissons Ratio (y) = 0.19586 -0.08719
# Poissons Ratio (z) = -0.35929 -0.16354
#
# Static dielectric constant tensor:
#      x y z
#    x 1.740510 0.000000 0.000000 
#    y 0.000000 1.734270 0.000000 
#    z 0.000000 0.000000 1.782410 
# 
# From -- ./inp_files/7994.got.cif
#   From: 2010.05.17/outbox.cif.g08.bks.cpg/sg55_4_cif.got.tgz:7994.got - 2010.06.03 13:27:54.
