data_PCOD9425198
_publ_section_title
;
Structure prediction by ZEFSAII (Michael W. Deem and Ramdas Pophale) SiO2 
 PCOD9425198
Probable space group: P B A M
;
_chemical_formula_sum "Si O2"
_cell_formula_units_Z 56
_cell_length_a 5.546544
_cell_length_b 13.720053
_cell_length_c 28.539217
_cell_angle_alpha 90.000000
_cell_angle_beta 90.000000
_cell_angle_gamma 90.000000
_cell_volume 2171.802383
_symmetry_space_group_name_H-M "P B A M"
_symmetry_group_IT_number 55
_symmetry_cell_setting 'orthorhombic'
loop_
_space_group_symop_operation_xyz
x,y,z
-x,-y,z
1/2+x,1/2-y,-z
1/2-x,1/2+y,-z
-x,-y,-z
x,y,-z
1/2-x,1/2+y,z
1/2+x,1/2-y,z
loop_
_atom_site_type_symbol
_atom_site_label
_atom_site_fract_x
_atom_site_fract_y
_atom_site_fract_z
Si Si1 0.363368 0.812604 0.551026
Si Si2 0.256271 0.236916 0.252849
Si Si3 0.748638 0.054184 0.819219
Si Si4 0.354738 0.354644 0.908937
Si Si5 0.251340 0.014282 0.714469
Si Si6 0.857123 0.367672 0.054926
Si Si7 0.715893 0.698853 0.642891
O O1 0.343546 0.862345 0.500000
O O2 0.133260 0.735661 0.551639
O O3 0.305471 0.868804 0.599855
O O4 0.507022 0.248483 0.226840
O O5 0.253352 0.125294 0.268827
O O6 0.262336 0.303343 0.300390
O O7 0.775967 0.144056 0.854508
O O8 0.500000 0.000000 0.831924
O O9 0.743040 0.050874 0.762236
O O10 0.000000 0.000000 0.827759
O O11 0.378534 0.246465 0.929958
O O12 0.618185 0.400665 0.917485
O O13 0.127099 0.405442 0.934457
O O14 0.500000 0.000000 0.687662
O O15 0.000000 0.000000 0.688366
O O16 0.807754 0.375378 0.000000
O O17 0.932146 0.779615 0.636032
#
# Coordination Sequence:
#
# PCOD9425198 Si02
#       7
#     8   8   8   8   8   8   8
#     4   8  12  18  29  48  81 122 159 193 247 316
#     4  10  19  33  56  80 107 135 180 229 271 320
#     4  10  21  37  58  71 104 144 173 201 251 306
#     4  10  18  32  56  80 104 141 170 204 245 296
#     4  10  21  38  60  77 108 147 176 218 277 325
#     4  10  19  33  58  84 111 135 168 212 251 290
#     4   8  14  23  37  62  91 124 160 211 264 305
#
# _framework density 25.785034
#
# number of rings (size 3 to 8) (size 9 to 14) (size 15 to 20)
#    0.000    2.571    0.000    3.857    0.000    0.000 
#    0.000    0.000   75.429   14.571    0.000    0.000 
#    0.000    1.143    0.000    0.000    0.000    9.143 
#
# Total GULP energy -311826.762788 kJ/mol
# GULP energy per Si atom -5568.335050 kJ/mol
# Density = 2.572635 g / cm^3
# Si number density = 25.785034 Si / 1000 Ang^3
#
#
#
# Elastic Constant Matrix: (Units=GPa)
#
#
# Indices 1 2 3 4 5 6 
#
# 1 286.7016 30.3388 28.6935 0.0000 0.0000 0.0000
# 2 30.3388 30.7223 23.5436 0.0000 0.0000 0.0000
# 3 28.6935 23.5436 163.4364 0.0000 0.0000 0.0000
# 4 0.0000 0.0000 0.0000 3.3531 0.0000 0.0000
# 5 0.0000 0.0000 0.0000 0.0000 44.6486 0.0000
# 6 0.0000 0.0000 0.0000 0.0000 0.0000 9.3896
#
#
#
# Elastic Compliance Matrix: (Units=1/GPa)
#
#
# Indices 1 2 3 4 5 6 
#
# 1 0.003898 -0.003738 -0.000146 0.000000 0.000000 0.000000
# 2 -0.003738 0.040172 -0.005131 0.000000 0.000000 0.000000
# 3 -0.000146 -0.005131 0.006883 0.000000 0.000000 0.000000
# 4 0.000000 0.000000 0.000000 0.298228 0.000000 0.000000
# 5 0.000000 0.000000 0.000000 0.000000 0.022397 0.000000
# 6 0.000000 0.000000 0.000000 0.000000 0.000000 0.106501
#
#
# Mechanical properties :
#
#
# Convention : Reuss Voigt Hill
#
# Bulk Modulus (GPa) = 30.37188 71.77912 51.07550
# Shear Modulus (GPa) = 9.86031 38.03055 23.94543
#
# Velocity S-wave (km/s) = 1.95764 3.84462 3.05069
# Velocity P-wave (km/s) = 4.11269 6.89972 5.67980
#
# Compressibility (1/GPa) = 0.03292519
#
# Stress axis : x y z
#
# Youngs Moduli (GPa) = 256.53772 24.89271 145.27872
#
# Poissons Ratio (x) = 0.09304 0.02120
# Poissons Ratio (y) = 0.95882 0.74540
# Poissons Ratio (z) = 0.03744 0.12772
#
# Static dielectric constant tensor:
#      x y z
#    x 2.046290 0.000000 0.000000 
#    y 0.000000 1.896960 0.000000 
#    z 0.000000 0.000000 2.083860 
# 
# From -- ./inp_files/24081.got.cif
#   From: 2010.05.17/outbox.cif.g08.bks.cpg/sg55_13_cif.got.tgz:24081.got - 2010.06.03 13:27:54.
