data_PCOD9425999
_publ_section_title
;
Structure prediction by ZEFSAII (Michael W. Deem and Ramdas Pophale) SiO2 
 PCOD9425999
Probable space group: P B A M
;
_chemical_formula_sum "Si O2"
_cell_formula_units_Z 64
_cell_length_a 25.442921
_cell_length_b 12.585635
_cell_length_c 10.100566
_cell_angle_alpha 90.000000
_cell_angle_beta 90.000000
_cell_angle_gamma 90.000000
_cell_volume 3234.355944
_symmetry_space_group_name_H-M "P B A M"
_symmetry_group_IT_number 55
_symmetry_cell_setting 'orthorhombic'
loop_
_space_group_symop_operation_xyz
x,y,z
-x,-y,z
1/2+x,1/2-y,-z
1/2-x,1/2+y,-z
-x,-y,-z
x,y,-z
1/2-x,1/2+y,z
1/2+x,1/2-y,z
loop_
_atom_site_type_symbol
_atom_site_label
_atom_site_fract_x
_atom_site_fract_y
_atom_site_fract_z
Si Si1 0.858151 0.946249 0.357065
Si Si2 0.723152 0.075544 0.841156
Si Si3 0.814851 0.162533 0.654164
Si Si4 0.835662 0.794950 0.141996
Si Si5 0.335835 0.090392 0.654720
Si Si6 0.940446 0.540937 0.646147
Si Si7 0.046287 0.275163 0.852183
Si Si8 0.520528 0.383695 0.648044
O O1 0.833197 0.927385 0.500000
O O2 0.824443 0.883141 0.250272
O O3 0.916476 0.898661 0.360431
O O4 0.860337 0.072896 0.337691
O O5 0.773486 0.118686 0.760793
O O6 0.684166 0.177018 0.829312
O O7 0.697986 0.977840 0.759499
O O8 0.730620 0.056221 0.000000
O O9 0.795463 0.159618 0.500000
O O10 0.831039 0.283684 0.680281
O O11 0.898580 0.786543 0.132606
O O12 0.813423 0.827379 0.000000
O O13 0.319701 0.071222 0.500000
O O14 0.396051 0.048653 0.664071
O O15 0.929855 0.591490 0.500000
O O16 0.939181 0.622431 0.766449
O O17 0.000000 0.500000 0.642911
O O18 0.009322 0.202928 0.759789
O O19 0.026226 0.297822 0.000000
O O20 0.500000 0.500000 0.682734
O O21 0.501359 0.354736 0.500000
#
# Coordination Sequence:
#
# PCOD9425999 Si02
#       8
#     8   8   8   8   8   8   8   8
#     4   9  19  35  56  82 113 147 185 233 287 346
#     4  11  23  39  60  85 114 150 195 243 292 348
#     4  10  23  40  57  84 119 156 195 239 297 355
#     4   9  19  35  55  79 108 143 183 236 288 336
#     4  10  22  41  63  88 122 159 198 247 298 356
#     4  10  21  37  60  89 118 155 200 244 294 352
#     4  10  19  34  54  79 112 149 190 239 291 345
#     4   9  18  33  56  84 112 148 193 242 291 341
#
# _framework density 19.787555999999999
#
# number of rings (size 3 to 8) (size 9 to 14) (size 15 to 20)
#    0.000    2.250    1.250    0.750    1.750    4.000 
#    0.000    3.750    0.000    1.500    0.000    0.000 
#    0.000    0.000    0.000    0.000    0.000    0.000 
#
# Total GULP energy -356534.499452 kJ/mol
# GULP energy per Si atom -5570.851554 kJ/mol
# Density = 1.974252 g / cm^3
# Si number density = 19.787556 Si / 1000 Ang^3
#
#
#
# Elastic Constant Matrix: (Units=GPa)
#
#
# Indices 1 2 3 4 5 6 
#
# 1 27.5251 5.4674 24.7036 0.0000 0.0000 0.0000
# 2 5.4674 113.3059 96.9901 0.0000 0.0000 0.0000
# 3 24.7036 96.9901 145.8926 0.0000 0.0000 0.0000
# 4 0.0000 0.0000 0.0000 -94.7331 0.0000 0.0000
# 5 0.0000 0.0000 0.0000 0.0000 25.4721 0.0000
# 6 0.0000 0.0000 0.0000 0.0000 0.0000 29.5983
#
#
#
# Elastic Compliance Matrix: (Units=1/GPa)
#
#
# Indices 1 2 3 4 5 6 
#
# 1 0.047884 0.010744 -0.015251 0.000000 0.000000 0.000000
# 2 0.010744 0.022892 -0.017038 0.000000 0.000000 0.000000
# 3 -0.015251 -0.017038 0.020763 0.000000 0.000000 0.000000
# 4 0.000000 0.000000 0.000000 -0.010556 0.000000 0.000000
# 5 0.000000 0.000000 0.000000 0.000000 0.039259 0.000000
# 6 0.000000 0.000000 0.000000 0.000000 0.000000 0.033786
#
#
# Mechanical properties :
#
#
# Convention : Reuss Voigt Hill
#
# Bulk Modulus (GPa) = 20.63973 60.11620 40.37797
# Shear Modulus (GPa) = 23.44491 2.70496 13.07494
#
# Velocity S-wave (km/s) = 3.44587 1.17046 2.57332
# Velocity P-wave (km/s) = 5.12692 5.68097 5.41104
#
# Compressibility (1/GPa) = 0.04845024
#
# Stress axis : x y z
#
# Youngs Moduli (GPa) = 20.88384 43.68433 48.16152
#
# Poissons Ratio (x) = -0.46935 0.73450
# Poissons Ratio (y) = -0.22438 0.82056
# Poissons Ratio (z) = 0.31850 0.74428
#
# Static dielectric constant tensor:
#      x y z
#    x 1.728660 0.000000 0.000000 
#    y 0.000000 1.693390 0.000000 
#    z 0.000000 0.000000 1.764670 
# 
# From -- ./inp_files/10715.got.cif
#   From: 2010.05.17/outbox.cif.g08.bks.cpg/sg55_6_cif.got.tgz:10715.got - 2010.06.03 13:27:54.
