data_PCOD9425787
_publ_section_title
;
Structure prediction by ZEFSAII (Michael W. Deem and Ramdas Pophale) SiO2 
 PCOD9425787
Probable space group: P B A M
;
_chemical_formula_sum "Si O2"
_cell_formula_units_Z 48
_cell_length_a 18.503427
_cell_length_b 16.908726
_cell_length_c 9.075888
_cell_angle_alpha 90.000000
_cell_angle_beta 90.000000
_cell_angle_gamma 90.000000
_cell_volume 2839.567426
_symmetry_space_group_name_H-M "P B A M"
_symmetry_group_IT_number 55
_symmetry_cell_setting 'orthorhombic'
loop_
_space_group_symop_operation_xyz
x,y,z
-x,-y,z
1/2+x,1/2-y,-z
1/2-x,1/2+y,-z
-x,-y,-z
x,y,-z
1/2-x,1/2+y,z
1/2+x,1/2-y,z
loop_
_atom_site_type_symbol
_atom_site_label
_atom_site_fract_x
_atom_site_fract_y
_atom_site_fract_z
Si Si1 0.419468 0.162221 0.824197
Si Si2 0.409385 0.339880 0.822994
Si Si3 0.948733 0.922115 0.832225
Si Si4 0.171652 0.986320 0.324608
Si Si5 0.173384 0.506503 0.823960
Si Si6 0.547498 0.080719 0.668738
O O1 0.390808 0.249474 0.788242
O O2 0.494324 0.144090 0.741789
O O3 0.363503 0.091667 0.790480
O O4 0.432955 0.159644 0.000000
O O5 0.494451 0.354511 0.788746
O O6 0.362518 0.404913 0.738616
O O7 0.401660 0.353095 0.000000
O O8 0.882508 0.944018 0.728412
O O9 0.923198 0.908884 0.000000
O O10 0.000000 0.000000 0.834332
O O11 0.175384 0.983509 0.500000
O O12 0.249774 0.998983 0.253575
O O13 0.118278 0.440505 0.762090
O O14 0.180389 0.499487 0.000000
O O15 0.565526 0.100139 0.500000
O O16 0.500000 0.000000 0.668421
#
# Coordination Sequence:
#
# PCOD9425787 Si02
#       6
#     8   8   8   8   8   8
#     4   9  18  33  54  77  98 127 168 210 249 293
#     4   9  18  34  54  75  99 128 166 209 251 296
#     4   8  15  30  51  71  93 124 160 197 239 291
#     4  11  21  32  49  74 103 133 167 205 249 299
#     4  10  19  33  53  74  99 132 170 206 244 295
#     4   9  17  30  49  73 100 128 159 197 242 291
#
# _framework density 16.903983
#
# number of rings (size 3 to 8) (size 9 to 14) (size 15 to 20)
#    0.000    2.667    0.000    3.500    0.000    6.333 
#    0.000    1.667    0.000    4.000    0.000    0.000 
#    0.000    0.000    0.000    0.000    0.000    0.000 
#
# Total GULP energy -267490.089003 kJ/mol
# GULP energy per Si atom -5572.710188 kJ/mol
# Density = 1.686551 g / cm^3
# Si number density = 16.903983 Si / 1000 Ang^3
#
#
#
# Elastic Constant Matrix: (Units=GPa)
#
#
# Indices 1 2 3 4 5 6 
#
# 1 127.2195 39.8961 81.6949 0.0000 0.0000 0.0000
# 2 39.8961 72.0872 45.9691 0.0000 0.0000 0.0000
# 3 81.6949 45.9691 100.6888 0.0000 0.0000 0.0000
# 4 0.0000 0.0000 0.0000 10.4108 0.0000 0.0000
# 5 0.0000 0.0000 0.0000 0.0000 8.3587 0.0000
# 6 0.0000 0.0000 0.0000 0.0000 0.0000 14.7363
#
#
#
# Elastic Compliance Matrix: (Units=1/GPa)
#
#
# Indices 1 2 3 4 5 6 
#
# 1 0.016446 -0.000836 -0.012962 0.000000 0.000000 0.000000
# 2 -0.000836 0.019612 -0.008275 0.000000 0.000000 0.000000
# 3 -0.012962 -0.008275 0.024227 0.000000 0.000000 0.000000
# 4 0.000000 0.000000 0.000000 0.096054 0.000000 0.000000
# 5 0.000000 0.000000 0.000000 0.000000 0.119635 0.000000
# 6 0.000000 0.000000 0.000000 0.000000 0.000000 0.067860
#
#
# Mechanical properties :
#
#
# Convention : Reuss Voigt Hill
#
# Bulk Modulus (GPa) = 61.96714 70.56841 66.26778
# Shear Modulus (GPa) = 12.71098 15.53019 14.12058
#
# Velocity S-wave (km/s) = 2.74515 3.03434 2.89336
# Velocity P-wave (km/s) = 6.84001 7.35619 7.10279
#
# Compressibility (1/GPa) = 0.01613759
#
# Stress axis : x y z
#
# Youngs Moduli (GPa) = 60.80327 50.98936 41.27695
#
# Poissons Ratio (x) = 0.04264 0.53504
# Poissons Ratio (y) = 0.05085 0.34157
# Poissons Ratio (z) = 0.78814 0.42195
#
# Static dielectric constant tensor:
#      x y z
#    x 1.556590 0.000000 0.000000 
#    y 0.000000 1.589250 0.000000 
#    z 0.000000 0.000000 1.564430 
# 
# From -- ./inp_files/7568.got.cif
#   From: 2010.05.17/outbox.cif.g08.bks.cpg/sg55_4_cif.got.tgz:7568.got - 2010.06.03 13:27:54.
