data_PCOD9425860
_publ_section_title
;
Structure prediction by ZEFSAII (Michael W. Deem and Ramdas Pophale) SiO2 
 PCOD9425860
Probable space group: P B A M
;
_chemical_formula_sum "Si O2"
_cell_formula_units_Z 64
_cell_length_a 16.887605
_cell_length_b 20.882414
_cell_length_c 7.981923
_cell_angle_alpha 90.000000
_cell_angle_beta 90.000000
_cell_angle_gamma 90.000000
_cell_volume 2814.856747
_symmetry_space_group_name_H-M "P B A M"
_symmetry_group_IT_number 55
_symmetry_cell_setting 'orthorhombic'
loop_
_space_group_symop_operation_xyz
x,y,z
-x,-y,z
1/2+x,1/2-y,-z
1/2-x,1/2+y,-z
-x,-y,-z
x,y,-z
1/2-x,1/2+y,z
1/2+x,1/2-y,z
loop_
_atom_site_type_symbol
_atom_site_label
_atom_site_fract_x
_atom_site_fract_y
_atom_site_fract_z
Si Si1 0.219797 0.610836 0.298038
Si Si2 0.109188 0.783569 0.806587
Si Si3 0.637050 0.481679 0.704890
Si Si4 0.786040 0.107081 0.698349
Si Si5 0.120664 0.358126 0.297744
Si Si6 0.555466 0.854245 0.801623
Si Si7 0.026572 0.125369 0.693064
Si Si8 0.823971 0.778903 0.693464
O O1 0.222760 0.613433 0.500000
O O2 0.283411 0.557463 0.247495
O O3 0.129549 0.601588 0.246145
O O4 0.252075 0.679706 0.231022
O O5 0.182641 0.821104 0.726022
O O6 0.077606 0.716791 0.730436
O O7 0.038284 0.834713 0.790355
O O8 0.128526 0.773509 0.000000
O O9 0.631254 0.480036 0.500000
O O10 0.653005 0.553684 0.763852
O O11 0.560436 0.441658 0.760724
O O12 0.783065 0.096258 0.500000
O O13 0.695996 0.100545 0.761462
O O14 0.122378 0.357040 0.500000
O O15 0.141438 0.286383 0.232856
O O16 0.031546 0.375665 0.252276
O O17 0.552566 0.848080 0.000000
O O18 0.997751 0.116913 0.500000
O O19 0.104051 0.170520 0.688141
O O20 0.802696 0.764620 0.500000
#
# Coordination Sequence:
#
# PCOD9425860 Si02
#       8
#     8   8   8   8   8   8   8   8
#     4   9  17  33  58  81 104 136 176 223 268 317
#     4  11  23  36  51  79 116 146 176 217 269 324
#     4   8  17  35  58  84 109 136 180 230 270 309
#     4  10  21  37  58  82 107 140 181 225 270 319
#     4  10  19  33  55  79 103 135 178 222 268 322
#     4  11  23  36  51  78 113 142 174 220 271 322
#     4   9  16  31  56  79 106 141 175 218 264 314
#     4   8  14  27  50  78 100 126 170 216 260 309
#
# _framework density 22.736504
#
# number of rings (size 3 to 8) (size 9 to 14) (size 15 to 20)
#    0.000    2.500    1.250    3.000    0.000    3.500 
#    0.000    7.500    0.000    3.750    0.000    0.000 
#    0.000    0.000    0.000    0.000    0.000    0.000 
#
# Total GULP energy -357137.173737 kJ/mol
# GULP energy per Si atom -5580.268340 kJ/mol
# Density = 2.268475 g / cm^3
# Si number density = 22.736504 Si / 1000 Ang^3
#
#
#
# Elastic Constant Matrix: (Units=GPa)
#
#
# Indices 1 2 3 4 5 6 
#
# 1 80.2397 -19.4751 0.1494 0.0000 0.0000 0.0000
# 2 -19.4751 36.0790 1.9750 0.0000 0.0000 0.0000
# 3 0.1494 1.9750 14.0083 0.0000 0.0000 0.0000
# 4 0.0000 0.0000 0.0000 2.8932 0.0000 0.0000
# 5 0.0000 0.0000 0.0000 0.0000 38.2249 0.0000
# 6 0.0000 0.0000 0.0000 0.0000 0.0000 26.1224
#
#
#
# Elastic Compliance Matrix: (Units=1/GPa)
#
#
# Indices 1 2 3 4 5 6 
#
# 1 0.014364 0.007822 -0.001256 0.000000 0.000000 0.000000
# 2 0.007822 0.032192 -0.004622 0.000000 0.000000 0.000000
# 3 -0.001256 -0.004622 0.072051 0.000000 0.000000 0.000000
# 4 0.000000 0.000000 0.000000 0.345640 0.000000 0.000000
# 5 0.000000 0.000000 0.000000 0.000000 0.026161 0.000000
# 6 0.000000 0.000000 0.000000 0.000000 0.000000 0.038281
#
#
# Mechanical properties :
#
#
# Convention : Reuss Voigt Hill
#
# Bulk Modulus (GPa) = 8.16361 10.62507 9.39434
# Shear Modulus (GPa) = 8.83965 23.29327 16.06646
#
# Velocity S-wave (km/s) = 1.97391 3.20423 2.66115
# Velocity P-wave (km/s) = 2.96537 4.28635 3.68552
#
# Compressibility (1/GPa) = 0.12249490
#
# Stress axis : x y z
#
# Youngs Moduli (GPa) = 69.62091 31.06343 13.87897
#
# Poissons Ratio (x) = -0.24298 0.01743
# Poissons Ratio (y) = -0.54458 0.06415
# Poissons Ratio (z) = 0.08745 0.14358
#
# Static dielectric constant tensor:
#      x y z
#    x 1.888230 0.000000 0.000000 
#    y 0.000000 1.888850 0.000000 
#    z 0.000000 0.000000 1.829280 
# 
# From -- ./inp_files/6502.got.cif
#   From: 2010.05.17/outbox.cif.g08.bks.cpg/sg55_4_cif.got.tgz:6502.got - 2010.06.03 13:27:54.
