data_PCOD9425484
_publ_section_title
;
Structure prediction by ZEFSAII (Michael W. Deem and Ramdas Pophale) SiO2 
 PCOD9425484
Probable space group: P B A M
;
_chemical_formula_sum "Si O2"
_cell_formula_units_Z 52
_cell_length_a 15.647300
_cell_length_b 5.116668
_cell_length_c 35.548687
_cell_angle_alpha 90.000000
_cell_angle_beta 90.000000
_cell_angle_gamma 90.000000
_cell_volume 2846.100372
_symmetry_space_group_name_H-M "P B A M"
_symmetry_group_IT_number 55
_symmetry_cell_setting 'orthorhombic'
loop_
_space_group_symop_operation_xyz
x,y,z
-x,-y,z
1/2+x,1/2-y,-z
1/2-x,1/2+y,-z
-x,-y,-z
x,y,-z
1/2-x,1/2+y,z
1/2+x,1/2-y,z
loop_
_atom_site_type_symbol
_atom_site_label
_atom_site_fract_x
_atom_site_fract_y
_atom_site_fract_z
Si Si1 0.689958 0.680289 0.040783
Si Si2 0.308894 0.201712 0.880522
Si Si3 0.192055 0.804215 0.500000
Si Si4 0.560764 0.749828 0.352241
Si Si5 0.808171 0.306833 0.580487
Si Si6 0.939227 0.250204 0.732475
Si Si7 0.691900 0.692103 0.799709
O O1 0.766698 0.894877 0.041460
O O2 0.643261 0.736770 0.080294
O O3 0.646052 0.711762 0.000000
O O4 0.270529 0.909498 0.880812
O O5 0.148006 0.757580 0.840422
O O6 0.272148 0.599237 0.500000
O O7 0.147952 0.743807 0.539767
O O8 0.500000 0.500000 0.355944
O O9 0.630770 0.757420 0.384588
O O10 0.598509 0.750233 0.309884
O O11 0.500000 0.000000 0.355544
O O12 0.768916 0.596530 0.581774
O O13 0.869162 0.242115 0.764797
O O14 0.000000 0.500000 0.736240
O O15 0.000000 0.000000 0.735732
O O16 0.730899 0.402009 0.798423
#
# Coordination Sequence:
#
# PCOD9425484 Si02
#       7
#     8   8   4   8   8   8   8
#     4   8  12  18  29  46  72 106 136 162 206 267
#     4   8  14  23  35  55  82 108 136 178 225 259
#     4   8  16  30  48  72 100 126 154 192 234 270
#     4  10  21  36  51  71 100 128 155 195 242 278
#     4  10  19  33  54  76  98 128 164 196 228 276
#     4  10  21  36  51  68  96 129 156 189 237 286
#     4  10  19  31  49  71  93 118 154 197 233 271
#
# _framework density 18.270614999999999
#
# number of rings (size 3 to 8) (size 9 to 14) (size 15 to 20)
#    0.000    2.769    0.000    1.846    0.000    1.231 
#    0.000    0.769    0.000    0.000    0.000    0.000 
#    0.000    1.231    0.000    0.000    0.000    9.846 
#
# Total GULP energy -289501.632951 kJ/mol
# GULP energy per Si atom -5567.339095 kJ/mol
# Density = 1.822903 g / cm^3
# Si number density = 18.270615 Si / 1000 Ang^3
#
#
#
# Elastic Constant Matrix: (Units=GPa)
#
#
# Indices 1 2 3 4 5 6 
#
# 1 11.2686 -1.4958 42.4464 0.0000 0.0000 0.0000
# 2 -1.4958 102.3246 1.7340 0.0000 0.0000 0.0000
# 3 42.4464 1.7340 208.8744 0.0000 0.0000 0.0000
# 4 0.0000 0.0000 0.0000 26.2040 0.0000 0.0000
# 5 0.0000 0.0000 0.0000 0.0000 -17.2831 0.0000
# 6 0.0000 0.0000 0.0000 0.0000 0.0000 5.9518
#
#
#
# Elastic Compliance Matrix: (Units=1/GPa)
#
#
# Indices 1 2 3 4 5 6 
#
# 1 0.383214 0.006923 -0.077932 0.000000 0.000000 0.000000
# 2 0.006923 0.009899 -0.001489 0.000000 0.000000 0.000000
# 3 -0.077932 -0.001489 0.020637 0.000000 0.000000 0.000000
# 4 0.000000 0.000000 0.000000 0.038162 0.000000 0.000000
# 5 0.000000 0.000000 0.000000 0.000000 -0.057860 0.000000
# 6 0.000000 0.000000 0.000000 0.000000 0.000000 0.168017
#
#
# Mechanical properties :
#
#
# Convention : Reuss Voigt Hill
#
# Bulk Modulus (GPa) = 3.72089 45.31520 24.51804
# Shear Modulus (GPa) = 6.27627 21.62675 13.95151
#
# Velocity S-wave (km/s) = 1.85543 3.44421 2.76634
# Velocity P-wave (km/s) = 2.57510 6.37753 4.86333
#
# Compressibility (1/GPa) = 0.26875316
#
# Stress axis : x y z
#
# Youngs Moduli (GPa) = 2.60951 101.01775 48.45679
#
# Poissons Ratio (x) = -0.69931 3.77635
# Poissons Ratio (y) = -0.01806 0.07215
# Poissons Ratio (z) = 0.20336 0.15041
#
# Static dielectric constant tensor:
#      x y z
#    x 1.560490 0.000000 0.000000 
#    y 0.000000 1.615650 0.000000 
#    z 0.000000 0.000000 1.727690 
# 
# From -- ./inp_files/24053.got.cif
#   From: 2010.05.17/outbox.cif.g08.bks.cpg/sg55_13_cif.got.tgz:24053.got - 2010.06.03 13:27:54.
