data_PCOD9425925
_publ_section_title
;
Structure prediction by ZEFSAII (Michael W. Deem and Ramdas Pophale) SiO2 
 PCOD9425925
Probable space group: P B A M
;
_chemical_formula_sum "Si O2"
_cell_formula_units_Z 64
_cell_length_a 29.499779
_cell_length_b 12.868768
_cell_length_c 7.570886
_cell_angle_alpha 90.000000
_cell_angle_beta 90.000000
_cell_angle_gamma 90.000000
_cell_volume 2874.103745
_symmetry_space_group_name_H-M "P B A M"
_symmetry_group_IT_number 55
_symmetry_cell_setting 'orthorhombic'
loop_
_space_group_symop_operation_xyz
x,y,z
-x,-y,z
1/2+x,1/2-y,-z
1/2-x,1/2+y,-z
-x,-y,-z
x,y,-z
1/2-x,1/2+y,z
1/2+x,1/2-y,z
loop_
_atom_site_type_symbol
_atom_site_label
_atom_site_fract_x
_atom_site_fract_y
_atom_site_fract_z
Si Si1 0.439484 0.257709 0.213732
Si Si2 0.159810 0.718797 0.783374
Si Si3 0.703994 0.566996 0.209786
Si Si4 0.874600 0.649360 0.291802
Si Si5 0.201688 0.510136 0.794518
Si Si6 0.049785 0.994379 0.293593
Si Si7 0.980011 0.611149 0.213434
Si Si8 0.135628 0.117689 0.286031
O O1 0.392697 0.202733 0.267234
O O2 0.435855 0.375200 0.278892
O O3 0.484952 0.200077 0.275030
O O4 0.440894 0.260485 0.000000
O O5 0.178532 0.830271 0.721434
O O6 0.189940 0.622994 0.719005
O O7 0.159997 0.718251 0.000000
O O8 0.754398 0.547368 0.282384
O O9 0.674829 0.462818 0.236701
O O10 0.707363 0.585480 0.000000
O O11 0.865805 0.647455 0.500000
O O12 0.842844 0.560873 0.212548
O O13 0.928123 0.630296 0.265241
O O14 0.860868 0.763883 0.223846
O O15 0.212845 0.528465 0.000000
O O16 0.045612 0.023469 0.500000
O O17 0.088379 0.068586 0.218813
O O18 0.000000 0.000000 0.211616
O O19 0.000000 0.500000 0.272298
O O20 0.980939 0.610961 0.000000
O O21 0.134148 0.119834 0.500000
#
# Coordination Sequence:
#
# PCOD9425925 Si02
#       8
#     8   8   8   8   8   8   8   8
#     4  10  19  33  56  83 113 147 187 240 291 341
#     4   9  18  36  58  87 121 147 186 244 298 350
#     4  10  21  37  63  91 114 150 197 247 301 358
#     4  11  24  41  60  87 123 162 203 247 293 350
#     4  10  22  39  63  89 118 154 195 248 304 358
#     4  10  20  35  54  77 109 150 190 230 287 347
#     4  10  21  38  61  87 118 160 202 243 299 355
#     4  10  22  39  57  81 119 160 195 242 298 351
#
# _framework density 22.267810000000001
#
# number of rings (size 3 to 8) (size 9 to 14) (size 15 to 20)
#    0.000    2.000    1.250    1.875    1.750    5.500 
#    0.000    2.500    0.000    0.000    0.000    0.000 
#    0.000    0.000    0.000    0.000    0.000    0.000 
#
# Total GULP energy -357592.303589 kJ/mol
# GULP energy per Si atom -5587.379744 kJ/mol
# Density = 2.221713 g / cm^3
# Si number density = 22.267810 Si / 1000 Ang^3
#
#
#
# Elastic Constant Matrix: (Units=GPa)
#
#
# Indices 1 2 3 4 5 6 
#
# 1 138.5103 40.7879 -6.3667 0.0000 0.0000 0.0000
# 2 40.7879 114.9462 -14.8253 0.0000 0.0000 0.0000
# 3 -6.3667 -14.8253 47.1833 0.0000 0.0000 0.0000
# 4 0.0000 0.0000 0.0000 22.3674 0.0000 0.0000
# 5 0.0000 0.0000 0.0000 0.0000 17.3520 0.0000
# 6 0.0000 0.0000 0.0000 0.0000 0.0000 31.2415
#
#
#
# Elastic Compliance Matrix: (Units=1/GPa)
#
#
# Indices 1 2 3 4 5 6 
#
# 1 0.008064 -0.002836 0.000197 0.000000 0.000000 0.000000
# 2 -0.002836 0.010065 0.002780 0.000000 0.000000 0.000000
# 3 0.000197 0.002780 0.022094 0.000000 0.000000 0.000000
# 4 0.000000 0.000000 0.000000 0.044708 0.000000 0.000000
# 5 0.000000 0.000000 0.000000 0.000000 0.057630 0.000000
# 6 0.000000 0.000000 0.000000 0.000000 0.000000 0.032009
#
#
# Mechanical properties :
#
#
# Convention : Reuss Voigt Hill
#
# Bulk Modulus (GPa) = 24.68905 37.75904 31.22404
# Shear Modulus (GPa) = 26.62558 32.92843 29.77701
#
# Velocity S-wave (km/s) = 3.46164 3.84962 3.66077
# Velocity P-wave (km/s) = 5.20468 6.06243 5.64985
#
# Compressibility (1/GPa) = 0.04050379
#
# Stress axis : x y z
#
# Youngs Moduli (GPa) = 124.00997 99.35847 45.26128
#
# Poissons Ratio (x) = 0.28178 -0.00892
# Poissons Ratio (y) = 0.35169 -0.12581
# Poissons Ratio (z) = -0.02443 -0.27619
#
# Static dielectric constant tensor:
#      x y z
#    x 1.812650 0.000000 0.000000 
#    y 0.000000 1.813320 0.000000 
#    z 0.000000 0.000000 1.853330 
# 
# From -- ./inp_files/4676.got.cif
#   From: 2010.05.17/outbox.cif.g08.bks.cpg/sg55_3_cif.got.tgz:4676.got - 2010.06.03 13:27:54.
