data_PCOD9425737
_publ_section_title
;
Structure prediction by ZEFSAII (Michael W. Deem and Ramdas Pophale) SiO2 
 PCOD9425737
Probable space group: P B A M
;
_chemical_formula_sum "Si O2"
_cell_formula_units_Z 64
_cell_length_a 20.409984
_cell_length_b 20.730408
_cell_length_c 8.606441
_cell_angle_alpha 90.000000
_cell_angle_beta 90.000000
_cell_angle_gamma 90.000000
_cell_volume 3641.447976
_symmetry_space_group_name_H-M "P B A M"
_symmetry_group_IT_number 55
_symmetry_cell_setting 'orthorhombic'
loop_
_space_group_symop_operation_xyz
x,y,z
-x,-y,z
1/2+x,1/2-y,-z
1/2-x,1/2+y,-z
-x,-y,-z
x,y,-z
1/2-x,1/2+y,z
1/2+x,1/2-y,z
loop_
_atom_site_type_symbol
_atom_site_label
_atom_site_fract_x
_atom_site_fract_y
_atom_site_fract_z
Si Si1 0.176268 0.917729 0.687613
Si Si2 0.946098 0.835623 0.187277
Si Si3 0.911296 0.198830 0.312790
Si Si4 0.909903 0.694980 0.813409
Si Si5 0.946523 0.339406 0.313318
Si Si6 0.572985 0.977214 0.813777
Si Si7 0.825776 0.582002 0.686345
Si Si8 0.073795 0.021131 0.187531
O O1 0.176321 0.918062 0.500000
O O2 0.145967 0.849009 0.739520
O O3 0.250918 0.926605 0.739753
O O4 0.127603 0.973389 0.744432
O O5 0.907834 0.770493 0.232239
O O6 0.917191 0.904334 0.236258
O O7 0.019634 0.828171 0.251147
O O8 0.950255 0.836094 0.000000
O O9 0.913388 0.197365 0.500000
O O10 0.908256 0.273997 0.266826
O O11 0.854164 0.650536 0.741622
O O12 0.980175 0.668749 0.754471
O O13 0.908362 0.689989 0.000000
O O14 0.950449 0.342097 0.500000
O O15 0.916755 0.405289 0.249688
O O16 0.500000 0.000000 0.764213
O O17 0.626484 0.027137 0.752324
O O18 0.574285 0.976717 0.000000
O O19 0.827722 0.579410 0.500000
O O20 0.077034 0.017568 0.000000
O O21 0.000000 0.000000 0.233018
#
# Coordination Sequence:
#
# PCOD9425737 Si02
#       8
#     8   8   8   8   8   8   8   8
#     4  10  22  38  55  79 111 147 184 226 274 327
#     4   9  18  32  52  80 111 138 175 224 268 314
#     4   9  18  33  53  79 109 140 176 219 269 320
#     4  10  19  33  53  78 108 140 176 222 271 320
#     4  10  19  32  55  83 109 138 175 222 271 319
#     4  11  22  36  56  82 110 142 181 227 275 325
#     4  11  23  38  56  78 108 146 186 225 274 331
#     4  10  19  33  55  83 112 146 185 225 270 321
#
# _framework density 17.575427000000001
#
# number of rings (size 3 to 8) (size 9 to 14) (size 15 to 20)
#    0.000    2.000    2.500    1.500    0.000    3.250 
#    0.000    1.250    0.000    4.500    0.000    0.000 
#    0.000    0.000    0.000    0.000    0.000    0.000 
#
# Total GULP energy -357125.991377 kJ/mol
# GULP energy per Si atom -5580.093615 kJ/mol
# Density = 1.753542 g / cm^3
# Si number density = 17.575427 Si / 1000 Ang^3
#
#
#
# Elastic Constant Matrix: (Units=GPa)
#
#
# Indices 1 2 3 4 5 6 
#
# 1 125.2139 83.5731 22.5885 0.0000 0.0000 0.0000
# 2 83.5731 161.6954 27.0398 0.0000 0.0000 0.0000
# 3 22.5885 27.0398 20.8469 0.0000 0.0000 0.0000
# 4 0.0000 0.0000 0.0000 26.4288 0.0000 0.0000
# 5 0.0000 0.0000 0.0000 0.0000 32.6841 0.0000
# 6 0.0000 0.0000 0.0000 0.0000 0.0000 24.9311
#
#
#
# Elastic Compliance Matrix: (Units=1/GPa)
#
#
# Indices 1 2 3 4 5 6 
#
# 1 0.012907 -0.005533 -0.006810 0.000000 0.000000 0.000000
# 2 -0.005533 0.010269 -0.007325 0.000000 0.000000 0.000000
# 3 -0.006810 -0.007325 0.064848 0.000000 0.000000 0.000000
# 4 0.000000 0.000000 0.000000 0.037838 0.000000 0.000000
# 5 0.000000 0.000000 0.000000 0.000000 0.030596 0.000000
# 6 0.000000 0.000000 0.000000 0.000000 0.000000 0.040111
#
#
# Mechanical properties :
#
#
# Convention : Reuss Voigt Hill
#
# Bulk Modulus (GPa) = 20.53788 63.79544 42.16666
# Shear Modulus (GPa) = 19.83085 28.44579 24.13832
#
# Velocity S-wave (km/s) = 3.36270 4.02742 3.70998
# Velocity P-wave (km/s) = 5.17571 7.61602 6.51121
#
# Compressibility (1/GPa) = 0.04869052
#
# Stress axis : x y z
#
# Youngs Moduli (GPa) = 77.47467 97.38186 15.42065
#
# Poissons Ratio (x) = 0.53877 0.10501
# Poissons Ratio (y) = 0.42863 0.11295
# Poissons Ratio (z) = 0.52758 0.71329
#
# Static dielectric constant tensor:
#      x y z
#    x 1.567010 0.000000 0.000000 
#    y 0.000000 1.619700 0.000000 
#    z 0.000000 0.000000 1.594960 
# 
# From -- ./inp_files/8032.got.cif
#   From: 2010.05.17/outbox.cif.g08.bks.cpg/sg55_5_cif.got.tgz:8032.got - 2010.06.03 13:27:54.
