data_PCOD9425555
_publ_section_title
;
Structure prediction by ZEFSAII (Michael W. Deem and Ramdas Pophale) SiO2 
 PCOD9425555
Probable space group: P B A M
;
_chemical_formula_sum "Si O2"
_cell_formula_units_Z 60
_cell_length_a 5.306560
_cell_length_b 23.263638
_cell_length_c 24.868798
_cell_angle_alpha 90.000000
_cell_angle_beta 90.000000
_cell_angle_gamma 90.000000
_cell_volume 3070.050399
_symmetry_space_group_name_H-M "P B A M"
_symmetry_group_IT_number 55
_symmetry_cell_setting 'orthorhombic'
loop_
_space_group_symop_operation_xyz
x,y,z
-x,-y,z
1/2+x,1/2-y,-z
1/2-x,1/2+y,-z
-x,-y,-z
x,y,-z
1/2-x,1/2+y,z
1/2+x,1/2-y,z
loop_
_atom_site_type_symbol
_atom_site_label
_atom_site_fract_x
_atom_site_fract_y
_atom_site_fract_z
Si Si1 0.272191 0.116442 0.633563
Si Si2 0.460259 0.630885 0.938118
Si Si3 0.500000 0.000000 0.636872
Si Si4 0.487255 0.788105 0.435974
Si Si5 0.444775 0.939759 0.061750
Si Si6 0.371431 0.438225 0.441486
Si Si7 0.893171 0.789731 0.281947
Si Si8 0.101436 0.212463 0.161674
O O1 0.334676 0.053135 0.661123
O O2 0.480269 0.156892 0.603203
O O3 0.144856 0.158557 0.676760
O O4 0.073261 0.102420 0.586359
O O5 0.710699 0.597475 0.918533
O O6 0.401669 0.676305 0.892422
O O7 0.210085 0.592266 0.940110
O O8 0.504322 0.651906 0.000000
O O9 0.656754 0.042509 0.598834
O O10 0.497355 0.802414 0.500000
O O11 0.227277 0.753895 0.425811
O O12 0.500000 0.000000 0.089964
O O13 0.362232 0.952324 0.000000
O O14 0.500000 0.500000 0.448893
O O15 0.287849 0.417248 0.500000
O O16 0.653153 0.746321 0.288139
O O17 0.891651 0.815227 0.221108
O O18 0.347839 0.251182 0.160450
#
# Coordination Sequence:
#
# PCOD9425555 Si02
#       8
#     8   8   4   8   8   8   8   8
#     4  11  22  37  60  84 113 150 197 245 286 353
#     4  10  19  31  53  83 116 155 193 236 293 348
#     4  10  23  36  58  86 116 158 193 232 292 350
#     4  10  22  37  55  83 116 147 182 234 291 335
#     4   9  17  30  50  78 114 154 195 233 272 334
#     4   9  19  35  53  80 113 148 186 224 278 346
#     4  10  23  41  66  89 110 151 202 251 303 351
#     4  10  21  38  57  84 115 149 192 243 297 353
#
# _framework density 19.543652000000002
#
# number of rings (size 3 to 8) (size 9 to 14) (size 15 to 20)
#    0.000    2.133    0.000    2.600    3.733    3.733 
#    0.000    0.000    1.467    3.200    0.000    0.000 
#    0.000    0.000    0.000    0.000    0.000    0.000 
#
# Total GULP energy -334133.218092 kJ/mol
# GULP energy per Si atom -5568.886968 kJ/mol
# Density = 1.949917 g / cm^3
# Si number density = 19.543652 Si / 1000 Ang^3
#
#
#
# Elastic Constant Matrix: (Units=GPa)
#
#
# Indices 1 2 3 4 5 6 
#
# 1 97.8818 28.9004 7.9649 0.0000 0.0000 0.0000
# 2 28.9004 101.3329 52.9791 0.0000 0.0000 0.0000
# 3 7.9649 52.9791 91.7258 0.0000 0.0000 0.0000
# 4 0.0000 0.0000 0.0000 30.6675 0.0000 0.0000
# 5 0.0000 0.0000 0.0000 0.0000 23.8057 0.0000
# 6 0.0000 0.0000 0.0000 0.0000 0.0000 29.9913
#
#
#
# Elastic Compliance Matrix: (Units=1/GPa)
#
#
# Indices 1 2 3 4 5 6 
#
# 1 0.011256 -0.003867 0.001256 0.000000 0.000000 0.000000
# 2 -0.003867 0.015466 -0.008597 0.000000 0.000000 0.000000
# 3 0.001256 -0.008597 0.015759 0.000000 0.000000 0.000000
# 4 0.000000 0.000000 0.000000 0.032608 0.000000 0.000000
# 5 0.000000 0.000000 0.000000 0.000000 0.042007 0.000000
# 6 0.000000 0.000000 0.000000 0.000000 0.000000 0.033343
#
#
# Mechanical properties :
#
#
# Convention : Reuss Voigt Hill
#
# Bulk Modulus (GPa) = 49.83909 52.29215 51.06562
# Shear Modulus (GPa) = 27.84856 30.29929 29.07393
#
# Velocity S-wave (km/s) = 3.77894 3.94171 3.86118
# Velocity P-wave (km/s) = 6.67812 6.89425 6.78705
#
# Compressibility (1/GPa) = 0.02006457
#
# Stress axis : x y z
#
# Youngs Moduli (GPa) = 88.84196 64.65748 63.45756
#
# Poissons Ratio (x) = 0.25003 -0.07971
# Poissons Ratio (y) = 0.34355 0.54556
# Poissons Ratio (z) = -0.11159 0.55587
#
# Static dielectric constant tensor:
#      x y z
#    x 1.886030 0.000000 0.000000 
#    y 0.000000 1.779570 0.000000 
#    z 0.000000 0.000000 1.756160 
# 
# From -- ./inp_files/23355.got.cif
#   From: 2010.05.17/outbox.cif.g08.bks.cpg/sg55_12_cif.got.tgz:23355.got - 2010.06.03 13:27:54.
