data_PCOD9425217
_publ_section_title
;
Structure prediction by ZEFSAII (Michael W. Deem and Ramdas Pophale) SiO2 
 PCOD9425217
Probable space group: P B A M
;
_chemical_formula_sum "Si O2"
_cell_formula_units_Z 48
_cell_length_a 14.068337
_cell_length_b 5.268807
_cell_length_c 30.260758
_cell_angle_alpha 90.000000
_cell_angle_beta 90.000000
_cell_angle_gamma 90.000000
_cell_volume 2243.028831
_symmetry_space_group_name_H-M "P B A M"
_symmetry_group_IT_number 55
_symmetry_cell_setting 'orthorhombic'
loop_
_space_group_symop_operation_xyz
x,y,z
-x,-y,z
1/2+x,1/2-y,-z
1/2-x,1/2+y,-z
-x,-y,-z
x,y,-z
1/2-x,1/2+y,z
1/2+x,1/2-y,z
loop_
_atom_site_type_symbol
_atom_site_label
_atom_site_fract_x
_atom_site_fract_y
_atom_site_fract_z
Si Si1 0.396463 0.271740 0.234354
Si Si2 0.314719 0.315536 0.047721
Si Si3 0.188064 0.113046 0.450789
Si Si4 0.112942 0.269627 0.728474
Si Si5 0.439836 0.750482 0.632096
Si Si6 0.184448 0.891582 0.143259
O O1 0.502993 0.250192 0.254036
O O2 0.347905 0.492545 0.262495
O O3 0.387304 0.350510 0.183632
O O4 0.350088 0.999775 0.242375
O O5 0.234644 0.538461 0.048176
O O6 0.363725 0.356875 0.095001
O O7 0.365270 0.340467 0.000000
O O8 0.144372 0.140554 0.500000
O O9 0.269002 0.330617 0.447900
O O10 0.119840 0.168442 0.410203
O O11 0.116116 0.325782 0.676625
O O12 0.500000 0.500000 0.644843
O O13 0.500000 0.000000 0.620586
O O14 0.263556 0.665204 0.146119
#
# Coordination Sequence:
#
# PCOD9425217 Si02
#       6
#     8   8   8   8   8   8
#     4  10  18  33  51  69  97 136 166 211 257 301
#     4   8  14  25  41  61  90 126 160 199 250 306
#     4  10  23  43  62  87 124 155 180 226 295 347
#     4  10  19  35  54  69  96 135 176 215 251 294
#     4  12  21  38  65  88 114 146 199 242 264 326
#     4  10  19  30  45  72 103 128 163 209 259 322
#
# _framework density 21.399636000000001
#
# number of rings (size 3 to 8) (size 9 to 14) (size 15 to 20)
#    0.000    2.000    3.333    2.000    0.000    0.667 
#    0.000    5.000    0.000    0.000    0.000    4.667 
#    0.000    0.000    0.000    0.000    0.000    0.000 
#
# Total GULP energy -267555.988563 kJ/mol
# GULP energy per Si atom -5574.083095 kJ/mol
# Density = 2.135093 g / cm^3
# Si number density = 21.399636 Si / 1000 Ang^3
#
#
#
# Elastic Constant Matrix: (Units=GPa)
#
#
# Indices 1 2 3 4 5 6 
#
# 1 31.2353 -9.5151 8.9613 0.0000 0.0000 0.0000
# 2 -9.5151 105.3423 -41.1924 0.0000 0.0000 0.0000
# 3 8.9613 -41.1924 146.2953 0.0000 0.0000 0.0000
# 4 0.0000 0.0000 0.0000 31.4466 0.0000 0.0000
# 5 0.0000 0.0000 0.0000 0.0000 26.5925 0.0000
# 6 0.0000 0.0000 0.0000 0.0000 0.0000 0.4332
#
#
#
# Elastic Compliance Matrix: (Units=1/GPa)
#
#
# Indices 1 2 3 4 5 6 
#
# 1 0.033151 0.002473 -0.001334 0.000000 0.000000 0.000000
# 2 0.002473 0.010852 0.002904 0.000000 0.000000 0.000000
# 3 -0.001334 0.002904 0.007735 0.000000 0.000000 0.000000
# 4 0.000000 0.000000 0.000000 0.031800 0.000000 0.000000
# 5 0.000000 0.000000 0.000000 0.000000 0.037605 0.000000
# 6 0.000000 0.000000 0.000000 0.000000 0.000000 2.308186
#
#
# Mechanical properties :
#
#
# Convention : Reuss Voigt Hill
#
# Bulk Modulus (GPa) = 16.71620 22.15339 19.43480
# Shear Modulus (GPa) = 2.04819 33.33576 17.69197
#
# Velocity S-wave (km/s) = 0.97938 3.95114 2.87843
# Velocity P-wave (km/s) = 3.01783 5.58481 4.48873
#
# Compressibility (1/GPa) = 0.05982219
#
# Stress axis : x y z
#
# Youngs Moduli (GPa) = 30.16493 92.15069 129.28353
#
# Poissons Ratio (x) = -0.22785 0.17252
# Poissons Ratio (y) = -0.07458 -0.37545
# Poissons Ratio (z) = 0.04025 -0.26761
#
# Static dielectric constant tensor:
#      x y z
#    x 1.657960 0.000000 0.000000 
#    y 0.000000 1.873730 0.000000 
#    z 0.000000 0.000000 1.800270 
# 
# From -- ./inp_files/23982.got.cif
#   From: 2010.05.17/outbox.cif.g08.bks.cpg/sg55_12_cif.got.tgz:23982.got - 2010.06.03 13:27:54.
