data_PCOD9425173
_publ_section_title
;
Structure prediction by ZEFSAII (Michael W. Deem and Ramdas Pophale) SiO2 
 PCOD9425173
Probable space group: P B A M
;
_chemical_formula_sum "Si O2"
_cell_formula_units_Z 64
_cell_length_a 17.336746
_cell_length_b 21.331150
_cell_length_c 8.000033
_cell_angle_alpha 90.000000
_cell_angle_beta 90.000000
_cell_angle_gamma 90.000000
_cell_volume 2958.514039
_symmetry_space_group_name_H-M "P B A M"
_symmetry_group_IT_number 55
_symmetry_cell_setting 'orthorhombic'
loop_
_space_group_symop_operation_xyz
x,y,z
-x,-y,z
1/2+x,1/2-y,-z
1/2-x,1/2+y,-z
-x,-y,-z
x,y,-z
1/2-x,1/2+y,z
1/2+x,1/2-y,z
loop_
_atom_site_type_symbol
_atom_site_label
_atom_site_fract_x
_atom_site_fract_y
_atom_site_fract_z
Si Si1 0.227128 0.891282 0.199579
Si Si2 0.034635 0.113124 0.805522
Si Si3 0.346379 0.517248 0.801889
Si Si4 0.611862 0.147500 0.695032
Si Si5 0.168686 0.218269 0.193467
Si Si6 0.941269 0.340211 0.700790
Si Si7 0.101843 0.800677 0.796859
Si Si8 0.780921 0.384954 0.302626
O O1 0.317496 0.892747 0.235792
O O2 0.185493 0.826942 0.254695
O O3 0.180614 0.950911 0.268715
O O4 0.218727 0.892978 0.000000
O O5 0.078022 0.052593 0.731086
O O6 0.099551 0.167529 0.803965
O O7 0.958800 0.146258 0.736422
O O8 0.016655 0.098395 0.000000
O O9 0.274213 0.564427 0.782725
O O10 0.360852 0.509745 0.000000
O O11 0.606882 0.133597 0.500000
O O12 0.638426 0.219346 0.720537
O O13 0.525719 0.141947 0.768382
O O14 0.240707 0.182533 0.273615
O O15 0.186816 0.233132 0.000000
O O16 0.943073 0.347427 0.500000
O O17 0.922928 0.267291 0.734996
O O18 0.868132 0.380071 0.762568
O O19 0.097998 0.797730 0.000000
O O20 0.781270 0.398296 0.500000
#
# Coordination Sequence:
#
# PCOD9425173 Si02
#       8
#     8   8   8   8   8   8   8   8
#     4  10  22  37  55  80 110 145 184 227 272 321
#     4   8  15  29  52  80 107 138 171 211 259 312
#     4   9  19  37  56  78 110 145 186 228 265 316
#     4  11  22  36  54  76 107 145 182 223 275 327
#     4  10  18  32  54  81 110 139 175 218 269 326
#     4  10  22  37  53  79 111 141 177 224 274 326
#     4  10  19  33  55  84 113 142 176 216 270 329
#     4  10  20  35  56  80 106 141 183 225 271 323
#
# _framework density 21.632480999999999
#
# number of rings (size 3 to 8) (size 9 to 14) (size 15 to 20)
#    0.000    2.250    1.250    2.625    0.000    5.000 
#    0.000    3.125    0.000    3.750    0.000    3.500 
#    0.000    0.000    0.000    0.000    0.000    0.000 
#
# Total GULP energy -357202.958155 kJ/mol
# GULP energy per Si atom -5581.296221 kJ/mol
# Density = 2.158324 g / cm^3
# Si number density = 21.632481 Si / 1000 Ang^3
#
#
#
# Elastic Constant Matrix: (Units=GPa)
#
#
# Indices 1 2 3 4 5 6 
#
# 1 81.9011 -0.2922 2.9379 0.0000 0.0000 0.0000
# 2 -0.2922 38.7129 -7.1968 0.0000 0.0000 0.0000
# 3 2.9379 -7.1968 13.5165 0.0000 0.0000 0.0000
# 4 0.0000 0.0000 0.0000 41.8280 0.0000 0.0000
# 5 0.0000 0.0000 0.0000 0.0000 15.6173 0.0000
# 6 0.0000 0.0000 0.0000 0.0000 0.0000 27.3551
#
#
#
# Elastic Compliance Matrix: (Units=1/GPa)
#
#
# Indices 1 2 3 4 5 6 
#
# 1 0.012313 -0.000449 -0.002915 0.000000 0.000000 0.000000
# 2 -0.000449 0.028685 0.015371 0.000000 0.000000 0.000000
# 3 -0.002915 0.015371 0.082801 0.000000 0.000000 0.000000
# 4 0.000000 0.000000 0.000000 0.023907 0.000000 0.000000
# 5 0.000000 0.000000 0.000000 0.000000 0.064032 0.000000
# 6 0.000000 0.000000 0.000000 0.000000 0.000000 0.036556
#
#
# Mechanical properties :
#
#
# Convention : Reuss Voigt Hill
#
# Bulk Modulus (GPa) = 6.76535 13.89205 10.32870
# Shear Modulus (GPa) = 18.27803 26.20550 22.24177
#
# Velocity S-wave (km/s) = 2.90993 3.48429 3.20998
# Velocity P-wave (km/s) = 3.79795 4.75634 4.30391
#
# Compressibility (1/GPa) = 0.14781210
#
# Stress axis : x y z
#
# Youngs Moduli (GPa) = 81.21608 34.86109 12.07712
#
# Poissons Ratio (x) = 0.01565 0.03521
# Poissons Ratio (y) = 0.03647 -0.18564
# Poissons Ratio (z) = 0.23678 -0.53584
#
# Static dielectric constant tensor:
#      x y z
#    x 1.836590 0.000000 0.000000 
#    y 0.000000 1.790520 0.000000 
#    z 0.000000 0.000000 1.780770 
# 
# From -- ./inp_files/6704.got.cif
#   From: 2010.05.17/outbox.cif.g08.bks.cpg/sg55_4_cif.got.tgz:6704.got - 2010.06.03 13:27:54.
