data_PCOD9425798
_publ_section_title
;
Structure prediction by ZEFSAII (Michael W. Deem and Ramdas Pophale) SiO2 
 PCOD9425798
Probable space group: P B A M
;
_chemical_formula_sum "Si O2"
_cell_formula_units_Z 64
_cell_length_a 20.115602
_cell_length_b 21.121020
_cell_length_c 8.627589
_cell_angle_alpha 90.000000
_cell_angle_beta 90.000000
_cell_angle_gamma 90.000000
_cell_volume 3665.534995
_symmetry_space_group_name_H-M "P B A M"
_symmetry_group_IT_number 55
_symmetry_cell_setting 'orthorhombic'
loop_
_space_group_symop_operation_xyz
x,y,z
-x,-y,z
1/2+x,1/2-y,-z
1/2-x,1/2+y,-z
-x,-y,-z
x,y,-z
1/2-x,1/2+y,z
1/2+x,1/2-y,z
loop_
_atom_site_type_symbol
_atom_site_label
_atom_site_fract_x
_atom_site_fract_y
_atom_site_fract_z
Si Si1 0.432746 0.242866 0.314543
Si Si2 0.794325 0.318337 0.686633
Si Si3 0.926467 0.734806 0.814481
Si Si4 0.568441 0.614876 0.185644
Si Si5 0.205685 0.928850 0.314899
Si Si6 0.578746 0.383094 0.187931
Si Si7 0.718391 0.437980 0.814421
Si Si8 0.210496 0.306035 0.687274
O O1 0.432077 0.252227 0.500000
O O2 0.370053 0.199343 0.273140
O O3 0.503478 0.215909 0.260562
O O4 0.424916 0.311608 0.235326
O O5 0.790019 0.324031 0.500000
O O6 0.766612 0.381800 0.761873
O O7 0.749142 0.258113 0.733694
O O8 0.915427 0.808867 0.769844
O O9 0.863129 0.696374 0.756033
O O10 0.931671 0.732092 0.000000
O O11 0.630310 0.577818 0.255139
O O12 0.494395 0.594073 0.238101
O O13 0.421056 0.614087 0.000000
O O14 0.205069 0.928940 0.500000
O O15 0.247200 0.867144 0.263211
O O16 0.236019 0.993828 0.252830
O O17 0.643765 0.419764 0.242527
O O18 0.570983 0.610186 0.000000
O O19 0.717127 0.441073 0.000000
O O20 0.206829 0.306392 0.500000
#
# Coordination Sequence:
#
# PCOD9425798 Si02
#       8
#     8   8   8   8   8   8   8   8
#     4  10  19  34  55  82 114 146 181 224 275 329
#     4  10  20  36  57  82 109 143 185 227 272 324
#     4  10  19  33  54  84 113 140 179 227 278 325
#     4  10  19  33  53  78 109 147 188 229 273 320
#     4  11  23  39  54  77 112 149 189 230 276 333
#     4   8  17  32  49  74 109 144 177 218 265 319
#     4  11  22  37  55  79 110 147 187 229 280 327
#     4  10  20  36  57  80 108 144 185 227 274 325
#
# _framework density 17.459935000000002
#
# number of rings (size 3 to 8) (size 9 to 14) (size 15 to 20)
#    0.000    2.000    2.500    2.625    0.000    2.500 
#    0.000    4.375    0.000    0.750    0.000    5.250 
#    0.000    0.000    0.000    0.000    0.000    0.000 
#
# Total GULP energy -357245.352656 kJ/mol
# GULP energy per Si atom -5581.958635 kJ/mol
# Density = 1.742019 g / cm^3
# Si number density = 17.459935 Si / 1000 Ang^3
#
#
#
# Elastic Constant Matrix: (Units=GPa)
#
#
# Indices 1 2 3 4 5 6 
#
# 1 94.1178 23.9812 18.2720 0.0000 0.0000 0.0000
# 2 23.9812 61.4662 14.5342 0.0000 0.0000 0.0000
# 3 18.2720 14.5342 29.7702 0.0000 0.0000 0.0000
# 4 0.0000 0.0000 0.0000 21.1093 0.0000 0.0000
# 5 0.0000 0.0000 0.0000 0.0000 27.4961 0.0000
# 6 0.0000 0.0000 0.0000 0.0000 0.0000 20.7220
#
#
#
# Elastic Compliance Matrix: (Units=1/GPa)
#
#
# Indices 1 2 3 4 5 6 
#
# 1 0.012701 -0.003518 -0.006078 0.000000 0.000000 0.000000
# 2 -0.003518 0.019367 -0.007296 0.000000 0.000000 0.000000
# 3 -0.006078 -0.007296 0.040883 0.000000 0.000000 0.000000
# 4 0.000000 0.000000 0.000000 0.047372 0.000000 0.000000
# 5 0.000000 0.000000 0.000000 0.000000 0.036369 0.000000
# 6 0.000000 0.000000 0.000000 0.000000 0.000000 0.048258
#
#
# Mechanical properties :
#
#
# Convention : Reuss Voigt Hill
#
# Bulk Modulus (GPa) = 25.53160 33.21432 29.37296
# Shear Modulus (GPa) = 19.85779 22.43660 21.14720
#
# Velocity S-wave (km/s) = 3.37610 3.58863 3.48398
# Velocity P-wave (km/s) = 5.46371 6.01959 5.74837
#
# Compressibility (1/GPa) = 0.03916715
#
# Stress axis : x y z
#
# Youngs Moduli (GPa) = 78.73125 51.63442 24.46007
#
# Poissons Ratio (x) = 0.18167 0.14867
# Poissons Ratio (y) = 0.27700 0.17845
# Poissons Ratio (z) = 0.47853 0.37671
#
# Static dielectric constant tensor:
#      x y z
#    x 1.602630 0.000000 0.000000 
#    y 0.000000 1.580750 0.000000 
#    z 0.000000 0.000000 1.589750 
# 
# From -- ./inp_files/7969.got.cif
#   From: 2010.05.17/outbox.cif.g08.bks.cpg/sg55_4_cif.got.tgz:7969.got - 2010.06.03 13:27:54.
