data_PCOD9425459
_publ_section_title
;
Structure prediction by ZEFSAII (Michael W. Deem and Ramdas Pophale) SiO2 
 PCOD9425459
Probable space group: P B A M
;
_chemical_formula_sum "Si O2"
_cell_formula_units_Z 64
_cell_length_a 22.534946
_cell_length_b 19.088074
_cell_length_c 7.748280
_cell_angle_alpha 90.000000
_cell_angle_beta 90.000000
_cell_angle_gamma 90.000000
_cell_volume 3332.912700
_symmetry_space_group_name_H-M "P B A M"
_symmetry_group_IT_number 55
_symmetry_cell_setting 'orthorhombic'
loop_
_space_group_symop_operation_xyz
x,y,z
-x,-y,z
1/2+x,1/2-y,-z
1/2-x,1/2+y,-z
-x,-y,-z
x,y,-z
1/2-x,1/2+y,z
1/2+x,1/2-y,z
loop_
_atom_site_type_symbol
_atom_site_label
_atom_site_fract_x
_atom_site_fract_y
_atom_site_fract_z
Si Si1 0.415163 0.685453 0.293017
Si Si2 0.689102 0.416646 0.791121
Si Si3 0.231300 0.379159 0.799714
Si Si4 0.187234 0.540997 0.201631
Si Si5 0.934540 0.510013 0.797590
Si Si6 0.986680 0.077926 0.706227
Si Si7 0.353009 0.429543 0.208510
Si Si8 0.393225 0.837984 0.699374
O O1 0.421699 0.690933 0.500000
O O2 0.353010 0.646771 0.259268
O O3 0.467334 0.635262 0.224811
O O4 0.415642 0.764656 0.225548
O O5 0.757300 0.415056 0.726326
O O6 0.658955 0.490166 0.732450
O O7 0.691651 0.419514 0.000000
O O8 0.211936 0.461129 0.795748
O O9 0.298321 0.381193 0.730683
O O10 0.178500 0.338464 0.708505
O O11 0.231529 0.356997 0.000000
O O12 0.121072 0.534270 0.277986
O O13 0.180679 0.560916 0.000000
O O14 0.916377 0.591610 0.788268
O O15 0.000000 0.500000 0.721470
O O16 0.937835 0.490609 0.000000
O O17 0.995879 0.075066 0.500000
O O18 0.918081 0.094117 0.739275
O O19 0.000000 0.000000 0.776379
O O20 0.349540 0.430365 0.000000
O O21 0.411079 0.844003 0.500000
#
# Coordination Sequence:
#
# PCOD9425459 Si02
#       8
#     8   8   8   8   8   8   8   8
#     4  10  21  34  46  66  99 135 169 206 245 290
#     4   9  16  27  46  70  94 124 157 197 246 287
#     4   8  15  30  50  70  94 120 151 196 246 293
#     4   7  12  25  45  71  96 114 143 189 238 285
#     4   9  17  32  56  79  99 127 161 203 253 304
#     4  10  19  31  47  68  98 139 176 204 240 291
#     4   9  17  29  48  74  99 121 156 210 251 280
#     4  10  20  33  50  72  99 129 164 208 250 295
#
# _framework density 19.202425000000002
#
# number of rings (size 3 to 8) (size 9 to 14) (size 15 to 20)
#    0.000    3.000    1.250    2.625    0.000    2.500 
#    0.000    5.000    2.750    0.000    0.000    0.000 
#    0.000    0.000    0.000    0.000    0.000    0.000 
#
# Total GULP energy -356399.534763 kJ/mol
# GULP energy per Si atom -5568.742731 kJ/mol
# Density = 1.915872 g / cm^3
# Si number density = 19.202425 Si / 1000 Ang^3
#
#
#
# Elastic Constant Matrix: (Units=GPa)
#
#
# Indices 1 2 3 4 5 6 
#
# 1 160.5879 35.3065 -8.7817 0.0000 0.0000 0.0000
# 2 35.3065 44.7589 -7.5897 0.0000 0.0000 0.0000
# 3 -8.7817 -7.5897 22.7875 0.0000 0.0000 0.0000
# 4 0.0000 0.0000 0.0000 9.9381 0.0000 0.0000
# 5 0.0000 0.0000 0.0000 0.0000 21.9709 0.0000
# 6 0.0000 0.0000 0.0000 0.0000 0.0000 19.4795
#
#
#
# Elastic Compliance Matrix: (Units=1/GPa)
#
#
# Indices 1 2 3 4 5 6 
#
# 1 0.007554 -0.005792 0.000982 0.000000 0.000000 0.000000
# 2 -0.005792 0.028121 0.007134 0.000000 0.000000 0.000000
# 3 0.000982 0.007134 0.046638 0.000000 0.000000 0.000000
# 4 0.000000 0.000000 0.000000 0.100623 0.000000 0.000000
# 5 0.000000 0.000000 0.000000 0.000000 0.045515 0.000000
# 6 0.000000 0.000000 0.000000 0.000000 0.000000 0.051336
#
#
# Mechanical properties :
#
#
# Convention : Reuss Voigt Hill
#
# Bulk Modulus (GPa) = 11.49956 29.55606 20.52781
# Shear Modulus (GPa) = 16.44051 24.22431 20.33241
#
# Velocity S-wave (km/s) = 2.92921 3.55565 3.25752
# Velocity P-wave (km/s) = 4.17636 5.68173 4.98618
#
# Compressibility (1/GPa) = 0.08695984
#
# Stress axis : x y z
#
# Youngs Moduli (GPa) = 132.37427 35.56092 21.44165
#
# Poissons Ratio (x) = 0.20599 -0.02106
# Poissons Ratio (y) = 0.76677 -0.15296
# Poissons Ratio (z) = -0.12999 -0.25368
#
# Static dielectric constant tensor:
#      x y z
#    x 1.721680 0.000000 0.000000 
#    y 0.000000 1.651280 0.000000 
#    z 0.000000 0.000000 1.707230 
# 
# From -- ./inp_files/9158.got.cif
#   From: 2010.05.17/outbox.cif.g08.bks.cpg/sg55_5_cif.got.tgz:9158.got - 2010.06.03 13:27:54.
