data_PCOD9425341
_publ_section_title
;
Structure prediction by ZEFSAII (Michael W. Deem and Ramdas Pophale) SiO2 
 PCOD9425341
Probable space group: P B A M
;
_chemical_formula_sum "Si O2"
_cell_formula_units_Z 56
_cell_length_a 5.198567
_cell_length_b 36.238715
_cell_length_c 15.557006
_cell_angle_alpha 90.000000
_cell_angle_beta 90.000000
_cell_angle_gamma 90.000000
_cell_volume 2930.774838
_symmetry_space_group_name_H-M "P B A M"
_symmetry_group_IT_number 55
_symmetry_cell_setting 'orthorhombic'
loop_
_space_group_symop_operation_xyz
x,y,z
-x,-y,z
1/2+x,1/2-y,-z
1/2-x,1/2+y,-z
-x,-y,-z
x,y,-z
1/2-x,1/2+y,z
1/2+x,1/2-y,z
loop_
_atom_site_type_symbol
_atom_site_label
_atom_site_fract_x
_atom_site_fract_y
_atom_site_fract_z
Si Si1 0.247803 0.474832 0.600319
Si Si2 0.005969 0.263277 0.097921
Si Si3 0.194331 0.900365 0.705368
Si Si4 0.795152 0.352442 0.320466
Si Si5 0.768119 0.113597 0.094206
Si Si6 0.789079 0.271837 0.396724
Si Si7 0.739591 0.841361 0.877506
O O1 0.500000 0.500000 0.609961
O O2 0.232477 0.462872 0.500000
O O3 0.262695 0.439782 0.662025
O O4 0.000000 0.500000 0.618478
O O5 0.787234 0.237650 0.139721
O O6 0.877791 0.302963 0.093821
O O7 0.060141 0.250743 0.000000
O O8 0.433639 0.873842 0.681175
O O9 0.180099 0.903774 0.810564
O O10 0.936876 0.881495 0.666934
O O11 0.792860 0.315335 0.376033
O O12 0.748104 0.338580 0.224254
O O13 0.476180 0.128358 0.098722
O O14 0.979515 0.146511 0.091952
O O15 0.797864 0.094268 0.000000
O O16 0.788246 0.268744 0.500000
O O17 0.538443 0.250162 0.363878
#
# Coordination Sequence:
#
# PCOD9425341 Si02
#       7
#     8   8   8   8   8   8   8
#     4  10  21  38  61  88 118 150 176 206 262 328
#     4  10  19  28  39  57  82 114 155 204 257 310
#     4  10  21  36  56  85 112 139 183 228 266 317
#     4  10  21  35  53  78 106 138 181 231 274 313
#     4  10  19  33  53  73 100 136 172 216 264 310
#     4  10  21  36  53  74 104 144 186 228 280 338
#     4  10  20  32  47  69  94 127 172 217 267 320
#
# _framework density 19.107575000000001
#
# number of rings (size 3 to 8) (size 9 to 14) (size 15 to 20)
#    0.000    2.000    0.000    3.857    0.000    3.429 
#    0.000    0.000    0.000    0.857    0.000    0.000 
#    0.000    0.000    0.000    0.000    0.000    0.000 
#
# Total GULP energy -312135.087678 kJ/mol
# GULP energy per Si atom -5573.840851 kJ/mol
# Density = 1.906408 g / cm^3
# Si number density = 19.107575 Si / 1000 Ang^3
#
#
#
# Elastic Constant Matrix: (Units=GPa)
#
#
# Indices 1 2 3 4 5 6 
#
# 1 87.0753 0.6974 9.7115 0.0000 0.0000 0.0000
# 2 0.6974 71.8144 39.2063 0.0000 0.0000 0.0000
# 3 9.7115 39.2063 52.6332 0.0000 0.0000 0.0000
# 4 0.0000 0.0000 0.0000 13.2299 0.0000 0.0000
# 5 0.0000 0.0000 0.0000 0.0000 -10.5882 0.0000
# 6 0.0000 0.0000 0.0000 0.0000 0.0000 17.7752
#
#
#
# Elastic Compliance Matrix: (Units=1/GPa)
#
#
# Indices 1 2 3 4 5 6 
#
# 1 0.011865 0.001820 -0.003545 0.000000 0.000000 0.000000
# 2 0.001820 0.023748 -0.018026 0.000000 0.000000 0.000000
# 3 -0.003545 -0.018026 0.033081 0.000000 0.000000 0.000000
# 4 0.000000 0.000000 0.000000 0.075586 0.000000 0.000000
# 5 0.000000 0.000000 0.000000 0.000000 -0.094445 0.000000
# 6 0.000000 0.000000 0.000000 0.000000 0.000000 0.056258
#
#
# Mechanical properties :
#
#
# Convention : Reuss Voigt Hill
#
# Bulk Modulus (GPa) = 34.25508 34.52814 34.39161
# Shear Modulus (GPa) = 32.19045 14.87724 23.53384
#
# Velocity S-wave (km/s) = 4.10896 2.79337 3.51329
# Velocity P-wave (km/s) = 6.36222 5.33981 5.87330
#
# Compressibility (1/GPa) = 0.02919275
#
# Stress axis : x y z
#
# Youngs Moduli (GPa) = 84.28058 42.10866 30.22893
#
# Poissons Ratio (x) = -0.07665 0.10717
# Poissons Ratio (y) = -0.15341 0.54490
# Poissons Ratio (z) = 0.29879 0.75904
#
# Static dielectric constant tensor:
#      x y z
#    x 1.719340 0.000000 0.000000 
#    y 0.000000 1.626280 0.000000 
#    z 0.000000 0.000000 1.715110 
# 
# From -- ./inp_files/16750.got.cif
#   From: 2010.05.17/outbox.cif.g08.bks.cpg/sg55_9_cif.got.tgz:16750.got - 2010.06.03 13:27:54.
