data_PCOD9425777
_publ_section_title
;
Structure prediction by ZEFSAII (Michael W. Deem and Ramdas Pophale) SiO2 
 PCOD9425777
Probable space group: P B A M
;
_chemical_formula_sum "Si O2"
_cell_formula_units_Z 48
_cell_length_a 17.883389
_cell_length_b 15.756874
_cell_length_c 7.583497
_cell_angle_alpha 90.000000
_cell_angle_beta 90.000000
_cell_angle_gamma 90.000000
_cell_volume 2136.925615
_symmetry_space_group_name_H-M "P B A M"
_symmetry_group_IT_number 55
_symmetry_cell_setting 'orthorhombic'
loop_
_space_group_symop_operation_xyz
x,y,z
-x,-y,z
1/2+x,1/2-y,-z
1/2-x,1/2+y,-z
-x,-y,-z
x,y,-z
1/2-x,1/2+y,z
1/2+x,1/2-y,z
loop_
_atom_site_type_symbol
_atom_site_label
_atom_site_fract_x
_atom_site_fract_y
_atom_site_fract_z
Si Si1 0.912266 0.265503 0.287519
Si Si2 0.131528 0.917705 0.284165
Si Si3 0.717403 0.892746 0.200623
Si Si4 0.425417 0.786575 0.716610
Si Si5 0.804026 0.578258 0.287938
Si Si6 0.115851 0.102146 0.698862
O O1 0.910840 0.264639 0.500000
O O2 0.910076 0.167460 0.229192
O O3 0.839110 0.316153 0.230583
O O4 0.989880 0.308570 0.232579
O O5 0.130836 0.921422 0.500000
O O6 0.218401 0.908250 0.229117
O O7 0.101651 0.009057 0.221972
O O8 0.793710 0.890586 0.310454
O O9 0.676571 0.981773 0.239033
O O10 0.743037 0.892572 0.000000
O O11 0.421524 0.785631 0.500000
O O12 0.362575 0.852245 0.777798
O O13 0.410333 0.690562 0.778884
O O14 0.803252 0.583792 0.500000
O O15 0.083925 0.100127 0.500000
#
# Coordination Sequence:
#
# PCOD9425777 Si02
#       6
#     8   8   8   8   8   8
#     4  10  19  33  52  78 108 137 165 203 252 307
#     4   8  15  28  52  78 101 129 163 201 247 295
#     4  11  22  35  51  74  99 133 176 216 254 296
#     4   9  18  31  54  82 105 131 168 207 252 304
#     4   9  17  33  53  74  98 131 171 212 252 296
#     4   9  17  34  56  78 102 131 166 209 252 300
#
# _framework density 22.462174999999998
#
# number of rings (size 3 to 8) (size 9 to 14) (size 15 to 20)
#    0.000    2.667    0.000    3.500    0.000    4.000 
#    0.000   15.833    0.000    0.000    0.000    5.833 
#    0.000    0.000    0.000    0.000    0.000    0.000 
#
# Total GULP energy -267978.893440 kJ/mol
# GULP energy per Si atom -5582.893613 kJ/mol
# Density = 2.241105 g / cm^3
# Si number density = 22.462175 Si / 1000 Ang^3
#
#
#
# Elastic Constant Matrix: (Units=GPa)
#
#
# Indices 1 2 3 4 5 6 
#
# 1 38.1288 16.1003 -3.8785 0.0000 0.0000 0.0000
# 2 16.1003 85.3265 -6.2498 0.0000 0.0000 0.0000
# 3 -3.8785 -6.2498 57.7959 0.0000 0.0000 0.0000
# 4 0.0000 0.0000 0.0000 121.6456 0.0000 0.0000
# 5 0.0000 0.0000 0.0000 0.0000 -14.5071 0.0000
# 6 0.0000 0.0000 0.0000 0.0000 0.0000 -53.1847
#
#
#
# Elastic Compliance Matrix: (Units=1/GPa)
#
#
# Indices 1 2 3 4 5 6 
#
# 1 0.028601 -0.005298 0.001346 0.000000 0.000000 0.000000
# 2 -0.005298 0.012795 0.001028 0.000000 0.000000 0.000000
# 3 0.001346 0.001028 0.017504 0.000000 0.000000 0.000000
# 4 0.000000 0.000000 0.000000 0.008221 0.000000 0.000000
# 5 0.000000 0.000000 0.000000 0.000000 -0.068932 0.000000
# 6 0.000000 0.000000 0.000000 0.000000 0.000000 -0.018802
#
#
# Mechanical properties :
#
#
# Convention : Reuss Voigt Hill
#
# Bulk Modulus (GPa) = 18.84937 21.46612 20.15774
# Shear Modulus (GPa) = 1713.95275 22.47606 868.21441
#
# Velocity S-wave (km/s) = 27.65314 3.16669 19.68151
# Velocity P-wave (km/s) = 32.06251 4.79039 22.92327
#
# Compressibility (1/GPa) = 0.05305218
#
# Stress axis : x y z
#
# Youngs Moduli (GPa) = 34.96373 78.15742 57.13045
#
# Poissons Ratio (x) = 0.41409 -0.07692
# Poissons Ratio (y) = 0.18524 -0.05873
# Poissons Ratio (z) = -0.04708 -0.08035
#
# Static dielectric constant tensor:
#      x y z
#    x 1.799140 0.000000 0.000000 
#    y 0.000000 1.818420 0.000000 
#    z 0.000000 0.000000 1.889330 
# 
# From -- ./inp_files/5615.got.cif
#   From: 2010.05.17/outbox.cif.g08.bks.cpg/sg55_3_cif.got.tgz:5615.got - 2010.06.03 13:27:54.
