data_PCOD9425156
_publ_section_title
;
Structure prediction by ZEFSAII (Michael W. Deem and Ramdas Pophale) SiO2 
 PCOD9425156
Probable space group: P B A M
;
_chemical_formula_sum "Si O2"
_cell_formula_units_Z 56
_cell_length_a 18.184815
_cell_length_b 19.646912
_cell_length_c 8.633294
_cell_angle_alpha 90.000000
_cell_angle_beta 90.000000
_cell_angle_gamma 90.000000
_cell_volume 3084.464086
_symmetry_space_group_name_H-M "P B A M"
_symmetry_group_IT_number 55
_symmetry_cell_setting 'orthorhombic'
loop_
_space_group_symop_operation_xyz
x,y,z
-x,-y,z
1/2+x,1/2-y,-z
1/2-x,1/2+y,-z
-x,-y,-z
x,y,-z
1/2-x,1/2+y,z
1/2+x,1/2-y,z
loop_
_atom_site_type_symbol
_atom_site_label
_atom_site_fract_x
_atom_site_fract_y
_atom_site_fract_z
Si Si1 0.081838 0.565793 0.680089
Si Si2 0.339298 0.655804 0.679598
Si Si3 0.579011 0.223773 0.181115
Si Si4 0.578964 0.069377 0.180457
Si Si5 0.073031 0.796256 0.818068
Si Si6 0.818837 0.316509 0.815139
Si Si7 0.982954 0.922723 0.312972
O O1 0.062661 0.570374 0.500000
O O2 0.113072 0.490793 0.718332
O O3 0.135307 0.625178 0.730090
O O4 0.007737 0.570935 0.780199
O O5 0.321865 0.641688 0.500000
O O6 0.381814 0.726696 0.700357
O O7 0.265129 0.667120 0.774563
O O8 0.400790 0.601520 0.736332
O O9 0.602308 0.146565 0.209605
O O10 0.492155 0.239787 0.197619
O O11 0.596607 0.240335 0.000000
O O12 0.589930 0.053845 0.000000
O O13 0.147179 0.757118 0.765482
O O14 0.041568 0.865079 0.740594
O O15 0.080905 0.811707 0.000000
O O16 0.830202 0.320813 0.000000
O O17 0.983009 0.921819 0.500000
O O18 0.000000 0.000000 0.261690
#
# Coordination Sequence:
#
# PCOD9425156 Si02
#       7
#     8   8   8   8   8   8   8
#     4  11  21  31  48  77 109 140 177 220 266 316
#     4  10  21  35  54  81 109 140 179 226 279 329
#     4   9  17  33  54  76 102 136 176 217 261 316
#     4  10  18  32  52  75 105 140 178 216 261 316
#     4   9  18  33  55  81 104 134 180 224 265 318
#     4  11  21  37  55  76 108 147 183 224 276 333
#     4   9  19  37  59  83 111 143 180 226 281 334
#
# _framework density 18.155503
#
# number of rings (size 3 to 8) (size 9 to 14) (size 15 to 20)
#    0.000    2.143    1.429    3.429    0.000    3.143 
#    0.000    1.429    0.000    3.429    0.000    0.000 
#    0.000    0.000    0.000    0.000    0.000    0.000 
#
# Total GULP energy -311953.036712 kJ/mol
# GULP energy per Si atom -5570.589941 kJ/mol
# Density = 1.811418 g / cm^3
# Si number density = 18.155503 Si / 1000 Ang^3
#
#
#
# Elastic Constant Matrix: (Units=GPa)
#
#
# Indices 1 2 3 4 5 6 
#
# 1 65.2890 37.3167 3.7719 0.0000 0.0000 0.0000
# 2 37.3167 116.3628 19.0839 0.0000 0.0000 0.0000
# 3 3.7719 19.0839 1.6114 0.0000 0.0000 0.0000
# 4 0.0000 0.0000 0.0000 -7.8032 0.0000 0.0000
# 5 0.0000 0.0000 0.0000 0.0000 32.8537 0.0000
# 6 0.0000 0.0000 0.0000 0.0000 0.0000 14.0620
#
#
#
# Elastic Compliance Matrix: (Units=1/GPa)
#
#
# Indices 1 2 3 4 5 6 
#
# 1 0.017558 -0.001178 -0.027154 0.000000 0.000000 0.000000
# 2 -0.001178 -0.009041 0.109830 0.000000 0.000000 0.000000
# 3 -0.027154 0.109830 -0.616585 0.000000 0.000000 0.000000
# 4 0.000000 0.000000 0.000000 -0.128152 0.000000 0.000000
# 5 0.000000 0.000000 0.000000 0.000000 0.030438 0.000000
# 6 0.000000 0.000000 0.000000 0.000000 0.000000 0.071114
#
#
# Mechanical properties :
#
#
# Convention : Reuss Voigt Hill
#
# Bulk Modulus (GPa) = -2.24684 33.73423 15.74369
# Shear Modulus (GPa) = -5.28528 16.02853 5.37162
#
# Velocity S-wave (km/s) = -1.70805 2.97450 1.72195
# Velocity P-wave (km/s) = 2.26499 5.51524 3.55582
#
# Compressibility (1/GPa) = -0.44507002
#
# Stress axis : x y z
#
# Youngs Moduli (GPa) = 56.95322 -110.60648 -1.62184
#
# Poissons Ratio (x) = -0.13024 -0.04404
# Poissons Ratio (y) = 0.06706 0.17813
# Poissons Ratio (z) = 1.54648 12.14791
#
# Static dielectric constant tensor:
#      x y z
#    x 1.641360 0.000000 0.000000 
#    y 0.000000 1.659010 0.000000 
#    z 0.000000 0.000000 1.612150 
# 
# From -- ./inp_files/7840.got.cif
#   From: 2010.05.17/outbox.cif.g08.bks.cpg/sg55_4_cif.got.tgz:7840.got - 2010.06.03 13:27:54.
