data_PCOD9425789
_publ_section_title
;
Structure prediction by ZEFSAII (Michael W. Deem and Ramdas Pophale) SiO2 
 PCOD9425789
Probable space group: P B A M
;
_chemical_formula_sum "Si O2"
_cell_formula_units_Z 48
_cell_length_a 13.953355
_cell_length_b 24.332120
_cell_length_c 8.768944
_cell_angle_alpha 90.000000
_cell_angle_beta 90.000000
_cell_angle_gamma 90.000000
_cell_volume 2977.185464
_symmetry_space_group_name_H-M "P B A M"
_symmetry_group_IT_number 55
_symmetry_cell_setting 'orthorhombic'
loop_
_space_group_symop_operation_xyz
x,y,z
-x,-y,z
1/2+x,1/2-y,-z
1/2-x,1/2+y,-z
-x,-y,-z
x,y,-z
1/2-x,1/2+y,z
1/2+x,1/2-y,z
loop_
_atom_site_type_symbol
_atom_site_label
_atom_site_fract_x
_atom_site_fract_y
_atom_site_fract_z
Si Si1 0.720985 0.666538 0.817107
Si Si2 0.394083 0.559757 0.317905
Si Si3 0.900012 0.274264 0.181957
Si Si4 0.894281 0.058033 0.816651
Si Si5 0.794343 0.835640 0.817815
Si Si6 0.605591 0.229088 0.680426
O O1 0.643542 0.714164 0.780392
O O2 0.677562 0.607456 0.778433
O O3 0.818789 0.683164 0.734755
O O4 0.736537 0.669289 0.000000
O O5 0.398585 0.557041 0.500000
O O6 0.363846 0.500710 0.250486
O O7 0.500698 0.570281 0.251596
O O8 0.326248 0.608693 0.262729
O O9 0.814434 0.316853 0.216221
O O10 0.998056 0.284354 0.269083
O O11 0.917888 0.275563 0.000000
O O12 0.902271 0.054484 0.000000
O O13 0.861115 0.785500 0.761883
O O14 0.804211 0.841066 0.000000
O O15 0.611696 0.236442 0.500000
#
# Coordination Sequence:
#
# PCOD9425789 Si02
#       6
#     8   8   8   8   8   8
#     4   9  19  34  52  72  96 131 169 202 236 283
#     4  11  21  32  49  75 105 131 159 203 253 293
#     4   9  18  33  52  72  97 130 166 202 239 287
#     4  10  19  33  53  74  99 134 171 201 236 289
#     4  10  20  35  53  71  96 132 170 203 238 288
#     4  11  21  31  49  76 104 130 157 199 251 296
#
# _framework density 16.122609000000001
#
# number of rings (size 3 to 8) (size 9 to 14) (size 15 to 20)
#    0.000    2.000    0.000    7.000    0.000    6.000 
#    0.000    0.000    0.000    1.000    0.000    7.000 
#    0.000    0.000    0.000    0.000    0.000    0.000 
#
# Total GULP energy -267981.289266 kJ/mol
# GULP energy per Si atom -5582.943526 kJ/mol
# Density = 1.608591 g / cm^3
# Si number density = 16.122609 Si / 1000 Ang^3
#
#
#
# Elastic Constant Matrix: (Units=GPa)
#
#
# Indices 1 2 3 4 5 6 
#
# 1 96.3981 68.4972 56.8938 0.0000 0.0000 0.0000
# 2 68.4972 121.5365 57.2829 0.0000 0.0000 0.0000
# 3 56.8938 57.2829 86.0413 0.0000 0.0000 0.0000
# 4 0.0000 0.0000 0.0000 16.9443 0.0000 0.0000
# 5 0.0000 0.0000 0.0000 0.0000 -35.4729 0.0000
# 6 0.0000 0.0000 0.0000 0.0000 0.0000 17.7811
#
#
#
# Elastic Compliance Matrix: (Units=1/GPa)
#
#
# Indices 1 2 3 4 5 6 
#
# 1 0.021037 -0.007723 -0.008768 0.000000 0.000000 0.000000
# 2 -0.007723 0.014826 -0.004764 0.000000 0.000000 0.000000
# 3 -0.008768 -0.004764 0.020592 0.000000 0.000000 0.000000
# 4 0.000000 0.000000 0.000000 0.059017 0.000000 0.000000
# 5 0.000000 0.000000 0.000000 0.000000 -0.028191 0.000000
# 6 0.000000 0.000000 0.000000 0.000000 0.000000 0.056240
#
#
# Mechanical properties :
#
#
# Convention : Reuss Voigt Hill
#
# Bulk Modulus (GPa) = 71.71660 74.36932 73.04296
# Shear Modulus (GPa) = 26.22210 7.93729 17.07969
#
# Velocity S-wave (km/s) = 4.03726 2.22121 3.25832
# Velocity P-wave (km/s) = 8.14317 7.26676 7.71742
#
# Compressibility (1/GPa) = 0.01394377
#
# Stress axis : x y z
#
# Youngs Moduli (GPa) = 47.53604 67.44890 48.56333
#
# Poissons Ratio (x) = 0.52094 0.42582
# Poissons Ratio (y) = 0.36714 0.23133
# Poissons Ratio (z) = 0.41681 0.32130
#
# Static dielectric constant tensor:
#      x y z
#    x 1.519620 0.000000 0.000000 
#    y 0.000000 1.529260 0.000000 
#    z 0.000000 0.000000 1.533650 
# 
# From -- ./inp_files/4055.got.cif
#   From: 2010.05.17/outbox.cif.g08.bks.cpg/sg55_3_cif.got.tgz:4055.got - 2010.06.03 13:27:54.
