data_PCOD9425664
_publ_section_title
;
Structure prediction by ZEFSAII (Michael W. Deem and Ramdas Pophale) SiO2 
 PCOD9425664
Probable space group: P B A M
;
_chemical_formula_sum "Si O2"
_cell_formula_units_Z 64
_cell_length_a 11.311795
_cell_length_b 23.160670
_cell_length_c 12.889150
_cell_angle_alpha 90.000000
_cell_angle_beta 90.000000
_cell_angle_gamma 90.000000
_cell_volume 3376.812311
_symmetry_space_group_name_H-M "P B A M"
_symmetry_group_IT_number 55
_symmetry_cell_setting 'orthorhombic'
loop_
_space_group_symop_operation_xyz
x,y,z
-x,-y,z
1/2+x,1/2-y,-z
1/2-x,1/2+y,-z
-x,-y,-z
x,y,-z
1/2-x,1/2+y,z
1/2+x,1/2-y,z
loop_
_atom_site_type_symbol
_atom_site_label
_atom_site_fract_x
_atom_site_fract_y
_atom_site_fract_z
Si Si1 0.457530 0.917510 0.124548
Si Si2 0.864049 0.007420 0.618514
Si Si3 0.170942 0.856067 0.612831
Si Si4 0.194690 0.522054 0.805752
Si Si5 0.658136 0.192207 0.216514
Si Si6 0.978895 0.796648 0.267530
Si Si7 0.341130 0.234078 0.885907
Si Si8 0.326043 0.628635 0.117373
O O1 0.569939 0.943638 0.186056
O O2 0.430725 0.853697 0.166639
O O3 0.345052 0.959762 0.148630
O O4 0.480117 0.918703 0.000000
O O5 0.855644 0.983663 0.500000
O O6 0.847442 0.075864 0.612300
O O7 0.762012 0.984352 0.695580
O O8 0.000000 0.000000 0.655733
O O9 0.217449 0.838283 0.500000
O O10 0.255718 0.842292 0.708078
O O11 0.048443 0.823560 0.637253
O O12 0.284758 0.562900 0.869255
O O13 0.614257 0.245973 0.286691
O O14 0.727834 0.223838 0.124034
O O15 0.070187 0.760705 0.196243
O O16 0.919971 0.847953 0.200515
O O17 0.288151 0.170484 0.867860
O O18 0.394108 0.236081 0.000000
O O19 0.368845 0.638463 0.000000
#
# Coordination Sequence:
#
# PCOD9425664 Si02
#       8
#     8   8   8   8   8   8   8   8
#     4  11  22  37  59  85 120 163 197 235 292 356
#     4  10  21  40  65  85 110 155 203 247 300 353
#     4  10  21  39  58  79 109 144 187 241 297 351
#     4  11  21  36  57  86 119 152 197 244 290 346
#     4  10  20  36  56  84 113 152 190 239 288 354
#     4  10  20  33  56  81 108 143 188 237 291 344
#     4   9  18  32  52  79 112 150 191 230 279 347
#     4  10  19  32  52  80 115 149 185 233 284 339
#
# _framework density 18.952784999999999
#
# number of rings (size 3 to 8) (size 9 to 14) (size 15 to 20)
#    0.000    1.875    1.250    3.750    0.000    3.000 
#    0.000    1.875    0.000   12.375    0.000    0.000 
#    0.000    0.000    0.000    0.000    0.000    0.000 
#
# Total GULP energy -356531.381019 kJ/mol
# GULP energy per Si atom -5570.802828 kJ/mol
# Density = 1.890965 g / cm^3
# Si number density = 18.952785 Si / 1000 Ang^3
#
#
#
# Elastic Constant Matrix: (Units=GPa)
#
#
# Indices 1 2 3 4 5 6 
#
# 1 51.6324 13.1088 30.8335 0.0000 0.0000 0.0000
# 2 13.1088 72.7128 21.7333 0.0000 0.0000 0.0000
# 3 30.8335 21.7333 84.4647 0.0000 0.0000 0.0000
# 4 0.0000 0.0000 0.0000 16.9691 0.0000 0.0000
# 5 0.0000 0.0000 0.0000 0.0000 29.0373 0.0000
# 6 0.0000 0.0000 0.0000 0.0000 0.0000 34.3734
#
#
#
# Elastic Compliance Matrix: (Units=1/GPa)
#
#
# Indices 1 2 3 4 5 6 
#
# 1 0.025014 -0.001929 -0.008635 0.000000 0.000000 0.000000
# 2 -0.001929 0.015047 -0.003168 0.000000 0.000000 0.000000
# 3 -0.008635 -0.003168 0.015807 0.000000 0.000000 0.000000
# 4 0.000000 0.000000 0.000000 0.058931 0.000000 0.000000
# 5 0.000000 0.000000 0.000000 0.000000 0.034438 0.000000
# 6 0.000000 0.000000 0.000000 0.000000 0.000000 0.029092
#
#
# Mechanical properties :
#
#
# Convention : Reuss Voigt Hill
#
# Bulk Modulus (GPa) = 35.20506 37.79570 36.50038
# Shear Modulus (GPa) = 23.22772 25.61825 24.42298
#
# Velocity S-wave (km/s) = 3.50459 3.68052 3.59363
# Velocity P-wave (km/s) = 5.91538 6.16822 6.04312
#
# Compressibility (1/GPa) = 0.02840501
#
# Stress axis : x y z
#
# Youngs Moduli (GPa) = 39.97774 66.45740 63.26507
#
# Poissons Ratio (x) = 0.12817 0.54629
# Poissons Ratio (y) = 0.07710 0.20041
# Poissons Ratio (z) = 0.34521 0.21052
#
# Static dielectric constant tensor:
#      x y z
#    x 1.724080 0.000000 0.000000 
#    y 0.000000 1.679980 0.000000 
#    z 0.000000 0.000000 1.644600 
# 
# From -- ./inp_files/13598.got.cif
#   From: 2010.05.17/outbox.cif.g08.bks.cpg/sg55_7_cif.got.tgz:13598.got - 2010.06.03 13:27:54.
