data_PCOD9425333
_publ_section_title
;
Structure prediction by ZEFSAII (Michael W. Deem and Ramdas Pophale) SiO2 
 PCOD9425333
Probable space group: P B A M
;
_chemical_formula_sum "Si O2"
_cell_formula_units_Z 46
_cell_length_a 14.733169
_cell_length_b 7.203978
_cell_length_c 15.654323
_cell_angle_alpha 90.000000
_cell_angle_beta 90.000000
_cell_angle_gamma 90.000000
_cell_volume 1661.509539
_symmetry_space_group_name_H-M "P B A M"
_symmetry_group_IT_number 55
_symmetry_cell_setting 'orthorhombic'
loop_
_space_group_symop_operation_xyz
x,y,z
-x,-y,z
1/2+x,1/2-y,-z
1/2-x,1/2+y,-z
-x,-y,-z
x,y,-z
1/2-x,1/2+y,z
1/2+x,1/2-y,z
loop_
_atom_site_type_symbol
_atom_site_label
_atom_site_fract_x
_atom_site_fract_y
_atom_site_fract_z
Si Si1 0.652322 0.522924 0.500000
Si Si2 0.337651 0.649959 0.091833
Si Si3 0.000000 0.500000 0.356560
Si Si4 0.500000 0.000000 0.000000
Si Si5 0.864626 0.578398 0.500000
Si Si6 0.369283 0.219311 0.870529
Si Si7 0.132120 0.261820 0.267569
Si Si8 0.664351 0.655866 0.686287
O O1 0.761249 0.520138 0.500000
O O2 0.622551 0.304747 0.500000
O O3 0.629486 0.628908 0.588220
O O4 0.228662 0.646810 0.097100
O O5 0.363154 0.789374 0.167008
O O6 0.371717 0.440427 0.106244
O O7 0.369488 0.722850 0.000000
O O8 0.914960 0.491463 0.419418
O O9 0.963271 0.668408 0.301485
O O10 0.446416 0.121788 0.075820
O O11 0.363293 0.206565 0.765041
O O12 0.137557 0.043433 0.278696
O O13 0.225075 0.329971 0.313477
#
# Coordination Sequence:
#
# PCOD9425333 Si02
#       8
#     4   8   4   2   4   8   8   8
#     4  12  18  40  66 113 149 224 284 340 413 541
#     4  10  18  39  66 116 154 225 271 335 404 549
#     4  11  20  40  55 115 159 220 261 378 425 502
#     4  12  20  40  68 122 158 220 248 362 438 490
#     4  11  24  34  72 105 167 204 292 354 437 502
#     4  10  22  36  72 112 169 206 276 339 433 495
#     4  10  21  36  69 100 165 211 283 343 439 493
#     4  10  20  38  62 113 150 226 277 338 407 546
#
# _framework density 27.685668
#
# number of rings (size 3 to 8) (size 9 to 14) (size 15 to 20)
#    0.000    1.565    5.217    0.000    0.000    0.000 
#    0.000    0.435    0.000   24.522    0.000   19.478 
#    0.000   13.913    0.000    0.348    0.000    5.043 
#
# Total GULP energy -257161.738273 kJ/mol
# GULP energy per Si atom -5590.472571 kJ/mol
# Density = 2.762265 g / cm^3
# Si number density = 27.685668 Si / 1000 Ang^3
#
#
#
# Elastic Constant Matrix: (Units=GPa)
#
#
# Indices 1 2 3 4 5 6 
#
# 1 93.2275 52.4855 41.3227 0.0000 0.0000 0.0000
# 2 52.4855 147.8768 54.8236 0.0000 0.0000 0.0000
# 3 41.3227 54.8236 203.8150 0.0000 0.0000 0.0000
# 4 0.0000 0.0000 0.0000 74.6142 0.0000 0.0000
# 5 0.0000 0.0000 0.0000 0.0000 42.0827 0.0000
# 6 0.0000 0.0000 0.0000 0.0000 0.0000 681.4028
#
#
#
# Elastic Compliance Matrix: (Units=1/GPa)
#
#
# Indices 1 2 3 4 5 6 
#
# 1 0.013890 -0.004316 -0.001655 0.000000 0.000000 0.000000
# 2 -0.004316 0.008853 -0.001506 0.000000 0.000000 0.000000
# 3 -0.001655 -0.001506 0.005647 0.000000 0.000000 0.000000
# 4 0.000000 0.000000 0.000000 0.013402 0.000000 0.000000
# 5 0.000000 0.000000 0.000000 0.000000 0.023763 0.000000
# 6 0.000000 0.000000 0.000000 0.000000 0.000000 0.001468
#
#
# Mechanical properties :
#
#
# Convention : Reuss Voigt Hill
#
# Bulk Modulus (GPa) = 74.43399 82.46477 78.44938
# Shear Modulus (GPa) = 57.83283 179.37244 118.60264
#
# Velocity S-wave (km/s) = 4.57542 8.05789 6.55225
# Velocity P-wave (km/s) = 7.40651 10.78997 9.25418
#
# Compressibility (1/GPa) = 0.01343472
#
# Stress axis : x y z
#
# Youngs Moduli (GPa) = 71.99361 112.95894 177.08149
#
# Poissons Ratio (x) = 0.48757 0.29309
# Poissons Ratio (y) = 0.31075 0.26671
# Poissons Ratio (z) = 0.11916 0.17013
#
# Static dielectric constant tensor:
#      x y z
#    x 2.070690 0.000000 0.000000 
#    y 0.000000 2.363930 0.000000 
#    z 0.000000 0.000000 2.308950 
# 
# From -- ./inp_files/21758.got.cif
#   From: 2010.05.17/outbox.cif.g08.bks.cpg/sg55_11_cif.got.tgz:21758.got - 2010.06.03 13:27:54.
