data_PCOD9425522
_publ_section_title
;
Structure prediction by ZEFSAII (Michael W. Deem and Ramdas Pophale) SiO2 
 PCOD9425522
Probable space group: P B A M
;
_chemical_formula_sum "Si O2"
_cell_formula_units_Z 48
_cell_length_a 18.101273
_cell_length_b 10.132952
_cell_length_c 13.137243
_cell_angle_alpha 90.000000
_cell_angle_beta 90.000000
_cell_angle_gamma 90.000000
_cell_volume 2409.624315
_symmetry_space_group_name_H-M "P B A M"
_symmetry_group_IT_number 55
_symmetry_cell_setting 'orthorhombic'
loop_
_space_group_symop_operation_xyz
x,y,z
-x,-y,z
1/2+x,1/2-y,-z
1/2-x,1/2+y,-z
-x,-y,-z
x,y,-z
1/2-x,1/2+y,z
1/2+x,1/2-y,z
loop_
_atom_site_type_symbol
_atom_site_label
_atom_site_fract_x
_atom_site_fract_y
_atom_site_fract_z
Si Si1 0.397865 0.612634 0.816500
Si Si2 0.706111 0.163393 0.116238
Si Si3 0.419833 0.030610 0.883899
Si Si4 0.695017 0.704687 0.311850
Si Si5 0.804222 0.919438 0.386029
Si Si6 0.432111 0.316602 0.819439
O O1 0.343679 0.704496 0.880833
O O2 0.363556 0.609709 0.702864
O O3 0.405264 0.461711 0.853809
O O4 0.479637 0.672767 0.815104
O O5 0.769191 0.183423 0.199567
O O6 0.651883 0.046038 0.155911
O O7 0.730537 0.137342 0.000000
O O8 0.411109 0.187436 0.882768
O O9 0.500000 0.000000 0.835360
O O10 0.424145 0.980178 0.000000
O O11 0.732746 0.831417 0.360361
O O12 0.712776 0.574231 0.375353
O O13 0.607828 0.709632 0.289035
O O14 0.830117 0.889785 0.500000
#
# Coordination Sequence:
#
# PCOD9425522 Si02
#       6
#     8   8   8   8   8   8
#     4   9  20  35  55  78 107 139 180 223 272 320
#     4  10  20  36  54  78 112 147 180 222 268 317
#     4  10  19  31  51  76 102 142 188 218 255 310
#     4  10  21  36  57  83 110 142 180 222 273 327
#     4  10  20  38  59  81 107 140 179 225 277 327
#     4  10  19  35  52  77 109 139 178 226 269 317
#
# _framework density 19.920117000000001
#
# number of rings (size 3 to 8) (size 9 to 14) (size 15 to 20)
#    0.000    2.167    1.667    1.500    0.000    1.333 
#    0.000   19.167    0.000    0.000    0.000    5.833 
#    0.000    0.000    0.000    0.000    0.000    0.000 
#
# Total GULP energy -267698.686002 kJ/mol
# GULP energy per Si atom -5577.055958 kJ/mol
# Density = 1.987478 g / cm^3
# Si number density = 19.920117 Si / 1000 Ang^3
#
#
#
# Elastic Constant Matrix: (Units=GPa)
#
#
# Indices 1 2 3 4 5 6 
#
# 1 44.4245 -0.5336 0.7776 0.0000 0.0000 0.0000
# 2 -0.5336 60.2842 5.7461 0.0000 0.0000 0.0000
# 3 0.7776 5.7461 71.5508 0.0000 0.0000 0.0000
# 4 0.0000 0.0000 0.0000 15.5739 0.0000 0.0000
# 5 0.0000 0.0000 0.0000 0.0000 26.4919 0.0000
# 6 0.0000 0.0000 0.0000 0.0000 0.0000 28.0254
#
#
#
# Elastic Compliance Matrix: (Units=1/GPa)
#
#
# Indices 1 2 3 4 5 6 
#
# 1 0.022517 0.000224 -0.000263 0.000000 0.000000 0.000000
# 2 0.000224 0.016718 -0.001345 0.000000 0.000000 0.000000
# 3 -0.000263 -0.001345 0.014087 0.000000 0.000000 0.000000
# 4 0.000000 0.000000 0.000000 0.064210 0.000000 0.000000
# 5 0.000000 0.000000 0.000000 0.000000 0.037747 0.000000
# 6 0.000000 0.000000 0.000000 0.000000 0.000000 0.035682
#
#
# Mechanical properties :
#
#
# Convention : Reuss Voigt Hill
#
# Bulk Modulus (GPa) = 19.78014 20.91553 20.34784
# Shear Modulus (GPa) = 23.74384 25.36952 24.55668
#
# Velocity S-wave (km/s) = 3.45621 3.57257 3.51487
# Velocity P-wave (km/s) = 5.08709 5.24788 5.16811
#
# Compressibility (1/GPa) = 0.05055575
#
# Stress axis : x y z
#
# Youngs Moduli (GPa) = 44.41015 59.81470 70.98760
#
# Poissons Ratio (x) = -0.01342 0.01865
# Poissons Ratio (y) = -0.00996 0.09548
# Poissons Ratio (z) = 0.01167 0.08045
#
# Static dielectric constant tensor:
#      x y z
#    x 1.750430 0.000000 0.000000 
#    y 0.000000 1.725090 0.000000 
#    z 0.000000 0.000000 1.685990 
# 
# From -- ./inp_files/19336.got.cif
#   From: 2010.05.17/outbox.cif.g08.bks.cpg/sg55_10_cif.got.tgz:19336.got - 2010.06.03 13:27:54.
