data_PCOD9425805
_publ_section_title
;
Structure prediction by ZEFSAII (Michael W. Deem and Ramdas Pophale) SiO2 
 PCOD9425805
Probable space group: P B A M
;
_chemical_formula_sum "Si O2"
_cell_formula_units_Z 56
_cell_length_a 20.414351
_cell_length_b 18.784441
_cell_length_c 8.941117
_cell_angle_alpha 90.000000
_cell_angle_beta 90.000000
_cell_angle_gamma 90.000000
_cell_volume 3428.669555
_symmetry_space_group_name_H-M "P B A M"
_symmetry_group_IT_number 55
_symmetry_cell_setting 'orthorhombic'
loop_
_space_group_symop_operation_xyz
x,y,z
-x,-y,z
1/2+x,1/2-y,-z
1/2-x,1/2+y,-z
-x,-y,-z
x,y,-z
1/2-x,1/2+y,z
1/2+x,1/2-y,z
loop_
_atom_site_type_symbol
_atom_site_label
_atom_site_fract_x
_atom_site_fract_y
_atom_site_fract_z
Si Si1 0.132479 0.560479 0.674513
Si Si2 0.914818 0.591496 0.325124
Si Si3 0.214125 0.446457 0.178305
Si Si4 0.146042 0.936028 0.322511
Si Si5 0.936226 0.948288 0.171270
Si Si6 0.536607 0.664484 0.179903
Si Si7 0.961814 0.331720 0.821430
O O1 0.147663 0.571420 0.500000
O O2 0.080198 0.494860 0.683099
O O3 0.193437 0.525188 0.761425
O O4 0.100202 0.628612 0.748856
O O5 0.912421 0.610446 0.500000
O O6 0.844335 0.602369 0.245661
O O7 0.973285 0.631420 0.244317
O O8 0.284157 0.426460 0.243932
O O9 0.213487 0.444703 0.000000
O O10 0.152217 0.931760 0.500000
O O11 0.094462 0.877674 0.262292
O O12 0.116285 0.012611 0.273742
O O13 0.967321 0.873155 0.219005
O O14 0.911926 0.944212 0.000000
O O15 0.000000 0.000000 0.170293
O O16 0.537692 0.747855 0.212600
O O17 0.544493 0.654315 0.000000
O O18 0.960293 0.340906 0.000000
#
# Coordination Sequence:
#
# PCOD9425805 Si02
#       7
#     8   8   8   8   8   8   8
#     4   9  19  33  50  75 104 133 168 212 255 303
#     4   9  19  33  50  74 104 134 167 210 257 304
#     4  10  19  33  54  75  97 130 172 212 253 304
#     4  11  20  32  53  79 104 132 170 216 260 307
#     4   8  15  31  52  72  98 130 165 209 251 293
#     4   9  20  35  51  76 106 137 174 211 254 305
#     4  11  20  31  52  78 105 137 173 213 254 304
#
# _framework density 16.332867
#
# number of rings (size 3 to 8) (size 9 to 14) (size 15 to 20)
#    0.857    1.571    0.000    4.714    0.000    5.429 
#    0.000    0.000    3.143    0.000    0.000    0.000 
#    0.000    0.000    0.000    0.000    0.000    0.000 
#
# Total GULP energy -311780.848386 kJ/mol
# GULP energy per Si atom -5567.515150 kJ/mol
# Density = 1.629569 g / cm^3
# Si number density = 16.332867 Si / 1000 Ang^3
#
#
#
# Elastic Constant Matrix: (Units=GPa)
#
#
# Indices 1 2 3 4 5 6 
#
# 1 37.7930 8.6222 23.4676 0.0000 0.0000 0.0000
# 2 8.6222 69.1426 36.7617 0.0000 0.0000 0.0000
# 3 23.4676 36.7617 97.8031 0.0000 0.0000 0.0000
# 4 0.0000 0.0000 0.0000 16.4046 0.0000 0.0000
# 5 0.0000 0.0000 0.0000 0.0000 74.9165 0.0000
# 6 0.0000 0.0000 0.0000 0.0000 0.0000 8.5903
#
#
#
# Elastic Compliance Matrix: (Units=1/GPa)
#
#
# Indices 1 2 3 4 5 6 
#
# 1 0.031093 0.000112 -0.007503 0.000000 0.000000 0.000000
# 2 0.000112 0.018075 -0.006821 0.000000 0.000000 0.000000
# 3 -0.007503 -0.006821 0.014589 0.000000 0.000000 0.000000
# 4 0.000000 0.000000 0.000000 0.060959 0.000000 0.000000
# 5 0.000000 0.000000 0.000000 0.000000 0.013348 0.000000
# 6 0.000000 0.000000 0.000000 0.000000 0.000000 0.116410
#
#
# Mechanical properties :
#
#
# Convention : Reuss Voigt Hill
#
# Bulk Modulus (GPa) = 28.30174 38.04908 33.17541
# Shear Modulus (GPa) = 16.96777 29.04142 23.00459
#
# Velocity S-wave (km/s) = 3.22665 4.22132 3.75705
# Velocity P-wave (km/s) = 5.58994 6.86338 6.25913
#
# Compressibility (1/GPa) = 0.03533352
#
# Stress axis : x y z
#
# Youngs Moduli (GPa) = 32.16131 55.32359 68.54625
#
# Poissons Ratio (x) = -0.00618 0.51428
# Poissons Ratio (y) = -0.00359 0.46755
# Poissons Ratio (z) = 0.24130 0.37736
#
# Static dielectric constant tensor:
#      x y z
#    x 1.544160 0.000000 0.000000 
#    y 0.000000 1.554570 0.000000 
#    z 0.000000 0.000000 1.542160 
# 
# From -- ./inp_files/8914.got.cif
#   From: 2010.05.17/outbox.cif.g08.bks.cpg/sg55_5_cif.got.tgz:8914.got - 2010.06.03 13:27:54.
