data_PCOD9425670
_publ_section_title
;
Structure prediction by ZEFSAII (Michael W. Deem and Ramdas Pophale) SiO2 
 PCOD9425670
Probable space group: P B A M
;
_chemical_formula_sum "Si O2"
_cell_formula_units_Z 56
_cell_length_a 14.920434
_cell_length_b 25.160093
_cell_length_c 7.682960
_cell_angle_alpha 90.000000
_cell_angle_beta 90.000000
_cell_angle_gamma 90.000000
_cell_volume 2884.179397
_symmetry_space_group_name_H-M "P B A M"
_symmetry_group_IT_number 55
_symmetry_cell_setting 'orthorhombic'
loop_
_space_group_symop_operation_xyz
x,y,z
-x,-y,z
1/2+x,1/2-y,-z
1/2-x,1/2+y,-z
-x,-y,-z
x,y,-z
1/2-x,1/2+y,z
1/2+x,1/2-y,z
loop_
_atom_site_type_symbol
_atom_site_label
_atom_site_fract_x
_atom_site_fract_y
_atom_site_fract_z
Si Si1 0.853251 0.319489 0.708506
Si Si2 0.958208 0.823017 0.200768
Si Si3 0.396454 0.499711 0.209228
Si Si4 0.541484 0.208780 0.302154
Si Si5 0.700665 0.394064 0.790198
Si Si6 0.870463 0.117692 0.706579
Si Si7 0.255478 0.785230 0.287095
O O1 0.860374 0.312790 0.500000
O O2 0.798376 0.373100 0.743186
O O3 0.796195 0.268154 0.773391
O O4 0.954901 0.319478 0.778958
O O5 0.034745 0.867157 0.209391
O O6 0.986457 0.770830 0.302761
O O7 0.868017 0.848652 0.273511
O O8 0.945451 0.807569 0.000000
O O9 0.500000 0.500000 0.274391
O O10 0.337652 0.549607 0.272830
O O11 0.351623 0.443432 0.252769
O O12 0.401434 0.504028 0.000000
O O13 0.551623 0.188881 0.500000
O O14 0.641639 0.209659 0.225560
O O15 0.694203 0.394522 0.000000
O O16 0.880467 0.123350 0.500000
O O17 0.799290 0.162090 0.763851
O O18 0.257903 0.782445 0.500000
#
# Coordination Sequence:
#
# PCOD9425670 Si02
#       7
#     8   8   8   8   8   8   8
#     4  10  19  32  53  77 102 135 172 210 255 304
#     4  11  20  31  49  76 107 140 171 206 252 307
#     4  10  20  37  54  73 105 139 170 210 263 310
#     4  10  19  34  52  74 106 141 170 207 259 305
#     4  10  21  35  51  73 106 140 169 207 257 306
#     4  11  21  34  52  78 107 137 175 212 254 306
#     4   9  18  32  51  76 106 135 166 211 258 302
#
# _framework density 19.416270000000001
#
# number of rings (size 3 to 8) (size 9 to 14) (size 15 to 20)
#    0.000    1.857    4.286    0.857    0.000    2.000 
#    0.000    1.429    0.000    0.857    0.000    6.000 
#    0.000    0.000    0.000    0.000    0.000    0.000 
#
# Total GULP energy -312462.843572 kJ/mol
# GULP energy per Si atom -5579.693635 kJ/mol
# Density = 1.937208 g / cm^3
# Si number density = 19.416270 Si / 1000 Ang^3
#
#
#
# Elastic Constant Matrix: (Units=GPa)
#
#
# Indices 1 2 3 4 5 6 
#
# 1 81.0469 7.4020 3.7952 0.0000 0.0000 0.0000
# 2 7.4020 69.4277 -0.7903 0.0000 0.0000 0.0000
# 3 3.7952 -0.7903 40.5848 0.0000 0.0000 0.0000
# 4 0.0000 0.0000 0.0000 22.8139 0.0000 0.0000
# 5 0.0000 0.0000 0.0000 0.0000 10.4909 0.0000
# 6 0.0000 0.0000 0.0000 0.0000 0.0000 29.5501
#
#
#
# Elastic Compliance Matrix: (Units=1/GPa)
#
#
# Indices 1 2 3 4 5 6 
#
# 1 0.012518 -0.001348 -0.001197 0.000000 0.000000 0.000000
# 2 -0.001348 0.014552 0.000409 0.000000 0.000000 0.000000
# 3 -0.001197 0.000409 0.024760 0.000000 0.000000 0.000000
# 4 0.000000 0.000000 0.000000 0.043833 0.000000 0.000000
# 5 0.000000 0.000000 0.000000 0.000000 0.095320 0.000000
# 6 0.000000 0.000000 0.000000 0.000000 0.000000 0.033841
#
#
# Mechanical properties :
#
#
# Convention : Reuss Voigt Hill
#
# Bulk Modulus (GPa) = 21.02693 23.54147 22.28420
# Shear Modulus (GPa) = 20.41256 24.61448 22.51352
#
# Velocity S-wave (km/s) = 3.24591 3.56437 3.40886
# Velocity P-wave (km/s) = 4.99009 5.39357 5.19575
#
# Compressibility (1/GPa) = 0.04755806
#
# Stress axis : x y z
#
# Youngs Moduli (GPa) = 79.88682 68.71967 40.38831
#
# Poissons Ratio (x) = 0.09265 0.04834
# Poissons Ratio (y) = 0.10770 -0.01654
# Poissons Ratio (z) = 0.09561 -0.02814
#
# Static dielectric constant tensor:
#      x y z
#    x 1.714470 0.000000 0.000000 
#    y 0.000000 1.669600 0.000000 
#    z 0.000000 0.000000 1.723570 
# 
# From -- ./inp_files/6129.got.cif
#   From: 2010.05.17/outbox.cif.g08.bks.cpg/sg55_4_cif.got.tgz:6129.got - 2010.06.03 13:27:54.
