data_PCOD9425547
_publ_section_title
;
Structure prediction by ZEFSAII (Michael W. Deem and Ramdas Pophale) SiO2 
 PCOD9425547
Probable space group: P B A M
;
_chemical_formula_sum "Si O2"
_cell_formula_units_Z 64
_cell_length_a 24.284738
_cell_length_b 11.690980
_cell_length_c 11.468648
_cell_angle_alpha 90.000000
_cell_angle_beta 90.000000
_cell_angle_gamma 90.000000
_cell_volume 3256.091221
_symmetry_space_group_name_H-M "P B A M"
_symmetry_group_IT_number 55
_symmetry_cell_setting 'orthorhombic'
loop_
_space_group_symop_operation_xyz
x,y,z
-x,-y,z
1/2+x,1/2-y,-z
1/2-x,1/2+y,-z
-x,-y,-z
x,y,-z
1/2-x,1/2+y,z
1/2+x,1/2-y,z
loop_
_atom_site_type_symbol
_atom_site_label
_atom_site_fract_x
_atom_site_fract_y
_atom_site_fract_z
Si Si1 0.197451 0.976014 0.124206
Si Si2 0.429085 0.785814 0.634981
Si Si3 0.061958 0.513312 0.207807
Si Si4 0.552962 0.763289 0.634099
Si Si5 0.328210 0.696111 0.770282
Si Si6 0.779991 0.382849 0.368820
Si Si7 0.840380 0.140400 0.366558
Si Si8 0.179361 0.459066 0.823644
O O1 0.184593 0.916497 0.249553
O O2 0.263304 0.996627 0.119438
O O3 0.167403 0.097724 0.134234
O O4 0.182294 0.918199 0.000000
O O5 0.416506 0.806227 0.500000
O O6 0.489262 0.730610 0.645118
O O7 0.382244 0.709159 0.692330
O O8 0.433105 0.907143 0.701681
O O9 0.063571 0.633029 0.276879
O O10 0.119007 0.500498 0.135846
O O11 0.000000 0.500000 0.154644
O O12 0.560997 0.804830 0.500000
O O13 0.594566 0.658775 0.651093
O O14 0.276277 0.656114 0.693174
O O15 0.318688 0.822171 0.821121
O O16 0.768683 0.417801 0.500000
O O17 0.816808 0.269148 0.368183
O O18 0.811851 0.484409 0.303811
O O19 0.830660 0.094081 0.500000
#
# Coordination Sequence:
#
# PCOD9425547 Si02
#       8
#     8   8   8   8   8   8   8   8
#     4  11  25  43  62  84 114 156 202 250 297 352
#     4   9  17  28  49  82 120 158 195 235 288 350
#     4   9  16  27  48  80 122 158 190 229 283 351
#     4   9  16  29  51  82 119 158 194 235 288 345
#     4  10  21  37  52  79 114 152 196 242 289 346
#     4  10  19  31  52  82 120 154 186 234 289 343
#     4  10  20  37  59  87 121 153 193 243 292 344
#     4  10  20  35  54  83 112 150 193 232 290 352
#
# _framework density 19.655467999999999
#
# number of rings (size 3 to 8) (size 9 to 14) (size 15 to 20)
#    0.000    2.250    2.500    0.750    0.000    7.000 
#    0.000    0.625    0.000    4.125    0.000    3.500 
#    0.000    0.000    0.000    0.000    0.000    0.000 
#
# Total GULP energy -356387.662924 kJ/mol
# GULP energy per Si atom -5568.557233 kJ/mol
# Density = 1.961073 g / cm^3
# Si number density = 19.655468 Si / 1000 Ang^3
#
#
#
# Elastic Constant Matrix: (Units=GPa)
#
#
# Indices 1 2 3 4 5 6 
#
# 1 116.5400 18.6624 27.1300 0.0000 0.0000 0.0000
# 2 18.6624 48.3564 17.9495 0.0000 0.0000 0.0000
# 3 27.1300 17.9495 97.9202 0.0000 0.0000 0.0000
# 4 0.0000 0.0000 0.0000 -24.4331 0.0000 0.0000
# 5 0.0000 0.0000 0.0000 0.0000 -132.0649 0.0000
# 6 0.0000 0.0000 0.0000 0.0000 0.0000 23.7887
#
#
#
# Elastic Compliance Matrix: (Units=1/GPa)
#
#
# Indices 1 2 3 4 5 6 
#
# 1 0.009536 -0.002897 -0.002111 0.000000 0.000000 0.000000
# 2 -0.002897 0.023069 -0.003426 0.000000 0.000000 0.000000
# 3 -0.002111 -0.003426 0.011425 0.000000 0.000000 0.000000
# 4 0.000000 0.000000 0.000000 -0.040928 0.000000 0.000000
# 5 0.000000 0.000000 0.000000 0.000000 -0.007572 0.000000
# 6 0.000000 0.000000 0.000000 0.000000 0.000000 0.042037
#
#
# Mechanical properties :
#
#
# Convention : Reuss Voigt Hill
#
# Bulk Modulus (GPa) = 36.81496 43.36670 40.09083
# Shear Modulus (GPa) = 78.75260 -13.27022 32.74119
#
# Velocity S-wave (km/s) = 6.33668 -2.60117 4.08579
# Velocity P-wave (km/s) = 8.50346 3.61800 6.53447
#
# Compressibility (1/GPa) = 0.02716287
#
# Stress axis : x y z
#
# Youngs Moduli (GPa) = 104.86502 43.34732 87.52454
#
# Poissons Ratio (x) = 0.12556 0.18477
# Poissons Ratio (y) = 0.30376 0.29988
# Poissons Ratio (z) = 0.22138 0.14852
#
# Static dielectric constant tensor:
#      x y z
#    x 1.755190 0.000000 0.000000 
#    y 0.000000 1.684360 0.000000 
#    z 0.000000 0.000000 1.732300 
# 
# From -- ./inp_files/13599.got.cif
#   From: 2010.05.17/outbox.cif.g08.bks.cpg/sg55_7_cif.got.tgz:13599.got - 2010.06.03 13:27:54.
