data_PCOD9425134
_publ_section_title
;
Structure prediction by ZEFSAII (Michael W. Deem and Ramdas Pophale) SiO2 
 PCOD9425134
Probable space group: P B A M
;
_chemical_formula_sum "Si O2"
_cell_formula_units_Z 42
_cell_length_a 7.680635
_cell_length_b 25.264869
_cell_length_c 10.708719
_cell_angle_alpha 90.000000
_cell_angle_beta 90.000000
_cell_angle_gamma 90.000000
_cell_volume 2078.029461
_symmetry_space_group_name_H-M "P B A M"
_symmetry_group_IT_number 55
_symmetry_cell_setting 'orthorhombic'
loop_
_space_group_symop_operation_xyz
x,y,z
-x,-y,z
1/2+x,1/2-y,-z
1/2-x,1/2+y,-z
-x,-y,-z
x,y,-z
1/2-x,1/2+y,z
1/2+x,1/2-y,z
loop_
_atom_site_type_symbol
_atom_site_label
_atom_site_fract_x
_atom_site_fract_y
_atom_site_fract_z
Si Si1 0.587272 0.588460 0.145496
Si Si2 0.500000 0.000000 0.000000
Si Si3 0.307451 0.069382 0.205871
Si Si4 0.316397 0.297134 0.143096
Si Si5 0.202107 0.981746 0.364403
Si Si6 0.593508 0.817033 0.145270
O O1 0.391496 0.566546 0.153802
O O2 0.584610 0.650169 0.185174
O O3 0.704775 0.557255 0.245093
O O4 0.648730 0.583572 0.000000
O O5 0.569063 0.958510 0.107328
O O6 0.352258 0.130762 0.218165
O O7 0.308193 0.034378 0.330351
O O8 0.339307 0.238902 0.198927
O O9 0.114581 0.312331 0.142918
O O10 0.378019 0.289605 0.000000
O O11 0.249171 0.959267 0.500000
O O12 0.000000 0.000000 0.371474
O O13 0.655039 0.823784 0.000000
#
# Coordination Sequence:
#
# PCOD9425134 Si02
#       6
#     8   2   8   8   8   8
#     4  10  19  34  57  87 110 148 190 239 288 346
#     4  12  24  32  52  88 120 152 188 244 276 346
#     4  11  22  33  55  78 123 152 192 233 290 338
#     4   9  19  30  53  78 113 143 185 232 292 346
#     4   9  21  38  57  81 113 151 190 235 290 345
#     4  10  18  32  48  78 112 148 180 234 289 343
#
# _framework density 20.211456999999999
#
# number of rings (size 3 to 8) (size 9 to 14) (size 15 to 20)
#    0.000    2.095    1.905    1.143    4.000    4.190 
#    0.000    0.476    0.000    1.143    0.000    0.000 
#    0.000    0.000    0.000    0.000    0.000    0.000 
#
# Total GULP energy -233847.957494 kJ/mol
# GULP energy per Si atom -5567.808512 kJ/mol
# Density = 2.016545 g / cm^3
# Si number density = 20.211457 Si / 1000 Ang^3
#
#
#
# Elastic Constant Matrix: (Units=GPa)
#
#
# Indices 1 2 3 4 5 6 
#
# 1 41.9023 20.8854 20.7855 0.0000 0.0000 0.0000
# 2 20.8854 158.4883 51.8832 0.0000 0.0000 0.0000
# 3 20.7855 51.8832 78.9976 0.0000 0.0000 0.0000
# 4 0.0000 0.0000 0.0000 6.6662 0.0000 0.0000
# 5 0.0000 0.0000 0.0000 0.0000 2.6027 0.0000
# 6 0.0000 0.0000 0.0000 0.0000 0.0000 39.0173
#
#
#
# Elastic Compliance Matrix: (Units=1/GPa)
#
#
# Indices 1 2 3 4 5 6 
#
# 1 0.027768 -0.001615 -0.006246 0.000000 0.000000 0.000000
# 2 -0.001615 0.008132 -0.004916 0.000000 0.000000 0.000000
# 3 -0.006246 -0.004916 0.017530 0.000000 0.000000 0.000000
# 4 0.000000 0.000000 0.000000 0.150012 0.000000 0.000000
# 5 0.000000 0.000000 0.000000 0.000000 0.384210 0.000000
# 6 0.000000 0.000000 0.000000 0.000000 0.000000 0.025630
#
#
# Mechanical properties :
#
#
# Convention : Reuss Voigt Hill
#
# Bulk Modulus (GPa) = 35.87078 51.83293 43.85185
# Shear Modulus (GPa) = 7.71455 22.04618 14.88037
#
# Velocity S-wave (km/s) = 1.95581 3.30627 2.71631
# Velocity P-wave (km/s) = 4.78399 6.34636 5.61973
#
# Compressibility (1/GPa) = 0.02787785
#
# Stress axis : x y z
#
# Youngs Moduli (GPa) = 36.01266 122.97669 57.04349
#
# Poissons Ratio (x) = 0.19856 0.35628
# Poissons Ratio (y) = 0.05815 0.28041
# Poissons Ratio (z) = 0.22493 0.60452
#
# Static dielectric constant tensor:
#      x y z
#    x 1.804510 0.000000 0.000000 
#    y 0.000000 1.766460 0.000000 
#    z 0.000000 0.000000 1.693800 
# 
# From -- ./inp_files/12165.got.cif
#   From: 2010.05.17/outbox.cif.g08.bks.cpg/sg55_7_cif.got.tgz:12165.got - 2010.06.03 13:27:54.
