data_PCOD9425287
_publ_section_title
;
Structure prediction by ZEFSAII (Michael W. Deem and Ramdas Pophale) SiO2 
 PCOD9425287
Probable space group: P B A M
;
_chemical_formula_sum "Si O2"
_cell_formula_units_Z 64
_cell_length_a 22.862291
_cell_length_b 17.130664
_cell_length_c 7.470684
_cell_angle_alpha 90.000000
_cell_angle_beta 90.000000
_cell_angle_gamma 90.000000
_cell_volume 2925.865190
_symmetry_space_group_name_H-M "P B A M"
_symmetry_group_IT_number 55
_symmetry_cell_setting 'orthorhombic'
loop_
_space_group_symop_operation_xyz
x,y,z
-x,-y,z
1/2+x,1/2-y,-z
1/2-x,1/2+y,-z
-x,-y,-z
x,y,-z
1/2-x,1/2+y,z
1/2+x,1/2-y,z
loop_
_atom_site_type_symbol
_atom_site_label
_atom_site_fract_x
_atom_site_fract_y
_atom_site_fract_z
Si Si1 0.774026 0.583760 0.218484
Si Si2 0.890456 0.673172 0.782729
Si Si3 0.850973 0.136052 0.791692
Si Si4 0.232052 0.597279 0.783320
Si Si5 0.140690 0.153271 0.218299
Si Si6 0.433054 0.502644 0.219272
Si Si7 0.385079 0.190802 0.706963
Si Si8 0.510196 0.913679 0.291247
O O1 0.833694 0.624543 0.277749
O O2 0.714985 0.627276 0.280455
O O3 0.770322 0.493230 0.271604
O O4 0.775819 0.586145 0.000000
O O5 0.882613 0.762631 0.724629
O O6 0.950173 0.633947 0.720153
O O7 0.891616 0.672166 0.000000
O O8 0.895643 0.071841 0.717749
O O9 0.875233 0.223215 0.783426
O O10 0.845040 0.114938 0.000000
O O11 0.292774 0.636427 0.724582
O O12 0.175273 0.643598 0.721367
O O13 0.231552 0.598783 0.000000
O O14 0.099762 0.081680 0.273668
O O15 0.141331 0.153639 0.000000
O O16 0.500000 0.500000 0.278444
O O17 0.433959 0.501901 0.000000
O O18 0.399597 0.204356 0.500000
O O19 0.437021 0.137988 0.786964
O O20 0.526152 0.926235 0.500000
O O21 0.500000 0.000000 0.212660
#
# Coordination Sequence:
#
# PCOD9425287 Si02
#       8
#     8   8   8   8   8   8   8   8
#     4   9  17  32  55  86 115 140 176 226 275 321
#     4  10  20  32  54  84 111 136 174 228 275 317
#     4  10  19  35  59  85 113 147 185 221 270 330
#     4  10  18  34  59  82 110 147 183 220 271 328
#     4   9  17  31  51  82 118 143 170 221 274 314
#     4   9  17  29  51  84 117 146 179 218 263 322
#     4  11  24  38  54  79 111 143 184 235 279 323
#     4  10  23  43  59  73 103 146 185 223 274 329
#
# _framework density 21.873871999999999
#
# number of rings (size 3 to 8) (size 9 to 14) (size 15 to 20)
#    0.000    2.250    1.250    1.875    1.750    3.250 
#    0.000    3.125    0.000    1.125    0.000    0.000 
#    0.000    0.000    0.000    0.000    0.000    0.000 
#
# Total GULP energy -357667.455521 kJ/mol
# GULP energy per Si atom -5588.553993 kJ/mol
# Density = 2.182409 g / cm^3
# Si number density = 21.873872 Si / 1000 Ang^3
#
#
#
# Elastic Constant Matrix: (Units=GPa)
#
#
# Indices 1 2 3 4 5 6 
#
# 1 187.1589 96.1822 -14.4386 0.0000 0.0000 0.0000
# 2 96.1822 176.2233 -15.0136 0.0000 0.0000 0.0000
# 3 -14.4386 -15.0136 55.2320 0.0000 0.0000 0.0000
# 4 0.0000 0.0000 0.0000 -111.4192 0.0000 0.0000
# 5 0.0000 0.0000 0.0000 0.0000 -22.0061 0.0000
# 6 0.0000 0.0000 0.0000 0.0000 0.0000 24.5757
#
#
#
# Elastic Compliance Matrix: (Units=1/GPa)
#
#
# Indices 1 2 3 4 5 6 
#
# 1 0.007466 -0.004001 0.000864 0.000000 0.000000 0.000000
# 2 -0.004001 0.007954 0.001116 0.000000 0.000000 0.000000
# 3 0.000864 0.001116 0.018635 0.000000 0.000000 0.000000
# 4 0.000000 0.000000 0.000000 -0.008975 0.000000 0.000000
# 5 0.000000 0.000000 0.000000 0.000000 -0.045442 0.000000
# 6 0.000000 0.000000 0.000000 0.000000 0.000000 0.040691
#
#
# Mechanical properties :
#
#
# Convention : Reuss Voigt Hill
#
# Bulk Modulus (GPa) = 33.32017 61.34156 47.33087
# Shear Modulus (GPa) = 145.45738 1.68902 73.57320
#
# Velocity S-wave (km/s) = 8.16349 0.87968 5.80588
# Velocity P-wave (km/s) = 10.20405 5.39777 8.16268
#
# Compressibility (1/GPa) = 0.03001185
#
# Stress axis : x y z
#
# Youngs Moduli (GPa) = 133.94023 125.72917 53.66332
#
# Poissons Ratio (x) = 0.50308 -0.04637
# Poissons Ratio (y) = 0.53594 -0.05989
# Poissons Ratio (z) = -0.11574 -0.14031
#
# Static dielectric constant tensor:
#      x y z
#    x 1.753880 0.000000 0.000000 
#    y 0.000000 1.751290 0.000000 
#    z 0.000000 0.000000 1.848880 
# 
# From -- ./inp_files/9816.got.cif
#   From: 2010.05.17/outbox.cif.g08.bks.cpg/sg55_5_cif.got.tgz:9816.got - 2010.06.03 13:27:54.
