data_PCOD9425101
_publ_section_title
;
Structure prediction by ZEFSAII (Michael W. Deem and Ramdas Pophale) SiO2 
 PCOD9425101
Probable space group: P B A M
;
_chemical_formula_sum "Si O2"
_cell_formula_units_Z 64
_cell_length_a 29.370419
_cell_length_b 11.429291
_cell_length_c 7.397154
_cell_angle_alpha 90.000000
_cell_angle_beta 90.000000
_cell_angle_gamma 90.000000
_cell_volume 2483.099331
_symmetry_space_group_name_H-M "P B A M"
_symmetry_group_IT_number 55
_symmetry_cell_setting 'orthorhombic'
loop_
_space_group_symop_operation_xyz
x,y,z
-x,-y,z
1/2+x,1/2-y,-z
1/2-x,1/2+y,-z
-x,-y,-z
x,y,-z
1/2-x,1/2+y,z
1/2+x,1/2-y,z
loop_
_atom_site_type_symbol
_atom_site_label
_atom_site_fract_x
_atom_site_fract_y
_atom_site_fract_z
Si Si1 0.362441 0.646823 0.209053
Si Si2 0.773068 0.736332 0.778065
Si Si3 0.358986 0.134779 0.280665
Si Si4 0.052532 0.511010 0.718790
Si Si5 0.634203 0.610276 0.717506
Si Si6 0.450315 0.762415 0.707166
Si Si7 0.231063 0.520542 0.208199
Si Si8 0.029461 0.886967 0.279186
O O1 0.325170 0.737544 0.277442
O O2 0.345083 0.513758 0.227455
O O3 0.411987 0.663114 0.293660
O O4 0.369688 0.670184 0.000000
O O5 0.757554 0.607837 0.714658
O O6 0.748342 0.855305 0.714467
O O7 0.771282 0.734033 0.000000
O O8 0.358095 0.132728 0.500000
O O9 0.345576 0.266106 0.220362
O O10 0.410420 0.105175 0.220761
O O11 0.323366 0.038949 0.214802
O O12 0.051474 0.527016 0.500000
O O13 0.070786 0.382731 0.774588
O O14 0.000000 0.500000 0.777295
O O15 0.634581 0.611182 0.500000
O O16 0.581400 0.609798 0.780086
O O17 0.461697 0.788252 0.500000
O O18 0.497891 0.719576 0.786870
O O19 0.246321 0.519162 0.000000
O O20 0.030841 0.883403 0.500000
O O21 0.000000 0.000000 0.228384
#
# Coordination Sequence:
#
# PCOD9425101 Si02
#       8
#     8   8   8   8   8   8   8   8
#     4  11  22  35  53  81 112 141 185 239 285 330
#     4   9  21  39  62  87 110 142 187 232 274 334
#     4  10  21  36  56  86 120 147 182 236 289 333
#     4   9  17  31  54  83 111 145 191 233 271 332
#     4  10  20  35  54  78 112 152 189 228 279 334
#     4  10  18  31  54  78 105 145 186 227 280 334
#     4  10  21  41  66  87 111 148 190 230 279 343
#     4   9  15  27  48  73 102 141 192 230 260 322
#
# _framework density 25.774239999999999
#
# number of rings (size 3 to 8) (size 9 to 14) (size 15 to 20)
#    0.000    2.250    1.250    1.875    1.750    3.500 
#    0.000    3.750    0.000    3.000    0.000    0.000 
#    0.000    0.000    0.000    0.000    0.000    0.000 
#
# Total GULP energy -357560.309947 kJ/mol
# GULP energy per Si atom -5586.879843 kJ/mol
# Density = 2.571558 g / cm^3
# Si number density = 25.774240 Si / 1000 Ang^3
#
#
#
# Elastic Constant Matrix: (Units=GPa)
#
#
# Indices 1 2 3 4 5 6 
#
# 1 80.3800 34.2058 -4.1314 0.0000 0.0000 0.0000
# 2 34.2058 182.0485 -0.8576 0.0000 0.0000 0.0000
# 3 -4.1314 -0.8576 89.9749 0.0000 0.0000 0.0000
# 4 0.0000 0.0000 0.0000 -1.1634 0.0000 0.0000
# 5 0.0000 0.0000 0.0000 0.0000 10.4749 0.0000
# 6 0.0000 0.0000 0.0000 0.0000 0.0000 49.4675
#
#
#
# Elastic Compliance Matrix: (Units=1/GPa)
#
#
# Indices 1 2 3 4 5 6 
#
# 1 0.013554 -0.002544 0.000598 0.000000 0.000000 0.000000
# 2 -0.002544 0.005971 -0.000060 0.000000 0.000000 0.000000
# 3 0.000598 -0.000060 0.011141 0.000000 0.000000 0.000000
# 4 0.000000 0.000000 0.000000 -0.859569 0.000000 0.000000
# 5 0.000000 0.000000 0.000000 0.000000 0.095466 0.000000
# 6 0.000000 0.000000 0.000000 0.000000 0.000000 0.020215
#
#
# Mechanical properties :
#
#
# Convention : Reuss Voigt Hill
#
# Bulk Modulus (GPa) = 37.51690 45.64857 41.58273
# Shear Modulus (GPa) = -7.13954 33.30157 13.08101
#
# Velocity S-wave (km/s) = -1.66615 3.59841 2.25527
# Velocity P-wave (km/s) = 3.29942 5.91727 4.79063
#
# Compressibility (1/GPa) = 0.02665465
#
# Stress axis : x y z
#
# Youngs Moduli (GPa) = 73.77776 167.48313 89.75770
#
# Poissons Ratio (x) = 0.42607 -0.05369
# Poissons Ratio (y) = 0.18769 0.00538
# Poissons Ratio (z) = -0.04413 0.01003
#
# Static dielectric constant tensor:
#      x y z
#    x 2.000420 0.000000 0.000000 
#    y 0.000000 2.093650 0.000000 
#    z 0.000000 0.000000 2.005490 
# 
# From -- ./inp_files/10847.got.cif
#   From: 2010.05.17/outbox.cif.g08.bks.cpg/sg55_6_cif.got.tgz:10847.got - 2010.06.03 13:27:54.
