data_PCOD9425013
_publ_section_title
;
Structure prediction by ZEFSAII (Michael W. Deem and Ramdas Pophale) SiO2 
 PCOD9425013
Probable space group: P B A M
;
_chemical_formula_sum "Si O2"
_cell_formula_units_Z 64
_cell_length_a 17.569233
_cell_length_b 22.781261
_cell_length_c 7.419342
_cell_angle_alpha 90.000000
_cell_angle_beta 90.000000
_cell_angle_gamma 90.000000
_cell_volume 2969.586312
_symmetry_space_group_name_H-M "P B A M"
_symmetry_group_IT_number 55
_symmetry_cell_setting 'orthorhombic'
loop_
_space_group_symop_operation_xyz
x,y,z
-x,-y,z
1/2+x,1/2-y,-z
1/2-x,1/2+y,-z
-x,-y,-z
x,y,-z
1/2-x,1/2+y,z
1/2+x,1/2-y,z
loop_
_atom_site_type_symbol
_atom_site_label
_atom_site_fract_x
_atom_site_fract_y
_atom_site_fract_z
Si Si1 0.144479 0.778525 0.705289
Si Si2 0.593078 0.939007 0.217642
Si Si3 0.725414 0.133145 0.207322
Si Si4 0.578511 0.073272 0.780018
Si Si5 0.288433 0.161044 0.290267
Si Si6 0.532094 0.623449 0.279826
Si Si7 0.860649 0.898553 0.279117
Si Si8 0.159363 0.967750 0.717999
O O1 0.119739 0.766590 0.500000
O O2 0.219644 0.819573 0.702178
O O3 0.167701 0.716763 0.790433
O O4 0.078305 0.819412 0.785233
O O5 0.508922 0.917107 0.273526
O O6 0.658878 0.896334 0.282075
O O7 0.600064 0.006808 0.275577
O O8 0.594792 0.938905 0.000000
O O9 0.641737 0.119444 0.281876
O O10 0.770740 0.071344 0.214276
O O11 0.718512 0.151755 0.000000
O O12 0.580528 0.073817 0.000000
O O13 0.275546 0.176230 0.500000
O O14 0.206063 0.144296 0.215363
O O15 0.532717 0.624459 0.500000
O O16 0.445266 0.618884 0.222018
O O17 0.582469 0.566801 0.229050
O O18 0.860051 0.898670 0.500000
O O19 0.842041 0.965164 0.223070
O O20 0.163285 0.966849 0.500000
#
# Coordination Sequence:
#
# PCOD9425013 Si02
#       8
#     8   8   8   8   8   8   8   8
#     4   9  19  35  49  65  95 130 165 200 236 281
#     4   9  17  33  54  71  95 131 162 192 242 296
#     4  10  18  30  50  73  96 125 162 198 235 279
#     4   8  16  31  51  75  98 124 163 201 233 291
#     4  10  20  33  47  71 101 124 157 206 248 279
#     4   8  14  27  47  67  89 124 165 193 221 278
#     4   9  16  27  47  72  95 122 156 195 238 287
#     4   9  16  27  47  74  99 122 153 193 239 288
#
# _framework density 21.551822999999999
#
# number of rings (size 3 to 8) (size 9 to 14) (size 15 to 20)
#    0.000    3.000    0.000    3.000    0.000    2.000 
#    2.250    3.125    0.000    9.000    0.000    0.000 
#    0.000    0.000    0.000    0.000    0.000    0.000 
#
# Total GULP energy -357187.520889 kJ/mol
# GULP energy per Si atom -5581.055014 kJ/mol
# Density = 2.150277 g / cm^3
# Si number density = 21.551823 Si / 1000 Ang^3
#
#
#
# Elastic Constant Matrix: (Units=GPa)
#
#
# Indices 1 2 3 4 5 6 
#
# 1 66.8608 8.0595 -9.4189 0.0000 0.0000 0.0000
# 2 8.0595 53.5450 -0.6494 0.0000 0.0000 0.0000
# 3 -9.4189 -0.6494 69.1430 0.0000 0.0000 0.0000
# 4 0.0000 0.0000 0.0000 16.1411 0.0000 0.0000
# 5 0.0000 0.0000 0.0000 0.0000 1.2831 0.0000
# 6 0.0000 0.0000 0.0000 0.0000 0.0000 9.8901
#
#
#
# Elastic Compliance Matrix: (Units=1/GPa)
#
#
# Indices 1 2 3 4 5 6 
#
# 1 0.015530 -0.002312 0.002094 0.000000 0.000000 0.000000
# 2 -0.002312 0.019022 -0.000136 0.000000 0.000000 0.000000
# 3 0.002094 -0.000136 0.014747 0.000000 0.000000 0.000000
# 4 0.000000 0.000000 0.000000 0.061954 0.000000 0.000000
# 5 0.000000 0.000000 0.000000 0.000000 0.779353 0.000000
# 6 0.000000 0.000000 0.000000 0.000000 0.000000 0.101111
#
#
# Mechanical properties :
#
#
# Convention : Reuss Voigt Hill
#
# Bulk Modulus (GPa) = 20.58041 20.61456 20.59749
# Shear Modulus (GPa) = 4.95726 18.23338 11.59532
#
# Velocity S-wave (km/s) = 1.51827 2.91181 2.32204
# Velocity P-wave (km/s) = 3.55577 4.57063 4.09477
#
# Compressibility (1/GPa) = 0.04858989
#
# Stress axis : x y z
#
# Youngs Moduli (GPa) = 64.39092 52.56998 67.81159
#
# Poissons Ratio (x) = 0.12155 -0.14199
# Poissons Ratio (y) = 0.14888 0.00924
# Poissons Ratio (z) = -0.13483 0.00717
#
# Static dielectric constant tensor:
#      x y z
#    x 1.764420 0.000000 0.000000 
#    y 0.000000 1.754220 0.000000 
#    z 0.000000 0.000000 1.817230 
# 
# From -- ./inp_files/8201.got.cif
#   From: 2010.05.17/outbox.cif.g08.bks.cpg/sg55_5_cif.got.tgz:8201.got - 2010.06.03 13:27:54.
