data_PCOD9425212
_publ_section_title
;
Structure prediction by ZEFSAII (Michael W. Deem and Ramdas Pophale) SiO2 
 PCOD9425212
Probable space group: P B A M
;
_chemical_formula_sum "Si O2"
_cell_formula_units_Z 40
_cell_length_a 14.889377
_cell_length_b 8.980922
_cell_length_c 15.584515
_cell_angle_alpha 90.000000
_cell_angle_beta 90.000000
_cell_angle_gamma 90.000000
_cell_volume 2083.966543
_symmetry_space_group_name_H-M "P B A M"
_symmetry_group_IT_number 55
_symmetry_cell_setting 'orthorhombic'
loop_
_space_group_symop_operation_xyz
x,y,z
-x,-y,z
1/2+x,1/2-y,-z
1/2-x,1/2+y,-z
-x,-y,-z
x,y,-z
1/2-x,1/2+y,z
1/2+x,1/2-y,z
loop_
_atom_site_type_symbol
_atom_site_label
_atom_site_fract_x
_atom_site_fract_y
_atom_site_fract_z
Si Si1 0.715464 0.952761 0.222252
Si Si2 0.776151 0.196271 0.342079
Si Si3 0.912910 0.602153 0.096244
Si Si4 0.126206 0.089259 0.594500
Si Si5 0.574174 0.379790 0.219880
O O1 0.708797 0.087112 0.290454
O O2 0.665634 0.002240 0.137337
O O3 0.680873 0.802950 0.268921
O O4 0.822335 0.933240 0.208557
O O5 0.716138 0.307932 0.398456
O O6 0.842221 0.082064 0.389513
O O7 0.933548 0.735239 0.161633
O O8 0.000000 0.500000 0.091952
O O9 0.890401 0.654705 0.000000
O O10 0.086926 0.106908 0.500000
O O11 0.067501 0.138109 0.676457
O O12 0.500000 0.500000 0.194160
#
# Coordination Sequence:
#
# PCOD9425212 Si02
#       5
#     8   8   8   8   8
#     4  10  18  40  60  86 116 160 201 235 309 347
#     4   8  17  31  57  85 115 158 195 239 291 347
#     4  11  25  41  63  92 118 154 202 250 303 365
#     4  10  18  32  57  89 121 158 201 245 294 353
#     4  10  23  40  62  87 124 165 195 250 298 354
#
# _framework density 19.194168000000001
#
# number of rings (size 3 to 8) (size 9 to 14) (size 15 to 20)
#    0.000    2.600    4.000    0.600    5.600    1.600 
#    0.000    0.000    0.000    0.600    0.000    0.000 
#    0.000    0.000    0.000    0.000    0.000    0.000 
#
# Total GULP energy -222823.321493 kJ/mol
# GULP energy per Si atom -5570.583037 kJ/mol
# Density = 1.915048 g / cm^3
# Si number density = 19.194168 Si / 1000 Ang^3
#
#
#
# Elastic Constant Matrix: (Units=GPa)
#
#
# Indices 1 2 3 4 5 6 
#
# 1 50.0828 13.7105 30.7635 0.0000 0.0000 0.0000
# 2 13.7105 119.1315 56.9853 0.0000 0.0000 0.0000
# 3 30.7635 56.9853 144.6876 0.0000 0.0000 0.0000
# 4 0.0000 0.0000 0.0000 -8.6701 0.0000 0.0000
# 5 0.0000 0.0000 0.0000 0.0000 12.3130 0.0000
# 6 0.0000 0.0000 0.0000 0.0000 0.0000 19.6522
#
#
#
# Elastic Compliance Matrix: (Units=1/GPa)
#
#
# Indices 1 2 3 4 5 6 
#
# 1 0.022980 -0.000379 -0.004737 0.000000 0.000000 0.000000
# 2 -0.000379 0.010349 -0.003995 0.000000 0.000000 0.000000
# 3 -0.004737 -0.003995 0.009492 0.000000 0.000000 0.000000
# 4 0.000000 0.000000 0.000000 -0.115339 0.000000 0.000000
# 5 0.000000 0.000000 0.000000 0.000000 0.081215 0.000000
# 6 0.000000 0.000000 0.000000 0.000000 0.000000 0.050885
#
#
# Mechanical properties :
#
#
# Convention : Reuss Voigt Hill
#
# Bulk Modulus (GPa) = 40.65190 57.42451 49.03821
# Shear Modulus (GPa) = 58.13690 18.82185 38.47938
#
# Velocity S-wave (km/s) = 5.50950 3.13485 4.48229
# Velocity P-wave (km/s) = 7.85481 6.56397 7.23822
#
# Compressibility (1/GPa) = 0.02459909
#
# Stress axis : x y z
#
# Youngs Moduli (GPa) = 43.51555 96.62938 105.35019
#
# Poissons Ratio (x) = 0.03662 0.49903
# Poissons Ratio (y) = 0.01649 0.42091
# Poissons Ratio (z) = 0.20613 0.38607
#
# Static dielectric constant tensor:
#      x y z
#    x 1.672730 0.000000 0.000000 
#    y 0.000000 1.697590 0.000000 
#    z 0.000000 0.000000 1.714470 
# 
# From -- ./inp_files/19237.got.cif
#   From: 2010.05.17/outbox.cif.g08.bks.cpg/sg55_10_cif.got.tgz:19237.got - 2010.06.03 13:27:54.
