data_PCOD9425166
_publ_section_title
;
Structure prediction by ZEFSAII (Michael W. Deem and Ramdas Pophale) SiO2 
 PCOD9425166
Probable space group: P B A M
;
_chemical_formula_sum "Si O2"
_cell_formula_units_Z 48
_cell_length_a 10.572864
_cell_length_b 30.347644
_cell_length_c 7.649128
_cell_angle_alpha 90.000000
_cell_angle_beta 90.000000
_cell_angle_gamma 90.000000
_cell_volume 2454.310781
_symmetry_space_group_name_H-M "P B A M"
_symmetry_group_IT_number 55
_symmetry_cell_setting 'orthorhombic'
loop_
_space_group_symop_operation_xyz
x,y,z
-x,-y,z
1/2+x,1/2-y,-z
1/2-x,1/2+y,-z
-x,-y,-z
x,y,-z
1/2-x,1/2+y,z
1/2+x,1/2-y,z
loop_
_atom_site_type_symbol
_atom_site_label
_atom_site_fract_x
_atom_site_fract_y
_atom_site_fract_z
Si Si1 0.119610 0.528473 0.210460
Si Si2 0.503093 0.117400 0.703013
Si Si3 0.869378 0.022224 0.214763
Si Si4 0.223785 0.785440 0.215166
Si Si5 0.212713 0.884171 0.200460
Si Si6 0.511745 0.782722 0.790401
O O1 0.096043 0.579050 0.258544
O O2 0.249517 0.506767 0.271839
O O3 0.000000 0.500000 0.274880
O O4 0.119505 0.525929 0.000000
O O5 0.535228 0.116583 0.500000
O O6 0.635614 0.108180 0.800017
O O7 0.458172 0.166377 0.749794
O O8 0.851341 0.072436 0.277577
O O9 0.866910 0.023330 0.000000
O O10 0.000000 0.000000 0.267906
O O11 0.194193 0.835330 0.275818
O O12 0.118332 0.750853 0.274126
O O13 0.367529 0.774430 0.270917
O O14 0.225162 0.785999 0.000000
O O15 0.168726 0.881414 0.000000
O O16 0.509328 0.778352 0.000000
#
# Coordination Sequence:
#
# PCOD9425166 Si02
#       6
#     8   8   8   8   8   8
#     4  10  18  32  54  77 100 131 166 206 254 297
#     4  11  21  32  50  76 101 133 175 212 247 293
#     4   9  17  30  50  79 107 129 160 203 253 304
#     4   8  15  28  51  75  97 124 162 204 247 293
#     4   9  16  32  54  75 102 133 166 206 251 299
#     4   9  17  33  52  75 101 129 163 208 258 302
#
# _framework density 19.557426
#
# number of rings (size 3 to 8) (size 9 to 14) (size 15 to 20)
#    0.000    2.667    1.667    2.500    0.000    0.333 
#    3.000    3.333    0.000    2.000    0.000    0.000 
#    0.000    0.000    0.000    0.000    0.000    0.000 
#
# Total GULP energy -267724.497497 kJ/mol
# GULP energy per Si atom -5577.593698 kJ/mol
# Density = 1.951291 g / cm^3
# Si number density = 19.557426 Si / 1000 Ang^3
#
#
#
# Elastic Constant Matrix: (Units=GPa)
#
#
# Indices 1 2 3 4 5 6 
#
# 1 146.7459 126.1520 8.2546 0.0000 0.0000 0.0000
# 2 126.1520 187.4092 1.0041 0.0000 0.0000 0.0000
# 3 8.2546 1.0041 39.0533 0.0000 0.0000 0.0000
# 4 0.0000 0.0000 0.0000 -23.7396 0.0000 0.0000
# 5 0.0000 0.0000 0.0000 0.0000 -15.4564 0.0000
# 6 0.0000 0.0000 0.0000 0.0000 0.0000 37.3442
#
#
#
# Elastic Compliance Matrix: (Units=1/GPa)
#
#
# Indices 1 2 3 4 5 6 
#
# 1 0.016568 -0.011135 -0.003216 0.000000 0.000000 0.000000
# 2 -0.011135 0.012821 0.002024 0.000000 0.000000 0.000000
# 3 -0.003216 0.002024 0.026234 0.000000 0.000000 0.000000
# 4 0.000000 0.000000 0.000000 -0.042124 0.000000 0.000000
# 5 0.000000 0.000000 0.000000 0.000000 -0.064698 0.000000
# 6 0.000000 0.000000 0.000000 0.000000 0.000000 0.026778
#
#
# Mechanical properties :
#
#
# Convention : Reuss Voigt Hill
#
# Bulk Modulus (GPa) = 32.29095 71.55888 51.92491
# Shear Modulus (GPa) = 473.69994 15.48280 244.59137
#
# Velocity S-wave (km/s) = 15.57997 2.81670 11.19530
# Velocity P-wave (km/s) = 18.44435 6.87364 13.91835
#
# Compressibility (1/GPa) = 0.03096843
#
# Stress axis : x y z
#
# Youngs Moduli (GPa) = 60.35742 77.99924 38.11899
#
# Poissons Ratio (x) = 0.86854 0.12258
# Poissons Ratio (y) = 0.67210 -0.07715
# Poissons Ratio (z) = 0.19409 -0.15787
#
# Static dielectric constant tensor:
#      x y z
#    x 1.658780 0.000000 0.000000 
#    y 0.000000 1.682080 0.000000 
#    z 0.000000 0.000000 1.704110 
# 
# From -- ./inp_files/2850.got.cif
#   From: 2010.05.17/outbox.cif.g08.bks.cpg/sg55_2_cif.got.tgz:2850.got - 2010.06.03 13:27:54.
