data_PCOD9425168
_publ_section_title
;
Structure prediction by ZEFSAII (Michael W. Deem and Ramdas Pophale) SiO2 
 PCOD9425168
Probable space group: P B A M
;
_chemical_formula_sum "Si O2"
_cell_formula_units_Z 56
_cell_length_a 19.710737
_cell_length_b 19.679337
_cell_length_c 8.613467
_cell_angle_alpha 90.000000
_cell_angle_beta 90.000000
_cell_angle_gamma 90.000000
_cell_volume 3341.114201
_symmetry_space_group_name_H-M "P B A M"
_symmetry_group_IT_number 55
_symmetry_cell_setting 'orthorhombic'
loop_
_space_group_symop_operation_xyz
x,y,z
-x,-y,z
1/2+x,1/2-y,-z
1/2-x,1/2+y,-z
-x,-y,-z
x,y,-z
1/2-x,1/2+y,z
1/2+x,1/2-y,z
loop_
_atom_site_type_symbol
_atom_site_label
_atom_site_fract_x
_atom_site_fract_y
_atom_site_fract_z
Si Si1 0.294010 0.478884 0.687851
Si Si2 0.158316 0.738586 0.686286
Si Si3 0.519541 0.709569 0.184200
Si Si4 0.733802 0.154153 0.184557
Si Si5 0.125299 0.247676 0.686220
Si Si6 0.768565 0.867739 0.311600
Si Si7 0.948610 0.060451 0.312729
O O1 0.288927 0.476249 0.500000
O O2 0.245227 0.422480 0.760011
O O3 0.277272 0.555227 0.741122
O O4 0.371712 0.459988 0.728329
O O5 0.152160 0.739856 0.500000
O O6 0.085376 0.748698 0.761140
O O7 0.206586 0.800914 0.737188
O O8 0.199565 0.670941 0.733918
O O9 0.451268 0.738112 0.260431
O O10 0.531088 0.631863 0.238388
O O11 0.513566 0.711810 0.000000
O O12 0.663951 0.188151 0.240771
O O13 0.739751 0.159154 0.000000
O O14 0.129090 0.252560 0.500000
O O15 0.169196 0.181174 0.735099
O O16 0.769481 0.869169 0.500000
O O17 0.951872 0.068279 0.500000
O O18 0.000000 0.000000 0.269385
#
# Coordination Sequence:
#
# PCOD9425168 Si02
#       7
#     8   8   8   8   8   8   8
#     4  10  18  32  54  78 106 141 179 219 265 319
#     4  10  19  35  56  77 103 143 188 226 264 320
#     4  12  23  34  51  79 112 143 177 225 277 323
#     4  11  21  34  52  79 110 140 177 223 271 322
#     4  10  20  37  58  78 103 141 185 226 268 323
#     4   8  17  33  56  81 102 132 182 229 262 309
#     4  10  20  33  52  77 109 149 186 217 259 323
#
# _framework density 16.760876
#
# number of rings (size 3 to 8) (size 9 to 14) (size 15 to 20)
#    0.000    1.857    1.429    5.143    0.000    2.571 
#    0.000    5.714    0.000    0.857    0.000    6.000 
#    0.000    0.000    0.000    0.000    0.000    0.000 
#
# Total GULP energy -312682.330531 kJ/mol
# GULP energy per Si atom -5583.613045 kJ/mol
# Density = 1.672273 g / cm^3
# Si number density = 16.760876 Si / 1000 Ang^3
#
#
#
# Elastic Constant Matrix: (Units=GPa)
#
#
# Indices 1 2 3 4 5 6 
#
# 1 98.6424 47.1773 7.5983 0.0000 0.0000 0.0000
# 2 47.1773 63.6497 11.9146 0.0000 0.0000 0.0000
# 3 7.5983 11.9146 34.9666 0.0000 0.0000 0.0000
# 4 0.0000 0.0000 0.0000 -13.6924 0.0000 0.0000
# 5 0.0000 0.0000 0.0000 0.0000 17.0587 0.0000
# 6 0.0000 0.0000 0.0000 0.0000 0.0000 22.7869
#
#
#
# Elastic Compliance Matrix: (Units=1/GPa)
#
#
# Indices 1 2 3 4 5 6 
#
# 1 0.015716 -0.011760 0.000592 0.000000 0.000000 0.000000
# 2 -0.011760 0.025581 -0.006161 0.000000 0.000000 0.000000
# 3 0.000592 -0.006161 0.030569 0.000000 0.000000 0.000000
# 4 0.000000 0.000000 0.000000 -0.073033 0.000000 0.000000
# 5 0.000000 0.000000 0.000000 0.000000 0.058621 0.000000
# 6 0.000000 0.000000 0.000000 0.000000 0.000000 0.043885
#
#
# Mechanical properties :
#
#
# Convention : Reuss Voigt Hill
#
# Bulk Modulus (GPa) = 26.87548 36.73767 31.80657
# Shear Modulus (GPa) = 33.69273 13.93520 23.81396
#
# Velocity S-wave (km/s) = 4.48839 2.88655 3.77345
# Velocity P-wave (km/s) = 6.55212 5.75116 6.16466
#
# Compressibility (1/GPa) = 0.03720864
#
# Stress axis : x y z
#
# Youngs Moduli (GPa) = 63.62801 39.09204 32.71240
#
# Poissons Ratio (x) = 0.45971 -0.01936
# Poissons Ratio (y) = 0.74825 0.20154
# Poissons Ratio (z) = -0.03766 0.24084
#
# Static dielectric constant tensor:
#      x y z
#    x 1.549020 0.000000 0.000000 
#    y 0.000000 1.556950 0.000000 
#    z 0.000000 0.000000 1.558800 
# 
# From -- ./inp_files/7879.got.cif
#   From: 2010.05.17/outbox.cif.g08.bks.cpg/sg55_4_cif.got.tgz:7879.got - 2010.06.03 13:27:54.
