data_PCOD9425401
_publ_section_title
;
Structure prediction by ZEFSAII (Michael W. Deem and Ramdas Pophale) SiO2 
 PCOD9425401
Probable space group: P B A M
;
_chemical_formula_sum "Si O2"
_cell_formula_units_Z 56
_cell_length_a 13.986162
_cell_length_b 30.100754
_cell_length_c 8.821791
_cell_angle_alpha 90.000000
_cell_angle_beta 90.000000
_cell_angle_gamma 90.000000
_cell_volume 3713.921272
_symmetry_space_group_name_H-M "P B A M"
_symmetry_group_IT_number 55
_symmetry_cell_setting 'orthorhombic'
loop_
_space_group_symop_operation_xyz
x,y,z
-x,-y,z
1/2+x,1/2-y,-z
1/2-x,1/2+y,-z
-x,-y,-z
x,y,-z
1/2-x,1/2+y,z
1/2+x,1/2-y,z
loop_
_atom_site_type_symbol
_atom_site_label
_atom_site_fract_x
_atom_site_fract_y
_atom_site_fract_z
Si Si1 0.388842 0.592656 0.182313
Si Si2 0.888842 0.092656 0.817687
Si Si3 0.712450 0.683654 0.182637
Si Si4 0.115882 1.000000 0.676061
Si Si5 0.712450 0.316346 0.182637
Si Si6 0.389071 0.769251 0.681649
Si Si7 0.889071 0.269251 0.318351
O O1 0.500000 0.599021 0.229697
O O2 0.352593 0.545923 0.247500
O O3 0.327425 0.635476 0.227066
O O4 0.388183 0.589909 0.000000
O O5 0.827425 0.135476 0.772934
O O6 0.852593 0.045923 0.752500
O O7 0.888183 0.089909 0.000000
O O8 0.816941 0.694864 0.247474
O O9 0.644073 0.722119 0.248999
O O10 0.713061 0.686940 0.000000
O O11 0.140767 0.000000 0.500000
O O12 0.000000 0.000000 0.690064
O O13 0.644073 0.277881 0.248999
O O14 0.816942 0.305136 0.247474
O O15 0.713061 0.313060 0.000000
O O16 0.376671 0.767919 0.500000
O O17 0.500000 0.777588 0.715774
O O18 0.876672 0.267919 0.500000
#
# Coordination Sequence:
#
# PCOD9425401 Si02
#       7
#     8   8   8   8   8   8   8
#     4   9  17  29  44  63  89 118 145 176 216 259
#     4   9  17  29  44  63  89 118 145 176 216 259
#     4  10  19  30  47  68  88 115 151 186 219 258
#     4   9  17  27  41  63  88 115 146 177 211 254
#     4  10  19  30  47  68  88 115 151 186 219 258
#     4  10  20  32  45  63  90 121 149 181 221 262
#     4  10  20  32  45  63  90 121 149 181 221 262
#
# _framework density 15.078403
#
# number of rings (size 3 to 8) (size 9 to 14) (size 15 to 20)
#    0.000    2.429    0.000    4.714    0.000    7.429 
#    0.000    2.857    0.000    0.000    0.000    1.000 
#    0.000    8.000    0.000    0.000    0.000    0.000 
#
# Total GULP energy -312210.450432 kJ/mol
# GULP energy per Si atom -5575.186615 kJ/mol
# Density = 1.504408 g / cm^3
# Si number density = 15.078403 Si / 1000 Ang^3
#
#
#
# Elastic Constant Matrix: (Units=GPa)
#
#
# Indices 1 2 3 4 5 6 
#
# 1 99.5525 72.7290 39.9472 0.0000 0.0000 0.0000
# 2 72.7290 160.2370 50.1422 0.0000 0.0000 0.0000
# 3 39.9472 50.1422 49.6569 0.0000 0.0000 0.0000
# 4 0.0000 0.0000 0.0000 -28.3637 0.0000 0.0000
# 5 0.0000 0.0000 0.0000 0.0000 20.9496 0.0000
# 6 0.0000 0.0000 0.0000 0.0000 0.0000 24.0699
#
#
#
# Elastic Compliance Matrix: (Units=1/GPa)
#
#
# Indices 1 2 3 4 5 6 
#
# 1 0.017288 -0.005109 -0.008749 0.000000 0.000000 0.000000
# 2 -0.005109 0.010634 -0.006627 0.000000 0.000000 0.000000
# 3 -0.008749 -0.006627 0.033868 0.000000 0.000000 0.000000
# 4 0.000000 0.000000 0.000000 -0.035256 0.000000 0.000000
# 5 0.000000 0.000000 0.000000 0.000000 0.047733 0.000000
# 6 0.000000 0.000000 0.000000 0.000000 0.000000 0.041546
#
#
# Mechanical properties :
#
#
# Convention : Reuss Voigt Hill
#
# Bulk Modulus (GPa) = 48.03143 70.56481 59.29812
# Shear Modulus (GPa) = 30.53950 13.10638 21.82294
#
# Velocity S-wave (km/s) = 4.50530 2.95144 3.80846
# Velocity P-wave (km/s) = 7.68032 7.64950 7.66493
#
# Compressibility (1/GPa) = 0.02081970
#
# Stress axis : x y z
#
# Youngs Moduli (GPa) = 57.84385 94.04188 29.52622
#
# Poissons Ratio (x) = 0.48047 0.25831
# Poissons Ratio (y) = 0.29553 0.19568
# Poissons Ratio (z) = 0.50605 0.62325
#
# Static dielectric constant tensor:
#      x y z
#    x 1.489260 0.000000 0.000000 
#    y 0.000000 1.489930 0.000000 
#    z 0.000000 0.000000 1.506530 
# 
# From -- ./inp_files/6879.got.cif
#   From: 2010.05.17/outbox.cif.g08.bks.cpg/sg55_4_cif.got.tgz:6879.got - 2010.06.03 13:27:54.
