data_PCOD9425949
_publ_section_title
;
Structure prediction by ZEFSAII (Michael W. Deem and Ramdas Pophale) SiO2 
 PCOD9425949
Probable space group: P B A M
;
_chemical_formula_sum "Si O2"
_cell_formula_units_Z 64
_cell_length_a 28.537261
_cell_length_b 13.284206
_cell_length_c 8.822772
_cell_angle_alpha 90.000000
_cell_angle_beta 90.000000
_cell_angle_gamma 90.000000
_cell_volume 3344.667461
_symmetry_space_group_name_H-M "P B A M"
_symmetry_group_IT_number 55
_symmetry_cell_setting 'orthorhombic'
loop_
_space_group_symop_operation_xyz
x,y,z
-x,-y,z
1/2+x,1/2-y,-z
1/2-x,1/2+y,-z
-x,-y,-z
x,y,-z
1/2-x,1/2+y,z
1/2+x,1/2-y,z
loop_
_atom_site_type_symbol
_atom_site_label
_atom_site_fract_x
_atom_site_fract_y
_atom_site_fract_z
Si Si1 0.126593 0.373024 0.677663
Si Si2 0.948579 0.461518 0.314760
Si Si3 0.519971 0.603200 0.824514
Si Si4 0.080737 0.190013 0.173130
Si Si5 0.165512 0.055322 0.820159
Si Si6 0.408339 0.251667 0.318142
Si Si7 0.713354 0.231711 0.180923
Si Si8 0.189102 0.839351 0.318285
O O1 0.136369 0.386188 0.500000
O O2 0.093658 0.464179 0.730787
O O3 0.095911 0.273539 0.708450
O O4 0.174719 0.349048 0.763415
O O5 0.949876 0.462167 0.500000
O O6 0.933930 0.349928 0.263631
O O7 0.000000 0.500000 0.264259
O O8 0.500000 0.500000 0.758730
O O9 0.474296 0.673711 0.823869
O O10 0.561643 0.653994 0.736486
O O11 0.534016 0.584847 0.000000
O O12 0.111360 0.089653 0.202633
O O13 0.094279 0.221143 0.000000
O O14 0.194944 0.155882 0.775722
O O15 0.179470 0.953818 0.735447
O O16 0.172295 0.038891 0.000000
O O17 0.408291 0.247612 0.500000
O O18 0.354970 0.270219 0.268763
O O19 0.762991 0.203645 0.251288
O O20 0.716041 0.229364 0.000000
O O21 0.191537 0.838152 0.500000
#
# Coordination Sequence:
#
# PCOD9425949 Si02
#       8
#     8   8   8   8   8   8   8   8
#     4  10  19  33  57  84 108 141 185 230 279 331
#     4   9  18  34  56  82 115 153 187 223 274 336
#     4  10  20  34  53  77 106 141 180 220 265 322
#     4   9  18  33  53  78 108 140 177 223 270 318
#     4   9  19  37  59  80 107 145 183 223 275 333
#     4  10  22  38  54  79 113 145 183 229 276 331
#     4  10  22  40  60  82 110 146 191 239 285 340
#     4  11  23  37  56  83 114 145 181 233 289 339
#
# _framework density 19.134936
#
# number of rings (size 3 to 8) (size 9 to 14) (size 15 to 20)
#    0.000    2.250    0.000    3.375    0.000    7.250 
#    0.000    2.500    0.000    3.375    0.000    0.000 
#    0.000    0.000    0.000    0.000    0.000    0.000 
#
# Total GULP energy -357083.060000 kJ/mol
# GULP energy per Si atom -5579.422812 kJ/mol
# Density = 1.909138 g / cm^3
# Si number density = 19.134936 Si / 1000 Ang^3
#
#
#
# Elastic Constant Matrix: (Units=GPa)
#
#
# Indices 1 2 3 4 5 6 
#
# 1 135.0839 51.1571 26.5032 0.0000 0.0000 0.0000
# 2 51.1571 92.7725 20.1889 0.0000 0.0000 0.0000
# 3 26.5032 20.1889 20.8891 0.0000 0.0000 0.0000
# 4 0.0000 0.0000 0.0000 21.9884 0.0000 0.0000
# 5 0.0000 0.0000 0.0000 0.0000 2143.8715 0.0000
# 6 0.0000 0.0000 0.0000 0.0000 0.0000 26.0356
#
#
#
# Elastic Compliance Matrix: (Units=1/GPa)
#
#
# Indices 1 2 3 4 5 6 
#
# 1 0.010805 -0.003767 -0.010068 0.000000 0.000000 0.000000
# 2 -0.003767 0.014963 -0.009682 0.000000 0.000000 0.000000
# 3 -0.010068 -0.009682 0.070003 0.000000 0.000000 0.000000
# 4 0.000000 0.000000 0.000000 0.045478 0.000000 0.000000
# 5 0.000000 0.000000 0.000000 0.000000 0.000466 0.000000
# 6 0.000000 0.000000 0.000000 0.000000 0.000000 0.038409
#
#
# Mechanical properties :
#
#
# Convention : Reuss Voigt Hill
#
# Bulk Modulus (GPa) = 20.51833 49.38263 34.95048
# Shear Modulus (GPa) = 20.54195 448.43887 234.49041
#
# Velocity S-wave (km/s) = 3.28003 15.32530 11.08205
# Velocity P-wave (km/s) = 5.00910 18.41241 13.49274
#
# Compressibility (1/GPa) = 0.04873691
#
# Stress axis : x y z
#
# Youngs Moduli (GPa) = 92.55245 66.82999 14.28512
#
# Poissons Ratio (x) = 0.25175 0.14382
# Poissons Ratio (y) = 0.34865 0.13831
# Poissons Ratio (z) = 0.93179 0.64706
#
# Static dielectric constant tensor:
#      x y z
#    x 1.663810 0.000000 0.000000 
#    y 0.000000 1.676920 0.000000 
#    z 0.000000 0.000000 1.652600 
# 
# From -- ./inp_files/10768.got.cif
#   From: 2010.05.17/outbox.cif.g08.bks.cpg/sg55_6_cif.got.tgz:10768.got - 2010.06.03 13:27:54.
