data_PCOD9425259
_publ_section_title
;
Structure prediction by ZEFSAII (Michael W. Deem and Ramdas Pophale) SiO2 
 PCOD9425259
Probable space group: P B A M
;
_chemical_formula_sum "Si O2"
_cell_formula_units_Z 40
_cell_length_a 7.455152
_cell_length_b 15.367236
_cell_length_c 13.596105
_cell_angle_alpha 90.000000
_cell_angle_beta 90.000000
_cell_angle_gamma 90.000000
_cell_volume 1557.638860
_symmetry_space_group_name_H-M "P B A M"
_symmetry_group_IT_number 55
_symmetry_cell_setting 'orthorhombic'
loop_
_space_group_symop_operation_xyz
x,y,z
-x,-y,z
1/2+x,1/2-y,-z
1/2-x,1/2+y,-z
-x,-y,-z
x,y,-z
1/2-x,1/2+y,z
1/2+x,1/2-y,z
loop_
_atom_site_type_symbol
_atom_site_label
_atom_site_fract_x
_atom_site_fract_y
_atom_site_fract_z
Si Si1 0.355943 0.425195 0.679807
Si Si2 0.581661 0.643897 0.891102
Si Si3 0.361634 0.707397 0.610986
Si Si4 0.504471 0.878470 0.311686
Si Si5 0.845440 0.351278 0.891850
O O1 0.500000 0.500000 0.664918
O O2 0.345594 0.405535 0.796527
O O3 0.456332 0.346982 0.624558
O O4 0.151112 0.441868 0.647888
O O5 0.366966 0.633920 0.886256
O O6 0.624589 0.746802 0.883860
O O7 0.641487 0.614304 0.000000
O O8 0.350919 0.740264 0.500000
O O9 0.389892 0.787556 0.684549
O O10 0.188312 0.648247 0.633869
O O11 0.561797 0.895873 0.200292
O O12 0.910755 0.377583 0.000000
#
# Coordination Sequence:
#
# PCOD9425259 Si02
#       5
#     8   8   8   8   8
#     4  12  27  44  65  98 139 175 217 274 335 395
#     4  10  19  35  60  94 134 173 215 265 325 389
#     4  12  25  44  71 100 127 166 225 279 328 392
#     4  12  22  42  72 100 131 171 221 272 327 389
#     4  10  18  33  64 101 130 164 219 276 318 376
#
# _framework density 25.679893
#
# number of rings (size 3 to 8) (size 9 to 14) (size 15 to 20)
#    0.000    0.800    6.000    1.800    0.000    4.800 
#    0.000    1.000    0.000    2.400    0.000    0.000 
#    0.000    0.000    0.000    0.000    0.000    0.000 
#
# Total GULP energy -224013.942841 kJ/mol
# GULP energy per Si atom -5600.348571 kJ/mol
# Density = 2.562144 g / cm^3
# Si number density = 25.679893 Si / 1000 Ang^3
#
#
#
# Elastic Constant Matrix: (Units=GPa)
#
#
# Indices 1 2 3 4 5 6 
#
# 1 205.4589 2.5894 28.7941 0.0000 0.0000 0.0000
# 2 2.5894 28.7895 7.8139 0.0000 0.0000 0.0000
# 3 28.7941 7.8139 100.3282 0.0000 0.0000 0.0000
# 4 0.0000 0.0000 0.0000 -10.2360 0.0000 0.0000
# 5 0.0000 0.0000 0.0000 0.0000 12.2171 0.0000
# 6 0.0000 0.0000 0.0000 0.0000 0.0000 35.4926
#
#
#
# Elastic Compliance Matrix: (Units=1/GPa)
#
#
# Indices 1 2 3 4 5 6 
#
# 1 0.005071 -0.000062 -0.001451 0.000000 0.000000 0.000000
# 2 -0.000062 0.035486 -0.002746 0.000000 0.000000 0.000000
# 3 -0.001451 -0.002746 0.010597 0.000000 0.000000 0.000000
# 4 0.000000 0.000000 0.000000 -0.097694 0.000000 0.000000
# 5 0.000000 0.000000 0.000000 0.000000 0.081852 0.000000
# 6 0.000000 0.000000 0.000000 0.000000 0.000000 0.028175
#
#
# Mechanical properties :
#
#
# Convention : Reuss Voigt Hill
#
# Bulk Modulus (GPa) = 23.45392 45.88573 34.66983
# Shear Modulus (GPa) = 57.99291 27.18669 42.58980
#
# Velocity S-wave (km/s) = 4.75731 3.25726 4.07687
# Velocity P-wave (km/s) = 6.27129 5.66158 5.97422
#
# Compressibility (1/GPa) = 0.04263679
#
# Stress axis : x y z
#
# Youngs Moduli (GPa) = 197.19072 28.18029 94.36226
#
# Poissons Ratio (x) = 0.00176 0.13688
# Poissons Ratio (y) = 0.01231 0.25910
# Poissons Ratio (z) = 0.28604 0.07738
#
# Static dielectric constant tensor:
#      x y z
#    x 2.005350 0.000000 0.000000 
#    y 0.000000 2.176410 0.000000 
#    z 0.000000 0.000000 1.957490 
# 
# From -- ./inp_files/17092.got.cif
#   From: 2010.05.17/outbox.cif.g08.bks.cpg/sg55_9_cif.got.tgz:17092.got - 2010.06.03 13:27:54.
