data_PCOD9425613
_publ_section_title
;
Structure prediction by ZEFSAII (Michael W. Deem and Ramdas Pophale) SiO2 
 PCOD9425613
Probable space group: P B A M
;
_chemical_formula_sum "Si O2"
_cell_formula_units_Z 40
_cell_length_a 13.571952
_cell_length_b 13.399835
_cell_length_c 13.405873
_cell_angle_alpha 90.000000
_cell_angle_beta 90.000000
_cell_angle_gamma 90.000000
_cell_volume 2438.017769
_symmetry_space_group_name_H-M "P B A M"
_symmetry_group_IT_number 55
_symmetry_cell_setting 'orthorhombic'
loop_
_space_group_symop_operation_xyz
x,y,z
-x,-y,z
1/2+x,1/2-y,-z
1/2-x,1/2+y,-z
-x,-y,-z
x,y,-z
1/2-x,1/2+y,z
1/2+x,1/2-y,z
loop_
_atom_site_type_symbol
_atom_site_label
_atom_site_fract_x
_atom_site_fract_y
_atom_site_fract_z
Si Si1 0.699843 0.919971 0.883739
Si Si2 0.570131 0.729467 0.118744
Si Si3 0.864384 0.802293 0.228848
Si Si4 0.736761 0.608805 0.766980
Si Si5 0.883682 0.977127 0.616113
O O1 0.612344 0.841262 0.864449
O O2 0.798024 0.859334 0.853372
O O3 0.702694 0.020063 0.819504
O O4 0.699815 0.945033 0.000000
O O5 0.471159 0.714231 0.181263
O O6 0.653062 0.652521 0.158421
O O7 0.555003 0.716318 0.000000
O O8 0.809515 0.699856 0.255399
O O9 0.867364 0.874798 0.323837
O O10 0.679618 0.561454 0.673095
O O11 0.857042 0.970371 0.500000
O O12 0.000000 0.000000 0.623512
#
# Coordination Sequence:
#
# PCOD9425613 Si02
#       5
#     8   8   8   8   8
#     4   9  19  32  49  77 108 142 180 214 250 306
#     4  10  19  32  51  77 110 146 178 211 257 306
#     4  10  20  34  53  78 107 138 172 215 263 310
#     4  10  20  35  53  78 107 139 176 217 258 309
#     4  10  20  37  59  79  99 130 175 220 266 314
#
# _framework density 16.406772
#
# number of rings (size 3 to 8) (size 9 to 14) (size 15 to 20)
#    0.000    2.200    2.000    1.200    0.000    4.000 
#    0.000    5.000    0.000    0.000    0.000    5.600 
#    0.000    0.000    0.000    0.000    0.000    0.000 
#
# Total GULP energy -223078.149184 kJ/mol
# GULP energy per Si atom -5576.953730 kJ/mol
# Density = 1.636943 g / cm^3
# Si number density = 16.406772 Si / 1000 Ang^3
#
#
#
# Elastic Constant Matrix: (Units=GPa)
#
#
# Indices 1 2 3 4 5 6 
#
# 1 44.8348 35.1746 30.8476 0.0000 0.0000 0.0000
# 2 35.1746 105.3371 49.6274 0.0000 0.0000 0.0000
# 3 30.8476 49.6274 98.8544 0.0000 0.0000 0.0000
# 4 0.0000 0.0000 0.0000 13.8437 0.0000 0.0000
# 5 0.0000 0.0000 0.0000 0.0000 19.1285 0.0000
# 6 0.0000 0.0000 0.0000 0.0000 0.0000 15.1267
#
#
#
# Elastic Compliance Matrix: (Units=1/GPa)
#
#
# Indices 1 2 3 4 5 6 
#
# 1 0.032907 -0.008056 -0.006224 0.000000 0.000000 0.000000
# 2 -0.008056 0.014406 -0.004719 0.000000 0.000000 0.000000
# 3 -0.006224 -0.004719 0.014427 0.000000 0.000000 0.000000
# 4 0.000000 0.000000 0.000000 0.072235 0.000000 0.000000
# 5 0.000000 0.000000 0.000000 0.000000 0.052278 0.000000
# 6 0.000000 0.000000 0.000000 0.000000 0.000000 0.066108
#
#
# Mechanical properties :
#
#
# Convention : Reuss Voigt Hill
#
# Bulk Modulus (GPa) = 42.11820 53.36950 47.74385
# Shear Modulus (GPa) = 16.76314 18.51155 17.63734
#
# Velocity S-wave (km/s) = 3.19990 3.36264 3.28228
# Velocity P-wave (km/s) = 6.27531 6.90478 6.59756
#
# Compressibility (1/GPa) = 0.02374270
#
# Stress axis : x y z
#
# Youngs Moduli (GPa) = 30.38883 69.41334 69.31437
#
# Poissons Ratio (x) = 0.55919 0.43144
# Poissons Ratio (y) = 0.24481 0.32706
# Poissons Ratio (z) = 0.18915 0.32753
#
# Static dielectric constant tensor:
#      x y z
#    x 1.539200 0.000000 0.000000 
#    y 0.000000 1.549960 0.000000 
#    z 0.000000 0.000000 1.520600 
# 
# From -- ./inp_files/12987.got.cif
#   From: 2010.05.17/outbox.cif.g08.bks.cpg/sg55_7_cif.got.tgz:12987.got - 2010.06.03 13:27:54.
