data_PCOD9425582
_publ_section_title
;
Structure prediction by ZEFSAII (Michael W. Deem and Ramdas Pophale) SiO2 
 PCOD9425582
Probable space group: P B A M
;
_chemical_formula_sum "Si O2"
_cell_formula_units_Z 56
_cell_length_a 19.782188
_cell_length_b 18.639443
_cell_length_c 7.947267
_cell_angle_alpha 90.000000
_cell_angle_beta 90.000000
_cell_angle_gamma 90.000000
_cell_volume 2930.387541
_symmetry_space_group_name_H-M "P B A M"
_symmetry_group_IT_number 55
_symmetry_cell_setting 'orthorhombic'
loop_
_space_group_symop_operation_xyz
x,y,z
-x,-y,z
1/2+x,1/2-y,-z
1/2-x,1/2+y,-z
-x,-y,-z
x,y,-z
1/2-x,1/2+y,z
1/2+x,1/2-y,z
loop_
_atom_site_type_symbol
_atom_site_label
_atom_site_fract_x
_atom_site_fract_y
_atom_site_fract_z
Si Si1 0.395352 0.616037 0.204924
Si Si2 0.572905 0.971685 0.293602
Si Si3 0.250215 0.141539 0.198775
Si Si4 0.387011 0.187937 0.700320
Si Si5 0.459322 0.331932 0.203389
Si Si6 0.859595 0.044567 0.199698
Si Si7 0.286313 0.983326 0.693069
O O1 0.326697 0.659003 0.247809
O O2 0.465616 0.648566 0.265396
O O3 0.383332 0.533855 0.263398
O O4 0.399001 0.614325 0.000000
O O5 0.574425 0.972564 0.500000
O O6 0.585252 0.889395 0.239203
O O7 0.637387 0.019290 0.236245
O O8 0.500000 0.000000 0.240043
O O9 0.310508 0.196455 0.231884
O O10 0.270094 0.068563 0.294756
O O11 0.249764 0.123906 0.000000
O O12 0.382830 0.184478 0.500000
O O13 0.434234 0.253344 0.749769
O O14 0.405596 0.391203 0.266830
O O15 0.460311 0.335779 0.000000
O O16 0.779351 0.053121 0.227131
O O17 0.870398 0.042119 0.000000
O O18 0.288288 0.960510 0.500000
#
# Coordination Sequence:
#
# PCOD9425582 Si02
#       7
#     8   8   8   8   8   8   8
#     4   8  15  29  51  75  94 120 164 208 240 280
#     4   8  15  30  51  70  89 119 159 200 242 288
#     4   9  16  30  52  71  90 121 160 199 240 289
#     4  10  20  33  49  71  98 127 162 202 247 300
#     4  10  19  32  50  71  99 132 163 199 245 294
#     4   9  17  30  49  71  96 129 166 200 236 286
#     4   9  16  27  47  73  97 120 151 196 243 287
#
# _framework density 19.110099999999999
#
# number of rings (size 3 to 8) (size 9 to 14) (size 15 to 20)
#    0.000    3.000    0.000    3.429    0.000    2.286 
#    0.000    5.000    0.000   23.143    0.000    0.000 
#    0.000    0.000    0.000    0.000    0.000    0.000 
#
# Total GULP energy -311867.910167 kJ/mol
# GULP energy per Si atom -5569.069824 kJ/mol
# Density = 1.906660 g / cm^3
# Si number density = 19.110100 Si / 1000 Ang^3
#
#
#
# Elastic Constant Matrix: (Units=GPa)
#
#
# Indices 1 2 3 4 5 6 
#
# 1 206.1779 71.9127 8.3688 0.0000 0.0000 0.0000
# 2 71.9127 61.5749 5.5593 0.0000 0.0000 0.0000
# 3 8.3688 5.5593 20.0861 0.0000 0.0000 0.0000
# 4 0.0000 0.0000 0.0000 6.4412 0.0000 0.0000
# 5 0.0000 0.0000 0.0000 0.0000 31.2978 0.0000
# 6 0.0000 0.0000 0.0000 0.0000 0.0000 19.4459
#
#
#
# Elastic Compliance Matrix: (Units=1/GPa)
#
#
# Indices 1 2 3 4 5 6 
#
# 1 0.008196 -0.009501 -0.000785 0.000000 0.000000 0.000000
# 2 -0.009501 0.027671 -0.003700 0.000000 0.000000 0.000000
# 3 -0.000785 -0.003700 0.051137 0.000000 0.000000 0.000000
# 4 0.000000 0.000000 0.000000 0.155252 0.000000 0.000000
# 5 0.000000 0.000000 0.000000 0.000000 0.031951 0.000000
# 6 0.000000 0.000000 0.000000 0.000000 0.000000 0.051425
#
#
# Mechanical properties :
#
#
# Convention : Reuss Voigt Hill
#
# Bulk Modulus (GPa) = 16.94022 51.05783 33.99902
# Shear Modulus (GPa) = 13.39477 24.90351 19.14914
#
# Velocity S-wave (km/s) = 2.65037 3.61385 3.16894
# Velocity P-wave (km/s) = 4.27197 6.64747 5.58743
#
# Compressibility (1/GPa) = 0.05903113
#
# Stress axis : x y z
#
# Youngs Moduli (GPa) = 122.01210 36.13945 19.55536
#
# Poissons Ratio (x) = 0.34336 0.01535
# Poissons Ratio (y) = 1.15924 0.07235
# Poissons Ratio (z) = 0.09580 0.13371
#
# Static dielectric constant tensor:
#      x y z
#    x 1.708980 0.000000 0.000000 
#    y 0.000000 1.639880 0.000000 
#    z 0.000000 0.000000 1.697440 
# 
# From -- ./inp_files/7887.got.cif
#   From: 2010.05.17/outbox.cif.g08.bks.cpg/sg55_4_cif.got.tgz:7887.got - 2010.06.03 13:27:54.
