data_PCOD9425118
_publ_section_title
;
Structure prediction by ZEFSAII (Michael W. Deem and Ramdas Pophale) SiO2 
 PCOD9425118
Probable space group: P B A M
;
_chemical_formula_sum "Si O2"
_cell_formula_units_Z 64
_cell_length_a 12.990231
_cell_length_b 29.435418
_cell_length_c 7.484275
_cell_angle_alpha 90.000000
_cell_angle_beta 90.000000
_cell_angle_gamma 90.000000
_cell_volume 2861.783782
_symmetry_space_group_name_H-M "P B A M"
_symmetry_group_IT_number 55
_symmetry_cell_setting 'orthorhombic'
loop_
_space_group_symop_operation_xyz
x,y,z
-x,-y,z
1/2+x,1/2-y,-z
1/2-x,1/2+y,-z
-x,-y,-z
x,y,-z
1/2-x,1/2+y,z
1/2+x,1/2-y,z
loop_
_atom_site_type_symbol
_atom_site_label
_atom_site_fract_x
_atom_site_fract_y
_atom_site_fract_z
Si Si1 0.652604 0.377268 0.784160
Si Si2 0.431749 0.797477 0.711996
Si Si3 0.388898 0.519510 0.781425
Si Si4 0.254694 0.938594 0.787272
Si Si5 0.492794 0.298090 0.711518
Si Si6 0.484015 0.948404 0.218219
Si Si7 0.882181 0.365314 0.784688
Si Si8 0.216873 0.838107 0.714837
O O1 0.630894 0.428866 0.722996
O O2 0.564834 0.341822 0.733094
O O3 0.765155 0.360493 0.721429
O O4 0.654604 0.378747 0.000000
O O5 0.414336 0.793445 0.500000
O O6 0.453776 0.747214 0.785481
O O7 0.534128 0.827434 0.736590
O O8 0.328341 0.821565 0.783981
O O9 0.500000 0.500000 0.728953
O O10 0.303780 0.483110 0.719789
O O11 0.386736 0.520030 0.000000
O O12 0.371073 0.933457 0.719712
O O13 0.198545 0.891083 0.755682
O O14 0.262486 0.944771 0.000000
O O15 0.479843 0.290130 0.500000
O O16 0.379046 0.308799 0.783681
O O17 0.570724 0.913367 0.277325
O O18 0.500000 0.000000 0.273902
O O19 0.486051 0.947707 0.000000
O O20 0.878512 0.366227 0.000000
O O21 0.218100 0.834723 0.500000
#
# Coordination Sequence:
#
# PCOD9425118 Si02
#       8
#     8   8   8   8   8   8   8   8
#     4  10  21  37  57  86 120 149 182 232 282 325
#     4  10  22  39  60  81 106 145 188 233 283 336
#     4   9  17  30  51  80 113 148 188 226 267 324
#     4  10  18  31  55  82 108 147 188 222 270 335
#     4  10  23  40  60  82 107 146 192 232 279 341
#     4   9  16  28  49  78 109 142 180 220 265 321
#     4  10  20  35  55  83 116 144 179 229 279 329
#     4  10  21  38  57  82 112 140 182 239 285 325
#
# _framework density 22.363675000000001
#
# number of rings (size 3 to 8) (size 9 to 14) (size 15 to 20)
#    0.000    2.250    1.250    1.500    1.750    5.500 
#    0.000    0.625    0.000    5.250    0.000    0.000 
#    0.000    0.000    0.000    0.000    0.000    0.000 
#
# Total GULP energy -357588.353150 kJ/mol
# GULP energy per Si atom -5587.318018 kJ/mol
# Density = 2.231277 g / cm^3
# Si number density = 22.363675 Si / 1000 Ang^3
#
#
#
# Elastic Constant Matrix: (Units=GPa)
#
#
# Indices 1 2 3 4 5 6 
#
# 1 119.3136 44.6005 -11.6727 0.0000 0.0000 0.0000
# 2 44.6005 142.5917 -12.7337 0.0000 0.0000 0.0000
# 3 -11.6727 -12.7337 55.3515 0.0000 0.0000 0.0000
# 4 0.0000 0.0000 0.0000 9.1340 0.0000 0.0000
# 5 0.0000 0.0000 0.0000 0.0000 14.8018 0.0000
# 6 0.0000 0.0000 0.0000 0.0000 0.0000 30.3624
#
#
#
# Elastic Compliance Matrix: (Units=1/GPa)
#
#
# Indices 1 2 3 4 5 6 
#
# 1 0.009590 -0.002878 0.001360 0.000000 0.000000 0.000000
# 2 -0.002878 0.008024 0.001239 0.000000 0.000000 0.000000
# 3 0.001360 0.001239 0.018638 0.000000 0.000000 0.000000
# 4 0.000000 0.000000 0.000000 0.109481 0.000000 0.000000
# 5 0.000000 0.000000 0.000000 0.000000 0.067560 0.000000
# 6 0.000000 0.000000 0.000000 0.000000 0.000000 0.032935
#
#
# Mechanical properties :
#
#
# Convention : Reuss Voigt Hill
#
# Bulk Modulus (GPa) = 28.01553 39.73833 33.87693
# Shear Modulus (GPa) = 19.32854 30.66382 24.99618
#
# Velocity S-wave (km/s) = 2.94306 3.70691 3.34685
# Velocity P-wave (km/s) = 4.90950 6.01077 5.48783
#
# Compressibility (1/GPa) = 0.03569449
#
# Stress axis : x y z
#
# Youngs Moduli (GPa) = 104.27258 124.62718 53.65311
#
# Poissons Ratio (x) = 0.35870 -0.07298
# Poissons Ratio (y) = 0.30012 -0.06647
# Poissons Ratio (z) = -0.14184 -0.15441
#
# Static dielectric constant tensor:
#      x y z
#    x 1.822260 0.000000 0.000000 
#    y 0.000000 1.792010 0.000000 
#    z 0.000000 0.000000 1.869460 
# 
# From -- ./inp_files/4495.got.cif
#   From: 2010.05.17/outbox.cif.g08.bks.cpg/sg55_3_cif.got.tgz:4495.got - 2010.06.03 13:27:54.
