data_PCOD9425240
_publ_section_title
;
Structure prediction by ZEFSAII (Michael W. Deem and Ramdas Pophale) SiO2 
 PCOD9425240
Probable space group: P B A M
;
_chemical_formula_sum "Si O2"
_cell_formula_units_Z 64
_cell_length_a 20.155467
_cell_length_b 21.176883
_cell_length_c 7.638447
_cell_angle_alpha 90.000000
_cell_angle_beta 90.000000
_cell_angle_gamma 90.000000
_cell_volume 3260.318077
_symmetry_space_group_name_H-M "P B A M"
_symmetry_group_IT_number 55
_symmetry_cell_setting 'orthorhombic'
loop_
_space_group_symop_operation_xyz
x,y,z
-x,-y,z
1/2+x,1/2-y,-z
1/2-x,1/2+y,-z
-x,-y,-z
x,y,-z
1/2-x,1/2+y,z
1/2+x,1/2-y,z
loop_
_atom_site_type_symbol
_atom_site_label
_atom_site_fract_x
_atom_site_fract_y
_atom_site_fract_z
Si Si1 0.732238 0.707143 0.296792
Si Si2 0.210927 0.423840 0.296490
Si Si3 0.911904 0.243548 0.789450
Si Si4 0.566526 0.114610 0.787881
Si Si5 0.280913 0.062079 0.205361
Si Si6 0.688150 0.329526 0.202773
Si Si7 0.559020 0.261820 0.785877
Si Si8 0.579532 0.892526 0.212368
O O1 0.752536 0.711080 0.500000
O O2 0.760220 0.641586 0.221698
O O3 0.652972 0.710584 0.284551
O O4 0.763576 0.768721 0.207832
O O5 0.228516 0.425015 0.500000
O O6 0.131515 0.420559 0.276354
O O7 0.236905 0.488982 0.218467
O O8 0.910205 0.318322 0.748443
O O9 0.984484 0.220151 0.731916
O O10 0.908534 0.238420 0.000000
O O11 0.571249 0.188629 0.736040
O O12 0.494553 0.089855 0.727462
O O13 0.567667 0.111975 0.000000
O O14 0.227744 0.111274 0.281604
O O15 0.355181 0.072300 0.278982
O O16 0.286183 0.078921 0.000000
O O17 0.618200 0.306061 0.279126
O O18 0.673997 0.345215 0.000000
O O19 0.559963 0.261714 0.000000
O O20 0.577120 0.899140 0.000000
#
# Coordination Sequence:
#
# PCOD9425240 Si02
#       8
#     8   8   8   8   8   8   8   8
#     4  11  22  34  50  75 105 138 174 212 253 298
#     4  11  24  37  47  68 106 142 176 214 249 294
#     4   9  16  31  54  79 105 130 164 210 259 306
#     4   9  16  30  53  75 100 135 171 204 249 304
#     4  10  20  34  53  75 101 134 172 210 253 304
#     4  10  18  33  58  82 102 128 168 216 260 306
#     4   8  15  28  53  84 105 125 160 211 263 307
#     4   8  15  29  50  78 104 128 165 209 250 301
#
# _framework density 19.629987
#
# number of rings (size 3 to 8) (size 9 to 14) (size 15 to 20)
#    0.000    2.500    2.500    2.250    0.000    2.500 
#    0.000    6.250    0.000    0.750    0.000    5.250 
#    0.000    0.000    0.000    0.000    0.000    0.000 
#
# Total GULP energy -357016.206081 kJ/mol
# GULP energy per Si atom -5578.378220 kJ/mol
# Density = 1.958531 g / cm^3
# Si number density = 19.629987 Si / 1000 Ang^3
#
#
#
# Elastic Constant Matrix: (Units=GPa)
#
#
# Indices 1 2 3 4 5 6 
#
# 1 86.6479 18.5963 -2.9900 0.0000 0.0000 0.0000
# 2 18.5963 55.1436 -1.0867 0.0000 0.0000 0.0000
# 3 -2.9900 -1.0867 32.2242 0.0000 0.0000 0.0000
# 4 0.0000 0.0000 0.0000 51.2335 0.0000 0.0000
# 5 0.0000 0.0000 0.0000 0.0000 52.8613 0.0000
# 6 0.0000 0.0000 0.0000 0.0000 0.0000 19.9411
#
#
#
# Elastic Compliance Matrix: (Units=1/GPa)
#
#
# Indices 1 2 3 4 5 6 
#
# 1 0.012475 -0.004187 0.001016 0.000000 0.000000 0.000000
# 2 -0.004187 0.019552 0.000271 0.000000 0.000000 0.000000
# 3 0.001016 0.000271 0.031136 0.000000 0.000000 0.000000
# 4 0.000000 0.000000 0.000000 0.019518 0.000000 0.000000
# 5 0.000000 0.000000 0.000000 0.000000 0.018917 0.000000
# 6 0.000000 0.000000 0.000000 0.000000 0.000000 0.050148
#
#
# Mechanical properties :
#
#
# Convention : Reuss Voigt Hill
#
# Bulk Modulus (GPa) = 17.43288 22.56169 19.99728
# Shear Modulus (GPa) = 28.30193 35.44025 31.87109
#
# Velocity S-wave (km/s) = 3.80118 4.25363 4.03375
# Velocity P-wave (km/s) = 5.30710 5.97017 5.64837
#
# Compressibility (1/GPa) = 0.05736288
#
# Stress axis : x y z
#
# Youngs Moduli (GPa) = 80.16288 51.14632 32.11720
#
# Poissons Ratio (x) = 0.21414 -0.03264
# Poissons Ratio (y) = 0.33563 -0.00870
# Poissons Ratio (z) = -0.08147 -0.01385
#
# Static dielectric constant tensor:
#      x y z
#    x 1.713400 0.000000 0.000000 
#    y 0.000000 1.677850 0.000000 
#    z 0.000000 0.000000 1.726910 
# 
# From -- ./inp_files/9118.got.cif
#   From: 2010.05.17/outbox.cif.g08.bks.cpg/sg55_5_cif.got.tgz:9118.got - 2010.06.03 13:27:54.
