data_PCOD9425732
_publ_section_title
;
Structure prediction by ZEFSAII (Michael W. Deem and Ramdas Pophale) SiO2 
 PCOD9425732
Probable space group: P B A M
;
_chemical_formula_sum "Si O2"
_cell_formula_units_Z 56
_cell_length_a 19.965622
_cell_length_b 19.662542
_cell_length_c 8.471634
_cell_angle_alpha 90.000000
_cell_angle_beta 90.000000
_cell_angle_gamma 90.000000
_cell_volume 3325.750711
_symmetry_space_group_name_H-M "P B A M"
_symmetry_group_IT_number 55
_symmetry_cell_setting 'orthorhombic'
loop_
_space_group_symop_operation_xyz
x,y,z
-x,-y,z
1/2+x,1/2-y,-z
1/2-x,1/2+y,-z
-x,-y,-z
x,y,-z
1/2-x,1/2+y,z
1/2+x,1/2-y,z
loop_
_atom_site_type_symbol
_atom_site_label
_atom_site_fract_x
_atom_site_fract_y
_atom_site_fract_z
Si Si1 0.875228 0.251391 0.190958
Si Si2 0.948188 0.941200 0.689377
Si Si3 0.771911 0.133710 0.808126
Si Si4 0.663926 0.238685 0.191010
Si Si5 0.732527 0.851375 0.687552
Si Si6 0.978163 0.790409 0.190955
Si Si7 0.198847 0.018761 0.189491
O O1 0.831826 0.184858 0.238173
O O2 0.836272 0.316502 0.256861
O O3 0.951499 0.241504 0.243286
O O4 0.873352 0.254993 0.000000
O O5 0.947523 0.938869 0.500000
O O6 0.970531 0.867913 0.752998
O O7 0.873993 0.959071 0.748693
O O8 0.000000 0.000000 0.740468
O O9 0.703107 0.170648 0.758088
O O10 0.783528 0.057178 0.753096
O O11 0.771760 0.131842 0.000000
O O12 0.708638 0.301777 0.249238
O O13 0.587776 0.249222 0.243553
O O14 0.664918 0.240218 0.000000
O O15 0.735461 0.853090 0.500000
O O16 0.747578 0.925615 0.755114
O O17 0.978603 0.791003 0.000000
O O18 0.196537 0.018552 0.000000
#
# Coordination Sequence:
#
# PCOD9425732 Si02
#       7
#     8   8   8   8   8   8   8
#     4   9  18  34  53  76 102 131 171 215 254 307
#     4  11  23  34  46  72 112 145 169 206 255 314
#     4   8  16  30  50  73 100 129 167 215 257 298
#     4   9  17  33  54  77 101 130 170 216 259 309
#     4  11  21  33  50  74 102 136 173 213 259 311
#     4  10  19  32  55  79 101 134 173 213 259 310
#     4  11  20  33  53  74  99 137 177 216 257 306
#
# _framework density 16.838304000000001
#
# number of rings (size 3 to 8) (size 9 to 14) (size 15 to 20)
#    0.000    2.143    1.429    3.857    0.000    2.857 
#    0.000    7.143    0.000    0.857    0.000    6.000 
#    0.000    0.000    0.000    0.000    0.000    0.000 
#
# Total GULP energy -312459.781909 kJ/mol
# GULP energy per Si atom -5579.638963 kJ/mol
# Density = 1.679998 g / cm^3
# Si number density = 16.838304 Si / 1000 Ang^3
#
#
#
# Elastic Constant Matrix: (Units=GPa)
#
#
# Indices 1 2 3 4 5 6 
#
# 1 140.8623 43.8698 19.2263 0.0000 0.0000 0.0000
# 2 43.8698 43.4702 5.8191 0.0000 0.0000 0.0000
# 3 19.2263 5.8191 12.3311 0.0000 0.0000 0.0000
# 4 0.0000 0.0000 0.0000 4.1277 0.0000 0.0000
# 5 0.0000 0.0000 0.0000 0.0000 4.5029 0.0000
# 6 0.0000 0.0000 0.0000 0.0000 0.0000 24.0065
#
#
#
# Elastic Compliance Matrix: (Units=1/GPa)
#
#
# Indices 1 2 3 4 5 6 
#
# 1 0.012322 -0.010529 -0.014244 0.000000 0.000000 0.000000
# 2 -0.010529 0.033552 0.000583 0.000000 0.000000 0.000000
# 3 -0.014244 0.000583 0.103030 0.000000 0.000000 0.000000
# 4 0.000000 0.000000 0.000000 0.242264 0.000000 0.000000
# 5 0.000000 0.000000 0.000000 0.000000 0.222080 0.000000
# 6 0.000000 0.000000 0.000000 0.000000 0.000000 0.041655
#
#
# Mechanical properties :
#
#
# Convention : Reuss Voigt Hill
#
# Bulk Modulus (GPa) = 9.94785 37.16598 23.55691
# Shear Modulus (GPa) = 6.78618 15.04399 10.91508
#
# Velocity S-wave (km/s) = 2.00971 2.99229 2.54880
# Velocity P-wave (km/s) = 3.36243 5.83597 4.76259
#
# Compressibility (1/GPa) = 0.10052428
#
# Stress axis : x y z
#
# Youngs Moduli (GPa) = 81.15294 29.80452 9.70594
#
# Poissons Ratio (x) = 0.31381 0.13825
# Poissons Ratio (y) = 0.85445 -0.00566
# Poissons Ratio (z) = 1.15595 -0.01738
#
# Static dielectric constant tensor:
#      x y z
#    x 1.571140 0.000000 0.000000 
#    y 0.000000 1.554750 0.000000 
#    z 0.000000 0.000000 1.569510 
# 
# From -- ./inp_files/7832.got.cif
#   From: 2010.05.17/outbox.cif.g08.bks.cpg/sg55_4_cif.got.tgz:7832.got - 2010.06.03 13:27:54.
