data_PCOD9425919
_publ_section_title
;
Structure prediction by ZEFSAII (Michael W. Deem and Ramdas Pophale) SiO2 
 PCOD9425919
Probable space group: P B A M
;
_chemical_formula_sum "Si O2"
_cell_formula_units_Z 56
_cell_length_a 19.903383
_cell_length_b 17.941937
_cell_length_c 8.831402
_cell_angle_alpha 90.000000
_cell_angle_beta 90.000000
_cell_angle_gamma 90.000000
_cell_volume 3153.739965
_symmetry_space_group_name_H-M "P B A M"
_symmetry_group_IT_number 55
_symmetry_cell_setting 'orthorhombic'
loop_
_space_group_symop_operation_xyz
x,y,z
-x,-y,z
1/2+x,1/2-y,-z
1/2-x,1/2+y,-z
-x,-y,-z
x,y,-z
1/2-x,1/2+y,z
1/2+x,1/2-y,z
loop_
_atom_site_type_symbol
_atom_site_label
_atom_site_fract_x
_atom_site_fract_y
_atom_site_fract_z
Si Si1 0.570640 0.039000 0.682670
Si Si2 0.118380 0.711388 0.181145
Si Si3 0.189232 0.572913 0.317658
Si Si4 0.050691 0.146755 0.681465
Si Si5 0.162205 0.023649 0.317349
Si Si6 0.595252 0.621232 0.818295
Si Si7 0.038274 0.305766 0.181237
O O1 0.571702 0.046067 0.500000
O O2 0.572953 0.120484 0.755397
O O3 0.500000 0.000000 0.724908
O O4 0.632094 0.986189 0.730186
O O5 0.168394 0.653635 0.257103
O O6 0.126166 0.798078 0.223860
O O7 0.041307 0.690265 0.221444
O O8 0.124491 0.705675 0.000000
O O9 0.188386 0.575443 0.500000
O O10 0.263080 0.547164 0.269420
O O11 0.045074 0.150818 0.500000
O O12 0.109033 0.088506 0.720683
O O13 0.064264 0.228898 0.747311
O O14 0.979697 0.119752 0.749439
O O15 0.161754 0.014963 0.500000
O O16 0.138011 0.947149 0.243142
O O17 0.589955 0.618735 0.000000
O O18 0.043278 0.301955 0.000000
#
# Coordination Sequence:
#
# PCOD9425919 Si02
#       7
#     8   8   8   8   8   8   8
#     4  10  19  33  56  83 109 142 187 231 274 327
#     4   9  19  35  54  79 109 140 177 222 273 327
#     4  10  21  37  56  79 110 147 187 228 274 329
#     4  10  20  36  59  83 111 144 185 234 280 328
#     4  10  22  39  56  81 112 147 188 229 278 331
#     4  10  21  37  59  86 113 143 184 230 278 333
#     4  10  20  34  55  84 113 141 181 228 279 332
#
# _framework density 17.756695000000001
#
# number of rings (size 3 to 8) (size 9 to 14) (size 15 to 20)
#    0.000    2.143    1.429    2.571    0.000    7.143 
#    2.571    0.000    0.000    0.000    0.000    0.000 
#    0.000    0.000    0.000    0.000    0.000    0.000 
#
# Total GULP energy -312639.658015 kJ/mol
# GULP energy per Si atom -5582.851036 kJ/mol
# Density = 1.771628 g / cm^3
# Si number density = 17.756695 Si / 1000 Ang^3
#
#
#
# Elastic Constant Matrix: (Units=GPa)
#
#
# Indices 1 2 3 4 5 6 
#
# 1 131.4270 112.2846 42.9209 0.0000 0.0000 0.0000
# 2 112.2846 179.3634 52.6559 0.0000 0.0000 0.0000
# 3 42.9209 52.6559 28.4134 0.0000 0.0000 0.0000
# 4 0.0000 0.0000 0.0000 24.4951 0.0000 0.0000
# 5 0.0000 0.0000 0.0000 0.0000 8.9827 0.0000
# 6 0.0000 0.0000 0.0000 0.0000 0.0000 17.6717
#
#
#
# Elastic Compliance Matrix: (Units=1/GPa)
#
#
# Indices 1 2 3 4 5 6 
#
# 1 0.018698 -0.007486 -0.014372 0.000000 0.000000 0.000000
# 2 -0.007486 0.015225 -0.016907 0.000000 0.000000 0.000000
# 3 -0.014372 -0.016907 0.088236 0.000000 0.000000 0.000000
# 4 0.000000 0.000000 0.000000 0.040825 0.000000 0.000000
# 5 0.000000 0.000000 0.000000 0.000000 0.111325 0.000000
# 6 0.000000 0.000000 0.000000 0.000000 0.000000 0.056588
#
#
# Mechanical properties :
#
#
# Convention : Reuss Voigt Hill
#
# Bulk Modulus (GPa) = 22.40646 83.88074 53.14360
# Shear Modulus (GPa) = 11.81192 18.98605 15.39899
#
# Velocity S-wave (km/s) = 2.58196 3.27346 2.94806
# Velocity P-wave (km/s) = 4.64055 7.85041 6.44839
#
# Compressibility (1/GPa) = 0.04462999
#
# Stress axis : x y z
#
# Youngs Moduli (GPa) = 53.48147 65.68113 11.33331
#
# Poissons Ratio (x) = 0.49171 0.16288
# Poissons Ratio (y) = 0.40038 0.19161
# Poissons Ratio (z) = 0.76861 1.11044
#
# Static dielectric constant tensor:
#      x y z
#    x 1.587990 0.000000 0.000000 
#    y 0.000000 1.589450 0.000000 
#    z 0.000000 0.000000 1.594770 
# 
# From -- ./inp_files/8758.got.cif
#   From: 2010.05.17/outbox.cif.g08.bks.cpg/sg55_5_cif.got.tgz:8758.got - 2010.06.03 13:27:54.
