data_PCOD9425098
_publ_section_title
;
Structure prediction by ZEFSAII (Michael W. Deem and Ramdas Pophale) SiO2 
 PCOD9425098
Probable space group: P B A M
;
_chemical_formula_sum "Si O2"
_cell_formula_units_Z 58
_cell_length_a 16.891434
_cell_length_b 18.649576
_cell_length_c 7.642523
_cell_angle_alpha 90.000000
_cell_angle_beta 90.000000
_cell_angle_gamma 90.000000
_cell_volume 2407.532938
_symmetry_space_group_name_H-M "P B A M"
_symmetry_group_IT_number 55
_symmetry_cell_setting 'orthorhombic'
loop_
_space_group_symop_operation_xyz
x,y,z
-x,-y,z
1/2+x,1/2-y,-z
1/2-x,1/2+y,-z
-x,-y,-z
x,y,-z
1/2-x,1/2+y,z
1/2+x,1/2-y,z
loop_
_atom_site_type_symbol
_atom_site_label
_atom_site_fract_x
_atom_site_fract_y
_atom_site_fract_z
Si Si1 0.316062 0.568945 0.703326
Si Si2 0.855833 0.402472 0.709744
Si Si3 0.500000 0.500000 0.000000
Si Si4 0.365901 0.720170 0.786860
Si Si5 0.498069 0.180797 0.204655
Si Si6 0.263152 0.335189 0.797085
Si Si7 0.592214 0.570931 0.294021
Si Si8 0.379178 0.939644 0.291501
O O1 0.302703 0.551293 0.500000
O O2 0.232542 0.593359 0.781473
O O3 0.366241 0.640032 0.720275
O O4 0.355171 0.497528 0.774617
O O5 0.853859 0.403393 0.500000
O O6 0.890475 0.479095 0.769330
O O7 0.907587 0.333576 0.752261
O O8 0.478577 0.438990 0.843798
O O9 0.445843 0.758094 0.719396
O O10 0.288813 0.767324 0.728035
O O11 0.363588 0.720436 0.000000
O O12 0.545346 0.108406 0.250748
O O13 0.501475 0.191357 0.000000
O O14 0.346362 0.362232 0.717836
O O15 0.198694 0.400139 0.782575
O O16 0.279337 0.321265 0.000000
O O17 0.570062 0.562624 0.500000
O O18 0.367986 0.940782 0.500000
#
# Coordination Sequence:
#
# PCOD9425098 Si02
#       8
#     8   8   2   8   8   8   8   8
#     4  10  22  40  63  92 122 162 214 263 317 383
#     4  10  20  34  53  83 118 151 193 243 300 368
#     4  12  26  44  68  98 124 166 218 274 352 378
#     4   9  21  38  59  86 124 166 212 255 312 385
#     4  10  21  35  50  81 120 156 199 246 296 371
#     4  10  19  36  61  93 125 164 207 253 313 385
#     4  11  23  43  69  99 130 162 215 276 330 393
#     4  10  18  31  53  83 120 157 190 241 301 358
#
# _framework density 24.091051
#
# number of rings (size 3 to 8) (size 9 to 14) (size 15 to 20)
#    0.000    1.931    2.069    2.690    0.966    6.621 
#    0.000    1.379    0.000    1.655    0.000    0.000 
#    0.000    0.000    0.000    0.000    0.000    0.000 
#
# Total GULP energy -323323.960290 kJ/mol
# GULP energy per Si atom -5574.551039 kJ/mol
# Density = 2.403622 g / cm^3
# Si number density = 24.091051 Si / 1000 Ang^3
#
#
#
# Elastic Constant Matrix: (Units=GPa)
#
#
# Indices 1 2 3 4 5 6 
#
# 1 53.4421 -2.7952 2.0035 0.0000 0.0000 0.0000
# 2 -2.7952 49.7485 -8.6312 0.0000 0.0000 0.0000
# 3 2.0035 -8.6312 90.5340 0.0000 0.0000 0.0000
# 4 0.0000 0.0000 0.0000 9.6132 0.0000 0.0000
# 5 0.0000 0.0000 0.0000 0.0000 8.2604 0.0000
# 6 0.0000 0.0000 0.0000 0.0000 0.0000 -0.5030
#
#
#
# Elastic Compliance Matrix: (Units=1/GPa)
#
#
# Indices 1 2 3 4 5 6 
#
# 1 0.018776 0.000999 -0.000320 0.000000 0.000000 0.000000
# 2 0.000999 0.020492 0.001932 0.000000 0.000000 0.000000
# 3 -0.000320 0.001932 0.011237 0.000000 0.000000 0.000000
# 4 0.000000 0.000000 0.000000 0.104023 0.000000 0.000000
# 5 0.000000 0.000000 0.000000 0.000000 0.121060 0.000000
# 6 0.000000 0.000000 0.000000 0.000000 0.000000 -1.987921
#
#
# Mechanical properties :
#
#
# Convention : Reuss Voigt Hill
#
# Bulk Modulus (GPa) = 17.94469 19.43097 18.68783
# Shear Modulus (GPa) = -2.94295 17.01728 7.03717
#
# Velocity S-wave (km/s) = -1.10646 2.66065 1.71097
# Velocity P-wave (km/s) = 2.41507 4.18592 3.41720
#
# Compressibility (1/GPa) = 0.05572679
#
# Stress axis : x y z
#
# Youngs Moduli (GPa) = 53.25911 48.79862 88.99326
#
# Poissons Ratio (x) = -0.04877 0.02850
# Poissons Ratio (y) = -0.05323 -0.17190
# Poissons Ratio (z) = 0.01705 -0.09426
#
# Static dielectric constant tensor:
#      x y z
#    x 2.041520 0.000000 0.000000 
#    y 0.000000 1.927810 0.000000 
#    z 0.000000 0.000000 1.913620 
# 
# From -- ./inp_files/7711.got.cif
#   From: 2010.05.17/outbox.cif.g08.bks.cpg/sg55_4_cif.got.tgz:7711.got - 2010.06.03 13:27:54.
