data_PCOD9425428
_publ_section_title
;
Structure prediction by ZEFSAII (Michael W. Deem and Ramdas Pophale) SiO2 
 PCOD9425428
Probable space group: P B A M
;
_chemical_formula_sum "Si O2"
_cell_formula_units_Z 36
_cell_length_a 14.785445
_cell_length_b 5.077740
_cell_length_c 22.832250
_cell_angle_alpha 90.000000
_cell_angle_beta 90.000000
_cell_angle_gamma 90.000000
_cell_volume 1714.168739
_symmetry_space_group_name_H-M "P B A M"
_symmetry_group_IT_number 55
_symmetry_cell_setting 'orthorhombic'
loop_
_space_group_symop_operation_xyz
x,y,z
-x,-y,z
1/2+x,1/2-y,-z
1/2-x,1/2+y,-z
-x,-y,-z
x,y,-z
1/2-x,1/2+y,z
1/2+x,1/2-y,z
loop_
_atom_site_type_symbol
_atom_site_label
_atom_site_fract_x
_atom_site_fract_y
_atom_site_fract_z
Si Si1 0.189624 0.157755 0.313768
Si Si2 0.186256 0.035628 0.436667
Si Si3 0.305629 0.169423 0.000000
Si Si4 0.890882 0.497718 0.121988
Si Si5 0.391317 0.502255 0.190526
O O1 0.275030 0.956372 0.314085
O O2 0.138373 0.093547 0.374893
O O3 0.137960 0.090543 0.254645
O O4 0.139512 0.070352 0.500000
O O5 0.231112 0.747112 0.435784
O O6 0.357853 0.091503 0.058789
O O7 0.281624 0.477184 0.000000
O O8 0.859492 0.784340 0.142671
O O9 0.000000 0.500000 0.121187
O O10 0.860197 0.285425 0.170522
O O11 0.500000 0.500000 0.189146
#
# Coordination Sequence:
#
# PCOD9425428 Si02
#       5
#     8   8   4   8   8
#     4  10  19  30  49  75 100 129 165 208 252 289
#     4   8  14  25  41  64  94 126 161 199 240 289
#     4  12  25  38  57  84 106 126 160 210 255 284
#     4  10  22  40  57  73 100 138 169 194 239 304
#     4  10  21  36  54  75 101 134 168 202 243 294
#
# _framework density 21.001432000000001
#
# number of rings (size 3 to 8) (size 9 to 14) (size 15 to 20)
#    0.000    2.222    0.000    3.000    0.000    5.333 
#    0.000    4.444    0.000    0.667    0.000    0.000 
#    0.000   23.111    0.000    0.000    0.000    3.556 
#
# Total GULP energy -200913.542596 kJ/mol
# GULP energy per Si atom -5580.931739 kJ/mol
# Density = 2.095363 g / cm^3
# Si number density = 21.001432 Si / 1000 Ang^3
#
#
#
# Elastic Constant Matrix: (Units=GPa)
#
#
# Indices 1 2 3 4 5 6 
#
# 1 20.3040 -1.7099 0.4861 0.0000 0.0000 0.0000
# 2 -1.7099 78.9375 -7.0587 0.0000 0.0000 0.0000
# 3 0.4861 -7.0587 131.8084 0.0000 0.0000 0.0000
# 4 0.0000 0.0000 0.0000 27.2049 0.0000 0.0000
# 5 0.0000 0.0000 0.0000 0.0000 -45.3705 0.0000
# 6 0.0000 0.0000 0.0000 0.0000 0.0000 0.2607
#
#
#
# Elastic Compliance Matrix: (Units=1/GPa)
#
#
# Indices 1 2 3 4 5 6 
#
# 1 0.049344 0.001058 -0.000125 0.000000 0.000000 0.000000
# 2 0.001058 0.012752 0.000679 0.000000 0.000000 0.000000
# 3 -0.000125 0.000679 0.007624 0.000000 0.000000 0.000000
# 4 0.000000 0.000000 0.000000 0.036758 0.000000 0.000000
# 5 0.000000 0.000000 0.000000 0.000000 -0.022041 0.000000
# 6 0.000000 0.000000 0.000000 0.000000 0.000000 3.835724
#
#
# Mechanical properties :
#
#
# Convention : Reuss Voigt Hill
#
# Bulk Modulus (GPa) = 13.70960 23.83165 18.77062
# Shear Modulus (GPa) = 1.26863 12.37450 6.82157
#
# Velocity S-wave (km/s) = 0.77806 2.43002 1.80422
# Velocity P-wave (km/s) = 2.71096 4.38698 3.64657
#
# Compressibility (1/GPa) = 0.07294158
#
# Stress axis : x y z
#
# Youngs Moduli (GPa) = 20.26608 78.41985 131.17167
#
# Poissons Ratio (x) = -0.08294 0.01644
# Poissons Ratio (y) = -0.02143 -0.08907
# Poissons Ratio (z) = 0.00254 -0.05325
#
# Static dielectric constant tensor:
#      x y z
#    x 1.736340 0.000000 0.000000 
#    y 0.000000 1.739050 0.000000 
#    z 0.000000 0.000000 1.796780 
# 
# From -- ./inp_files/20325.got.cif
#   From: 2010.05.17/outbox.cif.g08.bks.cpg/sg55_11_cif.got.tgz:20325.got - 2010.06.03 13:27:54.
