data_PCOD9425847
_publ_section_title
;
Structure prediction by ZEFSAII (Michael W. Deem and Ramdas Pophale) SiO2 
 PCOD9425847
Probable space group: P B A M
;
_chemical_formula_sum "Si O2"
_cell_formula_units_Z 64
_cell_length_a 15.298300
_cell_length_b 21.499034
_cell_length_c 8.442424
_cell_angle_alpha 90.000000
_cell_angle_beta 90.000000
_cell_angle_gamma 90.000000
_cell_volume 2776.702041
_symmetry_space_group_name_H-M "P B A M"
_symmetry_group_IT_number 55
_symmetry_cell_setting 'orthorhombic'
loop_
_space_group_symop_operation_xyz
x,y,z
-x,-y,z
1/2+x,1/2-y,-z
1/2-x,1/2+y,-z
-x,-y,-z
x,y,-z
1/2-x,1/2+y,z
1/2+x,1/2-y,z
loop_
_atom_site_type_symbol
_atom_site_label
_atom_site_fract_x
_atom_site_fract_y
_atom_site_fract_z
Si Si1 0.749349 0.268642 0.806407
Si Si2 0.910945 0.482953 0.322114
Si Si3 0.946754 0.801294 0.311534
Si Si4 0.232511 0.006657 0.190105
Si Si5 0.761087 0.134584 0.819430
Si Si6 0.566528 0.812174 0.188527
Si Si7 0.551354 0.437516 0.191216
Si Si8 0.087663 0.374154 0.327374
O O1 0.654206 0.287753 0.741956
O O2 0.785691 0.200898 0.746770
O O3 0.832163 0.311402 0.764951
O O4 0.742736 0.266654 0.000000
O O5 0.926990 0.457356 0.500000
O O6 0.823166 0.461354 0.240349
O O7 0.886557 0.555255 0.348470
O O8 0.000000 0.500000 0.228802
O O9 0.951684 0.797957 0.500000
O O10 0.010789 0.749122 0.237455
O O11 0.974758 0.870500 0.257339
O O12 0.216910 0.934228 0.244583
O O13 0.151400 0.048803 0.237492
O O14 0.234898 0.001874 0.000000
O O15 0.655639 0.144994 0.807587
O O16 0.792204 0.134541 0.000000
O O17 0.511311 0.866377 0.271846
O O18 0.562064 0.818560 0.000000
O O19 0.500000 0.500000 0.240492
O O20 0.545128 0.434020 0.000000
O O21 0.100240 0.342913 0.500000
#
# Coordination Sequence:
#
# PCOD9425847 Si02
#       8
#     8   8   8   8   8   8   8   8
#     4  10  22  39  64  92 121 161 207 256 311 373
#     4   9  19  35  55  81 116 159 197 236 298 369
#     4  12  26  43  64  93 133 170 208 262 318 379
#     4   9  19  35  58  88 114 147 200 255 304 354
#     4   9  17  33  58  84 112 146 193 251 306 362
#     4  11  23  39  62  90 121 162 210 259 315 378
#     4  10  23  43  68  92 123 169 216 261 309 369
#     4  10  19  33  54  82 117 155 195 241 301 367
#
# _framework density 23.048926999999999
#
# number of rings (size 3 to 8) (size 9 to 14) (size 15 to 20)
#    0.000    2.000    1.250    1.875    1.750    3.500 
#    0.000    2.500    0.000    0.000    0.000    0.000 
#    0.000    0.000    0.000    0.000    0.000    0.000 
#
# Total GULP energy -356424.429156 kJ/mol
# GULP energy per Si atom -5569.131706 kJ/mol
# Density = 2.299647 g / cm^3
# Si number density = 23.048927 Si / 1000 Ang^3
#
#
#
# Elastic Constant Matrix: (Units=GPa)
#
#
# Indices 1 2 3 4 5 6 
#
# 1 75.0269 -16.2769 5.5143 0.0000 0.0000 0.0000
# 2 -16.2769 53.4812 8.9842 0.0000 0.0000 0.0000
# 3 5.5143 8.9842 39.2526 0.0000 0.0000 0.0000
# 4 0.0000 0.0000 0.0000 -16.6612 0.0000 0.0000
# 5 0.0000 0.0000 0.0000 0.0000 165.6853 0.0000
# 6 0.0000 0.0000 0.0000 0.0000 0.0000 23.0234
#
#
#
# Elastic Compliance Matrix: (Units=1/GPa)
#
#
# Indices 1 2 3 4 5 6 
#
# 1 0.014648 0.004996 -0.003201 0.000000 0.000000 0.000000
# 2 0.004996 0.021150 -0.005543 0.000000 0.000000 0.000000
# 3 -0.003201 -0.005543 0.027194 0.000000 0.000000 0.000000
# 4 0.000000 0.000000 0.000000 -0.060020 0.000000 0.000000
# 5 0.000000 0.000000 0.000000 0.000000 0.006036 0.000000
# 6 0.000000 0.000000 0.000000 0.000000 0.000000 0.043434
#
#
# Mechanical properties :
#
#
# Convention : Reuss Voigt Hill
#
# Bulk Modulus (GPa) = 18.01943 18.24487 18.13215
# Shear Modulus (GPa) = 63.74585 45.71208 54.72897
#
# Velocity S-wave (km/s) = 5.26467 4.45822 4.87814
# Velocity P-wave (km/s) = 6.69258 5.86803 6.29382
#
# Compressibility (1/GPa) = 0.05549566
#
# Stress axis : x y z
#
# Youngs Moduli (GPa) = 68.27028 47.28196 36.77233
#
# Poissons Ratio (x) = -0.23621 0.11772
# Poissons Ratio (y) = -0.34106 0.20381
# Poissons Ratio (z) = 0.21855 0.26207
#
# Static dielectric constant tensor:
#      x y z
#    x 1.903730 0.000000 0.000000 
#    y 0.000000 1.995300 0.000000 
#    z 0.000000 0.000000 1.875700 
# 
# From -- ./inp_files/6634.got.cif
#   From: 2010.05.17/outbox.cif.g08.bks.cpg/sg55_4_cif.got.tgz:6634.got - 2010.06.03 13:27:54.
