data_PCOD9425567
_publ_section_title
;
Structure prediction by ZEFSAII (Michael W. Deem and Ramdas Pophale) SiO2 
 PCOD9425567
Probable space group: P B A M
;
_chemical_formula_sum "Si O2"
_cell_formula_units_Z 56
_cell_length_a 13.998337
_cell_length_b 29.662430
_cell_length_c 8.940083
_cell_angle_alpha 90.000000
_cell_angle_beta 90.000000
_cell_angle_gamma 90.000000
_cell_volume 3712.143205
_symmetry_space_group_name_H-M "P B A M"
_symmetry_group_IT_number 55
_symmetry_cell_setting 'orthorhombic'
loop_
_space_group_symop_operation_xyz
x,y,z
-x,-y,z
1/2+x,1/2-y,-z
1/2-x,1/2+y,-z
-x,-y,-z
x,y,-z
1/2-x,1/2+y,z
1/2+x,1/2-y,z
loop_
_atom_site_type_symbol
_atom_site_label
_atom_site_fract_x
_atom_site_fract_y
_atom_site_fract_z
Si Si1 0.401259 0.095440 0.676828
Si Si2 0.388919 0.733055 0.820708
Si Si3 0.796516 0.322277 0.822904
Si Si4 0.384315 0.003844 0.171581
Si Si5 0.888455 0.596430 0.819799
Si Si6 0.212544 0.318542 0.678130
Si Si7 0.392119 0.273792 0.821742
O O1 0.415163 0.096240 0.500000
O O2 0.333081 0.135571 0.730160
O O3 0.361169 0.046818 0.728296
O O4 0.504106 0.101674 0.756740
O O5 0.310830 0.694474 0.789076
O O6 0.355238 0.778005 0.736625
O O7 0.497080 0.720160 0.783525
O O8 0.384332 0.742085 0.000000
O O9 0.862085 0.278219 0.794108
O O10 0.803117 0.332561 0.000000
O O11 0.500000 0.000000 0.171013
O O12 0.352230 0.954014 0.220114
O O13 0.354405 0.012102 0.000000
O O14 0.823563 0.635516 0.752740
O O15 0.892287 0.599006 0.000000
O O16 0.208182 0.321499 0.500000
O O17 0.318243 0.304802 0.733117
O O18 0.379057 0.281491 0.000000
#
# Coordination Sequence:
#
# PCOD9425567 Si02
#       7
#     8   8   8   8   8   8   8
#     4  11  20  28  43  68  96 122 148 184 229 272
#     4   9  18  33  51  67  87 121 159 191 220 256
#     4   9  17  29  46  67  91 121 155 186 218 263
#     4   8  16  30  46  63  85 117 152 184 221 265
#     4  10  19  32  48  64  88 122 156 187 219 263
#     4  11  21  30  45  70  96 120 147 183 228 272
#     4   9  18  33  50  66  87 118 155 190 222 259
#
# _framework density 15.085625
#
# number of rings (size 3 to 8) (size 9 to 14) (size 15 to 20)
#    0.000    2.429    0.000    5.571    0.000    7.143 
#    0.000    0.000    0.000    0.000    0.000    1.000 
#    0.000    8.000    0.000    0.000    0.000    0.000 
#
# Total GULP energy -312267.138144 kJ/mol
# GULP energy per Si atom -5576.198895 kJ/mol
# Density = 1.505129 g / cm^3
# Si number density = 15.085625 Si / 1000 Ang^3
#
#
#
# Elastic Constant Matrix: (Units=GPa)
#
#
# Indices 1 2 3 4 5 6 
#
# 1 90.4199 54.4359 44.9281 0.0000 0.0000 0.0000
# 2 54.4359 119.5118 67.5015 0.0000 0.0000 0.0000
# 3 44.9281 67.5015 77.8363 0.0000 0.0000 0.0000
# 4 0.0000 0.0000 0.0000 1.2837 0.0000 0.0000
# 5 0.0000 0.0000 0.0000 0.0000 11.6748 0.0000
# 6 0.0000 0.0000 0.0000 0.0000 0.0000 18.9766
#
#
#
# Elastic Compliance Matrix: (Units=1/GPa)
#
#
# Indices 1 2 3 4 5 6 
#
# 1 0.016512 -0.004190 -0.005897 0.000000 0.000000 0.000000
# 2 -0.004190 0.017464 -0.012727 0.000000 0.000000 0.000000
# 3 -0.005897 -0.012727 0.027288 0.000000 0.000000 0.000000
# 4 0.000000 0.000000 0.000000 0.778974 0.000000 0.000000
# 5 0.000000 0.000000 0.000000 0.000000 0.085655 0.000000
# 6 0.000000 0.000000 0.000000 0.000000 0.000000 0.052697
#
#
# Mechanical properties :
#
#
# Convention : Reuss Voigt Hill
#
# Bulk Modulus (GPa) = 63.95299 69.05544 66.50422
# Shear Modulus (GPa) = 4.85705 14.44719 9.65212
#
# Velocity S-wave (km/s) = 1.79629 3.09800 2.53222
# Velocity P-wave (km/s) = 6.84014 7.65975 7.26152
#
# Compressibility (1/GPa) = 0.01563648
#
# Stress axis : x y z
#
# Youngs Moduli (GPa) = 60.56023 57.26023 36.64588
#
# Poissons Ratio (x) = 0.23994 0.21611
# Poissons Ratio (y) = 0.25377 0.46638
# Poissons Ratio (z) = 0.35714 0.72873
#
# Static dielectric constant tensor:
#      x y z
#    x 1.486360 0.000000 0.000000 
#    y 0.000000 1.499930 0.000000 
#    z 0.000000 0.000000 1.499900 
# 
# From -- ./inp_files/6854.got.cif
#   From: 2010.05.17/outbox.cif.g08.bks.cpg/sg55_4_cif.got.tgz:6854.got - 2010.06.03 13:27:54.
