data_PCOD9425799
_publ_section_title
;
Structure prediction by ZEFSAII (Michael W. Deem and Ramdas Pophale) SiO2 
 PCOD9425799
Probable space group: P B A M
;
_chemical_formula_sum "Si O2"
_cell_formula_units_Z 56
_cell_length_a 13.520074
_cell_length_b 8.333499
_cell_length_c 22.463531
_cell_angle_alpha 90.000000
_cell_angle_beta 90.000000
_cell_angle_gamma 90.000000
_cell_volume 2530.955326
_symmetry_space_group_name_H-M "P B A M"
_symmetry_group_IT_number 55
_symmetry_cell_setting 'orthorhombic'
loop_
_space_group_symop_operation_xyz
x,y,z
-x,-y,z
1/2+x,1/2-y,-z
1/2-x,1/2+y,-z
-x,-y,-z
x,y,-z
1/2-x,1/2+y,z
1/2+x,1/2-y,z
loop_
_atom_site_type_symbol
_atom_site_label
_atom_site_fract_x
_atom_site_fract_y
_atom_site_fract_z
Si Si1 0.104774 0.814545 0.652836
Si Si2 0.270769 0.296208 0.126775
Si Si3 0.386824 0.551662 0.068185
Si Si4 0.857056 0.610479 0.234315
Si Si5 0.949383 0.677402 0.566504
Si Si6 0.560241 0.762004 0.219653
Si Si7 0.712381 0.030502 0.361431
O O1 0.006313 0.781196 0.615752
O O2 0.086796 0.843092 0.723015
O O3 0.166680 0.647082 0.643587
O O4 0.171235 0.959185 0.629535
O O5 0.314632 0.397757 0.072610
O O6 0.220224 0.394642 0.180709
O O7 0.374022 0.250526 0.160407
O O8 0.182684 0.179122 0.104176
O O9 0.500000 0.500000 0.088431
O O10 0.398621 0.606644 0.000000
O O11 0.908716 0.439600 0.239516
O O12 0.809455 0.626141 0.299109
O O13 0.941710 0.737101 0.216017
O O14 0.955599 0.743767 0.500000
O O15 0.000000 0.500000 0.566572
O O16 0.840266 0.632246 0.587454
#
# Coordination Sequence:
#
# PCOD9425799 Si02
#       7
#     8   8   8   8   8   8   8
#     4  10  19  33  53  79 110 145 183 235 290 341
#     4  12  21  40  64  92 119 160 200 250 304 358
#     4  11  26  46  65  91 127 165 207 248 295 361
#     4  10  19  33  56  85 117 148 190 243 296 354
#     4   9  18  34  55  75 103 151 200 227 269 349
#     4  10  19  33  56  85 117 148 190 243 296 354
#     4  10  19  33  53  79 110 145 183 235 290 341
#
# _framework density 22.126031999999999
#
# number of rings (size 3 to 8) (size 9 to 14) (size 15 to 20)
#    0.000    1.714    4.286    1.286    0.000    0.571 
#    0.000    0.714    0.000    4.286    0.000    0.000 
#    0.000    0.000    0.000    0.000    0.000    0.000 
#
# Total GULP energy -311741.873311 kJ/mol
# GULP energy per Si atom -5566.819166 kJ/mol
# Density = 2.207567 g / cm^3
# Si number density = 22.126032 Si / 1000 Ang^3
#
#
#
# Elastic Constant Matrix: (Units=GPa)
#
#
# Indices 1 2 3 4 5 6 
#
# 1 93.1580 28.5536 11.8804 0.0000 0.0000 0.0000
# 2 28.5536 28.3733 13.2638 0.0000 0.0000 0.0000
# 3 11.8804 13.2638 75.2741 0.0000 0.0000 0.0000
# 4 0.0000 0.0000 0.0000 -5.3110 0.0000 0.0000
# 5 0.0000 0.0000 0.0000 0.0000 20.9818 0.0000
# 6 0.0000 0.0000 0.0000 0.0000 0.0000 33.2993
#
#
#
# Elastic Compliance Matrix: (Units=1/GPa)
#
#
# Indices 1 2 3 4 5 6 
#
# 1 0.015530 -0.015783 0.000330 0.000000 0.000000 0.000000
# 2 -0.015783 0.054448 -0.007103 0.000000 0.000000 0.000000
# 3 0.000330 -0.007103 0.014484 0.000000 0.000000 0.000000
# 4 0.000000 0.000000 0.000000 -0.188289 0.000000 0.000000
# 5 0.000000 0.000000 0.000000 0.000000 0.047660 0.000000
# 6 0.000000 0.000000 0.000000 0.000000 0.000000 0.030031
#
#
# Mechanical properties :
#
#
# Convention : Reuss Voigt Hill
#
# Bulk Modulus (GPa) = 25.41273 33.80010 29.60642
# Shear Modulus (GPa) = 155.79737 19.33454 87.56595
#
# Velocity S-wave (km/s) = 8.40039 2.95928 6.29777
# Velocity P-wave (km/s) = 10.27614 5.19478 8.14201
#
# Compressibility (1/GPa) = 0.03935036
#
# Stress axis : x y z
#
# Youngs Moduli (GPa) = 64.39175 18.36609 69.04022
#
# Poissons Ratio (x) = 0.28987 -0.02278
# Poissons Ratio (y) = 1.01629 0.49040
# Poissons Ratio (z) = -0.02125 0.13046
#
# Static dielectric constant tensor:
#      x y z
#    x 1.856220 0.000000 0.000000 
#    y 0.000000 1.851610 0.000000 
#    z 0.000000 0.000000 1.821470 
# 
# From -- ./inp_files/22833.got.cif
#   From: 2010.05.17/outbox.cif.g08.bks.cpg/sg55_12_cif.got.tgz:22833.got - 2010.06.03 13:27:54.
