data_PCOD9425458
_publ_section_title
;
Structure prediction by ZEFSAII (Michael W. Deem and Ramdas Pophale) SiO2 
 PCOD9425458
Probable space group: P B A M
;
_chemical_formula_sum "Si O2"
_cell_formula_units_Z 64
_cell_length_a 19.259992
_cell_length_b 22.676435
_cell_length_c 7.449405
_cell_angle_alpha 90.000000
_cell_angle_beta 90.000000
_cell_angle_gamma 90.000000
_cell_volume 3253.512412
_symmetry_space_group_name_H-M "P B A M"
_symmetry_group_IT_number 55
_symmetry_cell_setting 'orthorhombic'
loop_
_space_group_symop_operation_xyz
x,y,z
-x,-y,z
1/2+x,1/2-y,-z
1/2-x,1/2+y,-z
-x,-y,-z
x,y,-z
1/2-x,1/2+y,z
1/2+x,1/2-y,z
loop_
_atom_site_type_symbol
_atom_site_label
_atom_site_fract_x
_atom_site_fract_y
_atom_site_fract_z
Si Si1 0.385188 0.226867 0.216697
Si Si2 0.323720 0.590442 0.286156
Si Si3 0.423526 0.481474 0.216281
Si Si4 0.978659 0.434295 0.279621
Si Si5 0.960704 0.683430 0.704791
Si Si6 0.426753 0.691271 0.281747
Si Si7 0.327474 0.106295 0.289755
Si Si8 0.583417 0.648550 0.789263
O O1 0.459000 0.205157 0.293736
O O2 0.330863 0.177220 0.271294
O O3 0.376017 0.293982 0.280365
O O4 0.391016 0.226617 0.000000
O O5 0.317336 0.599554 0.500000
O O6 0.368668 0.531998 0.258201
O O7 0.367303 0.646759 0.218300
O O8 0.245758 0.585365 0.213025
O O9 0.500000 0.500000 0.281909
O O10 0.404730 0.416427 0.286368
O O11 0.428245 0.477451 0.000000
O O12 0.979028 0.431473 0.500000
O O13 0.031203 0.382344 0.217614
O O14 0.900428 0.418666 0.217022
O O15 0.000000 0.500000 0.227776
O O16 0.936063 0.676962 0.500000
O O17 0.922108 0.740784 0.783324
O O18 0.426494 0.693020 0.500000
O O19 0.501615 0.664400 0.228642
O O20 0.328789 0.090821 0.500000
O O21 0.599842 0.645482 0.000000
#
# Coordination Sequence:
#
# PCOD9425458 Si02
#       8
#     8   8   8   8   8   8   8   8
#     4   9  16  27  46  68  87 110 147 188 225 269
#     4  10  20  31  45  65  94 127 156 193 237 279
#     4  10  19  31  47  68  95 127 163 195 230 277
#     4   8  13  24  46  69  84 108 147 188 226 271
#     4   8  14  25  42  65  88 108 136 178 227 270
#     4   9  16  26  42  64  88 116 148 183 225 270
#     4   9  18  32  47  65  94 122 151 193 241 284
#     4   9  17  29  45  67  92 116 149 195 231 262
#
# _framework density 19.671047999999999
#
# number of rings (size 3 to 8) (size 9 to 14) (size 15 to 20)
#    0.000    3.000    1.250    1.125    0.000    1.750 
#    0.000    0.000    2.750    6.000    0.000    0.000 
#    0.000    0.000    0.000    0.000    0.000    0.000 
#
# Total GULP energy -356435.251594 kJ/mol
# GULP energy per Si atom -5569.300806 kJ/mol
# Density = 1.962628 g / cm^3
# Si number density = 19.671048 Si / 1000 Ang^3
#
#
#
# Elastic Constant Matrix: (Units=GPa)
#
#
# Indices 1 2 3 4 5 6 
#
# 1 75.7885 62.5474 -4.7289 0.0000 0.0000 0.0000
# 2 62.5474 191.4308 -5.5328 0.0000 0.0000 0.0000
# 3 -4.7289 -5.5328 58.0500 0.0000 0.0000 0.0000
# 4 0.0000 0.0000 0.0000 10.9651 0.0000 0.0000
# 5 0.0000 0.0000 0.0000 0.0000 12.2154 0.0000
# 6 0.0000 0.0000 0.0000 0.0000 0.0000 22.8082
#
#
#
# Elastic Compliance Matrix: (Units=1/GPa)
#
#
# Indices 1 2 3 4 5 6 
#
# 1 0.018114 -0.005892 0.000914 0.000000 0.000000 0.000000
# 2 -0.005892 0.007155 0.000202 0.000000 0.000000 0.000000
# 3 0.000914 0.000202 0.017320 0.000000 0.000000 0.000000
# 4 0.000000 0.000000 0.000000 0.091198 0.000000 0.000000
# 5 0.000000 0.000000 0.000000 0.000000 0.081864 0.000000
# 6 0.000000 0.000000 0.000000 0.000000 0.000000 0.043844
#
#
# Mechanical properties :
#
#
# Convention : Reuss Voigt Hill
#
# Bulk Modulus (GPa) = 30.26903 47.76008 39.01455
# Shear Modulus (GPa) = 17.85330 27.39666 22.62498
#
# Velocity S-wave (km/s) = 3.01590 3.73599 3.39509
# Velocity P-wave (km/s) = 5.24867 6.55303 5.93678
#
# Compressibility (1/GPa) = 0.03303707
#
# Stress axis : x y z
#
# Youngs Moduli (GPa) = 55.20462 139.76522 57.73592
#
# Poissons Ratio (x) = 0.82353 -0.05277
# Poissons Ratio (y) = 0.32528 -0.01166
# Poissons Ratio (z) = -0.05046 -0.02822
#
# Static dielectric constant tensor:
#      x y z
#    x 1.665410 0.000000 0.000000 
#    y 0.000000 1.744280 0.000000 
#    z 0.000000 0.000000 1.734900 
# 
# From -- ./inp_files/9170.got.cif
#   From: 2010.05.17/outbox.cif.g08.bks.cpg/sg55_5_cif.got.tgz:9170.got - 2010.06.03 13:27:54.
