data_PCOD9425806
_publ_section_title
;
Structure prediction by ZEFSAII (Michael W. Deem and Ramdas Pophale) SiO2 
 PCOD9425806
Probable space group: P B A M
;
_chemical_formula_sum "Si O2"
_cell_formula_units_Z 64
_cell_length_a 35.641454
_cell_length_b 11.634345
_cell_length_c 7.548299
_cell_angle_alpha 90.000000
_cell_angle_beta 90.000000
_cell_angle_gamma 90.000000
_cell_volume 3130.015195
_symmetry_space_group_name_H-M "P B A M"
_symmetry_group_IT_number 55
_symmetry_cell_setting 'orthorhombic'
loop_
_space_group_symop_operation_xyz
x,y,z
-x,-y,z
1/2+x,1/2-y,-z
1/2-x,1/2+y,-z
-x,-y,-z
x,y,-z
1/2-x,1/2+y,z
1/2+x,1/2-y,z
loop_
_atom_site_type_symbol
_atom_site_label
_atom_site_fract_x
_atom_site_fract_y
_atom_site_fract_z
Si Si1 0.765531 0.877204 0.295225
Si Si2 0.575766 0.249759 0.796241
Si Si3 0.644596 0.630170 0.786992
Si Si4 0.000862 0.131947 0.783404
Si Si5 0.542562 0.014531 0.293360
Si Si6 0.927199 0.268197 0.214733
Si Si7 0.231358 0.861415 0.706303
Si Si8 0.148226 0.130865 0.212902
O O1 0.752792 0.882389 0.500000
O O2 0.747916 0.758793 0.217421
O O3 0.810369 0.859033 0.290895
O O4 0.759226 0.008579 0.221136
O O5 0.539209 0.311093 0.717395
O O6 0.565510 0.116759 0.793816
O O7 0.616290 0.282299 0.721452
O O8 0.577885 0.290716 0.000000
O O9 0.611895 0.714119 0.723331
O O10 0.686282 0.649101 0.715405
O O11 0.633885 0.498123 0.749475
O O12 0.647329 0.640988 0.000000
O O13 0.963355 0.196000 0.724320
O O14 0.000899 0.139260 0.000000
O O15 0.000000 0.000000 0.733803
O O16 0.538817 0.044124 0.500000
O O17 0.500000 0.000000 0.221537
O O18 0.564907 0.897183 0.271929
O O19 0.926722 0.264452 0.000000
O O20 0.242998 0.864433 0.500000
O O21 0.153439 0.142038 0.000000
#
# Coordination Sequence:
#
# PCOD9425806 Si02
#       8
#     8   8   8   8   8   8   8   8
#     4   9  18  34  55  77 104 140 179 214 254 311
#     4  10  19  33  54  76 101 134 173 212 255 308
#     4   9  18  33  54  81 109 133 164 212 264 309
#     4   9  16  27  49  78 100 125 166 211 252 301
#     4  11  23  37  51  69 101 141 179 219 261 303
#     4  10  19  33  54  76 101 134 173 212 255 308
#     4   9  18  34  55  77 104 140 179 214 254 311
#     4   9  18  33  54  81 109 133 164 212 264 309
#
# _framework density 20.447185999999999
#
# number of rings (size 3 to 8) (size 9 to 14) (size 15 to 20)
#    0.000    2.500    1.250    1.125    0.000    5.000 
#    2.250    0.000    0.000    3.000    0.000    0.000 
#    0.000    0.000    0.000    0.000    0.000    0.000 
#
# Total GULP energy -356849.828400 kJ/mol
# GULP energy per Si atom -5575.778569 kJ/mol
# Density = 2.040065 g / cm^3
# Si number density = 20.447186 Si / 1000 Ang^3
#
#
#
# Elastic Constant Matrix: (Units=GPa)
#
#
# Indices 1 2 3 4 5 6 
#
# 1 65.9347 44.7645 -0.4155 0.0000 0.0000 0.0000
# 2 44.7645 122.5186 -1.9351 0.0000 0.0000 0.0000
# 3 -0.4155 -1.9351 47.8810 0.0000 0.0000 0.0000
# 4 0.0000 0.0000 0.0000 -32.8721 0.0000 0.0000
# 5 0.0000 0.0000 0.0000 0.0000 17.2520 0.0000
# 6 0.0000 0.0000 0.0000 0.0000 0.0000 44.2369
#
#
#
# Elastic Compliance Matrix: (Units=1/GPa)
#
#
# Indices 1 2 3 4 5 6 
#
# 1 0.020171 -0.007372 -0.000123 0.000000 0.000000 0.000000
# 2 -0.007372 0.010861 0.000375 0.000000 0.000000 0.000000
# 3 -0.000123 0.000375 0.020899 0.000000 0.000000 0.000000
# 4 0.000000 0.000000 0.000000 -0.030421 0.000000 0.000000
# 5 0.000000 0.000000 0.000000 0.000000 0.057964 0.000000
# 6 0.000000 0.000000 0.000000 0.000000 0.000000 0.022606
#
#
# Mechanical properties :
#
#
# Convention : Reuss Voigt Hill
#
# Bulk Modulus (GPa) = 26.53086 35.68469 31.10777
# Shear Modulus (GPa) = 38.79490 18.65139 28.72314
#
# Velocity S-wave (km/s) = 4.36055 3.02350 3.75206
# Velocity P-wave (km/s) = 6.19322 5.44782 5.83244
#
# Compressibility (1/GPa) = 0.03769196
#
# Stress axis : x y z
#
# Youngs Moduli (GPa) = 49.57730 92.06985 47.84876
#
# Poissons Ratio (x) = 0.67871 0.00588
# Poissons Ratio (y) = 0.36547 -0.01794
# Poissons Ratio (z) = 0.00609 -0.03452
#
# Static dielectric constant tensor:
#      x y z
#    x 1.695300 0.000000 0.000000 
#    y 0.000000 -14.941210 0.000000 
#    z 0.000000 0.000000 1.793750 
# 
# From -- ./inp_files/10834.got.cif
#   From: 2010.05.17/outbox.cif.g08.bks.cpg/sg55_6_cif.got.tgz:10834.got - 2010.06.03 13:27:54.
