data_PCOD9425927
_publ_section_title
;
Structure prediction by ZEFSAII (Michael W. Deem and Ramdas Pophale) SiO2 
 PCOD9425927
Probable space group: P B A M
;
_chemical_formula_sum "Si O2"
_cell_formula_units_Z 52
_cell_length_a 7.986320
_cell_length_b 13.844148
_cell_length_c 21.099133
_cell_angle_alpha 90.000000
_cell_angle_beta 90.000000
_cell_angle_gamma 90.000000
_cell_volume 2332.800238
_symmetry_space_group_name_H-M "P B A M"
_symmetry_group_IT_number 55
_symmetry_cell_setting 'orthorhombic'
loop_
_space_group_symop_operation_xyz
x,y,z
-x,-y,z
1/2+x,1/2-y,-z
1/2-x,1/2+y,-z
-x,-y,-z
x,y,-z
1/2-x,1/2+y,z
1/2+x,1/2-y,z
loop_
_atom_site_type_symbol
_atom_site_label
_atom_site_fract_x
_atom_site_fract_y
_atom_site_fract_z
Si Si1 0.325560 0.768230 0.000000
Si Si2 0.322523 0.441696 0.428038
Si Si3 0.165988 0.596492 0.339687
Si Si4 0.581949 0.828363 0.101575
Si Si5 0.486365 0.285470 0.343495
Si Si6 0.770118 0.466514 0.198854
Si Si7 0.424746 0.344812 0.797944
O O1 0.232585 0.702242 0.945166
O O2 0.421879 0.829719 0.943941
O O3 0.500000 0.500000 0.429503
O O4 0.265216 0.427389 0.500000
O O5 0.199414 0.508816 0.387174
O O6 0.371863 0.342948 0.393196
O O7 0.332914 0.663832 0.343909
O O8 0.018963 0.671354 0.355110
O O9 0.157275 0.556590 0.268227
O O10 0.623566 0.921950 0.142277
O O11 0.569137 0.740778 0.151996
O O12 0.415344 0.302885 0.272726
O O13 0.724809 0.578927 0.192180
O O14 0.595094 0.406728 0.197167
#
# Coordination Sequence:
#
# PCOD9425927 Si02
#       7
#     4   8   8   8   8   8   8
#     4  10  24  38  58  80 118 144 178 212 296 338
#     4   9  18  34  55  81 117 154 185 223 273 329
#     4  10  19  33  56  84 112 142 189 234 271 322
#     4  11  20  40  58  82 109 150 174 234 271 338
#     4  10  19  33  56  84 112 142 189 234 271 322
#     4  10  19  34  59  85 106 143 190 230 271 321
#     4  10  19  34  59  85 106 143 190 230 271 321
#
# _framework density 22.290806
#
# number of rings (size 3 to 8) (size 9 to 14) (size 15 to 20)
#    0.000    2.000    4.615    0.000    0.000    0.615 
#    0.000    6.154    0.000    0.923    0.000    0.000 
#    0.000    0.000    0.000    0.000    0.000    0.000 
#
# Total GULP energy -289758.325891 kJ/mol
# GULP energy per Si atom -5572.275498 kJ/mol
# Density = 2.224007 g / cm^3
# Si number density = 22.290806 Si / 1000 Ang^3
#
#
#
# Elastic Constant Matrix: (Units=GPa)
#
#
# Indices 1 2 3 4 5 6 
#
# 1 64.4201 28.7542 22.0612 0.0000 0.0000 0.0000
# 2 28.7542 100.2237 44.1594 0.0000 0.0000 0.0000
# 3 22.0612 44.1594 168.9352 0.0000 0.0000 0.0000
# 4 0.0000 0.0000 0.0000 14.3968 0.0000 0.0000
# 5 0.0000 0.0000 0.0000 0.0000 -21.0389 0.0000
# 6 0.0000 0.0000 0.0000 0.0000 0.0000 29.8286
#
#
#
# Elastic Compliance Matrix: (Units=1/GPa)
#
#
# Indices 1 2 3 4 5 6 
#
# 1 0.017992 -0.004664 -0.001130 0.000000 0.000000 0.000000
# 2 -0.004664 0.012485 -0.002655 0.000000 0.000000 0.000000
# 3 -0.001130 -0.002655 0.006761 0.000000 0.000000 0.000000
# 4 0.000000 0.000000 0.000000 0.069460 0.000000 0.000000
# 5 0.000000 0.000000 0.000000 0.000000 -0.047531 0.000000
# 6 0.000000 0.000000 0.000000 0.000000 0.000000 0.033525
#
#
# Mechanical properties :
#
#
# Convention : Reuss Voigt Hill
#
# Bulk Modulus (GPa) = 49.16290 58.16985 53.66638
# Shear Modulus (GPa) = 42.96649 20.54425 31.75537
#
# Velocity S-wave (km/s) = 4.39514 3.03916 3.77848
# Velocity P-wave (km/s) = 6.91806 6.20225 6.56991
#
# Compressibility (1/GPa) = 0.02034054
#
# Stress axis : x y z
#
# Youngs Moduli (GPa) = 55.58040 80.09369 147.90784
#
# Poissons Ratio (x) = 0.37354 0.16720
# Poissons Ratio (y) = 0.25922 0.39264
# Poissons Ratio (z) = 0.06283 0.21262
#
# Static dielectric constant tensor:
#      x y z
#    x 1.916870 0.000000 0.000000 
#    y 0.000000 1.760110 0.000000 
#    z 0.000000 0.000000 1.760490 
# 
# From -- ./inp_files/22566.got.cif
#   From: 2010.05.17/outbox.cif.g08.bks.cpg/sg55_12_cif.got.tgz:22566.got - 2010.06.03 13:27:54.
