data_PCOD9425193
_publ_section_title
;
Structure prediction by ZEFSAII (Michael W. Deem and Ramdas Pophale) SiO2 
 PCOD9425193
Probable space group: P B A M
;
_chemical_formula_sum "Si O2"
_cell_formula_units_Z 58
_cell_length_a 15.432511
_cell_length_b 23.516129
_cell_length_c 7.385761
_cell_angle_alpha 90.000000
_cell_angle_beta 90.000000
_cell_angle_gamma 90.000000
_cell_volume 2680.388087
_symmetry_space_group_name_H-M "P B A M"
_symmetry_group_IT_number 55
_symmetry_cell_setting 'orthorhombic'
loop_
_space_group_symop_operation_xyz
x,y,z
-x,-y,z
1/2+x,1/2-y,-z
1/2-x,1/2+y,-z
-x,-y,-z
x,y,-z
1/2-x,1/2+y,z
1/2+x,1/2-y,z
loop_
_atom_site_type_symbol
_atom_site_label
_atom_site_fract_x
_atom_site_fract_y
_atom_site_fract_z
Si Si1 0.000000 0.500000 0.500000
Si Si2 0.129644 0.039225 0.719042
Si Si3 0.053613 0.919619 0.715797
Si Si4 0.867948 0.202737 0.215189
Si Si5 0.792728 0.770851 0.221549
Si Si6 0.511322 0.906878 0.781591
Si Si7 0.707152 0.887372 0.791460
Si Si8 0.026500 0.277512 0.780216
O O1 0.030986 0.455092 0.339585
O O2 0.133516 0.040131 0.500000
O O3 0.220521 0.063924 0.783065
O O4 0.046443 0.076905 0.779290
O O5 0.105668 0.975363 0.779338
O O6 0.048332 0.925733 0.500000
O O7 0.101118 0.861115 0.754071
O O8 0.773477 0.221353 0.278620
O O9 0.940235 0.246241 0.286307
O O10 0.865487 0.210851 0.000000
O O11 0.752152 0.830589 0.284926
O O12 0.888894 0.756073 0.283326
O O13 0.796882 0.773120 0.000000
O O14 0.613298 0.905493 0.720373
O O15 0.474823 0.844197 0.739475
O O16 0.505108 0.916519 0.000000
O O17 0.687709 0.872959 0.000000
O O18 0.025497 0.274369 0.000000
#
# Coordination Sequence:
#
# PCOD9425193 Si02
#       8
#     2   8   8   8   8   8   8   8
#     4  12  26  44  68  90 112 162 222 258 304 362
#     4   9  19  35  55  75 112 153 194 234 292 363
#     4   9  19  36  51  76 114 157 185 232 302 360
#     4  10  18  32  55  83 111 143 187 236 291 359
#     4   9  17  31  55  85 113 150 195 235 299 372
#     4  10  22  43  65  89 125 161 202 260 317 363
#     4  10  19  35  60  88 114 149 201 253 299 360
#     4   9  17  34  59  84 119 157 187 244 313 364
#
# _framework density 21.638658
#
# number of rings (size 3 to 8) (size 9 to 14) (size 15 to 20)
#    0.000    2.483    1.379    1.862    0.966    2.207 
#    3.724    2.069    1.517    0.000    0.000    0.000 
#    0.000    0.000    0.000    0.000    0.000    0.000 
#
# Total GULP energy -323273.758759 kJ/mol
# GULP energy per Si atom -5573.685496 kJ/mol
# Density = 2.158941 g / cm^3
# Si number density = 21.638658 Si / 1000 Ang^3
#
#
#
# Elastic Constant Matrix: (Units=GPa)
#
#
# Indices 1 2 3 4 5 6 
#
# 1 30.4000 -24.1642 0.3242 0.0000 0.0000 0.0000
# 2 -24.1642 51.9264 4.8619 0.0000 0.0000 0.0000
# 3 0.3242 4.8619 87.6820 0.0000 0.0000 0.0000
# 4 0.0000 0.0000 0.0000 -0.8079 0.0000 0.0000
# 5 0.0000 0.0000 0.0000 0.0000 -1.0969 0.0000
# 6 0.0000 0.0000 0.0000 0.0000 0.0000 24.9751
#
#
#
# Elastic Compliance Matrix: (Units=1/GPa)
#
#
# Indices 1 2 3 4 5 6 
#
# 1 0.052416 0.024537 -0.001554 0.000000 0.000000 0.000000
# 2 0.024537 0.030845 -0.001801 0.000000 0.000000 0.000000
# 3 -0.001554 -0.001801 0.011510 0.000000 0.000000 0.000000
# 4 0.000000 0.000000 0.000000 -1.237708 0.000000 0.000000
# 5 0.000000 0.000000 0.000000 0.000000 -0.911666 0.000000
# 6 0.000000 0.000000 0.000000 0.000000 0.000000 0.040040
#
#
# Mechanical properties :
#
#
# Convention : Reuss Voigt Hill
#
# Bulk Modulus (GPa) = 7.29206 14.67245 10.98226
# Shear Modulus (GPa) = -2.48606 17.21316 7.36355
#
# Velocity S-wave (km/s) = -1.07303 2.82349 1.84671
# Velocity P-wave (km/s) = 1.35722 4.17431 3.10378
#
# Compressibility (1/GPa) = 0.13713538
#
# Stress axis : x y z
#
# Youngs Moduli (GPa) = 19.07828 32.41988 86.87753
#
# Poissons Ratio (x) = -0.79550 0.13504
# Poissons Ratio (y) = -0.46813 0.15647
# Poissons Ratio (z) = 0.02965 0.05839
#
# Static dielectric constant tensor:
#      x y z
#    x 1.782120 0.000000 0.000000 
#    y 0.000000 1.786270 0.000000 
#    z 0.000000 0.000000 1.814300 
# 
# From -- ./inp_files/6407.got.cif
#   From: 2010.05.17/outbox.cif.g08.bks.cpg/sg55_4_cif.got.tgz:6407.got - 2010.06.03 13:27:54.
