data_PCOD9425765
_publ_section_title
;
Structure prediction by ZEFSAII (Michael W. Deem and Ramdas Pophale) SiO2 
 PCOD9425765
Probable space group: P B A M
;
_chemical_formula_sum "Si O2"
_cell_formula_units_Z 48
_cell_length_a 29.030810
_cell_length_b 8.163027
_cell_length_c 7.466879
_cell_angle_alpha 90.000000
_cell_angle_beta 90.000000
_cell_angle_gamma 90.000000
_cell_volume 1769.495653
_symmetry_space_group_name_H-M "P B A M"
_symmetry_group_IT_number 55
_symmetry_cell_setting 'orthorhombic'
loop_
_space_group_symop_operation_xyz
x,y,z
-x,-y,z
1/2+x,1/2-y,-z
1/2-x,1/2+y,-z
-x,-y,-z
x,y,-z
1/2-x,1/2+y,z
1/2+x,1/2-y,z
loop_
_atom_site_type_symbol
_atom_site_label
_atom_site_fract_x
_atom_site_fract_y
_atom_site_fract_z
Si Si1 0.177467 0.250710 0.214928
Si Si2 0.016274 0.265231 0.280489
Si Si3 0.842654 0.222312 0.800372
Si Si4 0.566687 0.562311 0.289454
Si Si5 0.903102 0.526878 0.294487
Si Si6 0.261492 0.068756 0.218172
O O1 0.129271 0.310143 0.294928
O O2 0.208779 0.097004 0.274996
O O3 0.212669 0.400596 0.256891
O O4 0.170655 0.242950 0.000000
O O5 0.016845 0.278218 0.500000
O O6 0.047106 0.419044 0.223387
O O7 0.964708 0.215246 0.224942
O O8 0.045392 0.105429 0.219434
O O9 0.879543 0.090640 0.735717
O O10 0.873888 0.388584 0.803744
O O11 0.796137 0.289285 0.712498
O O12 0.829947 0.171117 0.000000
O O13 0.558251 0.554404 0.500000
O O14 0.907770 0.468443 0.500000
O O15 0.261133 0.081606 0.000000
#
# Coordination Sequence:
#
# PCOD9425765 Si02
#       6
#     8   8   8   8   8   8
#     4   9  17  32  50  69  93 126 163 200 238 285
#     4   8  17  33  53  73  97 129 166 201 246 303
#     4  10  20  34  50  74 103 132 165 203 243 292
#     4   9  17  34  55  73  95 129 167 206 247 294
#     4  10  19  33  51  73  99 130 164 202 244 292
#     4   8  16  30  48  66  91 124 157 190 235 288
#
# _framework density 27.126374999999999
#
# number of rings (size 3 to 8) (size 9 to 14) (size 15 to 20)
#    0.000    3.000    0.000    3.000    0.000    2.000 
#    0.000   14.167    0.000    0.000    0.000    0.000 
#    0.000    0.000    0.000    0.000    0.000    0.000 
#
# Total GULP energy -268258.828181 kJ/mol
# GULP energy per Si atom -5588.725587 kJ/mol
# Density = 2.706463 g / cm^3
# Si number density = 27.126375 Si / 1000 Ang^3
#
#
#
# Elastic Constant Matrix: (Units=GPa)
#
#
# Indices 1 2 3 4 5 6 
#
# 1 186.5989 17.4079 -6.8504 0.0000 0.0000 0.0000
# 2 17.4079 65.1467 -1.9591 0.0000 0.0000 0.0000
# 3 -6.8504 -1.9591 73.9708 0.0000 0.0000 0.0000
# 4 0.0000 0.0000 0.0000 9.8894 0.0000 0.0000
# 5 0.0000 0.0000 0.0000 0.0000 34.8711 0.0000
# 6 0.0000 0.0000 0.0000 0.0000 0.0000 63.0591
#
#
#
# Elastic Compliance Matrix: (Units=1/GPa)
#
#
# Indices 1 2 3 4 5 6 
#
# 1 0.005513 -0.001459 0.000472 0.000000 0.000000 0.000000
# 2 -0.001459 0.015748 0.000282 0.000000 0.000000 0.000000
# 3 0.000472 0.000282 0.013570 0.000000 0.000000 0.000000
# 4 0.000000 0.000000 0.000000 0.101119 0.000000 0.000000
# 5 0.000000 0.000000 0.000000 0.000000 0.028677 0.000000
# 6 0.000000 0.000000 0.000000 0.000000 0.000000 0.015858
#
#
# Mechanical properties :
#
#
# Convention : Reuss Voigt Hill
#
# Bulk Modulus (GPa) = 29.92141 38.10147 34.01144
# Shear Modulus (GPa) = 25.90205 42.70512 34.30358
#
# Velocity S-wave (km/s) = 3.09344 3.97205 3.55996
# Velocity P-wave (km/s) = 4.87991 5.92559 5.42799
#
# Compressibility (1/GPa) = 0.03342089
#
# Stress axis : x y z
#
# Youngs Moduli (GPa) = 181.40577 63.49904 73.69192
#
# Poissons Ratio (x) = 0.09263 -0.03477
# Poissons Ratio (y) = 0.26464 -0.02078
# Poissons Ratio (z) = -0.08560 -0.01791
#
# Static dielectric constant tensor:
#      x y z
#    x 2.100510 0.000000 0.000000 
#    y 0.000000 2.235380 0.000000 
#    z 0.000000 0.000000 2.036260 
# 
# From -- ./inp_files/10532.got.cif
#   From: 2010.05.17/outbox.cif.g08.bks.cpg/sg55_6_cif.got.tgz:10532.got - 2010.06.03 13:27:54.
