data_PCOD9425039
_publ_section_title
;
Structure prediction by ZEFSAII (Michael W. Deem and Ramdas Pophale) SiO2 
 PCOD9425039
Probable space group: P B A M
;
_chemical_formula_sum "Si O2"
_cell_formula_units_Z 64
_cell_length_a 14.501574
_cell_length_b 19.275526
_cell_length_c 11.744962
_cell_angle_alpha 90.000000
_cell_angle_beta 90.000000
_cell_angle_gamma 90.000000
_cell_volume 3283.015984
_symmetry_space_group_name_H-M "P B A M"
_symmetry_group_IT_number 55
_symmetry_cell_setting 'orthorhombic'
loop_
_space_group_symop_operation_xyz
x,y,z
-x,-y,z
1/2+x,1/2-y,-z
1/2-x,1/2+y,-z
-x,-y,-z
x,y,-z
1/2-x,1/2+y,z
1/2+x,1/2-y,z
loop_
_atom_site_type_symbol
_atom_site_label
_atom_site_fract_x
_atom_site_fract_y
_atom_site_fract_z
Si Si1 0.660208 0.044793 0.374281
Si Si2 0.932669 0.912016 0.373015
Si Si3 0.939728 0.310481 0.133880
Si Si4 0.845391 0.161378 0.123750
Si Si5 0.678551 0.287056 0.630521
Si Si6 0.130621 0.949414 0.314421
Si Si7 0.643161 0.163944 0.798503
Si Si8 0.864161 0.378899 0.633268
O O1 0.623703 0.064302 0.500000
O O2 0.770438 0.057361 0.371669
O O3 0.624020 0.092591 0.271409
O O4 0.644836 0.962414 0.359584
O O5 0.891110 0.922041 0.500000
O O6 0.908632 0.834849 0.337774
O O7 0.040291 0.926275 0.381888
O O8 0.887117 0.969295 0.292591
O O9 0.888085 0.236677 0.152184
O O10 0.913420 0.354198 0.248996
O O11 0.050877 0.309688 0.141109
O O12 0.916286 0.331738 0.000000
O O13 0.872360 0.101062 0.208555
O O14 0.733987 0.159292 0.124471
O O15 0.881892 0.144348 0.000000
O O16 0.670633 0.265325 0.500000
O O17 0.677429 0.219920 0.706382
O O18 0.766841 0.337509 0.639868
O O19 0.898114 0.364571 0.500000
#
# Coordination Sequence:
#
# PCOD9425039 Si02
#       8
#     8   8   8   8   8   8   8   8
#     4  10  20  36  59  87 126 164 200 247 309 364
#     4  10  18  30  53  85 121 155 188 237 298 363
#     4  11  24  44  66  90 119 162 210 258 310 370
#     4  10  22  40  58  80 115 154 197 253 306 356
#     4  10  19  34  57  88 126 158 197 247 306 367
#     4  10  18  31  53  82 116 154 196 235 291 363
#     4  11  22  38  63  90 116 154 208 253 305 362
#     4  10  21  40  62  89 124 164 202 252 306 360
#
# _framework density 19.494268999999999
#
# number of rings (size 3 to 8) (size 9 to 14) (size 15 to 20)
#    0.000    1.750    2.500    3.000    0.000    1.500 
#    0.000    7.500    0.000    1.500    0.000    0.000 
#    0.000    0.000    0.000    0.000    0.000    0.000 
#
# Total GULP energy -356304.099302 kJ/mol
# GULP energy per Si atom -5567.251552 kJ/mol
# Density = 1.944990 g / cm^3
# Si number density = 19.494269 Si / 1000 Ang^3
#
#
#
# Elastic Constant Matrix: (Units=GPa)
#
#
# Indices 1 2 3 4 5 6 
#
# 1 51.8496 3.3880 29.2622 0.0000 0.0000 0.0000
# 2 3.3880 84.4060 66.9552 0.0000 0.0000 0.0000
# 3 29.2622 66.9552 123.5064 0.0000 0.0000 0.0000
# 4 0.0000 0.0000 0.0000 9.0913 0.0000 0.0000
# 5 0.0000 0.0000 0.0000 0.0000 7.8854 0.0000
# 6 0.0000 0.0000 0.0000 0.0000 0.0000 23.0941
#
#
#
# Elastic Compliance Matrix: (Units=1/GPa)
#
#
# Indices 1 2 3 4 5 6 
#
# 1 0.023992 0.006222 -0.009057 0.000000 0.000000 0.000000
# 2 0.006222 0.022400 -0.013617 0.000000 0.000000 0.000000
# 3 -0.009057 -0.013617 0.017625 0.000000 0.000000 0.000000
# 4 0.000000 0.000000 0.000000 0.109995 0.000000 0.000000
# 5 0.000000 0.000000 0.000000 0.000000 0.126817 0.000000
# 6 0.000000 0.000000 0.000000 0.000000 0.000000 0.043301
#
#
# Mechanical properties :
#
#
# Convention : Reuss Voigt Hill
#
# Bulk Modulus (GPa) = 32.14368 50.99697 41.57032
# Shear Modulus (GPa) = 12.90636 18.69125 15.79881
#
# Velocity S-wave (km/s) = 2.57584 3.09982 2.84990
# Velocity P-wave (km/s) = 5.03698 6.24729 5.67450
#
# Compressibility (1/GPa) = 0.03111032
#
# Stress axis : x y z
#
# Youngs Moduli (GPa) = 41.68135 44.64313 56.73781
#
# Poissons Ratio (x) = -0.27775 0.51388
# Poissons Ratio (y) = -0.25932 0.77263
# Poissons Ratio (z) = 0.37751 0.60793
#
# Static dielectric constant tensor:
#      x y z
#    x 1.718770 0.000000 0.000000 
#    y 0.000000 1.682580 0.000000 
#    z 0.000000 0.000000 1.711540 
# 
# From -- ./inp_files/14436.got.cif
#   From: 2010.05.17/outbox.cif.g08.bks.cpg/sg55_8_cif.got.tgz:14436.got - 2010.06.03 13:27:54.
