data_PCOD9425220
_publ_section_title
;
Structure prediction by ZEFSAII (Michael W. Deem and Ramdas Pophale) SiO2 
 PCOD9425220
Probable space group: P B A M
;
_chemical_formula_sum "Si O2"
_cell_formula_units_Z 64
_cell_length_a 21.340355
_cell_length_b 20.327060
_cell_length_c 8.351490
_cell_angle_alpha 90.000000
_cell_angle_beta 90.000000
_cell_angle_gamma 90.000000
_cell_volume 3622.765091
_symmetry_space_group_name_H-M "P B A M"
_symmetry_group_IT_number 55
_symmetry_cell_setting 'orthorhombic'
loop_
_space_group_symop_operation_xyz
x,y,z
-x,-y,z
1/2+x,1/2-y,-z
1/2-x,1/2+y,-z
-x,-y,-z
x,y,-z
1/2-x,1/2+y,z
1/2+x,1/2-y,z
loop_
_atom_site_type_symbol
_atom_site_label
_atom_site_fract_x
_atom_site_fract_y
_atom_site_fract_z
Si Si1 0.315121 0.207950 0.693430
Si Si2 0.383479 0.571142 0.808656
Si Si3 0.065307 0.787426 0.808984
Si Si4 0.069400 0.207961 0.309460
Si Si5 0.740333 0.928264 0.693815
Si Si6 0.618249 0.575019 0.193341
Si Si7 0.238674 0.425488 0.306484
Si Si8 0.190546 0.287752 0.695470
O O1 0.317402 0.209888 0.500000
O O2 0.378116 0.240521 0.757021
O O3 0.302475 0.132762 0.744128
O O4 0.253899 0.249738 0.744018
O O5 0.421722 0.632332 0.742066
O O6 0.310805 0.580262 0.758966
O O7 0.402571 0.497790 0.751764
O O8 0.388351 0.572295 0.000000
O O9 0.080522 0.861562 0.747957
O O10 0.997433 0.766486 0.748351
O O11 0.063803 0.790089 0.000000
O O12 0.071339 0.210756 0.500000
O O13 0.128731 0.249990 0.247263
O O14 0.744620 0.926379 0.500000
O O15 0.717949 0.001153 0.742172
O O16 0.690532 0.583432 0.244383
O O17 0.615541 0.574604 0.000000
O O18 0.241063 0.424176 0.500000
O O19 0.197277 0.363618 0.253760
O O20 0.189418 0.286380 0.500000
#
# Coordination Sequence:
#
# PCOD9425220 Si02
#       8
#     8   8   8   8   8   8   8   8
#     4  10  18  33  54  78 104 133 167 211 258 299
#     4  10  19  32  50  73 103 138 171 205 248 300
#     4  11  23  37  51  74 104 137 176 214 254 306
#     4  11  22  37  53  73 103 139 174 214 260 304
#     4   9  17  30  51  78 106 132 166 208 252 300
#     4   9  19  33  48  70 104 138 167 204 250 297
#     4   9  16  29  52  78 101 130 167 208 249 300
#     4   9  17  31  53  78 103 129 167 213 256 298
#
# _framework density 17.666063999999999
#
# number of rings (size 3 to 8) (size 9 to 14) (size 15 to 20)
#    0.000    2.250    2.500    1.125    0.000    2.000 
#    0.000    3.750    0.000    0.750    0.000    5.250 
#    0.000    0.000    0.000    0.000    0.000    0.000 
#
# Total GULP energy -356981.810411 kJ/mol
# GULP energy per Si atom -5577.840788 kJ/mol
# Density = 1.762586 g / cm^3
# Si number density = 17.666064 Si / 1000 Ang^3
#
#
#
# Elastic Constant Matrix: (Units=GPa)
#
#
# Indices 1 2 3 4 5 6 
#
# 1 99.4048 58.5951 12.1518 0.0000 0.0000 0.0000
# 2 58.5951 115.8019 16.3196 0.0000 0.0000 0.0000
# 3 12.1518 16.3196 10.2505 0.0000 0.0000 0.0000
# 4 0.0000 0.0000 0.0000 17.0741 0.0000 0.0000
# 5 0.0000 0.0000 0.0000 0.0000 -465.3519 0.0000
# 6 0.0000 0.0000 0.0000 0.0000 0.0000 22.2760
#
#
#
# Elastic Compliance Matrix: (Units=1/GPa)
#
#
# Indices 1 2 3 4 5 6 
#
# 1 0.014739 -0.006440 -0.007219 0.000000 0.000000 0.000000
# 2 -0.006440 0.013948 -0.014571 0.000000 0.000000 0.000000
# 3 -0.007219 -0.014571 0.129312 0.000000 0.000000 0.000000
# 4 0.000000 0.000000 0.000000 0.058568 0.000000 0.000000
# 5 0.000000 0.000000 0.000000 0.000000 -0.002149 0.000000
# 6 0.000000 0.000000 0.000000 0.000000 0.000000 0.044891
#
#
# Mechanical properties :
#
#
# Convention : Reuss Voigt Hill
#
# Bulk Modulus (GPa) = 9.84851 44.39894 27.12373
# Shear Modulus (GPa) = 14.30143 -75.97430 -30.83643
#
# Velocity S-wave (km/s) = 2.84833 -6.56499 -4.18247
# Velocity P-wave (km/s) = 4.05022 5.68143 2.81730
#
# Compressibility (1/GPa) = 0.10153818
#
# Stress axis : x y z
#
# Youngs Moduli (GPa) = 67.84864 71.69676 7.73323
#
# Poissons Ratio (x) = 0.46175 0.05583
# Poissons Ratio (y) = 0.43697 0.11268
# Poissons Ratio (z) = 0.48980 1.04468
#
# Static dielectric constant tensor:
#      x y z
#    x 1.574490 0.000000 0.000000 
#    y 0.000000 1.640660 0.000000 
#    z 0.000000 0.000000 1.610070 
# 
# From -- ./inp_files/8014.got.cif
#   From: 2010.05.17/outbox.cif.g08.bks.cpg/sg55_5_cif.got.tgz:8014.got - 2010.06.03 13:27:54.
