data_PCOD9425345
_publ_section_title
;
Structure prediction by ZEFSAII (Michael W. Deem and Ramdas Pophale) SiO2 
 PCOD9425345
Probable space group: P B A M
;
_chemical_formula_sum "Si O2"
_cell_formula_units_Z 58
_cell_length_a 22.606567
_cell_length_b 14.104033
_cell_length_c 7.411867
_cell_angle_alpha 90.000000
_cell_angle_beta 90.000000
_cell_angle_gamma 90.000000
_cell_volume 2363.227595
_symmetry_space_group_name_H-M "P B A M"
_symmetry_group_IT_number 55
_symmetry_cell_setting 'orthorhombic'
loop_
_space_group_symop_operation_xyz
x,y,z
-x,-y,z
1/2+x,1/2-y,-z
1/2-x,1/2+y,-z
-x,-y,-z
x,y,-z
1/2-x,1/2+y,z
1/2+x,1/2-y,z
loop_
_atom_site_type_symbol
_atom_site_label
_atom_site_fract_x
_atom_site_fract_y
_atom_site_fract_z
Si Si1 0.879158 0.196417 0.785144
Si Si2 0.745016 0.997024 0.715675
Si Si3 0.940125 0.392493 0.781091
Si Si4 0.617588 0.493231 0.207599
Si Si5 0.374786 0.917769 0.789126
Si Si6 0.500000 0.000000 0.500000
Si Si7 0.743358 0.786739 0.713623
Si Si8 0.120776 0.214282 0.793782
O O1 0.912761 0.291583 0.727468
O O2 0.900822 0.094782 0.711558
O O3 0.809395 0.214574 0.752005
O O4 0.886545 0.191585 0.000000
O O5 0.750558 0.003599 0.500000
O O6 0.810804 0.001863 0.792548
O O7 0.696353 0.071841 0.775252
O O8 0.721045 0.892187 0.764215
O O9 0.899097 0.481994 0.717271
O O10 0.996041 0.417992 0.661148
O O11 0.947948 0.394508 0.000000
O O12 0.604526 0.388720 0.286825
O O13 0.597068 0.490120 0.000000
O O14 0.393301 0.816314 0.710365
O O15 0.390632 0.916554 0.000000
O O16 0.754355 0.784134 0.500000
O O17 0.807585 0.781521 0.801090
O O18 0.098175 0.214184 0.000000
#
# Coordination Sequence:
#
# PCOD9425345 Si02
#       8
#     8   8   8   8   8   2   8   8
#     4  10  19  32  51  74 102 138 180 225 266 315
#     4  10  19  28  42  67 104 145 188 227 262 302
#     4  10  23  41  63  90 113 137 176 225 281 348
#     4   9  18  31  46  68 103 148 190 222 257 300
#     4  10  19  32  51  74 102 138 180 225 266 315
#     4  12  26  44  68  90 114 136 162 220 308 364
#     4  10  19  28  42  67 104 145 188 227 262 302
#     4   9  18  31  46  68 103 148 190 222 257 300
#
# _framework density 24.542705000000002
#
# number of rings (size 3 to 8) (size 9 to 14) (size 15 to 20)
#    0.000    2.207    1.379    1.862    1.931    5.517 
#    0.000    0.000    0.000    0.000    0.000    1.931 
#    0.000    6.621    0.000    0.000    0.000    0.000 
#
# Total GULP energy -323075.356831 kJ/mol
# GULP energy per Si atom -5570.264773 kJ/mol
# Density = 2.448684 g / cm^3
# Si number density = 24.542705 Si / 1000 Ang^3
#
#
#
# Elastic Constant Matrix: (Units=GPa)
#
#
# Indices 1 2 3 4 5 6 
#
# 1 32.8960 27.1269 -5.5720 0.0000 0.0000 0.0000
# 2 27.1269 207.0013 44.4453 0.0000 0.0000 0.0000
# 3 -5.5720 44.4453 86.9463 0.0000 0.0000 0.0000
# 4 0.0000 0.0000 0.0000 -11.9619 0.0000 0.0000
# 5 0.0000 0.0000 0.0000 0.0000 1.1354 0.0000
# 6 0.0000 0.0000 0.0000 0.0000 0.0000 22.8898
#
#
#
# Elastic Compliance Matrix: (Units=1/GPa)
#
#
# Indices 1 2 3 4 5 6 
#
# 1 0.036149 -0.005880 0.005322 0.000000 0.000000 0.000000
# 2 -0.005880 0.006383 -0.003640 0.000000 0.000000 0.000000
# 3 0.005322 -0.003640 0.013703 0.000000 0.000000 0.000000
# 4 0.000000 0.000000 0.000000 -0.083598 0.000000 0.000000
# 5 0.000000 0.000000 0.000000 0.000000 0.880781 0.000000
# 6 0.000000 0.000000 0.000000 0.000000 0.000000 0.043688
#
#
# Mechanical properties :
#
#
# Convention : Reuss Voigt Hill
#
# Bulk Modulus (GPa) = 20.90283 50.98269 35.94276
# Shear Modulus (GPa) = 5.42625 19.80220 12.61422
#
# Velocity S-wave (km/s) = 1.48854 2.84359 2.26955
# Velocity P-wave (km/s) = 3.38965 5.62134 4.64162
#
# Compressibility (1/GPa) = 0.04784041
#
# Stress axis : x y z
#
# Youngs Moduli (GPa) = 27.66320 156.66823 72.97693
#
# Poissons Ratio (x) = 0.92121 -0.38841
# Poissons Ratio (y) = 0.16266 0.26561
# Poissons Ratio (z) = -0.14723 0.57022
#
# Static dielectric constant tensor:
#      x y z
#    x 2.032310 0.000000 0.000000 
#    y 0.000000 2.045100 0.000000 
#    z 0.000000 0.000000 1.919400 
# 
# From -- ./inp_files/6417.got.cif
#   From: 2010.05.17/outbox.cif.g08.bks.cpg/sg55_4_cif.got.tgz:6417.got - 2010.06.03 13:27:54.
