data_PCOD9425244
_publ_section_title
;
Structure prediction by ZEFSAII (Michael W. Deem and Ramdas Pophale) SiO2 
 PCOD9425244
Probable space group: P B A M
;
_chemical_formula_sum "Si O2"
_cell_formula_units_Z 48
_cell_length_a 29.817095
_cell_length_b 10.478199
_cell_length_c 8.447708
_cell_angle_alpha 90.000000
_cell_angle_beta 90.000000
_cell_angle_gamma 90.000000
_cell_volume 2639.312807
_symmetry_space_group_name_H-M "P B A M"
_symmetry_group_IT_number 55
_symmetry_cell_setting 'orthorhombic'
loop_
_space_group_symop_operation_xyz
x,y,z
-x,-y,z
1/2+x,1/2-y,-z
1/2-x,1/2+y,-z
-x,-y,-z
x,y,-z
1/2-x,1/2+y,z
1/2+x,1/2-y,z
loop_
_atom_site_type_symbol
_atom_site_label
_atom_site_fract_x
_atom_site_fract_y
_atom_site_fract_z
Si Si1 0.878141 0.017523 0.187850
Si Si2 0.528904 0.621829 0.192924
Si Si3 0.614456 0.237983 0.686600
Si Si4 0.220668 0.999855 0.687366
Si Si5 0.287459 0.784358 0.811709
Si Si6 0.974331 0.628475 0.808580
O O1 0.892637 0.871288 0.220715
O O2 0.919467 0.105100 0.241984
O O3 0.830910 0.035809 0.273683
O O4 0.871197 0.033691 0.000000
O O5 0.500000 0.500000 0.246129
O O6 0.504290 0.750519 0.241826
O O7 0.529235 0.619391 0.000000
O O8 0.613526 0.264059 0.500000
O O9 0.663864 0.191358 0.734518
O O10 0.574737 0.143792 0.734981
O O11 0.227282 0.003247 0.500000
O O12 0.253142 0.894565 0.762292
O O13 0.227464 0.142973 0.754973
O O14 0.292511 0.780996 0.000000
O O15 0.000000 0.500000 0.764620
O O16 0.969924 0.631697 0.000000
#
# Coordination Sequence:
#
# PCOD9425244 Si02
#       6
#     8   8   8   8   8   8
#     4  10  18  33  58  83 110 145 192 236 278 337
#     4   9  16  30  55  82 107 139 182 234 274 315
#     4  11  21  35  56  82 114 149 186 231 288 342
#     4  11  22  39  60  87 121 151 186 240 300 346
#     4  11  22  40  64  88 113 152 199 238 282 350
#     4  10  20  36  56  79 109 147 190 233 279 338
#
# _framework density 18.186551999999999
#
# number of rings (size 3 to 8) (size 9 to 14) (size 15 to 20)
#    0.000    1.667    1.667    7.000    0.000    0.333 
#    3.000    2.500    0.000    0.000    0.000    0.000 
#    0.000    0.000    0.000    0.000    0.000    0.000 
#
# Total GULP energy -268065.542456 kJ/mol
# GULP energy per Si atom -5584.698801 kJ/mol
# Density = 1.814516 g / cm^3
# Si number density = 18.186552 Si / 1000 Ang^3
#
#
#
# Elastic Constant Matrix: (Units=GPa)
#
#
# Indices 1 2 3 4 5 6 
#
# 1 107.6570 73.2189 2.0743 0.0000 0.0000 0.0000
# 2 73.2189 113.9967 10.6720 0.0000 0.0000 0.0000
# 3 2.0743 10.6720 45.4666 0.0000 0.0000 0.0000
# 4 0.0000 0.0000 0.0000 8.3270 0.0000 0.0000
# 5 0.0000 0.0000 0.0000 0.0000 -369.8626 0.0000
# 6 0.0000 0.0000 0.0000 0.0000 0.0000 32.5769
#
#
#
# Elastic Compliance Matrix: (Units=1/GPa)
#
#
# Indices 1 2 3 4 5 6 
#
# 1 0.016635 -0.010852 0.001788 0.000000 0.000000 0.000000
# 2 -0.010852 0.016048 -0.003272 0.000000 0.000000 0.000000
# 3 0.001788 -0.003272 0.022681 0.000000 0.000000 0.000000
# 4 0.000000 0.000000 0.000000 0.120091 0.000000 0.000000
# 5 0.000000 0.000000 0.000000 0.000000 -0.002704 0.000000
# 6 0.000000 0.000000 0.000000 0.000000 0.000000 0.030697
#
#
# Mechanical properties :
#
#
# Convention : Reuss Voigt Hill
#
# Bulk Modulus (GPa) = 32.58066 48.78342 40.68204
# Shear Modulus (GPa) = 20.97762 -53.71474 -16.36856
#
# Velocity S-wave (km/s) = 3.39996 -5.44055 -3.00332
# Velocity P-wave (km/s) = 5.77638 3.54738 3.22356
#
# Compressibility (1/GPa) = 0.03069305
#
# Stress axis : x y z
#
# Youngs Moduli (GPa) = 60.11533 62.31145 44.09058
#
# Poissons Ratio (x) = 0.67619 -0.07884
# Poissons Ratio (y) = 0.65235 0.14426
# Poissons Ratio (z) = -0.10750 0.20387
#
# Static dielectric constant tensor:
#      x y z
#    x 1.621870 0.000000 0.000000 
#    y 0.000000 1.604960 0.000000 
#    z 0.000000 0.000000 1.611120 
# 
# From -- ./inp_files/10506.got.cif
#   From: 2010.05.17/outbox.cif.g08.bks.cpg/sg55_6_cif.got.tgz:10506.got - 2010.06.03 13:27:54.
