data_PCOD9425596
_publ_section_title
;
Structure prediction by ZEFSAII (Michael W. Deem and Ramdas Pophale) SiO2 
 PCOD9425596
Probable space group: P B A M
;
_chemical_formula_sum "Si O2"
_cell_formula_units_Z 52
_cell_length_a 5.015887
_cell_length_b 32.789361
_cell_length_c 18.190816
_cell_angle_alpha 90.000000
_cell_angle_beta 90.000000
_cell_angle_gamma 90.000000
_cell_volume 2991.802207
_symmetry_space_group_name_H-M "P B A M"
_symmetry_group_IT_number 55
_symmetry_cell_setting 'orthorhombic'
loop_
_space_group_symop_operation_xyz
x,y,z
-x,-y,z
1/2+x,1/2-y,-z
1/2-x,1/2+y,-z
-x,-y,-z
x,y,-z
1/2-x,1/2+y,z
1/2+x,1/2-y,z
loop_
_atom_site_type_symbol
_atom_site_label
_atom_site_fract_x
_atom_site_fract_y
_atom_site_fract_z
Si Si1 0.810863 0.923361 0.346599
Si Si2 0.930111 0.862003 0.232090
Si Si3 0.950863 0.816509 0.000000
Si Si4 0.073464 0.402637 0.159921
Si Si5 0.576868 0.277122 0.839893
Si Si6 0.676042 0.040051 0.277137
Si Si7 0.951149 0.627369 0.000000
Si Si8 0.756655 0.968820 0.500000
O O1 0.907622 0.879454 0.315285
O O2 0.507997 0.926966 0.318558
O O3 0.787828 0.939432 0.429419
O O4 0.025288 0.953998 0.306778
O O5 0.721414 0.889623 0.185609
O O6 0.868937 0.815360 0.213436
O O7 0.219903 0.871697 0.198871
O O8 0.901533 0.792079 0.924717
O O9 0.747572 0.854361 0.000000
O O10 0.249207 0.834258 0.000000
O O11 0.155760 0.446443 0.192579
O O12 0.096373 0.397844 0.073539
O O13 0.285055 0.259019 0.828182
O O14 0.500000 0.000000 0.290842
O O15 0.500000 0.000000 0.500000
O O16 0.000000 0.000000 0.500000
#
# Coordination Sequence:
#
# PCOD9425596 Si02
#       8
#     8   8   4   8   8   8   4   4
#     4  10  21  34  55  76 107 140 168 197 251 317
#     4  10  20  37  50  71  98 139 176 205 247 318
#     4  12  22  33  50  70 107 129 168 217 283 324
#     4  10  19  32  51  68  94 134 178 213 251 307
#     4  12  22  34  50  75 103 132 171 220 269 312
#     4  10  19  33  51  74 101 135 173 211 250 298
#     4  12  18  33  51  68  94 137 174 213 262 308
#     4  12  22  34  56  90 120 136 160 206 260 304
#
# _framework density 17.380827
#
# number of rings (size 3 to 8) (size 9 to 14) (size 15 to 20)
#    0.000    1.231    3.077    5.077    0.000    0.000 
#    0.000    0.385    0.000    0.000    0.000    8.615 
#    0.000    0.000    0.000    0.000    0.000    0.000 
#
# Total GULP energy -289764.736483 kJ/mol
# GULP energy per Si atom -5572.398779 kJ/mol
# Density = 1.734127 g / cm^3
# Si number density = 17.380827 Si / 1000 Ang^3
#
#
#
# Elastic Constant Matrix: (Units=GPa)
#
#
# Indices 1 2 3 4 5 6 
#
# 1 76.3846 0.1130 7.2868 0.0000 0.0000 0.0000
# 2 0.1130 50.8017 47.3737 0.0000 0.0000 0.0000
# 3 7.2868 47.3737 107.0155 0.0000 0.0000 0.0000
# 4 0.0000 0.0000 0.0000 17.9089 0.0000 0.0000
# 5 0.0000 0.0000 0.0000 0.0000 15.0863 0.0000
# 6 0.0000 0.0000 0.0000 0.0000 0.0000 26.3690
#
#
#
# Elastic Compliance Matrix: (Units=1/GPa)
#
#
# Indices 1 2 3 4 5 6 
#
# 1 0.013234 0.001381 -0.001512 0.000000 0.000000 0.000000
# 2 0.001381 0.033667 -0.014998 0.000000 0.000000 0.000000
# 3 -0.001512 -0.014998 0.016087 0.000000 0.000000 0.000000
# 4 0.000000 0.000000 0.000000 0.055838 0.000000 0.000000
# 5 0.000000 0.000000 0.000000 0.000000 0.066285 0.000000
# 6 0.000000 0.000000 0.000000 0.000000 0.000000 0.037923
#
#
# Mechanical properties :
#
#
# Convention : Reuss Voigt Hill
#
# Bulk Modulus (GPa) = 30.55390 38.19430 34.37410
# Shear Modulus (GPa) = 18.92486 23.83471 21.37978
#
# Velocity S-wave (km/s) = 3.30333 3.70715 3.51105
# Velocity P-wave (km/s) = 5.67156 6.35190 6.02135
#
# Compressibility (1/GPa) = 0.03272905
#
# Stress axis : x y z
#
# Youngs Moduli (GPa) = 75.56358 29.70261 62.16336
#
# Poissons Ratio (x) = -0.04102 0.09402
# Poissons Ratio (y) = -0.10435 0.93231
# Poissons Ratio (z) = 0.11428 0.44547
#
# Static dielectric constant tensor:
#      x y z
#    x 1.596710 0.000000 0.000000 
#    y 0.000000 1.637000 0.000000 
#    z 0.000000 0.000000 1.629180 
# 
# From -- ./inp_files/20537.got.cif
#   From: 2010.05.17/outbox.cif.g08.bks.cpg/sg55_11_cif.got.tgz:20537.got - 2010.06.03 13:27:54.
