data_PCOD9425094
_publ_section_title
;
Structure prediction by ZEFSAII (Michael W. Deem and Ramdas Pophale) SiO2 
 PCOD9425094
Probable space group: P B A M
;
_chemical_formula_sum "Si O2"
_cell_formula_units_Z 56
_cell_length_a 16.542701
_cell_length_b 19.180925
_cell_length_c 9.422831
_cell_angle_alpha 90.000000
_cell_angle_beta 90.000000
_cell_angle_gamma 90.000000
_cell_volume 2989.904862
_symmetry_space_group_name_H-M "P B A M"
_symmetry_group_IT_number 55
_symmetry_cell_setting 'orthorhombic'
loop_
_space_group_symop_operation_xyz
x,y,z
-x,-y,z
1/2+x,1/2-y,-z
1/2-x,1/2+y,-z
-x,-y,-z
x,y,-z
1/2-x,1/2+y,z
1/2+x,1/2-y,z
loop_
_atom_site_type_symbol
_atom_site_label
_atom_site_fract_x
_atom_site_fract_y
_atom_site_fract_z
Si Si1 0.679745 0.127620 0.669707
Si Si2 0.368307 0.370630 0.339000
Si Si3 0.731610 0.893375 0.830369
Si Si4 0.375872 0.536416 0.662865
Si Si5 0.404722 0.000598 0.169753
Si Si6 0.666633 0.262299 0.838563
Si Si7 0.985375 0.866034 0.160542
O O1 0.670401 0.121542 0.500000
O O2 0.775130 0.135338 0.701962
O O3 0.640602 0.060982 0.746122
O O4 0.647315 0.199532 0.733633
O O5 0.379451 0.344789 0.500000
O O6 0.382363 0.453739 0.338542
O O7 0.433342 0.338571 0.233195
O O8 0.794381 0.940547 0.742893
O O9 0.758358 0.813611 0.796701
O O10 0.643059 0.926249 0.803006
O O11 0.747172 0.900425 0.000000
O O12 0.374457 0.561290 0.500000
O O13 0.448559 0.572026 0.746139
O O14 0.500000 0.000000 0.206165
O O15 0.398398 0.987735 0.000000
O O16 0.587292 0.310711 0.841672
O O17 0.681442 0.236842 0.000000
O O18 0.002088 0.888639 0.000000
#
# Coordination Sequence:
#
# PCOD9425094 Si02
#       7
#     8   8   8   8   8   8   8
#     4  11  23  40  60  85 118 156 197 242 294 354
#     4  10  21  35  52  80 116 148 184 227 281 344
#     4   9  18  35  59  85 113 148 195 242 288 348
#     4  10  18  31  53  80 114 148 176 222 280 334
#     4  10  21  39  64  91 119 154 197 250 304 352
#     4   9  20  39  58  81 114 152 196 245 296 353
#     4  10  21  35  54  82 112 145 190 234 277 341
#
# _framework density 18.729692
#
# number of rings (size 3 to 8) (size 9 to 14) (size 15 to 20)
#    0.000    2.143    1.429    2.571    0.000    7.143 
#    2.571    0.000    0.000    0.000    0.000    0.000 
#    0.000    0.000    0.000    0.000    0.000    0.000 
#
# Total GULP energy -312196.967714 kJ/mol
# GULP energy per Si atom -5574.945852 kJ/mol
# Density = 1.868706 g / cm^3
# Si number density = 18.729692 Si / 1000 Ang^3
#
#
#
# Elastic Constant Matrix: (Units=GPa)
#
#
# Indices 1 2 3 4 5 6 
#
# 1 71.2748 2.0978 27.7770 0.0000 0.0000 0.0000
# 2 2.0978 42.7672 8.4627 0.0000 0.0000 0.0000
# 3 27.7770 8.4627 40.9760 0.0000 0.0000 0.0000
# 4 0.0000 0.0000 0.0000 16.6171 0.0000 0.0000
# 5 0.0000 0.0000 0.0000 0.0000 26.3121 0.0000
# 6 0.0000 0.0000 0.0000 0.0000 0.0000 5.9999
#
#
#
# Elastic Compliance Matrix: (Units=1/GPa)
#
#
# Indices 1 2 3 4 5 6 
#
# 1 0.019186 0.001702 -0.013357 0.000000 0.000000 0.000000
# 2 0.001702 0.024530 -0.006220 0.000000 0.000000 0.000000
# 3 -0.013357 -0.006220 0.034744 0.000000 0.000000 0.000000
# 4 0.000000 0.000000 0.000000 0.060179 0.000000 0.000000
# 5 0.000000 0.000000 0.000000 0.000000 0.038005 0.000000
# 6 0.000000 0.000000 0.000000 0.000000 0.000000 0.166669
#
#
# Mechanical properties :
#
#
# Convention : Reuss Voigt Hill
#
# Bulk Modulus (GPa) = 23.41422 25.74366 24.57894
# Shear Modulus (GPa) = 12.71297 17.56450 15.13874
#
# Velocity S-wave (km/s) = 2.60813 3.06566 2.84610
# Velocity P-wave (km/s) = 4.64737 5.12891 4.89406
#
# Compressibility (1/GPa) = 0.04270909
#
# Stress axis : x y z
#
# Youngs Moduli (GPa) = 52.12229 40.76692 28.78213
#
# Poissons Ratio (x) = -0.06938 0.38445
# Poissons Ratio (y) = -0.08871 0.17902
# Poissons Ratio (z) = 0.69621 0.25356
#
# Static dielectric constant tensor:
#      x y z
#    x 1.683410 0.000000 0.000000 
#    y 0.000000 1.658300 0.000000 
#    z 0.000000 0.000000 1.649660 
# 
# From -- ./inp_files/6058.got.cif
#   From: 2010.05.17/outbox.cif.g08.bks.cpg/sg55_4_cif.got.tgz:6058.got - 2010.06.03 13:27:54.
