data_PCOD9425815
_publ_section_title
;
Structure prediction by ZEFSAII (Michael W. Deem and Ramdas Pophale) SiO2 
 PCOD9425815
Probable space group: P B A M
;
_chemical_formula_sum "Si O2"
_cell_formula_units_Z 40
_cell_length_a 5.074755
_cell_length_b 28.744138
_cell_length_c 13.458212
_cell_angle_alpha 90.000000
_cell_angle_beta 90.000000
_cell_angle_gamma 90.000000
_cell_volume 1963.142091
_symmetry_space_group_name_H-M "P B A M"
_symmetry_group_IT_number 55
_symmetry_cell_setting 'orthorhombic'
loop_
_space_group_symop_operation_xyz
x,y,z
-x,-y,z
1/2+x,1/2-y,-z
1/2-x,1/2+y,-z
-x,-y,-z
x,y,-z
1/2-x,1/2+y,z
1/2+x,1/2-y,z
loop_
_atom_site_type_symbol
_atom_site_label
_atom_site_fract_x
_atom_site_fract_y
_atom_site_fract_z
Si Si1 0.930522 0.436335 0.613654
Si Si2 0.425709 0.451010 0.745714
Si Si3 0.479972 0.346306 0.805057
Si Si4 0.014035 0.667136 0.322982
Si Si5 0.273437 0.227756 0.500000
Si Si6 0.908789 0.215916 0.000000
O O1 0.952252 0.451404 0.500000
O O2 0.643080 0.444587 0.659105
O O3 0.148614 0.455734 0.689372
O O4 0.982096 0.381331 0.618643
O O5 0.500000 0.500000 0.797611
O O6 0.432465 0.402606 0.807595
O O7 0.272724 0.326789 0.724038
O O8 0.431416 0.317918 0.905017
O O9 0.774854 0.337878 0.765876
O O10 0.115635 0.704508 0.400423
O O11 0.457135 0.274115 0.500000
O O12 0.141782 0.254080 0.000000
#
# Coordination Sequence:
#
# PCOD9425815 Si02
#       6
#     8   8   8   8   4   4
#     4  10  19  33  54  77 117 162 199 235 276 330
#     4  10  21  35  55  85 118 155 196 238 287 350
#     4  10  23  41  63  85 119 154 188 250 303 346
#     4  10  21  39  56  81 119 159 191 232 297 350
#     4  12  24  34  54  84 113 152 201 238 282 358
#     4  12  26  44  69  94 113 144 202 254 304 364
#
# _framework density 20.375499000000001
#
# number of rings (size 3 to 8) (size 9 to 14) (size 15 to 20)
#    0.000    1.600    1.000    3.600    0.000    7.200 
#    0.000    0.500    0.000    0.000    0.000    9.800 
#    0.000    0.000    0.000    0.000    0.000    0.000 
#
# Total GULP energy -223310.701721 kJ/mol
# GULP energy per Si atom -5582.767543 kJ/mol
# Density = 2.032912 g / cm^3
# Si number density = 20.375499 Si / 1000 Ang^3
#
#
#
# Elastic Constant Matrix: (Units=GPa)
#
#
# Indices 1 2 3 4 5 6 
#
# 1 88.1513 4.0133 -6.7845 0.0000 0.0000 0.0000
# 2 4.0133 83.6094 49.8953 0.0000 0.0000 0.0000
# 3 -6.7845 49.8953 66.9855 0.0000 0.0000 0.0000
# 4 0.0000 0.0000 0.0000 180.4242 0.0000 0.0000
# 5 0.0000 0.0000 0.0000 0.0000 -3.4300 0.0000
# 6 0.0000 0.0000 0.0000 0.0000 0.0000 30.8749
#
#
#
# Elastic Compliance Matrix: (Units=1/GPa)
#
#
# Indices 1 2 3 4 5 6 
#
# 1 0.011669 -0.002278 0.002879 0.000000 0.000000 0.000000
# 2 -0.002278 0.021976 -0.016600 0.000000 0.000000 0.000000
# 3 0.002879 -0.016600 0.027585 0.000000 0.000000 0.000000
# 4 0.000000 0.000000 0.000000 0.005542 0.000000 0.000000
# 5 0.000000 0.000000 0.000000 0.000000 -0.291546 0.000000
# 6 0.000000 0.000000 0.000000 0.000000 0.000000 0.032389
#
#
# Mechanical properties :
#
#
# Convention : Reuss Voigt Hill
#
# Bulk Modulus (GPa) = 34.20927 36.99938 35.60432
# Shear Modulus (GPa) = -33.19135 54.34863 10.57864
#
# Velocity S-wave (km/s) = -4.04045 5.17024 2.28103
# Velocity P-wave (km/s) = 2.22285 7.33758 4.94464
#
# Compressibility (1/GPa) = 0.02923185
#
# Stress axis : x y z
#
# Youngs Moduli (GPa) = 85.69415 45.50409 36.25165
#
# Poissons Ratio (x) = 0.10366 -0.10436
# Poissons Ratio (y) = 0.19522 0.60178
# Poissons Ratio (z) = -0.24670 0.75537
#
# Static dielectric constant tensor:
#      x y z
#    x 1.712490 0.000000 0.000000 
#    y 0.000000 1.830730 0.000000 
#    z 0.000000 0.000000 1.668420 
# 
# From -- ./inp_files/11350.got.cif
#   From: 2010.05.17/outbox.cif.g08.bks.cpg/sg55_6_cif.got.tgz:11350.got - 2010.06.03 13:27:54.
