data_PCOD9425135
_publ_section_title
;
Structure prediction by ZEFSAII (Michael W. Deem and Ramdas Pophale) SiO2 
 PCOD9425135
Probable space group: P B A M
;
_chemical_formula_sum "Si O2"
_cell_formula_units_Z 40
_cell_length_a 31.347412
_cell_length_b 5.241629
_cell_length_c 18.784279
_cell_angle_alpha 90.000000
_cell_angle_beta 90.000000
_cell_angle_gamma 90.000000
_cell_volume 3086.473131
_symmetry_space_group_name_H-M "P B A M"
_symmetry_group_IT_number 55
_symmetry_cell_setting 'orthorhombic'
loop_
_space_group_symop_operation_xyz
x,y,z
-x,-y,z
1/2+x,1/2-y,-z
1/2-x,1/2+y,-z
-x,-y,-z
x,y,-z
1/2-x,1/2+y,z
1/2+x,1/2-y,z
loop_
_atom_site_type_symbol
_atom_site_label
_atom_site_fract_x
_atom_site_fract_y
_atom_site_fract_z
Si Si1 0.529018 0.749952 0.000000
Si Si2 0.778777 0.732163 0.000000
Si Si3 0.529820 0.749992 0.576381
Si Si4 0.092728 0.743176 0.866810
Si Si5 0.862245 0.758278 0.081859
Si Si6 0.530210 0.749964 0.734344
O O1 0.500000 0.500000 0.000000
O O2 0.558233 0.750775 0.930250
O O3 0.500000 0.000000 0.000000
O O4 0.811675 0.746336 0.066559
O O5 0.752816 0.470665 0.000000
O O6 0.500000 0.500000 0.575912
O O7 0.553845 0.750043 0.500000
O O8 0.550353 0.749856 0.654601
O O9 0.500000 0.000000 0.575936
O O10 0.120008 0.487658 0.878168
O O11 0.066511 0.749174 0.793841
O O12 0.122563 0.988109 0.879010
O O13 0.880356 0.759844 0.000000
O O14 0.500000 0.500000 0.741901
O O15 0.500000 0.000000 0.741819
#
# Coordination Sequence:
#
# PCOD9425135 Si02
#       6
#     4   4   8   8   8   8
#     4  12  20  26  36  48  66 100 140 172 192 204
#     4  10  18  32  50  66  76  90 128 168 192 236
#     4   8  14  25  40  55  72  94 128 174 215 240
#     4  12  19  32  39  54  80 105 136 165 199 235
#     4  10  20  32  45  58  76 103 125 159 198 244
#     4  10  19  29  40  57  77 106 144 179 203 228
#
# _framework density 12.959775
#
# number of rings (size 3 to 8) (size 9 to 14) (size 15 to 20)
#    0.600    1.200    2.000    4.800    0.000    0.000 
#    0.000    0.000    0.000    0.000    0.000    0.000 
#    0.000    0.000    0.000    0.000    0.000   20.000 
#
# Total GULP energy -222690.667856 kJ/mol
# GULP energy per Si atom -5567.266696 kJ/mol
# Density = 1.293028 g / cm^3
# Si number density = 12.959775 Si / 1000 Ang^3
#
#
#
# Elastic Constant Matrix: (Units=GPa)
#
#
# Indices 1 2 3 4 5 6 
#
# 1 25.0895 -6.8147 13.4743 0.0000 0.0000 0.0000
# 2 -6.8147 74.3030 -3.5106 0.0000 0.0000 0.0000
# 3 13.4743 -3.5106 108.1273 0.0000 0.0000 0.0000
# 4 0.0000 0.0000 0.0000 13.9208 0.0000 0.0000
# 5 0.0000 0.0000 0.0000 0.0000 1.1909 0.0000
# 6 0.0000 0.0000 0.0000 0.0000 0.0000 21.0988
#
#
#
# Elastic Compliance Matrix: (Units=1/GPa)
#
#
# Indices 1 2 3 4 5 6 
#
# 1 0.043740 0.003760 -0.005329 0.000000 0.000000 0.000000
# 2 0.003760 0.013802 -0.000020 0.000000 0.000000 0.000000
# 3 -0.005329 -0.000020 0.009912 0.000000 0.000000 0.000000
# 4 0.000000 0.000000 0.000000 0.071835 0.000000 0.000000
# 5 0.000000 0.000000 0.000000 0.000000 0.839716 0.000000
# 6 0.000000 0.000000 0.000000 0.000000 0.000000 0.047396
#
#
# Mechanical properties :
#
#
# Convention : Reuss Voigt Hill
#
# Bulk Modulus (GPa) = 15.55793 23.75754 19.65774
# Shear Modulus (GPa) = 4.75735 20.86681 12.81208
#
# Velocity S-wave (km/s) = 1.91803 4.01699 3.14762
# Velocity P-wave (km/s) = 4.11533 6.31557 5.33022
#
# Compressibility (1/GPa) = 0.06427588
#
# Stress axis : x y z
#
# Youngs Moduli (GPa) = 22.86222 72.45185 100.89055
#
# Poissons Ratio (x) = -0.27241 0.53761
# Poissons Ratio (y) = -0.08596 0.00206
# Poissons Ratio (z) = 0.12182 0.00148
#
# Static dielectric constant tensor:
#      x y z
#    x 1.389870 0.000000 0.000000 
#    y 0.000000 1.431130 0.000000 
#    z 0.000000 0.000000 1.449630 
# 
# From -- ./inp_files/22054.got.cif
#   From: 2010.05.17/outbox.cif.g08.bks.cpg/sg55_12_cif.got.tgz:22054.got - 2010.06.03 13:27:54.
