data_PCOD9425764
_publ_section_title
;
Structure prediction by ZEFSAII (Michael W. Deem and Ramdas Pophale) SiO2 
 PCOD9425764
Probable space group: P B A M
;
_chemical_formula_sum "Si O2"
_cell_formula_units_Z 64
_cell_length_a 30.757402
_cell_length_b 14.855519
_cell_length_c 8.761502
_cell_angle_alpha 90.000000
_cell_angle_beta 90.000000
_cell_angle_gamma 90.000000
_cell_volume 4003.280697
_symmetry_space_group_name_H-M "P B A M"
_symmetry_group_IT_number 55
_symmetry_cell_setting 'orthorhombic'
loop_
_space_group_symop_operation_xyz
x,y,z
-x,-y,z
1/2+x,1/2-y,-z
1/2-x,1/2+y,-z
-x,-y,-z
x,y,-z
1/2-x,1/2+y,z
1/2+x,1/2-y,z
loop_
_atom_site_type_symbol
_atom_site_label
_atom_site_fract_x
_atom_site_fract_y
_atom_site_fract_z
Si Si1 0.289142 0.786640 0.183770
Si Si2 0.451667 0.600325 0.817733
Si Si3 0.632863 0.326197 0.679390
Si Si4 0.793761 0.320393 0.681081
Si Si5 0.826315 0.996759 0.174233
Si Si6 0.136195 0.825491 0.318040
Si Si7 0.954993 0.098889 0.317531
Si Si8 0.777498 0.507549 0.176676
O O1 0.333386 0.742983 0.245607
O O2 0.247478 0.730097 0.242480
O O3 0.286216 0.891142 0.232859
O O4 0.288418 0.783160 0.000000
O O5 0.414254 0.666225 0.757232
O O6 0.443450 0.499764 0.750195
O O7 0.499414 0.626090 0.757083
O O8 0.451524 0.595498 0.000000
O O9 0.628795 0.310243 0.500000
O O10 0.654255 0.423543 0.712320
O O11 0.786722 0.316991 0.500000
O O12 0.837672 0.265169 0.717432
O O13 0.796792 0.423361 0.733675
O O14 0.774450 0.994169 0.179859
O O15 0.841724 0.094823 0.223249
O O16 0.840255 0.975910 0.000000
O O17 0.141787 0.843084 0.500000
O O18 0.084820 0.833465 0.287195
O O19 0.960315 0.089699 0.500000
O O20 0.791601 0.502626 0.000000
#
# Coordination Sequence:
#
# PCOD9425764 Si02
#       8
#     8   8   8   8   8   8   8   8
#     4  11  22  37  53  73 101 136 177 217 257 303
#     4  11  21  33  50  75 104 135 173 213 256 311
#     4  12  23  35  51  75 103 138 175 213 260 311
#     4  11  22  34  52  77 104 137 175 214 255 304
#     4  11  20  31  50  74 103 139 176 214 254 299
#     4  10  21  34  50  75 106 140 177 212 254 304
#     4  10  19  33  51  73 105 140 172 212 258 305
#     4  10  22  37  52  72 103 140 176 218 260 299
#
# _framework density 15.986889
#
# number of rings (size 3 to 8) (size 9 to 14) (size 15 to 20)
#    0.000    1.250    3.750    4.500    0.000    2.500 
#    0.000    0.000    0.000    0.000    0.000    0.875 
#    0.000    7.000    0.000    0.000    0.000    0.000 
#
# Total GULP energy -357344.318229 kJ/mol
# GULP energy per Si atom -5583.504972 kJ/mol
# Density = 1.595050 g / cm^3
# Si number density = 15.986889 Si / 1000 Ang^3
#
#
#
# Elastic Constant Matrix: (Units=GPa)
#
#
# Indices 1 2 3 4 5 6 
#
# 1 104.9341 40.3333 41.7234 0.0000 0.0000 0.0000
# 2 40.3333 85.1950 33.8619 0.0000 0.0000 0.0000
# 3 41.7234 33.8619 75.5757 0.0000 0.0000 0.0000
# 4 0.0000 0.0000 0.0000 19.8691 0.0000 0.0000
# 5 0.0000 0.0000 0.0000 0.0000 3.7509 0.0000
# 6 0.0000 0.0000 0.0000 0.0000 0.0000 23.0095
#
#
#
# Elastic Compliance Matrix: (Units=1/GPa)
#
#
# Indices 1 2 3 4 5 6 
#
# 1 0.013296 -0.004109 -0.005499 0.000000 0.000000 0.000000
# 2 -0.004109 0.015551 -0.004699 0.000000 0.000000 0.000000
# 3 -0.005499 -0.004699 0.018373 0.000000 0.000000 0.000000
# 4 0.000000 0.000000 0.000000 0.050329 0.000000 0.000000
# 5 0.000000 0.000000 0.000000 0.000000 0.266605 0.000000
# 6 0.000000 0.000000 0.000000 0.000000 0.000000 0.043460
#
#
# Mechanical properties :
#
#
# Convention : Reuss Voigt Hill
#
# Bulk Modulus (GPa) = 53.74839 55.28248 54.51543
# Shear Modulus (GPa) = 11.30121 19.31164 15.30643
#
# Velocity S-wave (km/s) = 2.66165 3.47935 3.09760
# Velocity P-wave (km/s) = 6.56804 7.12714 6.85329
#
# Compressibility (1/GPa) = 0.01860521
#
# Stress axis : x y z
#
# Youngs Moduli (GPa) = 75.21258 64.30577 54.42690
#
# Poissons Ratio (x) = 0.26421 0.29931
# Poissons Ratio (y) = 0.30903 0.25576
# Poissons Ratio (z) = 0.41361 0.30219
#
# Static dielectric constant tensor:
#      x y z
#    x 1.544070 0.000000 0.000000 
#    y 0.000000 1.520040 0.000000 
#    z 0.000000 0.000000 1.540840 
# 
# From -- ./inp_files/6949.got.cif
#   From: 2010.05.17/outbox.cif.g08.bks.cpg/sg55_4_cif.got.tgz:6949.got - 2010.06.03 13:27:54.
