data_PCOD9425488
_publ_section_title
;
Structure prediction by ZEFSAII (Michael W. Deem and Ramdas Pophale) SiO2 
 PCOD9425488
Probable space group: P B A M
;
_chemical_formula_sum "Si O2"
_cell_formula_units_Z 64
_cell_length_a 14.520713
_cell_length_b 24.943381
_cell_length_c 7.349050
_cell_angle_alpha 90.000000
_cell_angle_beta 90.000000
_cell_angle_gamma 90.000000
_cell_volume 2661.794138
_symmetry_space_group_name_H-M "P B A M"
_symmetry_group_IT_number 55
_symmetry_cell_setting 'orthorhombic'
loop_
_space_group_symop_operation_xyz
x,y,z
-x,-y,z
1/2+x,1/2-y,-z
1/2-x,1/2+y,-z
-x,-y,-z
x,y,-z
1/2-x,1/2+y,z
1/2+x,1/2-y,z
loop_
_atom_site_type_symbol
_atom_site_label
_atom_site_fract_x
_atom_site_fract_y
_atom_site_fract_z
Si Si1 0.846735 0.914565 0.719202
Si Si2 0.642436 0.168979 0.222392
Si Si3 0.442769 0.178181 0.222683
Si Si4 0.825808 0.226388 0.209788
Si Si5 0.363962 0.466326 0.279684
Si Si6 0.866969 0.432143 0.787474
Si Si7 0.976950 0.138225 0.279909
Si Si8 0.650902 0.048826 0.208285
O O1 0.845179 0.913168 0.500000
O O2 0.740785 0.915432 0.777519
O O3 0.916800 0.868159 0.779681
O O4 0.887874 0.972880 0.772551
O O5 0.545842 0.196344 0.271064
O O6 0.735101 0.197919 0.287958
O O7 0.634659 0.107460 0.287603
O O8 0.648331 0.166304 0.000000
O O9 0.364223 0.218427 0.289235
O O10 0.423752 0.117763 0.285888
O O11 0.439154 0.177821 0.000000
O O12 0.912485 0.185942 0.213853
O O13 0.802563 0.237629 0.000000
O O14 0.361311 0.465513 0.500000
O O15 0.427518 0.417271 0.224176
O O16 0.261512 0.456336 0.208590
O O17 0.880783 0.491911 0.709587
O O18 0.889670 0.436903 0.000000
O O19 0.975826 0.141104 0.500000
O O20 0.616699 0.050712 0.000000
#
# Coordination Sequence:
#
# PCOD9425488 Si02
#       8
#     8   8   8   8   8   8   8   8
#     4   9  18  31  48  72 104 139 167 198 250 305
#     4   9  17  31  51  75 101 129 163 206 254 299
#     4   9  19  34  52  75 101 132 170 207 250 306
#     4  10  20  34  53  74  99 131 169 213 253 296
#     4   9  16  28  47  71 101 135 169 201 240 300
#     4   9  18  32  50  75 103 132 170 213 252 297
#     4  10  19  31  49  73 101 134 172 208 246 297
#     4   9  16  28  49  75 103 130 162 209 258 294
#
# _framework density 24.043935000000001
#
# number of rings (size 3 to 8) (size 9 to 14) (size 15 to 20)
#    0.000    2.750    1.250    0.375    0.000    3.500 
#    0.000    5.625    0.000    6.750    0.000    3.500 
#    0.000    0.000    0.000    0.000    0.000    0.000 
#
# Total GULP energy -357301.585167 kJ/mol
# GULP energy per Si atom -5582.837268 kJ/mol
# Density = 2.398921 g / cm^3
# Si number density = 24.043935 Si / 1000 Ang^3
#
#
#
# Elastic Constant Matrix: (Units=GPa)
#
#
# Indices 1 2 3 4 5 6 
#
# 1 111.8747 65.8079 -1.4565 0.0000 0.0000 0.0000
# 2 65.8079 103.2521 6.7415 0.0000 0.0000 0.0000
# 3 -1.4565 6.7415 89.8157 0.0000 0.0000 0.0000
# 4 0.0000 0.0000 0.0000 -5.0430 0.0000 0.0000
# 5 0.0000 0.0000 0.0000 0.0000 -0.1015 0.0000
# 6 0.0000 0.0000 0.0000 0.0000 0.0000 28.9245
#
#
#
# Elastic Compliance Matrix: (Units=1/GPa)
#
#
# Indices 1 2 3 4 5 6 
#
# 1 0.014376 -0.009223 0.000925 0.000000 0.000000 0.000000
# 2 -0.009223 0.015650 -0.001324 0.000000 0.000000 0.000000
# 3 0.000925 -0.001324 0.011248 0.000000 0.000000 0.000000
# 4 0.000000 0.000000 0.000000 -0.198296 0.000000 0.000000
# 5 0.000000 0.000000 0.000000 0.000000 -9.854543 0.000000
# 6 0.000000 0.000000 0.000000 0.000000 0.000000 0.034573
#
#
# Mechanical properties :
#
#
# Convention : Reuss Voigt Hill
#
# Bulk Modulus (GPa) = 45.39178 49.68093 47.53635
# Shear Modulus (GPa) = -0.50249 20.34600 9.92175
#
# Velocity S-wave (km/s) = -0.45765 2.91211 2.03359
# Velocity P-wave (km/s) = 4.31745 5.65814 5.03264
#
# Compressibility (1/GPa) = 0.02203042
#
# Stress axis : x y z
#
# Youngs Moduli (GPa) = 69.56160 63.89908 88.90223
#
# Poissons Ratio (x) = 0.58933 -0.08227
# Poissons Ratio (y) = 0.64155 0.11773
# Poissons Ratio (z) = -0.06437 0.08462
#
# Static dielectric constant tensor:
#      x y z
#    x 1.894060 0.000000 0.000000 
#    y 0.000000 1.912620 0.000000 
#    z 0.000000 0.000000 1.931920 
# 
# From -- ./inp_files/6487.got.cif
#   From: 2010.05.17/outbox.cif.g08.bks.cpg/sg55_4_cif.got.tgz:6487.got - 2010.06.03 13:27:54.
