data_PCOD9425410
_publ_section_title
;
Structure prediction by ZEFSAII (Michael W. Deem and Ramdas Pophale) SiO2 
 PCOD9425410
Probable space group: P B A M
;
_chemical_formula_sum "Si O2"
_cell_formula_units_Z 56
_cell_length_a 28.891114
_cell_length_b 12.530153
_cell_length_c 7.427839
_cell_angle_alpha 90.000000
_cell_angle_beta 90.000000
_cell_angle_gamma 90.000000
_cell_volume 2688.952581
_symmetry_space_group_name_H-M "P B A M"
_symmetry_group_IT_number 55
_symmetry_cell_setting 'orthorhombic'
loop_
_space_group_symop_operation_xyz
x,y,z
-x,-y,z
1/2+x,1/2-y,-z
1/2-x,1/2+y,-z
-x,-y,-z
x,y,-z
1/2-x,1/2+y,z
1/2+x,1/2-y,z
loop_
_atom_site_type_symbol
_atom_site_label
_atom_site_fract_x
_atom_site_fract_y
_atom_site_fract_z
Si Si1 0.837861 0.856291 0.280054
Si Si2 0.332259 0.400339 0.719867
Si Si3 0.847398 0.513317 0.280196
Si Si4 0.917440 0.697262 0.282978
Si Si5 0.386306 0.203979 0.290857
Si Si6 0.731529 0.173374 0.719073
Si Si7 0.485216 0.115110 0.792914
O O1 0.837319 0.855964 0.500000
O O2 0.884983 0.795347 0.225772
O O3 0.794832 0.781186 0.223747
O O4 0.835468 0.977728 0.217808
O O5 0.332325 0.407835 0.500000
O O6 0.372789 0.320134 0.780205
O O7 0.283859 0.346166 0.775064
O O8 0.847203 0.511525 0.500000
O O9 0.889982 0.590054 0.227602
O O10 0.856766 0.394586 0.213443
O O11 0.800774 0.573660 0.225722
O O12 0.918779 0.698214 0.500000
O O13 0.969746 0.689587 0.218461
O O14 0.372876 0.208265 0.500000
O O15 0.439731 0.169992 0.284674
O O16 0.731539 0.175265 0.500000
O O17 0.500000 0.000000 0.711905
O O18 0.473289 0.094763 0.000000
#
# Coordination Sequence:
#
# PCOD9425410 Si02
#       7
#     8   8   8   8   8   8   8
#     4   8  15  27  42  66  99 132 165 195 234 284
#     4   9  17  26  41  68 103 136 163 195 235 281
#     4   8  14  24  41  67  97 125 155 188 233 284
#     4   9  16  30  51  70  93 128 160 197 240 288
#     4  10  19  30  47  73 102 130 161 197 239 287
#     4   8  14  23  39  65 101 136 157 189 238 281
#     4  11  22  34  50  73  97 122 156 205 257 295
#
# _framework density 20.825953999999999
#
# number of rings (size 3 to 8) (size 9 to 14) (size 15 to 20)
#    0.000    3.000    1.429    2.143    2.000    0.571 
#    0.000    0.714    0.000    5.143    0.000    5.000 
#    0.000    0.000    0.000    0.000    0.000    0.000 
#
# Total GULP energy -312405.015347 kJ/mol
# GULP energy per Si atom -5578.660988 kJ/mol
# Density = 2.077855 g / cm^3
# Si number density = 20.825954 Si / 1000 Ang^3
#
#
#
# Elastic Constant Matrix: (Units=GPa)
#
#
# Indices 1 2 3 4 5 6 
#
# 1 106.5263 81.6802 -7.0466 0.0000 0.0000 0.0000
# 2 81.6802 188.9681 6.1406 0.0000 0.0000 0.0000
# 3 -7.0466 6.1406 62.2429 0.0000 0.0000 0.0000
# 4 0.0000 0.0000 0.0000 -8.0774 0.0000 0.0000
# 5 0.0000 0.0000 0.0000 0.0000 -113.1228 0.0000
# 6 0.0000 0.0000 0.0000 0.0000 0.0000 21.0954
#
#
#
# Elastic Compliance Matrix: (Units=1/GPa)
#
#
# Indices 1 2 3 4 5 6 
#
# 1 0.014346 -0.006274 0.002243 0.000000 0.000000 0.000000
# 2 -0.006274 0.008053 -0.001505 0.000000 0.000000 0.000000
# 3 0.002243 -0.001505 0.016468 0.000000 0.000000 0.000000
# 4 0.000000 0.000000 0.000000 -0.123802 0.000000 0.000000
# 5 0.000000 0.000000 0.000000 0.000000 -0.008840 0.000000
# 6 0.000000 0.000000 0.000000 0.000000 0.000000 0.047404
#
#
# Mechanical properties :
#
#
# Convention : Reuss Voigt Hill
#
# Bulk Modulus (GPa) = 35.97594 57.69841 46.83717
# Shear Modulus (GPa) = -192.05770 -1.55674 -96.80722
#
# Velocity S-wave (km/s) = -9.61356 -0.86552 -6.82531
# Velocity P-wave (km/s) = 10.29152 5.17362 6.29083
#
# Compressibility (1/GPa) = 0.02779635
#
# Stress axis : x y z
#
# Youngs Moduli (GPa) = 69.70387 124.18196 60.72203
#
# Poissons Ratio (x) = 0.77912 -0.13621
# Poissons Ratio (y) = 0.43732 0.09137
# Poissons Ratio (z) = -0.15636 0.18686
#
# Static dielectric constant tensor:
#      x y z
#    x 1.716630 0.000000 0.000000 
#    y 0.000000 1.745340 0.000000 
#    z 0.000000 0.000000 1.796780 
# 
# From -- ./inp_files/16028.got.cif
#   From: 2010.05.17/outbox.cif.g08.bks.cpg/sg55_9_cif.got.tgz:16028.got - 2010.06.03 13:27:54.
