data_PCOD9425157
_publ_section_title
;
Structure prediction by ZEFSAII (Michael W. Deem and Ramdas Pophale) SiO2 
 PCOD9425157
Probable space group: P B A M
;
_chemical_formula_sum "Si O2"
_cell_formula_units_Z 64
_cell_length_a 19.450908
_cell_length_b 23.565394
_cell_length_c 8.942920
_cell_angle_alpha 90.000000
_cell_angle_beta 90.000000
_cell_angle_gamma 90.000000
_cell_volume 4099.151133
_symmetry_space_group_name_H-M "P B A M"
_symmetry_group_IT_number 55
_symmetry_cell_setting 'orthorhombic'
loop_
_space_group_symop_operation_xyz
x,y,z
-x,-y,z
1/2+x,1/2-y,-z
1/2-x,1/2+y,-z
-x,-y,-z
x,y,-z
1/2-x,1/2+y,z
1/2+x,1/2-y,z
loop_
_atom_site_type_symbol
_atom_site_label
_atom_site_fract_x
_atom_site_fract_y
_atom_site_fract_z
Si Si1 0.502162 0.249245 0.820342
Si Si2 0.642616 0.937470 0.678273
Si Si3 0.993033 0.384413 0.821334
Si Si4 0.848214 0.224163 0.821590
Si Si5 0.356405 0.722212 0.322025
Si Si6 0.732692 0.841061 0.178089
Si Si7 0.358344 0.939386 0.178406
Si Si8 0.274685 0.838658 0.677710
O O1 0.499699 0.182103 0.783299
O O2 0.428289 0.275594 0.780715
O O3 0.566615 0.277463 0.739780
O O4 0.510860 0.253180 0.000000
O O5 0.644636 0.938088 0.500000
O O6 0.569625 0.912971 0.735063
O O7 0.700474 0.895465 0.743008
O O8 0.651050 0.000349 0.743418
O O9 0.064853 0.415684 0.790441
O O10 0.979081 0.388169 0.000000
O O11 0.817644 0.287165 0.792518
O O12 0.800137 0.180129 0.735470
O O13 0.842041 0.214680 0.000000
O O14 0.354617 0.714057 0.500000
O O15 0.306378 0.677461 0.242157
O O16 0.323855 0.784464 0.289176
O O17 0.735556 0.849247 0.000000
O O18 0.305111 0.892980 0.239464
O O19 0.351760 0.945181 0.000000
O O20 0.274418 0.847515 0.500000
#
# Coordination Sequence:
#
# PCOD9425157 Si02
#       8
#     8   8   8   8   8   8   8   8
#     4  10  18  32  52  76 102 136 176 210 248 301
#     4  12  24  35  50  73 104 136 172 217 263 302
#     4  10  20  35  51  71 100 139 182 214 243 294
#     4   9  18  32  52  73  98 131 171 211 251 301
#     4  10  20  32  49  76 106 133 164 209 264 309
#     4  10  19  35  54  72  97 134 176 213 250 300
#     4  11  22  36  54  71  97 138 182 215 248 298
#     4  10  20  33  49  73 103 131 166 211 261 305
#
# _framework density 15.612989000000001
#
# number of rings (size 3 to 8) (size 9 to 14) (size 15 to 20)
#    0.000    1.750    2.500    3.000    0.000    5.000 
#    0.000    0.000    0.000    0.000    0.000    0.875 
#    0.000    7.000    0.000    0.000    0.000    0.000 
#
# Total GULP energy -357414.416546 kJ/mol
# GULP energy per Si atom -5584.600259 kJ/mol
# Density = 1.557745 g / cm^3
# Si number density = 15.612989 Si / 1000 Ang^3
#
#
#
# Elastic Constant Matrix: (Units=GPa)
#
#
# Indices 1 2 3 4 5 6 
#
# 1 129.1847 63.0533 62.8070 0.0000 0.0000 0.0000
# 2 63.0533 93.8000 58.3164 0.0000 0.0000 0.0000
# 3 62.8070 58.3164 66.6350 0.0000 0.0000 0.0000
# 4 0.0000 0.0000 0.0000 22.9483 0.0000 0.0000
# 5 0.0000 0.0000 0.0000 0.0000 5.2002 0.0000
# 6 0.0000 0.0000 0.0000 0.0000 0.0000 15.4676
#
#
#
# Elastic Compliance Matrix: (Units=1/GPa)
#
#
# Indices 1 2 3 4 5 6 
#
# 1 0.014608 -0.002762 -0.011351 0.000000 0.000000 0.000000
# 2 -0.002762 0.023907 -0.018318 0.000000 0.000000 0.000000
# 3 -0.011351 -0.018318 0.041738 0.000000 0.000000 0.000000
# 4 0.000000 0.000000 0.000000 0.043576 0.000000 0.000000
# 5 0.000000 0.000000 0.000000 0.000000 0.192301 0.000000
# 6 0.000000 0.000000 0.000000 0.000000 0.000000 0.064651
#
#
# Mechanical properties :
#
#
# Convention : Reuss Voigt Hill
#
# Bulk Modulus (GPa) = 64.98448 73.10811 69.04629
# Shear Modulus (GPa) = 11.09204 15.75277 13.42241
#
# Velocity S-wave (km/s) = 2.66829 3.17985 2.93524
# Velocity P-wave (km/s) = 7.15580 7.77231 7.47042
#
# Compressibility (1/GPa) = 0.01538829
#
# Stress axis : x y z
#
# Youngs Moduli (GPa) = 68.45650 41.82928 23.95917
#
# Poissons Ratio (x) = 0.11555 0.27196
# Poissons Ratio (y) = 0.18911 0.43890
# Poissons Ratio (z) = 0.77705 0.76625
#
# Static dielectric constant tensor:
#      x y z
#    x 1.508200 0.000000 0.000000 
#    y 0.000000 1.493980 0.000000 
#    z 0.000000 0.000000 1.516540 
# 
# From -- ./inp_files/7947.got.cif
#   From: 2010.05.17/outbox.cif.g08.bks.cpg/sg55_4_cif.got.tgz:7947.got - 2010.06.03 13:27:54.
