data_PCOD9425191
_publ_section_title
;
Structure prediction by ZEFSAII (Michael W. Deem and Ramdas Pophale) SiO2 
 PCOD9425191
Probable space group: P B A M
;
_chemical_formula_sum "Si O2"
_cell_formula_units_Z 48
_cell_length_a 14.469352
_cell_length_b 13.758602
_cell_length_c 12.185913
_cell_angle_alpha 90.000000
_cell_angle_beta 90.000000
_cell_angle_gamma 90.000000
_cell_volume 2425.947863
_symmetry_space_group_name_H-M "P B A M"
_symmetry_group_IT_number 55
_symmetry_cell_setting 'orthorhombic'
loop_
_space_group_symop_operation_xyz
x,y,z
-x,-y,z
1/2+x,1/2-y,-z
1/2-x,1/2+y,-z
-x,-y,-z
x,y,-z
1/2-x,1/2+y,z
1/2+x,1/2-y,z
loop_
_atom_site_type_symbol
_atom_site_label
_atom_site_fract_x
_atom_site_fract_y
_atom_site_fract_z
Si Si1 0.638719 0.780635 0.373884
Si Si2 0.359804 0.983409 0.124413
Si Si3 0.791794 0.902347 0.749489
Si Si4 0.495606 0.149525 0.802943
Si Si5 0.910792 0.058437 0.328609
Si Si6 0.982623 0.862800 0.126308
O O1 0.649327 0.809712 0.500000
O O2 0.727014 0.819456 0.303803
O O3 0.550540 0.831031 0.315004
O O4 0.618351 0.664703 0.370083
O O5 0.267294 0.031942 0.167542
O O6 0.432491 0.071530 0.134973
O O7 0.402472 0.896711 0.197180
O O8 0.352251 0.949011 0.000000
O O9 0.883856 0.866717 0.811343
O O10 0.828852 0.981161 0.662347
O O11 0.490923 0.249973 0.866733
O O12 0.942140 0.081145 0.201533
O O13 0.000000 0.000000 0.374367
O O14 0.977473 0.893393 0.000000
#
# Coordination Sequence:
#
# PCOD9425191 Si02
#       6
#     8   8   8   8   8   8
#     4  10  22  41  61  82 113 151 198 251 296 335
#     4  10  18  32  55  82 117 155 183 227 290 347
#     4  10  22  35  56  88 122 147 192 244 282 348
#     4   9  19  35  54  80 111 148 196 236 277 345
#     4   9  21  40  61  86 120 154 196 242 287 356
#     4  10  19  35  59  87 121 158 189 228 287 352
#
# _framework density 19.786080999999999
#
# number of rings (size 3 to 8) (size 9 to 14) (size 15 to 20)
#    0.000    2.333    0.000    2.500    2.333    4.667 
#    0.000   14.167    0.000    0.000    0.000    0.000 
#    0.000    0.000    0.000    0.000    0.000    0.000 
#
# Total GULP energy -267380.538761 kJ/mol
# GULP energy per Si atom -5570.427891 kJ/mol
# Density = 1.974105 g / cm^3
# Si number density = 19.786081 Si / 1000 Ang^3
#
#
#
# Elastic Constant Matrix: (Units=GPa)
#
#
# Indices 1 2 3 4 5 6 
#
# 1 69.0495 28.9320 21.2110 0.0000 0.0000 0.0000
# 2 28.9320 108.0713 12.5616 0.0000 0.0000 0.0000
# 3 21.2110 12.5616 105.1277 0.0000 0.0000 0.0000
# 4 0.0000 0.0000 0.0000 2.3933 0.0000 0.0000
# 5 0.0000 0.0000 0.0000 0.0000 -2.0646 0.0000
# 6 0.0000 0.0000 0.0000 0.0000 0.0000 24.5297
#
#
#
# Elastic Compliance Matrix: (Units=1/GPa)
#
#
# Indices 1 2 3 4 5 6 
#
# 1 0.017173 -0.004254 -0.002957 0.000000 0.000000 0.000000
# 2 -0.004254 0.010437 -0.000389 0.000000 0.000000 0.000000
# 3 -0.002957 -0.000389 0.010155 0.000000 0.000000 0.000000
# 4 0.000000 0.000000 0.000000 0.417838 0.000000 0.000000
# 5 0.000000 0.000000 0.000000 0.000000 -0.484348 0.000000
# 6 0.000000 0.000000 0.000000 0.000000 0.000000 0.040767
#
#
# Mechanical properties :
#
#
# Convention : Reuss Voigt Hill
#
# Bulk Modulus (GPa) = 44.31276 45.29531 44.80403
# Shear Modulus (GPa) = 143.91530 19.60793 81.76162
#
# Velocity S-wave (km/s) = 8.53777 3.15142 6.43525
# Velocity P-wave (km/s) = 10.93782 6.01533 8.82667
#
# Compressibility (1/GPa) = 0.02256686
#
# Stress axis : x y z
#
# Youngs Moduli (GPa) = 58.23117 95.81179 98.47133
#
# Poissons Ratio (x) = 0.40756 0.29114
# Poissons Ratio (y) = 0.24770 0.03829
# Poissons Ratio (z) = 0.17217 0.03726
#
# Static dielectric constant tensor:
#      x y z
#    x 1.730570 0.000000 0.000000 
#    y 0.000000 1.722440 0.000000 
#    z 0.000000 0.000000 1.699340 
# 
# From -- ./inp_files/14142.got.cif
#   From: 2010.05.17/outbox.cif.g08.bks.cpg/sg55_8_cif.got.tgz:14142.got - 2010.06.03 13:27:54.
