data_PCOD9425637
_publ_section_title
;
Structure prediction by ZEFSAII (Michael W. Deem and Ramdas Pophale) SiO2 
 PCOD9425637
Probable space group: P B A M
;
_chemical_formula_sum "Si O2"
_cell_formula_units_Z 64
_cell_length_a 24.099758
_cell_length_b 11.522900
_cell_length_c 13.008925
_cell_angle_alpha 90.000000
_cell_angle_beta 90.000000
_cell_angle_gamma 90.000000
_cell_volume 3612.566783
_symmetry_space_group_name_H-M "P B A M"
_symmetry_group_IT_number 55
_symmetry_cell_setting 'orthorhombic'
loop_
_space_group_symop_operation_xyz
x,y,z
-x,-y,z
1/2+x,1/2-y,-z
1/2-x,1/2+y,-z
-x,-y,-z
x,y,-z
1/2-x,1/2+y,z
1/2+x,1/2-y,z
loop_
_atom_site_type_symbol
_atom_site_label
_atom_site_fract_x
_atom_site_fract_y
_atom_site_fract_z
Si Si1 0.681197 0.156481 0.770232
Si Si2 0.349720 0.396942 0.383204
Si Si3 0.907798 0.800944 0.120936
Si Si4 0.061474 0.966662 0.773066
Si Si5 0.531360 0.774415 0.123107
Si Si6 0.771135 0.492502 0.615238
Si Si7 0.705417 0.781018 0.233359
Si Si8 0.625961 0.936586 0.880829
O O1 0.639107 0.258935 0.799587
O O2 0.692921 0.102021 0.657329
O O3 0.742638 0.202043 0.800872
O O4 0.652900 0.048794 0.829087
O O5 0.365141 0.365643 0.500000
O O6 0.397125 0.464376 0.322398
O O7 0.292645 0.468573 0.387869
O O8 0.334014 0.289387 0.310571
O O9 0.965117 0.730056 0.140703
O O10 0.920666 0.935495 0.144864
O O11 0.892689 0.785938 0.000000
O O12 0.056664 0.840437 0.824945
O O13 0.000000 0.000000 0.737779
O O14 0.566564 0.887024 0.157432
O O15 0.538675 0.765140 0.000000
O O16 0.788335 0.458275 0.500000
O O17 0.774499 0.389227 0.697294
O O18 0.669508 0.832899 0.140958
O O19 0.620030 0.962484 0.000000
#
# Coordination Sequence:
#
# PCOD9425637 Si02
#       8
#     8   8   8   8   8   8   8   8
#     4  10  21  34  51  81 112 135 171 220 272 321
#     4  10  19  32  52  76 101 132 173 221 273 322
#     4  10  20  34  54  78 108 146 182 221 268 323
#     4  10  19  33  53  78 108 138 182 230 274 316
#     4   9  18  34  55  77 102 142 191 226 261 313
#     4   9  19  35  56  78 101 136 179 220 263 317
#     4  10  19  35  53  74 105 140 175 213 263 324
#     4  10  20  34  53  76 106 142 178 219 262 319
#
# _framework density 17.715934000000001
#
# number of rings (size 3 to 8) (size 9 to 14) (size 15 to 20)
#    0.000    2.250    1.250    1.875    0.000    3.750 
#    0.000    2.500    0.000    0.750    0.000    1.750 
#    0.000    0.000    0.000    0.000    0.000    0.000 
#
# Total GULP energy -356327.338237 kJ/mol
# GULP energy per Si atom -5567.614660 kJ/mol
# Density = 1.767561 g / cm^3
# Si number density = 17.715934 Si / 1000 Ang^3
#
#
#
# Elastic Constant Matrix: (Units=GPa)
#
#
# Indices 1 2 3 4 5 6 
#
# 1 67.6364 10.7853 33.4237 0.0000 0.0000 0.0000
# 2 10.7853 31.5618 1.4260 0.0000 0.0000 0.0000
# 3 33.4237 1.4260 42.9579 0.0000 0.0000 0.0000
# 4 0.0000 0.0000 0.0000 18.7858 0.0000 0.0000
# 5 0.0000 0.0000 0.0000 0.0000 22.4604 0.0000
# 6 0.0000 0.0000 0.0000 0.0000 0.0000 28.8459
#
#
#
# Elastic Compliance Matrix: (Units=1/GPa)
#
#
# Indices 1 2 3 4 5 6 
#
# 1 0.025866 -0.007942 -0.019862 0.000000 0.000000 0.000000
# 2 -0.007942 0.034170 0.005045 0.000000 0.000000 0.000000
# 3 -0.019862 0.005045 0.038565 0.000000 0.000000 0.000000
# 4 0.000000 0.000000 0.000000 0.053232 0.000000 0.000000
# 5 0.000000 0.000000 0.000000 0.000000 0.044523 0.000000
# 6 0.000000 0.000000 0.000000 0.000000 0.000000 0.034667
#
#
# Mechanical properties :
#
#
# Convention : Reuss Voigt Hill
#
# Bulk Modulus (GPa) = 18.83831 25.93625 22.38728
# Shear Modulus (GPa) = 16.99325 20.45316 18.72321
#
# Velocity S-wave (km/s) = 3.10047 3.40149 3.25446
# Velocity P-wave (km/s) = 4.84498 5.48623 5.17554
#
# Compressibility (1/GPa) = 0.05308332
#
# Stress axis : x y z
#
# Youngs Moduli (GPa) = 38.66016 29.26569 25.93037
#
# Poissons Ratio (x) = 0.23242 0.51503
# Poissons Ratio (y) = 0.30703 -0.13081
# Poissons Ratio (z) = 0.76786 -0.14764
#
# Static dielectric constant tensor:
#      x y z
#    x 1.620420 0.000000 0.000000 
#    y 0.000000 1.646060 0.000000 
#    z 0.000000 0.000000 1.586180 
# 
# From -- ./inp_files/13563.got.cif
#   From: 2010.05.17/outbox.cif.g08.bks.cpg/sg55_7_cif.got.tgz:13563.got - 2010.06.03 13:27:54.
