data_PCOD9425696
_publ_section_title
;
Structure prediction by ZEFSAII (Michael W. Deem and Ramdas Pophale) SiO2 
 PCOD9425696
Probable space group: P B A M
;
_chemical_formula_sum "Si O2"
_cell_formula_units_Z 64
_cell_length_a 17.186540
_cell_length_b 21.591092
_cell_length_c 8.696305
_cell_angle_alpha 90.000000
_cell_angle_beta 90.000000
_cell_angle_gamma 90.000000
_cell_volume 3226.991520
_symmetry_space_group_name_H-M "P B A M"
_symmetry_group_IT_number 55
_symmetry_cell_setting 'orthorhombic'
loop_
_space_group_symop_operation_xyz
x,y,z
-x,-y,z
1/2+x,1/2-y,-z
1/2-x,1/2+y,-z
-x,-y,-z
x,y,-z
1/2-x,1/2+y,z
1/2+x,1/2-y,z
loop_
_atom_site_type_symbol
_atom_site_label
_atom_site_fract_x
_atom_site_fract_y
_atom_site_fract_z
Si Si1 0.442006 0.171708 0.316460
Si Si2 0.901547 0.193498 0.818426
Si Si3 0.834985 0.977129 0.314161
Si Si4 0.777030 0.109799 0.315622
Si Si5 0.844829 0.791444 0.820620
Si Si6 0.963756 0.885746 0.680849
Si Si7 0.617613 0.159794 0.684598
Si Si8 0.290222 0.117894 0.180135
O O1 0.437304 0.174247 0.500000
O O2 0.428964 0.241558 0.254402
O O3 0.528163 0.147936 0.272910
O O4 0.373736 0.128226 0.254155
O O5 0.819202 0.168878 0.757234
O O6 0.961984 0.139434 0.770290
O O7 0.899718 0.201339 0.000000
O O8 0.834501 0.975715 0.500000
O O9 0.917979 0.947560 0.267069
O O10 0.765274 0.933512 0.255400
O O11 0.817928 0.046672 0.262530
O O12 0.786553 0.113946 0.500000
O O13 0.684802 0.109952 0.282413
O O14 0.899382 0.832625 0.711156
O O15 0.856239 0.721520 0.771774
O O16 0.758051 0.817848 0.803633
O O17 0.867509 0.800886 0.000000
O O18 0.982928 0.890980 0.500000
O O19 0.619209 0.171026 0.500000
O O20 0.297724 0.104683 0.000000
#
# Coordination Sequence:
#
# PCOD9425696 Si02
#       8
#     8   8   8   8   8   8   8   8
#     4  11  22  37  58  86 116 149 189 235 285 344
#     4  12  24  37  56  87 122 153 186 232 292 351
#     4   9  20  39  62  84 111 151 201 244 283 335
#     4  10  22  41  61  83 112 152 198 244 287 338
#     4  10  19  32  53  81 112 144 180 226 283 342
#     4  10  19  34  57  84 113 149 188 231 281 337
#     4  10  21  36  57  82 111 147 188 235 289 341
#     4  10  21  36  57  85 115 149 189 235 288 343
#
# _framework density 19.832713999999999
#
# number of rings (size 3 to 8) (size 9 to 14) (size 15 to 20)
#    0.000    1.750    1.250    3.375    0.000    6.000 
#    0.000    3.125    0.000    3.750    0.000    0.000 
#    0.000    0.000    0.000    0.000    0.000    0.000 
#
# Total GULP energy -357414.557476 kJ/mol
# GULP energy per Si atom -5584.602461 kJ/mol
# Density = 1.978757 g / cm^3
# Si number density = 19.832714 Si / 1000 Ang^3
#
#
#
# Elastic Constant Matrix: (Units=GPa)
#
#
# Indices 1 2 3 4 5 6 
#
# 1 98.5353 3.8894 13.4087 0.0000 0.0000 0.0000
# 2 3.8894 34.4033 -3.0877 0.0000 0.0000 0.0000
# 3 13.4087 -3.0877 18.7672 0.0000 0.0000 0.0000
# 4 0.0000 0.0000 0.0000 1.0360 0.0000 0.0000
# 5 0.0000 0.0000 0.0000 0.0000 -35.8040 0.0000
# 6 0.0000 0.0000 0.0000 0.0000 0.0000 20.9756
#
#
#
# Elastic Compliance Matrix: (Units=1/GPa)
#
#
# Indices 1 2 3 4 5 6 
#
# 1 0.011382 -0.002047 -0.008469 0.000000 0.000000 0.000000
# 2 -0.002047 0.029871 0.006377 0.000000 0.000000 0.000000
# 3 -0.008469 0.006377 0.060384 0.000000 0.000000 0.000000
# 4 0.000000 0.000000 0.000000 0.965275 0.000000 0.000000
# 5 0.000000 0.000000 0.000000 0.000000 -0.027930 0.000000
# 6 0.000000 0.000000 0.000000 0.000000 0.000000 0.047674
#
#
# Mechanical properties :
#
#
# Convention : Reuss Voigt Hill
#
# Bulk Modulus (GPa) = 10.71129 20.01408 15.36269
# Shear Modulus (GPa) = 4.44028 6.40786 5.42407
#
# Velocity S-wave (km/s) = 1.49791 1.79944 1.65555
# Velocity P-wave (km/s) = 2.89900 3.79877 3.37897
#
# Compressibility (1/GPa) = 0.09335939
#
# Stress axis : x y z
#
# Youngs Moduli (GPa) = 87.85889 33.47758 16.56057
#
# Poissons Ratio (x) = 0.06852 0.14025
# Poissons Ratio (y) = 0.17983 -0.10560
# Poissons Ratio (z) = 0.74406 -0.21348
#
# Static dielectric constant tensor:
#      x y z
#    x 1.732950 0.000000 0.000000 
#    y 0.000000 1.692140 0.000000 
#    z 0.000000 0.000000 1.666070 
# 
# From -- ./inp_files/8001.got.cif
#   From: 2010.05.17/outbox.cif.g08.bks.cpg/sg55_5_cif.got.tgz:8001.got - 2010.06.03 13:27:54.
