data_PCOD9425032
_publ_section_title
;
Structure prediction by ZEFSAII (Michael W. Deem and Ramdas Pophale) SiO2 
 PCOD9425032
Probable space group: P B A M
;
_chemical_formula_sum "Si O2"
_cell_formula_units_Z 64
_cell_length_a 17.598036
_cell_length_b 21.441315
_cell_length_c 7.637535
_cell_angle_alpha 90.000000
_cell_angle_beta 90.000000
_cell_angle_gamma 90.000000
_cell_volume 2881.833148
_symmetry_space_group_name_H-M "P B A M"
_symmetry_group_IT_number 55
_symmetry_cell_setting 'orthorhombic'
loop_
_space_group_symop_operation_xyz
x,y,z
-x,-y,z
1/2+x,1/2-y,-z
1/2-x,1/2+y,-z
-x,-y,-z
x,y,-z
1/2-x,1/2+y,z
1/2+x,1/2-y,z
loop_
_atom_site_type_symbol
_atom_site_label
_atom_site_fract_x
_atom_site_fract_y
_atom_site_fract_z
Si Si1 0.867229 0.889990 0.798093
Si Si2 0.717640 0.836672 0.785355
Si Si3 0.412905 0.250018 0.209386
Si Si4 0.476934 0.863776 0.290391
Si Si5 0.824610 0.026227 0.294623
Si Si6 0.111887 0.547472 0.794659
Si Si7 0.827515 0.583436 0.301117
Si Si8 0.962047 0.114107 0.213425
O O1 0.803582 0.844032 0.721476
O O2 0.951542 0.893473 0.722395
O O3 0.831473 0.958972 0.792936
O O4 0.877491 0.870866 0.000000
O O5 0.666335 0.779056 0.724972
O O6 0.670240 0.898543 0.736042
O O7 0.718810 0.835961 0.000000
O O8 0.479149 0.199612 0.244033
O O9 0.432730 0.318399 0.273742
O O10 0.406342 0.254595 0.000000
O O11 0.473854 0.868024 0.500000
O O12 0.529615 0.921054 0.226978
O O13 0.390921 0.870879 0.221106
O O14 0.809081 0.015211 0.500000
O O15 0.754960 0.068041 0.222160
O O16 0.903831 0.061772 0.274627
O O17 0.129790 0.483585 0.698176
O O18 0.124063 0.535246 0.000000
O O19 0.813224 0.604877 0.500000
O O20 0.961762 0.111143 0.000000
#
# Coordination Sequence:
#
# PCOD9425032 Si02
#       8
#     8   8   8   8   8   8   8   8
#     4  10  19  36  60  84 109 144 186 227 282 336
#     4   8  15  30  54  79 107 141 177 221 267 320
#     4   9  19  38  57  81 112 142 186 231 270 324
#     4  10  20  34  53  77 109 149 184 220 276 334
#     4  11  23  38  57  82 114 147 187 233 279 332
#     4  10  18  30  52  81 111 143 183 229 274 325
#     4  10  21  35  50  75 113 150 183 225 276 334
#     4  10  22  39  59  83 113 145 183 232 284 334
#
# _framework density 22.208086999999999
#
# number of rings (size 3 to 8) (size 9 to 14) (size 15 to 20)
#    0.000    2.250    1.250    2.625    0.000    5.500 
#    2.250    0.000    0.000    0.000    0.000    0.000 
#    0.000    0.000    0.000    0.000    0.000    0.000 
#
# Total GULP energy -357330.928682 kJ/mol
# GULP energy per Si atom -5583.295761 kJ/mol
# Density = 2.215754 g / cm^3
# Si number density = 22.208087 Si / 1000 Ang^3
#
#
#
# Elastic Constant Matrix: (Units=GPa)
#
#
# Indices 1 2 3 4 5 6 
#
# 1 149.7274 15.6215 -5.1725 0.0000 0.0000 0.0000
# 2 15.6215 32.2274 -5.7463 0.0000 0.0000 0.0000
# 3 -5.1725 -5.7463 50.4567 0.0000 0.0000 0.0000
# 4 0.0000 0.0000 0.0000 104.9611 0.0000 0.0000
# 5 0.0000 0.0000 0.0000 0.0000 16.6845 0.0000
# 6 0.0000 0.0000 0.0000 0.0000 0.0000 8.6028
#
#
#
# Elastic Compliance Matrix: (Units=1/GPa)
#
#
# Indices 1 2 3 4 5 6 
#
# 1 0.007040 -0.003352 0.000340 0.000000 0.000000 0.000000
# 2 -0.003352 0.033269 0.003445 0.000000 0.000000 0.000000
# 3 0.000340 0.003445 0.020246 0.000000 0.000000 0.000000
# 4 0.000000 0.000000 0.000000 0.009527 0.000000 0.000000
# 5 0.000000 0.000000 0.000000 0.000000 0.059936 0.000000
# 6 0.000000 0.000000 0.000000 0.000000 0.000000 0.116242
#
#
# Mechanical properties :
#
#
# Convention : Reuss Voigt Hill
#
# Bulk Modulus (GPa) = 16.28097 26.86856 21.57476
# Shear Modulus (GPa) = 18.80636 41.23026 30.01831
#
# Velocity S-wave (km/s) = 2.91318 4.31344 3.68051
# Velocity P-wave (km/s) = 4.32001 6.07721 5.27233
#
# Compressibility (1/GPa) = 0.06142140
#
# Stress axis : x y z
#
# Youngs Moduli (GPa) = 142.03996 30.05833 49.39204
#
# Poissons Ratio (x) = 0.10076 -0.01679
# Poissons Ratio (y) = 0.47612 -0.17016
# Poissons Ratio (z) = -0.04829 -0.10356
#
# Static dielectric constant tensor:
#      x y z
#    x 1.862190 0.000000 0.000000 
#    y 0.000000 1.767980 0.000000 
#    z 0.000000 0.000000 1.850980 
# 
# From -- ./inp_files/8089.got.cif
#   From: 2010.05.17/outbox.cif.g08.bks.cpg/sg55_5_cif.got.tgz:8089.got - 2010.06.03 13:27:54.
