data_PCOD9425781
_publ_section_title
;
Structure prediction by ZEFSAII (Michael W. Deem and Ramdas Pophale) SiO2 
 PCOD9425781
Probable space group: P B A M
;
_chemical_formula_sum "Si O2"
_cell_formula_units_Z 64
_cell_length_a 15.125503
_cell_length_b 25.232611
_cell_length_c 7.713458
_cell_angle_alpha 90.000000
_cell_angle_beta 90.000000
_cell_angle_gamma 90.000000
_cell_volume 2943.887013
_symmetry_space_group_name_H-M "P B A M"
_symmetry_group_IT_number 55
_symmetry_cell_setting 'orthorhombic'
loop_
_space_group_symop_operation_xyz
x,y,z
-x,-y,z
1/2+x,1/2-y,-z
1/2-x,1/2+y,-z
-x,-y,-z
x,y,-z
1/2-x,1/2+y,z
1/2+x,1/2-y,z
loop_
_atom_site_type_symbol
_atom_site_label
_atom_site_fract_x
_atom_site_fract_y
_atom_site_fract_z
Si Si1 0.364432 0.626368 0.704734
Si Si2 0.541169 0.775300 0.798546
Si Si3 0.468642 0.109816 0.790627
Si Si4 0.746131 0.658750 0.287971
Si Si5 0.709403 0.942199 0.201367
Si Si6 0.253316 0.223819 0.711082
Si Si7 0.354621 0.942690 0.294100
Si Si8 0.045808 0.842132 0.699955
O O1 0.375278 0.636442 0.500000
O O2 0.302986 0.575211 0.722726
O O3 0.308311 0.676322 0.773423
O O4 0.463519 0.626026 0.778403
O O5 0.505329 0.831238 0.727832
O O6 0.647467 0.781704 0.782118
O O7 0.519292 0.720151 0.706607
O O8 0.517154 0.769438 0.000000
O O9 0.372891 0.091486 0.723132
O O10 0.542636 0.067228 0.744247
O O11 0.463682 0.112825 0.000000
O O12 0.745991 0.658184 0.500000
O O13 0.779174 0.717389 0.238878
O O14 0.803725 0.609458 0.227609
O O15 0.644381 0.653672 0.225066
O O16 0.683892 0.003311 0.219553
O O17 0.715045 0.928738 0.000000
O O18 0.259638 0.221838 0.500000
O O19 0.342864 0.945679 0.500000
O O20 0.056560 0.858416 0.500000
#
# Coordination Sequence:
#
# PCOD9425781 Si02
#       8
#     8   8   8   8   8   8   8   8
#     4  10  20  34  59  88 111 142 190 234 275 330
#     4  10  19  33  52  80 115 150 185 218 267 337
#     4  10  22  38  54  78 113 152 184 221 282 341
#     4   8  17  35  55  80 114 145 178 228 285 328
#     4  11  23  41  59  77 114 153 185 231 287 339
#     4   9  17  32  54  80 111 143 177 224 276 324
#     4  11  23  37  59  84 108 144 195 241 278 331
#     4   9  19  36  58  83 115 150 183 229 283 329
#
# _framework density 21.739965000000002
#
# number of rings (size 3 to 8) (size 9 to 14) (size 15 to 20)
#    0.000    2.250    1.250    2.250    1.750    4.000 
#    0.000    5.625    0.000    3.750    0.000    0.000 
#    0.000    0.000    0.000    0.000    0.000    0.000 
#
# Total GULP energy -357359.603672 kJ/mol
# GULP energy per Si atom -5583.743807 kJ/mol
# Density = 2.169048 g / cm^3
# Si number density = 21.739965 Si / 1000 Ang^3
#
#
#
# Elastic Constant Matrix: (Units=GPa)
#
#
# Indices 1 2 3 4 5 6 
#
# 1 22.3513 3.4147 1.4266 0.0000 0.0000 0.0000
# 2 3.4147 61.7728 -8.6996 0.0000 0.0000 0.0000
# 3 1.4266 -8.6996 40.1654 0.0000 0.0000 0.0000
# 4 0.0000 0.0000 0.0000 2.8881 0.0000 0.0000
# 5 0.0000 0.0000 0.0000 0.0000 43.0060 0.0000
# 6 0.0000 0.0000 0.0000 0.0000 0.0000 33.7947
#
#
#
# Elastic Compliance Matrix: (Units=1/GPa)
#
#
# Indices 1 2 3 4 5 6 
#
# 1 0.045312 -0.002817 -0.002220 0.000000 0.000000 0.000000
# 2 -0.002817 0.016873 0.003755 0.000000 0.000000 0.000000
# 3 -0.002220 0.003755 0.025789 0.000000 0.000000 0.000000
# 4 0.000000 0.000000 0.000000 0.346250 0.000000 0.000000
# 5 0.000000 0.000000 0.000000 0.000000 0.023253 0.000000
# 6 0.000000 0.000000 0.000000 0.000000 0.000000 0.029590
#
#
# Mechanical properties :
#
#
# Convention : Reuss Voigt Hill
#
# Bulk Modulus (GPa) = 11.70832 12.95256 12.33044
# Shear Modulus (GPa) = 9.65061 24.48094 17.06578
#
# Velocity S-wave (km/s) = 2.10921 3.35935 2.80482
# Velocity P-wave (km/s) = 3.36585 4.58453 4.02162
#
# Compressibility (1/GPa) = 0.08540932
#
# Stress axis : x y z
#
# Youngs Moduli (GPa) = 22.06913 59.26673 38.77608
#
# Poissons Ratio (x) = 0.16698 0.08607
# Poissons Ratio (y) = 0.06218 -0.14559
# Poissons Ratio (z) = 0.04899 -0.22253
#
# Static dielectric constant tensor:
#      x y z
#    x 1.815920 0.000000 0.000000 
#    y 0.000000 1.787320 0.000000 
#    z 0.000000 0.000000 1.851370 
# 
# From -- ./inp_files/6685.got.cif
#   From: 2010.05.17/outbox.cif.g08.bks.cpg/sg55_4_cif.got.tgz:6685.got - 2010.06.03 13:27:54.
