data_PCOD9425895
_publ_section_title
;
Structure prediction by ZEFSAII (Michael W. Deem and Ramdas Pophale) SiO2 
 PCOD9425895
Probable space group: P B A M
;
_chemical_formula_sum "Si O2"
_cell_formula_units_Z 64
_cell_length_a 17.223015
_cell_length_b 21.201287
_cell_length_c 8.221602
_cell_angle_alpha 90.000000
_cell_angle_beta 90.000000
_cell_angle_gamma 90.000000
_cell_volume 3002.118661
_symmetry_space_group_name_H-M "P B A M"
_symmetry_group_IT_number 55
_symmetry_cell_setting 'orthorhombic'
loop_
_space_group_symop_operation_xyz
x,y,z
-x,-y,z
1/2+x,1/2-y,-z
1/2-x,1/2+y,-z
-x,-y,-z
x,y,-z
1/2-x,1/2+y,z
1/2+x,1/2-y,z
loop_
_atom_site_type_symbol
_atom_site_label
_atom_site_fract_x
_atom_site_fract_y
_atom_site_fract_z
Si Si1 0.212556 0.621949 0.304144
Si Si2 0.103096 0.800141 0.805278
Si Si3 0.653883 0.477068 0.697207
Si Si4 0.778177 0.106052 0.691580
Si Si5 0.118104 0.358902 0.189302
Si Si6 0.553127 0.838583 0.804442
Si Si7 0.048122 0.126546 0.806367
Si Si8 0.827477 0.774131 0.690620
O O1 0.210491 0.623007 0.500000
O O2 0.272480 0.567190 0.256327
O O3 0.125923 0.617798 0.238404
O O4 0.251099 0.688492 0.250433
O O5 0.184640 0.828380 0.749348
O O6 0.074996 0.731912 0.742608
O O7 0.038000 0.852056 0.759898
O O8 0.105356 0.795722 0.000000
O O9 0.648765 0.476985 0.500000
O O10 0.673888 0.546649 0.759203
O O11 0.577254 0.443350 0.764931
O O12 0.786785 0.104353 0.500000
O O13 0.687318 0.101721 0.731418
O O14 0.145060 0.286376 0.211317
O O15 0.030619 0.361586 0.257620
O O16 0.116029 0.375272 0.000000
O O17 0.546041 0.834212 0.000000
O O18 0.105686 0.173274 0.710603
O O19 0.057335 0.137306 0.000000
O O20 0.818721 0.757095 0.500000
#
# Coordination Sequence:
#
# PCOD9425895 Si02
#       8
#     8   8   8   8   8   8   8   8
#     4   9  19  35  56  81 107 142 186 231 277 329
#     4  10  21  38  57  84 121 152 183 229 287 346
#     4   9  21  41  58  78 115 153 193 241 284 336
#     4  11  24  40  58  82 111 151 196 238 289 339
#     4  11  22  38  57  80 114 150 186 232 288 342
#     4  10  21  37  56  83 116 146 179 227 285 340
#     4  10  19  34  58  86 115 151 190 229 279 334
#     4  10  19  33  55  84 115 147 185 227 280 339
#
# _framework density 21.318276999999998
#
# number of rings (size 3 to 8) (size 9 to 14) (size 15 to 20)
#    0.000    2.000    1.250    3.000    0.000    8.500 
#    0.000    3.125    0.000    3.750    0.000    0.000 
#    0.000    0.000    0.000    0.000    0.000    0.000 
#
# Total GULP energy -357405.899035 kJ/mol
# GULP energy per Si atom -5584.467172 kJ/mol
# Density = 2.126976 g / cm^3
# Si number density = 21.318277 Si / 1000 Ang^3
#
#
#
# Elastic Constant Matrix: (Units=GPa)
#
#
# Indices 1 2 3 4 5 6 
#
# 1 91.0554 -11.8400 -1.3463 0.0000 0.0000 0.0000
# 2 -11.8400 37.1163 -1.5333 0.0000 0.0000 0.0000
# 3 -1.3463 -1.5333 9.9391 0.0000 0.0000 0.0000
# 4 0.0000 0.0000 0.0000 53.3715 0.0000 0.0000
# 5 0.0000 0.0000 0.0000 0.0000 35.2412 0.0000
# 6 0.0000 0.0000 0.0000 0.0000 0.0000 23.4283
#
#
#
# Elastic Compliance Matrix: (Units=1/GPa)
#
#
# Indices 1 2 3 4 5 6 
#
# 1 0.011503 0.003758 0.002138 0.000000 0.000000 0.000000
# 2 0.003758 0.028343 0.004881 0.000000 0.000000 0.000000
# 3 0.002138 0.004881 0.101655 0.000000 0.000000 0.000000
# 4 0.000000 0.000000 0.000000 0.018737 0.000000 0.000000
# 5 0.000000 0.000000 0.000000 0.000000 0.028376 0.000000
# 6 0.000000 0.000000 0.000000 0.000000 0.000000 0.042683
#
#
# Mechanical properties :
#
#
# Convention : Reuss Voigt Hill
#
# Bulk Modulus (GPa) = 6.13295 12.07464 9.10379
# Shear Modulus (GPa) = 18.93260 32.59688 25.76474
#
# Velocity S-wave (km/s) = 2.98332 3.91456 3.48023
# Velocity P-wave (km/s) = 3.84058 5.10960 4.51985
#
# Compressibility (1/GPa) = 0.16305377
#
# Stress axis : x y z
#
# Youngs Moduli (GPa) = 86.93737 35.28257 9.83715
#
# Poissons Ratio (x) = -0.13258 -0.02103
# Poissons Ratio (y) = -0.32667 -0.04802
# Poissons Ratio (z) = -0.18585 -0.17222
#
# Static dielectric constant tensor:
#      x y z
#    x 1.786930 0.000000 0.000000 
#    y 0.000000 1.789750 0.000000 
#    z 0.000000 0.000000 1.739050 
# 
# From -- ./inp_files/6503.got.cif
#   From: 2010.05.17/outbox.cif.g08.bks.cpg/sg55_4_cif.got.tgz:6503.got - 2010.06.03 13:27:54.
