data_PCOD9425987
_publ_section_title
;
Structure prediction by ZEFSAII (Michael W. Deem and Ramdas Pophale) SiO2 
 PCOD9425987
Probable space group: P B A M
;
_chemical_formula_sum "Si O2"
_cell_formula_units_Z 48
_cell_length_a 17.886700
_cell_length_b 12.419250
_cell_length_c 8.344380
_cell_angle_alpha 90.000000
_cell_angle_beta 90.000000
_cell_angle_gamma 90.000000
_cell_volume 1853.615558
_symmetry_space_group_name_H-M "P B A M"
_symmetry_group_IT_number 55
_symmetry_cell_setting 'orthorhombic'
loop_
_space_group_symop_operation_xyz
x,y,z
-x,-y,z
1/2+x,1/2-y,-z
1/2-x,1/2+y,-z
-x,-y,-z
x,y,-z
1/2-x,1/2+y,z
1/2+x,1/2-y,z
loop_
_atom_site_type_symbol
_atom_site_label
_atom_site_fract_x
_atom_site_fract_y
_atom_site_fract_z
Si Si1 0.958680 0.164480 0.190891
Si Si2 0.201215 0.891075 0.182536
Si Si3 0.571166 0.899572 0.318108
Si Si4 0.381965 0.650174 0.685730
Si Si5 0.866228 0.609623 0.191970
Si Si6 0.275397 0.134745 0.818558
O O1 0.881502 0.113518 0.260230
O O2 0.957871 0.293669 0.225705
O O3 0.035924 0.117670 0.256511
O O4 0.958285 0.151670 0.000000
O O5 0.282560 0.934291 0.236391
O O6 0.224598 0.764965 0.172419
O O7 0.189958 0.926420 0.000000
O O8 0.543814 0.897090 0.500000
O O9 0.660704 0.879045 0.312878
O O10 0.573586 0.019683 0.242428
O O11 0.371953 0.627370 0.500000
O O12 0.378777 0.778948 0.716993
O O13 0.310177 0.603046 0.778768
O O14 0.869631 0.628326 0.000000
O O15 0.300160 0.101459 0.000000
#
# Coordination Sequence:
#
# PCOD9425987 Si02
#       6
#     8   8   8   8   8   8
#     4  10  19  34  53  74 100 135 171 205 248 306
#     4   7  14  29  51  72  91 120 167 209 237 282
#     4  11  21  33  50  77 106 132 164 210 257 297
#     4  11  21  33  50  77 106 132 164 210 257 297
#     4  10  19  34  53  74 100 135 171 205 248 306
#     4   9  17  33  53  72  95 132 173 205 241 298
#
# _framework density 25.895337000000001
#
# number of rings (size 3 to 8) (size 9 to 14) (size 15 to 20)
#    0.000    2.333    0.000    6.500    0.000    0.667 
#    0.000    5.833    0.000    1.000    0.000    7.000 
#    0.000    0.000    0.000    0.000    0.000    0.000 
#
# Total GULP energy -268199.712158 kJ/mol
# GULP energy per Si atom -5587.494003 kJ/mol
# Density = 2.583640 g / cm^3
# Si number density = 25.895337 Si / 1000 Ang^3
#
#
#
# Elastic Constant Matrix: (Units=GPa)
#
#
# Indices 1 2 3 4 5 6 
#
# 1 185.0192 2.3404 16.9231 0.0000 0.0000 0.0000
# 2 2.3404 32.3356 0.7777 0.0000 0.0000 0.0000
# 3 16.9231 0.7777 96.2929 0.0000 0.0000 0.0000
# 4 0.0000 0.0000 0.0000 16.3011 0.0000 0.0000
# 5 0.0000 0.0000 0.0000 0.0000 21.5653 0.0000
# 6 0.0000 0.0000 0.0000 0.0000 0.0000 41.5893
#
#
#
# Elastic Compliance Matrix: (Units=1/GPa)
#
#
# Indices 1 2 3 4 5 6 
#
# 1 0.005498 -0.000375 -0.000963 0.000000 0.000000 0.000000
# 2 -0.000375 0.030957 -0.000184 0.000000 0.000000 0.000000
# 3 -0.000963 -0.000184 0.010556 0.000000 0.000000 0.000000
# 4 0.000000 0.000000 0.000000 0.061346 0.000000 0.000000
# 5 0.000000 0.000000 0.000000 0.000000 0.046371 0.000000
# 6 0.000000 0.000000 0.000000 0.000000 0.000000 0.024045
#
#
# Mechanical properties :
#
#
# Convention : Reuss Voigt Hill
#
# Bulk Modulus (GPa) = 22.74459 39.30334 31.02396
# Shear Modulus (GPa) = 25.44898 35.46489 30.45694
#
# Velocity S-wave (km/s) = 3.13831 3.70475 3.43323
# Velocity P-wave (km/s) = 4.68341 5.78887 5.26523
#
# Compressibility (1/GPa) = 0.04396651
#
# Stress axis : x y z
#
# Youngs Moduli (GPa) = 181.89475 32.30264 94.73520
#
# Poissons Ratio (x) = 0.01211 0.09125
# Poissons Ratio (y) = 0.06817 0.01745
# Poissons Ratio (z) = 0.17520 0.00595
#
# Static dielectric constant tensor:
#      x y z
#    x 2.131990 0.000000 0.000000 
#    y 0.000000 2.242820 0.000000 
#    z 0.000000 0.000000 1.865780 
# 
# From -- ./inp_files/5578.got.cif
#   From: 2010.05.17/outbox.cif.g08.bks.cpg/sg55_3_cif.got.tgz:5578.got - 2010.06.03 13:27:54.
