data_PCOD9425088
_publ_section_title
;
Structure prediction by ZEFSAII (Michael W. Deem and Ramdas Pophale) SiO2 
 PCOD9425088
Probable space group: P B A M
;
_chemical_formula_sum "Si O2"
_cell_formula_units_Z 52
_cell_length_a 15.525009
_cell_length_b 19.857505
_cell_length_c 7.826191
_cell_angle_alpha 90.000000
_cell_angle_beta 90.000000
_cell_angle_gamma 90.000000
_cell_volume 2412.720332
_symmetry_space_group_name_H-M "P B A M"
_symmetry_group_IT_number 55
_symmetry_cell_setting 'orthorhombic'
loop_
_space_group_symop_operation_xyz
x,y,z
-x,-y,z
1/2+x,1/2-y,-z
1/2-x,1/2+y,-z
-x,-y,-z
x,y,-z
1/2-x,1/2+y,z
1/2+x,1/2-y,z
loop_
_atom_site_type_symbol
_atom_site_label
_atom_site_fract_x
_atom_site_fract_y
_atom_site_fract_z
Si Si1 0.774542 0.065133 0.705039
Si Si2 0.724507 0.789482 0.792708
Si Si3 0.670581 0.939031 0.705100
Si Si4 0.101817 0.365409 0.306935
Si Si5 0.403585 0.327782 0.795950
Si Si6 0.000000 0.500000 0.246543
Si Si7 0.580788 0.276318 0.802542
O O1 0.772794 0.069162 0.500000
O O2 0.693487 0.110463 0.767899
O O3 0.861707 0.099554 0.765020
O O4 0.750642 0.988242 0.748071
O O5 0.688593 0.861719 0.738916
O O6 0.663324 0.728934 0.729952
O O7 0.823159 0.784102 0.729556
O O8 0.725775 0.785561 0.000000
O O9 0.650902 0.948703 0.500000
O O10 0.589370 0.965967 0.812701
O O11 0.114951 0.341107 0.500000
O O12 0.061611 0.303612 0.205830
O O13 0.042983 0.431483 0.318005
O O14 0.499346 0.315182 0.725212
O O15 0.408909 0.317862 0.000000
O O16 0.587732 0.297455 0.000000
#
# Coordination Sequence:
#
# PCOD9425088 Si02
#       7
#     8   8   8   8   8   4   8
#     4   9  19  34  52  77 107 138 175 219 266 320
#     4  10  21  37  54  79 113 143 178 230 277 322
#     4  10  20  35  56  80 110 145 180 222 274 332
#     4  10  18  31  53  79 108 142 176 214 270 335
#     4  10  20  35  56  78 103 142 184 221 271 325
#     4  10  19  34  55  84 117 144 175 224 285 338
#     4  10  21  36  54  78 109 142 182 229 274 322
#
# _framework density 21.552434999999999
#
# number of rings (size 3 to 8) (size 9 to 14) (size 15 to 20)
#    0.000    2.154    1.538    3.231    0.000    2.462 
#    0.000    3.846    0.000    4.615    0.000    0.000 
#    0.000    0.000    0.000    0.000    0.000    0.000 
#
# Total GULP energy -289669.314516 kJ/mol
# GULP energy per Si atom -5570.563741 kJ/mol
# Density = 2.150338 g / cm^3
# Si number density = 21.552435 Si / 1000 Ang^3
#
#
#
# Elastic Constant Matrix: (Units=GPa)
#
#
# Indices 1 2 3 4 5 6 
#
# 1 91.8788 16.9183 17.5895 0.0000 0.0000 0.0000
# 2 16.9183 72.7298 0.1893 0.0000 0.0000 0.0000
# 3 17.5895 0.1893 35.0695 0.0000 0.0000 0.0000
# 4 0.0000 0.0000 0.0000 1.1150 0.0000 0.0000
# 5 0.0000 0.0000 0.0000 0.0000 3309.9759 0.0000
# 6 0.0000 0.0000 0.0000 0.0000 0.0000 34.1398
#
#
#
# Elastic Compliance Matrix: (Units=1/GPa)
#
#
# Indices 1 2 3 4 5 6 
#
# 1 0.012632 -0.002922 -0.006320 0.000000 0.000000 0.000000
# 2 -0.002922 0.014426 0.001388 0.000000 0.000000 0.000000
# 3 -0.006320 0.001388 0.031677 0.000000 0.000000 0.000000
# 4 0.000000 0.000000 0.000000 0.896893 0.000000 0.000000
# 5 0.000000 0.000000 0.000000 0.000000 0.000302 0.000000
# 6 0.000000 0.000000 0.000000 0.000000 0.000000 0.029291
#
#
# Mechanical properties :
#
#
# Convention : Reuss Voigt Hill
#
# Bulk Modulus (GPa) = 23.24162 29.89693 26.56927
# Shear Modulus (GPa) = 4.92479 680.04485 342.48482
#
# Velocity S-wave (km/s) = 1.51327 17.78245 12.61954
# Velocity P-wave (km/s) = 3.72297 20.86917 14.98971
#
# Compressibility (1/GPa) = 0.04302626
#
# Stress axis : x y z
#
# Youngs Moduli (GPa) = 79.16513 69.32115 31.56854
#
# Poissons Ratio (x) = 0.20255 0.19951
# Poissons Ratio (y) = 0.23132 -0.04381
# Poissons Ratio (z) = 0.50031 -0.09619
#
# Static dielectric constant tensor:
#      x y z
#    x 1.816420 0.000000 0.000000 
#    y 0.000000 1.742170 0.000000 
#    z 0.000000 0.000000 1.837960 
# 
# From -- ./inp_files/5895.got.cif
#   From: 2010.05.17/outbox.cif.g08.bks.cpg/sg55_3_cif.got.tgz:5895.got - 2010.06.03 13:27:54.
