data_PCOD9425249
_publ_section_title
;
Structure prediction by ZEFSAII (Michael W. Deem and Ramdas Pophale) SiO2 
 PCOD9425249
Probable space group: P B A M
;
_chemical_formula_sum "Si O2"
_cell_formula_units_Z 64
_cell_length_a 24.078835
_cell_length_b 14.920655
_cell_length_c 7.989625
_cell_angle_alpha 90.000000
_cell_angle_beta 90.000000
_cell_angle_gamma 90.000000
_cell_volume 2870.448472
_symmetry_space_group_name_H-M "P B A M"
_symmetry_group_IT_number 55
_symmetry_cell_setting 'orthorhombic'
loop_
_space_group_symop_operation_xyz
x,y,z
-x,-y,z
1/2+x,1/2-y,-z
1/2-x,1/2+y,-z
-x,-y,-z
x,y,-z
1/2-x,1/2+y,z
1/2+x,1/2-y,z
loop_
_atom_site_type_symbol
_atom_site_label
_atom_site_fract_x
_atom_site_fract_y
_atom_site_fract_z
Si Si1 0.328917 0.863219 0.793687
Si Si2 0.469935 0.642785 0.305854
Si Si3 0.595020 0.649895 0.299316
Si Si4 0.182035 0.556317 0.802658
Si Si5 0.277679 0.675914 0.796194
Si Si6 0.076696 0.647770 0.302646
Si Si7 0.952736 0.662802 0.808665
Si Si8 0.129911 0.030252 0.197079
O O1 0.298247 0.772913 0.736427
O O2 0.393231 0.864408 0.736259
O O3 0.303042 0.957544 0.738080
O O4 0.329950 0.861108 0.000000
O O5 0.473140 0.672132 0.500000
O O6 0.532301 0.618381 0.255015
O O7 0.451641 0.728880 0.200761
O O8 0.425038 0.565795 0.288630
O O9 0.600398 0.650410 0.500000
O O10 0.595269 0.752927 0.239963
O O11 0.636676 0.575415 0.230151
O O12 0.218568 0.638564 0.734692
O O13 0.117275 0.576300 0.778937
O O14 0.193687 0.553371 0.000000
O O15 0.320841 0.596870 0.751733
O O16 0.276910 0.682663 0.000000
O O17 0.086080 0.645291 0.500000
O O18 0.011165 0.635259 0.272171
O O19 0.955024 0.632530 0.000000
O O20 0.121631 0.042761 0.000000
#
# Coordination Sequence:
#
# PCOD9425249 Si02
#       8
#     8   8   8   8   8   8   8   8
#     4   9  18  35  59  88 119 147 183 242 297 337
#     4  10  19  32  50  77 116 157 192 230 288 347
#     4   9  20  35  50  73 111 154 184 223 289 350
#     4  10  21  38  63  86 109 151 197 232 286 350
#     4   9  19  36  57  85 118 148 189 244 290 334
#     4  10  22  40  57  80 120 154 187 240 296 346
#     4  10  18  33  59  85 115 151 194 240 289 347
#     4  11  20  31  52  82 111 147 196 244 282 329
#
# _framework density 22.296167000000001
#
# number of rings (size 3 to 8) (size 9 to 14) (size 15 to 20)
#    0.000    2.250    1.250    2.625    0.000    6.000 
#    0.000    7.500    0.000    0.000    0.000    0.000 
#    0.000    0.000    0.000    0.000    0.000    0.000 
#
# Total GULP energy -357195.824830 kJ/mol
# GULP energy per Si atom -5581.184763 kJ/mol
# Density = 2.224542 g / cm^3
# Si number density = 22.296167 Si / 1000 Ang^3
#
#
#
# Elastic Constant Matrix: (Units=GPa)
#
#
# Indices 1 2 3 4 5 6 
#
# 1 68.8977 66.2981 -1.3015 0.0000 0.0000 0.0000
# 2 66.2981 98.5562 4.6873 0.0000 0.0000 0.0000
# 3 -1.3015 4.6873 16.6285 0.0000 0.0000 0.0000
# 4 0.0000 0.0000 0.0000 -10.8009 0.0000 0.0000
# 5 0.0000 0.0000 0.0000 0.0000 86.5261 0.0000
# 6 0.0000 0.0000 0.0000 0.0000 0.0000 16.6875
#
#
#
# Elastic Compliance Matrix: (Units=1/GPa)
#
#
# Indices 1 2 3 4 5 6 
#
# 1 0.043309 -0.029693 0.011760 0.000000 0.000000 0.000000
# 2 -0.029693 0.030642 -0.010962 0.000000 0.000000 0.000000
# 3 0.011760 -0.010962 0.064148 0.000000 0.000000 0.000000
# 4 0.000000 0.000000 0.000000 -0.092585 0.000000 0.000000
# 5 0.000000 0.000000 0.000000 0.000000 0.011557 0.000000
# 6 0.000000 0.000000 0.000000 0.000000 0.000000 0.059925
#
#
# Mechanical properties :
#
#
# Convention : Reuss Voigt Hill
#
# Bulk Modulus (GPa) = 12.45184 35.93891 24.19538
# Shear Modulus (GPa) = 24.80703 26.10911 25.45807
#
# Velocity S-wave (km/s) = 3.33921 3.42572 3.38274
# Velocity P-wave (km/s) = 4.52371 5.63926 5.11201
#
# Compressibility (1/GPa) = 0.08030944
#
# Stress axis : x y z
#
# Youngs Moduli (GPa) = 23.08987 32.63483 15.58898
#
# Poissons Ratio (x) = 0.96903 -0.18332
# Poissons Ratio (y) = 0.68561 0.17088
# Poissons Ratio (z) = -0.27153 0.35773
#
# Static dielectric constant tensor:
#      x y z
#    x 1.824030 0.000000 0.000000 
#    y 0.000000 1.834430 0.000000 
#    z 0.000000 0.000000 1.796170 
# 
# From -- ./inp_files/9677.got.cif
#   From: 2010.05.17/outbox.cif.g08.bks.cpg/sg55_5_cif.got.tgz:9677.got - 2010.06.03 13:27:54.
