data_PCOD9425906
_publ_section_title
;
Structure prediction by ZEFSAII (Michael W. Deem and Ramdas Pophale) SiO2 
 PCOD9425906
Probable space group: P B A M
;
_chemical_formula_sum "Si O2"
_cell_formula_units_Z 48
_cell_length_a 10.220508
_cell_length_b 30.181294
_cell_length_c 9.145914
_cell_angle_alpha 90.000000
_cell_angle_beta 90.000000
_cell_angle_gamma 90.000000
_cell_volume 2821.223234
_symmetry_space_group_name_H-M "P B A M"
_symmetry_group_IT_number 55
_symmetry_cell_setting 'orthorhombic'
loop_
_space_group_symop_operation_xyz
x,y,z
-x,-y,z
1/2+x,1/2-y,-z
1/2-x,1/2+y,-z
-x,-y,-z
x,y,-z
1/2-x,1/2+y,z
1/2+x,1/2-y,z
loop_
_atom_site_type_symbol
_atom_site_label
_atom_site_fract_x
_atom_site_fract_y
_atom_site_fract_z
Si Si1 0.640934 0.978346 0.825890
Si Si2 0.529353 0.618184 0.173168
Si Si3 0.126644 0.969157 0.673729
Si Si4 0.979782 0.211199 0.676466
Si Si5 0.217541 0.618367 0.172641
Si Si6 0.715760 0.789635 0.675452
O O1 0.645873 0.926697 0.781539
O O2 0.500000 0.000000 0.803919
O O3 0.749394 0.005627 0.739404
O O4 0.671815 0.979681 0.000000
O O5 0.603900 0.577749 0.248288
O O6 0.559475 0.665266 0.247310
O O7 0.373185 0.610889 0.194720
O O8 0.554639 0.619365 0.000000
O O9 0.139281 0.963088 0.500000
O O10 0.000000 0.000000 0.701289
O O11 0.972682 0.206184 0.500000
O O12 0.883689 0.250977 0.720577
O O13 0.132343 0.220207 0.714597
O O14 0.180417 0.662870 0.256933
O O15 0.196007 0.625323 0.000000
O O16 0.709937 0.792926 0.500000
#
# Coordination Sequence:
#
# PCOD9425906 Si02
#       6
#     8   8   8   8   8   8
#     4  10  21  38  57  78 111 148 181 221 272 325
#     4  10  19  33  56  81 105 138 179 223 268 313
#     4  11  22  35  56  83 109 140 181 225 267 317
#     4   9  18  34  53  75 104 136 173 216 264 316
#     4   9  18  33  54  78 104 138 178 218 260 316
#     4   9  18  33  54  75 101 137 172 213 263 315
#
# _framework density 17.013898000000001
#
# number of rings (size 3 to 8) (size 9 to 14) (size 15 to 20)
#    0.000    2.333    1.667    1.000    0.000    3.000 
#    3.000    0.000    0.000    0.000    0.000    0.000 
#    0.000    0.000    0.000    0.000    0.000    0.000 
#
# Total GULP energy -267793.555133 kJ/mol
# GULP energy per Si atom -5579.032399 kJ/mol
# Density = 1.697517 g / cm^3
# Si number density = 17.013898 Si / 1000 Ang^3
#
#
#
# Elastic Constant Matrix: (Units=GPa)
#
#
# Indices 1 2 3 4 5 6 
#
# 1 72.8271 83.7069 48.7633 0.0000 0.0000 0.0000
# 2 83.7069 191.9595 65.9017 0.0000 0.0000 0.0000
# 3 48.7633 65.9017 43.0548 0.0000 0.0000 0.0000
# 4 0.0000 0.0000 0.0000 36.5932 0.0000 0.0000
# 5 0.0000 0.0000 0.0000 0.0000 17.0547 0.0000
# 6 0.0000 0.0000 0.0000 0.0000 0.0000 35.3065
#
#
#
# Elastic Compliance Matrix: (Units=1/GPa)
#
#
# Indices 1 2 3 4 5 6 
#
# 1 0.059896 -0.005962 -0.058711 0.000000 0.000000 0.000000
# 2 -0.005962 0.011572 -0.010960 0.000000 0.000000 0.000000
# 3 -0.058711 -0.010960 0.106497 0.000000 0.000000 0.000000
# 4 0.000000 0.000000 0.000000 0.027327 0.000000 0.000000
# 5 0.000000 0.000000 0.000000 0.000000 0.058635 0.000000
# 6 0.000000 0.000000 0.000000 0.000000 0.000000 0.028323
#
#
# Mechanical properties :
#
#
# Convention : Reuss Voigt Hill
#
# Bulk Modulus (GPa) = 37.45504 78.28723 57.87114
# Shear Modulus (GPa) = 11.05179 25.08884 18.07032
#
# Velocity S-wave (km/s) = 2.55144 3.84423 3.26251
# Velocity P-wave (km/s) = 5.54454 8.11281 6.94837
#
# Compressibility (1/GPa) = 0.02669868
#
# Stress axis : x y z
#
# Youngs Moduli (GPa) = 16.69572 86.41541 9.38996
#
# Poissons Ratio (x) = 0.51524 0.55129
# Poissons Ratio (y) = 0.09955 0.10291
# Poissons Ratio (z) = 0.98022 0.94709
#
# Static dielectric constant tensor:
#      x y z
#    x 1.562000 0.000000 0.000000 
#    y 0.000000 1.552520 0.000000 
#    z 0.000000 0.000000 1.566290 
# 
# From -- ./inp_files/2851.got.cif
#   From: 2010.05.17/outbox.cif.g08.bks.cpg/sg55_2_cif.got.tgz:2851.got - 2010.06.03 13:27:54.
