data_PCOD9425601
_publ_section_title
;
Structure prediction by ZEFSAII (Michael W. Deem and Ramdas Pophale) SiO2 
 PCOD9425601
Probable space group: P B A M
;
_chemical_formula_sum "Si O2"
_cell_formula_units_Z 64
_cell_length_a 12.404928
_cell_length_b 22.281449
_cell_length_c 13.235533
_cell_angle_alpha 90.000000
_cell_angle_beta 90.000000
_cell_angle_gamma 90.000000
_cell_volume 3658.298285
_symmetry_space_group_name_H-M "P B A M"
_symmetry_group_IT_number 55
_symmetry_cell_setting 'orthorhombic'
loop_
_space_group_symop_operation_xyz
x,y,z
-x,-y,z
1/2+x,1/2-y,-z
1/2-x,1/2+y,-z
-x,-y,-z
x,y,-z
1/2-x,1/2+y,z
1/2+x,1/2-y,z
loop_
_atom_site_type_symbol
_atom_site_label
_atom_site_fract_x
_atom_site_fract_y
_atom_site_fract_z
Si Si1 0.371875 0.809558 0.884104
Si Si2 0.887491 0.355388 0.880489
Si Si3 0.663851 0.670623 0.384539
Si Si4 0.253445 0.033469 0.116652
Si Si5 0.700779 0.596550 0.194122
Si Si6 0.466080 0.567882 0.187280
Si Si7 0.420898 0.632215 0.615358
Si Si8 0.766459 0.780151 0.734942
O O1 0.487184 0.840566 0.866286
O O2 0.278571 0.858816 0.865737
O O3 0.349981 0.755947 0.806116
O O4 0.368264 0.788489 0.000000
O O5 0.853604 0.424039 0.856854
O O6 0.817254 0.312838 0.808990
O O7 0.862392 0.346189 0.000000
O O8 0.700530 0.664337 0.500000
O O9 0.702808 0.617257 0.310804
O O10 0.533993 0.668156 0.384426
O O11 0.706577 0.731311 0.334241
O O12 0.146624 0.075254 0.130041
O O13 0.236396 0.972315 0.178718
O O14 0.261592 0.015187 0.000000
O O15 0.574821 0.604051 0.160981
O O16 0.500000 0.500000 0.167484
O O17 0.440529 0.578704 0.305186
O O18 0.397853 0.614460 0.500000
O O19 0.328652 0.673001 0.664310
#
# Coordination Sequence:
#
# PCOD9425601 Si02
#       8
#     8   8   8   8   8   8   8   8
#     4  10  21  35  52  78 106 138 179 215 254 311
#     4  10  21  35  52  76 109 141 171 214 262 310
#     4   9  19  34  52  76 103 134 173 219 266 308
#     4  10  19  33  53  77 107 142 174 213 263 312
#     4   9  19  33  54  76 103 138 177 214 256 309
#     4   9  18  33  51  77 107 134 172 214 263 306
#     4  10  19  32  51  75 101 131 172 216 262 311
#     4  11  19  34  54  74 104 138 174 213 262 313
#
# _framework density 17.494472999999999
#
# number of rings (size 3 to 8) (size 9 to 14) (size 15 to 20)
#    0.000    2.250    1.250    1.875    0.000    3.500 
#    0.000    3.750    0.000    0.750    0.000    3.500 
#    0.000    0.000    0.000    0.000    0.000    0.000 
#
# Total GULP energy -356662.416183 kJ/mol
# GULP energy per Si atom -5572.850253 kJ/mol
# Density = 1.745465 g / cm^3
# Si number density = 17.494473 Si / 1000 Ang^3
#
#
#
# Elastic Constant Matrix: (Units=GPa)
#
#
# Indices 1 2 3 4 5 6 
#
# 1 45.4153 2.3896 13.0162 0.0000 0.0000 0.0000
# 2 2.3896 19.4015 7.9571 0.0000 0.0000 0.0000
# 3 13.0162 7.9571 57.5195 0.0000 0.0000 0.0000
# 4 0.0000 0.0000 0.0000 19.4732 0.0000 0.0000
# 5 0.0000 0.0000 0.0000 0.0000 23.3275 0.0000
# 6 0.0000 0.0000 0.0000 0.0000 0.0000 20.6319
#
#
#
# Elastic Compliance Matrix: (Units=1/GPa)
#
#
# Indices 1 2 3 4 5 6 
#
# 1 0.023557 -0.000758 -0.005226 0.000000 0.000000 0.000000
# 2 -0.000758 0.054667 -0.007391 0.000000 0.000000 0.000000
# 3 -0.005226 -0.007391 0.019590 0.000000 0.000000 0.000000
# 4 0.000000 0.000000 0.000000 0.051353 0.000000 0.000000
# 5 0.000000 0.000000 0.000000 0.000000 0.042868 0.000000
# 6 0.000000 0.000000 0.000000 0.000000 0.000000 0.048469
#
#
# Mechanical properties :
#
#
# Convention : Reuss Voigt Hill
#
# Bulk Modulus (GPa) = 14.07177 18.78470 16.42823
# Shear Modulus (GPa) = 17.18562 19.28476 18.23519
#
# Velocity S-wave (km/s) = 3.13764 3.32374 3.23203
# Velocity P-wave (km/s) = 4.60298 5.04881 4.83104
#
# Compressibility (1/GPa) = 0.07106429
#
# Stress axis : x y z
#
# Youngs Moduli (GPa) = 42.45092 18.29256 51.04538
#
# Poissons Ratio (x) = 0.01387 0.26675
# Poissons Ratio (y) = 0.03218 0.37728
# Poissons Ratio (z) = 0.22184 0.13520
#
# Static dielectric constant tensor:
#      x y z
#    x 1.613190 0.000000 0.000000 
#    y 0.000000 1.590470 0.000000 
#    z 0.000000 0.000000 1.587940 
# 
# From -- ./inp_files/13565.got.cif
#   From: 2010.05.17/outbox.cif.g08.bks.cpg/sg55_7_cif.got.tgz:13565.got - 2010.06.03 13:27:54.
