data_PCOD9425910
_publ_section_title
;
Structure prediction by ZEFSAII (Michael W. Deem and Ramdas Pophale) SiO2 
 PCOD9425910
Probable space group: P B A M
;
_chemical_formula_sum "Si O2"
_cell_formula_units_Z 64
_cell_length_a 22.489892
_cell_length_b 17.638008
_cell_length_c 8.605938
_cell_angle_alpha 90.000000
_cell_angle_beta 90.000000
_cell_angle_gamma 90.000000
_cell_volume 3413.776765
_symmetry_space_group_name_H-M "P B A M"
_symmetry_group_IT_number 55
_symmetry_cell_setting 'orthorhombic'
loop_
_space_group_symop_operation_xyz
x,y,z
-x,-y,z
1/2+x,1/2-y,-z
1/2-x,1/2+y,-z
-x,-y,-z
x,y,-z
1/2-x,1/2+y,z
1/2+x,1/2-y,z
loop_
_atom_site_type_symbol
_atom_site_label
_atom_site_fract_x
_atom_site_fract_y
_atom_site_fract_z
Si Si1 0.113370 0.722305 0.314619
Si Si2 0.557422 0.089530 0.314624
Si Si3 0.573758 0.930786 0.183195
Si Si4 0.530197 0.650835 0.813725
Si Si5 0.101742 0.126276 0.313722
Si Si6 0.634938 0.534471 0.185436
Si Si7 0.153048 0.285824 0.310861
Si Si8 0.217625 0.839429 0.687365
O O1 0.110209 0.713443 0.500000
O O2 0.112495 0.640552 0.235895
O O3 0.057360 0.772498 0.258273
O O4 0.171330 0.772012 0.274474
O O5 0.547088 0.093627 0.500000
O O6 0.494141 0.090043 0.229398
O O7 0.599792 0.158037 0.265447
O O8 0.586964 0.008829 0.272820
O O9 0.577771 0.943449 0.000000
O O10 0.464711 0.633327 0.753450
O O11 0.576150 0.583497 0.770466
O O12 0.529938 0.657381 0.000000
O O13 0.098125 0.127230 0.500000
O O14 0.138551 0.200344 0.261816
O O15 0.130629 0.048048 0.259148
O O16 0.690655 0.584220 0.241336
O O17 0.635470 0.527925 0.000000
O O18 0.154522 0.286111 0.500000
O O19 0.216643 0.317337 0.258539
O O20 0.217867 0.847214 0.500000
#
# Coordination Sequence:
#
# PCOD9425910 Si02
#       8
#     8   8   8   8   8   8   8   8
#     4  10  19  33  56  82 107 141 186 228 269 324
#     4  10  19  35  58  81 109 142 181 228 279 328
#     4  11  21  34  53  81 116 145 179 223 275 332
#     4  10  20  34  54  81 116 150 179 222 280 330
#     4  11  21  34  56  85 114 144 183 227 272 329
#     4  10  21  37  55  80 114 148 182 223 273 326
#     4   9  20  38  58  81 107 139 182 232 277 319
#     4   9  19  39  61  78 102 140 186 229 271 320
#
# _framework density 18.747564000000001
#
# number of rings (size 3 to 8) (size 9 to 14) (size 15 to 20)
#    0.000    2.000    0.000    4.875    0.000    4.500 
#    2.250    4.375    0.000    0.000    0.000    0.000 
#    0.000    0.000    0.000    0.000    0.000    0.000 
#
# Total GULP energy -357509.918346 kJ/mol
# GULP energy per Si atom -5586.092474 kJ/mol
# Density = 1.870489 g / cm^3
# Si number density = 18.747564 Si / 1000 Ang^3
#
#
#
# Elastic Constant Matrix: (Units=GPa)
#
#
# Indices 1 2 3 4 5 6 
#
# 1 66.8343 25.9962 7.4001 0.0000 0.0000 0.0000
# 2 25.9962 86.6620 3.6922 0.0000 0.0000 0.0000
# 3 7.4001 3.6922 27.5011 0.0000 0.0000 0.0000
# 4 0.0000 0.0000 0.0000 13.5658 0.0000 0.0000
# 5 0.0000 0.0000 0.0000 0.0000 2.5399 0.0000
# 6 0.0000 0.0000 0.0000 0.0000 0.0000 6.8597
#
#
#
# Elastic Compliance Matrix: (Units=1/GPa)
#
#
# Indices 1 2 3 4 5 6 
#
# 1 0.017365 -0.005039 -0.003996 0.000000 0.000000 0.000000
# 2 -0.005039 0.013068 -0.000399 0.000000 0.000000 0.000000
# 3 -0.003996 -0.000399 0.037491 0.000000 0.000000 0.000000
# 4 0.000000 0.000000 0.000000 0.073715 0.000000 0.000000
# 5 0.000000 0.000000 0.000000 0.000000 0.393718 0.000000
# 6 0.000000 0.000000 0.000000 0.000000 0.000000 0.145780
#
#
# Mechanical properties :
#
#
# Convention : Reuss Voigt Hill
#
# Bulk Modulus (GPa) = 20.38463 28.35269 24.36866
# Shear Modulus (GPa) = 6.97979 14.18700 10.58339
#
# Velocity S-wave (km/s) = 1.93161 2.75387 2.37854
# Velocity P-wave (km/s) = 3.98392 5.02673 4.53540
#
# Compressibility (1/GPa) = 0.04905656
#
# Stress axis : x y z
#
# Youngs Moduli (GPa) = 57.58807 76.52557 26.67309
#
# Poissons Ratio (x) = 0.38559 0.10659
# Poissons Ratio (y) = 0.29017 0.01063
# Poissons Ratio (z) = 0.23013 0.03050
#
# Static dielectric constant tensor:
#      x y z
#    x 1.633620 0.000000 0.000000 
#    y 0.000000 1.645660 0.000000 
#    z 0.000000 0.000000 1.631670 
# 
# From -- ./inp_files/9066.got.cif
#   From: 2010.05.17/outbox.cif.g08.bks.cpg/sg55_5_cif.got.tgz:9066.got - 2010.06.03 13:27:54.
