data_PCOD9425947
_publ_section_title
;
Structure prediction by ZEFSAII (Michael W. Deem and Ramdas Pophale) SiO2 
 PCOD9425947
Probable space group: P B A M
;
_chemical_formula_sum "Si O2"
_cell_formula_units_Z 64
_cell_length_a 32.019541
_cell_length_b 11.499832
_cell_length_c 7.472739
_cell_angle_alpha 90.000000
_cell_angle_beta 90.000000
_cell_angle_gamma 90.000000
_cell_volume 2751.607039
_symmetry_space_group_name_H-M "P B A M"
_symmetry_group_IT_number 55
_symmetry_cell_setting 'orthorhombic'
loop_
_space_group_symop_operation_xyz
x,y,z
-x,-y,z
1/2+x,1/2-y,-z
1/2-x,1/2+y,-z
-x,-y,-z
x,y,-z
1/2-x,1/2+y,z
1/2+x,1/2-y,z
loop_
_atom_site_type_symbol
_atom_site_label
_atom_site_fract_x
_atom_site_fract_y
_atom_site_fract_z
Si Si1 0.603990 0.404527 0.291832
Si Si2 0.476019 0.880618 0.218339
Si Si3 0.612221 0.031191 0.795047
Si Si4 0.829085 0.346941 0.220426
Si Si5 0.739473 0.405707 0.789581
Si Si6 0.174728 0.276308 0.285956
Si Si7 0.488421 0.625679 0.799032
Si Si8 0.669115 0.582154 0.783960
O O1 0.595972 0.380966 0.500000
O O2 0.640777 0.320110 0.227939
O O3 0.561628 0.382294 0.191123
O O4 0.624515 0.530306 0.271477
O O5 0.427846 0.900859 0.280115
O O6 0.494875 0.755929 0.279981
O O7 0.500000 0.000000 0.266195
O O8 0.476799 0.871334 0.000000
O O9 0.654315 0.108226 0.790748
O O10 0.628976 0.910954 0.716151
O O11 0.600196 0.008177 0.000000
O O12 0.786098 0.406506 0.283333
O O13 0.826646 0.213654 0.274580
O O14 0.829435 0.350149 0.000000
O O15 0.718878 0.277286 0.770281
O O16 0.706458 0.498895 0.714447
O O17 0.742716 0.429892 0.000000
O O18 0.174689 0.285419 0.500000
O O19 0.500000 0.500000 0.713585
O O20 0.507185 0.624719 0.000000
O O21 0.670559 0.578806 0.000000
#
# Coordination Sequence:
#
# PCOD9425947 Si02
#       8
#     8   8   8   8   8   8   8   8
#     4  10  20  35  55  76 104 141 181 221 264 323
#     4   9  18  33  54  82 114 146 182 227 282 339
#     4  10  19  33  57  82 108 144 185 226 274 332
#     4   9  19  32  52  83 109 137 182 231 275 326
#     4   9  18  32  53  77 104 139 177 221 273 323
#     4  10  20  34  53  77 105 139 181 223 263 316
#     4  10  20  34  56  86 112 138 179 231 283 336
#     4   9  18  33  52  77 108 138 174 224 275 321
#
# _framework density 23.259134
#
# number of rings (size 3 to 8) (size 9 to 14) (size 15 to 20)
#    0.000    2.500    1.250    0.750    1.750    2.250 
#    0.000    5.625    0.000    1.500    0.000    0.000 
#    0.000    0.000    0.000    0.000    0.000    0.000 
#
# Total GULP energy -356983.473727 kJ/mol
# GULP energy per Si atom -5577.866777 kJ/mol
# Density = 2.320619 g / cm^3
# Si number density = 23.259134 Si / 1000 Ang^3
#
#
#
# Elastic Constant Matrix: (Units=GPa)
#
#
# Indices 1 2 3 4 5 6 
#
# 1 48.1296 35.3986 -4.3455 0.0000 0.0000 0.0000
# 2 35.3986 153.6034 -2.4634 0.0000 0.0000 0.0000
# 3 -4.3455 -2.4634 70.5176 0.0000 0.0000 0.0000
# 4 0.0000 0.0000 0.0000 -43.0400 0.0000 0.0000
# 5 0.0000 0.0000 0.0000 0.0000 -34.9565 0.0000
# 6 0.0000 0.0000 0.0000 0.0000 0.0000 29.6546
#
#
#
# Elastic Compliance Matrix: (Units=1/GPa)
#
#
# Indices 1 2 3 4 5 6 
#
# 1 0.025145 -0.005773 0.001348 0.000000 0.000000 0.000000
# 2 -0.005773 0.007839 -0.000082 0.000000 0.000000 0.000000
# 3 0.001348 -0.000082 0.014261 0.000000 0.000000 0.000000
# 4 0.000000 0.000000 0.000000 -0.023234 0.000000 0.000000
# 5 0.000000 0.000000 0.000000 0.000000 -0.028607 0.000000
# 6 0.000000 0.000000 0.000000 0.000000 0.000000 0.033722
#
#
# Mechanical properties :
#
#
# Convention : Reuss Voigt Hill
#
# Bulk Modulus (GPa) = 26.15681 36.60334 31.38008
# Shear Modulus (GPa) = 98.26275 6.57568 52.41921
#
# Velocity S-wave (km/s) = 6.50682 1.68323 4.75247
# Velocity P-wave (km/s) = 8.22933 4.42143 6.60571
#
# Compressibility (1/GPa) = 0.03823096
#
# Stress axis : x y z
#
# Youngs Moduli (GPa) = 39.76938 127.56068 70.12106
#
# Poissons Ratio (x) = 0.73643 -0.09451
# Poissons Ratio (y) = 0.22959 0.00574
# Poissons Ratio (z) = -0.05360 0.01045
#
# Static dielectric constant tensor:
#      x y z
#    x 1.853240 0.000000 0.000000 
#    y 0.000000 1.945940 0.000000 
#    z 0.000000 0.000000 1.895200 
# 
# From -- ./inp_files/10733.got.cif
#   From: 2010.05.17/outbox.cif.g08.bks.cpg/sg55_6_cif.got.tgz:10733.got - 2010.06.03 13:27:54.
