data_PCOD9425981
_publ_section_title
;
Structure prediction by ZEFSAII (Michael W. Deem and Ramdas Pophale) SiO2 
 PCOD9425981
Probable space group: P B A M
;
_chemical_formula_sum "Si O2"
_cell_formula_units_Z 34
_cell_length_a 8.645195
_cell_length_b 15.092555
_cell_length_c 10.700879
_cell_angle_alpha 90.000000
_cell_angle_beta 90.000000
_cell_angle_gamma 90.000000
_cell_volume 1396.230157
_symmetry_space_group_name_H-M "P B A M"
_symmetry_group_IT_number 55
_symmetry_cell_setting 'orthorhombic'
loop_
_space_group_symop_operation_xyz
x,y,z
-x,-y,z
1/2+x,1/2-y,-z
1/2-x,1/2+y,-z
-x,-y,-z
x,y,-z
1/2-x,1/2+y,z
1/2+x,1/2-y,z
loop_
_atom_site_type_symbol
_atom_site_label
_atom_site_fract_x
_atom_site_fract_y
_atom_site_fract_z
Si Si1 0.943628 0.695079 0.500000
Si Si2 0.901363 0.268251 0.231607
Si Si3 0.000000 0.500000 0.500000
Si Si4 0.405830 0.613966 0.228453
Si Si5 0.536991 0.132681 0.000000
Si Si6 0.682770 0.390307 0.500000
Si Si7 0.769519 0.988315 0.000000
O O1 0.032130 0.709522 0.368321
O O2 0.829433 0.781538 0.500000
O O3 0.888041 0.592782 0.500000
O O4 0.931611 0.164113 0.212308
O O5 0.732843 0.311834 0.219584
O O6 0.005999 0.312815 0.124801
O O7 0.148761 0.565267 0.500000
O O8 0.393682 0.581123 0.369965
O O9 0.359309 0.544351 0.122692
O O10 0.392216 0.065334 0.000000
O O11 0.703944 0.087205 0.000000
#
# Coordination Sequence:
#
# PCOD9425981 Si02
#       7
#     4   8   2   8   4   4   4
#     4  10  22  34  56  94 115 147 207 243 289 369
#     4  10  19  34  52  79 110 143 185 239 292 346
#     4  12  20  36  68  82 124 164 192 246 326 334
#     4  10  19  34  52  79 110 143 185 239 292 346
#     4   9  19  30  49  77 106 133 188 242 275 344
#     4  10  22  34  56  94 115 147 207 243 289 369
#     4   9  19  30  49  77 106 133 188 242 275 344
#
# _framework density 24.351286000000002
#
# number of rings (size 3 to 8) (size 9 to 14) (size 15 to 20)
#    0.000    2.118    2.353    0.706    3.294    0.000 
#    0.000    0.000    0.000    3.529    0.000    0.000 
#    0.000    0.000    0.000    0.000    0.000    0.000 
#
# Total GULP energy -189313.143426 kJ/mol
# GULP energy per Si atom -5568.033630 kJ/mol
# Density = 2.429586 g / cm^3
# Si number density = 24.351286 Si / 1000 Ang^3
#
#
#
# Elastic Constant Matrix: (Units=GPa)
#
#
# Indices 1 2 3 4 5 6 
#
# 1 98.6788 66.9044 51.4104 0.0000 0.0000 0.0000
# 2 66.9044 103.9825 45.4163 0.0000 0.0000 0.0000
# 3 51.4104 45.4163 193.1035 0.0000 0.0000 0.0000
# 4 0.0000 0.0000 0.0000 -19.0379 0.0000 0.0000
# 5 0.0000 0.0000 0.0000 0.0000 72.7398 0.0000
# 6 0.0000 0.0000 0.0000 0.0000 0.0000 62.7629
#
#
#
# Elastic Compliance Matrix: (Units=1/GPa)
#
#
# Indices 1 2 3 4 5 6 
#
# 1 0.018943 -0.011129 -0.002426 0.000000 0.000000 0.000000
# 2 -0.011129 0.017256 -0.001096 0.000000 0.000000 0.000000
# 3 -0.002426 -0.001096 0.006082 0.000000 0.000000 0.000000
# 4 0.000000 0.000000 0.000000 -0.052527 0.000000 0.000000
# 5 0.000000 0.000000 0.000000 0.000000 0.013748 0.000000
# 6 0.000000 0.000000 0.000000 0.000000 0.000000 0.015933
#
#
# Mechanical properties :
#
#
# Convention : Reuss Voigt Hill
#
# Bulk Modulus (GPa) = 77.03794 80.35857 78.69826
# Shear Modulus (GPa) = 94.22826 38.76187 66.49506
#
# Velocity S-wave (km/s) = 6.22731 3.99404 5.23124
# Velocity P-wave (km/s) = 9.13294 7.37165 8.29915
#
# Compressibility (1/GPa) = 0.01298062
#
# Stress axis : x y z
#
# Youngs Moduli (GPa) = 52.78966 57.95073 164.41703
#
# Poissons Ratio (x) = 0.64492 0.39885
# Poissons Ratio (y) = 0.58749 0.18014
# Poissons Ratio (z) = 0.12806 0.06349
#
# Static dielectric constant tensor:
#      x y z
#    x 1.983630 0.000000 0.000000 
#    y 0.000000 2.008830 0.000000 
#    z 0.000000 0.000000 1.896050 
# 
# From -- ./inp_files/11769.got.cif
#   From: 2010.05.17/outbox.cif.g08.bks.cpg/sg55_6_cif.got.tgz:11769.got - 2010.06.03 13:27:54.
