data_PCOD9425400
_publ_section_title
;
Structure prediction by ZEFSAII (Michael W. Deem and Ramdas Pophale) SiO2 
 PCOD9425400
Probable space group: P B A M
;
_chemical_formula_sum "Si O2"
_cell_formula_units_Z 64
_cell_length_a 21.055269
_cell_length_b 19.215604
_cell_length_c 8.559229
_cell_angle_alpha 90.000000
_cell_angle_beta 90.000000
_cell_angle_gamma 90.000000
_cell_volume 3462.975989
_symmetry_space_group_name_H-M "P B A M"
_symmetry_group_IT_number 55
_symmetry_cell_setting 'orthorhombic'
loop_
_space_group_symop_operation_xyz
x,y,z
-x,-y,z
1/2+x,1/2-y,-z
1/2-x,1/2+y,-z
-x,-y,-z
x,y,-z
1/2-x,1/2+y,z
1/2+x,1/2-y,z
loop_
_atom_site_type_symbol
_atom_site_label
_atom_site_fract_x
_atom_site_fract_y
_atom_site_fract_z
Si Si1 0.403305 0.837725 0.819825
Si Si2 0.971101 0.073442 0.688527
Si Si3 0.635465 0.758200 0.186221
Si Si4 0.171731 0.888516 0.313889
Si Si5 0.491630 0.720660 0.811409
Si Si6 0.340075 0.097868 0.319818
Si Si7 0.009421 0.581937 0.327297
Si Si8 0.199642 0.448575 0.813768
O O1 0.430719 0.764925 0.753026
O O2 0.467073 0.883779 0.805112
O O3 0.348372 0.887722 0.751733
O O4 0.385650 0.824944 0.000000
O O5 0.974803 0.076895 0.500000
O O6 0.896905 0.080301 0.731896
O O7 0.006099 0.141299 0.755527
O O8 0.000000 0.000000 0.740069
O O9 0.668325 0.692458 0.267242
O O10 0.560324 0.754174 0.236089
O O11 0.670589 0.829732 0.230295
O O12 0.636421 0.749196 0.000000
O O13 0.179173 0.895539 0.500000
O O14 0.229676 0.925621 0.229099
O O15 0.490048 0.722778 0.000000
O O16 0.320208 0.104614 0.500000
O O17 0.416303 0.092970 0.313017
O O18 0.314550 0.025156 0.253346
O O19 0.988223 0.607613 0.500000
O O20 0.000000 0.500000 0.323072
O O21 0.190644 0.452194 0.000000
#
# Coordination Sequence:
#
# PCOD9425400 Si02
#       8
#     8   8   8   8   8   8   8   8
#     4  10  20  33  50  75 110 148 184 222 265 320
#     4   9  19  37  61  86 107 131 172 229 287 336
#     4  10  19  34  57  81 107 137 178 227 273 329
#     4  10  21  39  60  80 108 144 182 228 283 341
#     4   9  18  32  52  81 111 138 171 216 271 325
#     4  11  21  33  52  80 112 145 187 231 273 323
#     4  10  19  30  46  74 110 145 181 224 267 313
#     4  11  23  37  54  77 112 156 194 227 272 331
#
# _framework density 18.481214000000001
#
# number of rings (size 3 to 8) (size 9 to 14) (size 15 to 20)
#    0.000    2.000    2.500    1.500    0.000    3.000 
#    0.000    1.250    0.000    3.000    0.000    0.000 
#    0.000    0.000    0.000    0.000    0.000    0.000 
#
# Total GULP energy -356694.811844 kJ/mol
# GULP energy per Si atom -5573.356435 kJ/mol
# Density = 1.843915 g / cm^3
# Si number density = 18.481214 Si / 1000 Ang^3
#
#
#
# Elastic Constant Matrix: (Units=GPa)
#
#
# Indices 1 2 3 4 5 6 
#
# 1 47.6462 48.1288 6.3062 0.0000 0.0000 0.0000
# 2 48.1288 140.3475 10.9113 0.0000 0.0000 0.0000
# 3 6.3062 10.9113 17.1088 0.0000 0.0000 0.0000
# 4 0.0000 0.0000 0.0000 36.1134 0.0000 0.0000
# 5 0.0000 0.0000 0.0000 0.0000 17.4564 0.0000
# 6 0.0000 0.0000 0.0000 0.0000 0.0000 17.1275
#
#
#
# Elastic Compliance Matrix: (Units=1/GPa)
#
#
# Indices 1 2 3 4 5 6 
#
# 1 0.032534 -0.010758 -0.005131 0.000000 0.000000 0.000000
# 2 -0.010758 0.011054 -0.003085 0.000000 0.000000 0.000000
# 3 -0.005131 -0.003085 0.062308 0.000000 0.000000 0.000000
# 4 0.000000 0.000000 0.000000 0.027691 0.000000 0.000000
# 5 0.000000 0.000000 0.000000 0.000000 0.057285 0.000000
# 6 0.000000 0.000000 0.000000 0.000000 0.000000 0.058385
#
#
# Mechanical properties :
#
#
# Convention : Reuss Voigt Hill
#
# Bulk Modulus (GPa) = 14.71687 37.31055 26.01371
# Shear Modulus (GPa) = 16.13664 23.45657 19.79660
#
# Velocity S-wave (km/s) = 2.95810 3.56646 3.27643
# Velocity P-wave (km/s) = 4.43255 6.09850 5.33101
#
# Compressibility (1/GPa) = 0.06794925
#
# Stress axis : x y z
#
# Youngs Moduli (GPa) = 30.73712 90.46407 16.04933
#
# Poissons Ratio (x) = 0.97320 0.08235
# Poissons Ratio (y) = 0.33066 0.04951
# Poissons Ratio (z) = 0.15771 0.27904
#
# Static dielectric constant tensor:
#      x y z
#    x 1.636960 0.000000 0.000000 
#    y 0.000000 1.422480 0.000000 
#    z 0.000000 0.000000 1.661490 
# 
# From -- ./inp_files/8939.got.cif
#   From: 2010.05.17/outbox.cif.g08.bks.cpg/sg55_5_cif.got.tgz:8939.got - 2010.06.03 13:27:54.
