data_PCOD9425619
_publ_section_title
;
Structure prediction by ZEFSAII (Michael W. Deem and Ramdas Pophale) SiO2 
 PCOD9425619
Probable space group: P B A M
;
_chemical_formula_sum "Si O2"
_cell_formula_units_Z 64
_cell_length_a 24.524564
_cell_length_b 6.966810
_cell_length_c 15.577254
_cell_angle_alpha 90.000000
_cell_angle_beta 90.000000
_cell_angle_gamma 90.000000
_cell_volume 2661.498117
_symmetry_space_group_name_H-M "P B A M"
_symmetry_group_IT_number 55
_symmetry_cell_setting 'orthorhombic'
loop_
_space_group_symop_operation_xyz
x,y,z
-x,-y,z
1/2+x,1/2-y,-z
1/2-x,1/2+y,-z
-x,-y,-z
x,y,-z
1/2-x,1/2+y,z
1/2+x,1/2-y,z
loop_
_atom_site_type_symbol
_atom_site_label
_atom_site_fract_x
_atom_site_fract_y
_atom_site_fract_z
Si Si1 0.253122 0.287287 0.192145
Si Si2 0.123946 0.627228 0.599603
Si Si3 0.642450 0.419116 0.407481
Si Si4 0.256266 0.042399 0.673140
Si Si5 0.071763 0.201385 0.744174
Si Si6 0.858601 0.756435 0.904258
Si Si7 0.132352 0.785312 0.902421
Si Si8 0.553761 0.763351 0.244337
O O1 0.250609 0.294394 0.301377
O O2 0.245028 0.038182 0.217495
O O3 0.202748 0.293271 0.125190
O O4 0.312787 0.256226 0.151920
O O5 0.111870 0.569954 0.500000
O O6 0.183233 0.552531 0.631723
O O7 0.082307 0.612481 0.680388
O O8 0.124576 0.859974 0.595296
O O9 0.630202 0.339525 0.500000
O O10 0.706291 0.440251 0.391740
O O11 0.611358 0.291753 0.337873
O O12 0.103375 0.292674 0.824167
O O13 0.010833 0.280610 0.745440
O O14 0.065202 0.967805 0.749358
O O15 0.868714 0.984521 0.908231
O O16 0.869997 0.685263 0.000000
O O17 0.081765 0.702518 0.848383
O O18 0.135983 0.716639 0.000000
#
# Coordination Sequence:
#
# PCOD9425619 Si02
#       8
#     8   8   8   8   8   8   8   8
#     4  12  20  35  56  77 108 143 175 215 267 320
#     4  10  20  34  53  80 110 140 176 221 269 319
#     4  10  19  32  51  79 112 142 176 220 267 318
#     4  12  20  35  56  77 108 143 175 215 267 320
#     4   9  17  31  51  77 108 143 182 225 269 311
#     4  10  20  34  53  80 110 140 176 221 269 319
#     4  10  19  32  51  79 112 142 176 220 267 318
#     4   9  17  31  51  77 108 143 182 225 269 311
#
# _framework density 24.046607000000002
#
# number of rings (size 3 to 8) (size 9 to 14) (size 15 to 20)
#    0.000    1.750    5.000    1.500    0.000    1.000 
#    0.000    5.000    0.000    0.750    0.000    1.750 
#    0.000    0.000    0.000    0.000    0.000    0.000 
#
# Total GULP energy -357068.852482 kJ/mol
# GULP energy per Si atom -5579.200820 kJ/mol
# Density = 2.399188 g / cm^3
# Si number density = 24.046607 Si / 1000 Ang^3
#
#
#
# Elastic Constant Matrix: (Units=GPa)
#
#
# Indices 1 2 3 4 5 6 
#
# 1 115.6439 -15.4351 65.8624 0.0000 0.0000 0.0000
# 2 -15.4351 135.3817 17.2419 0.0000 0.0000 0.0000
# 3 65.8624 17.2419 166.8993 0.0000 0.0000 0.0000
# 4 0.0000 0.0000 0.0000 -105.3031 0.0000 0.0000
# 5 0.0000 0.0000 0.0000 0.0000 -31.5483 0.0000
# 6 0.0000 0.0000 0.0000 0.0000 0.0000 30.7473
#
#
#
# Elastic Compliance Matrix: (Units=1/GPa)
#
#
# Indices 1 2 3 4 5 6 
#
# 1 0.011635 0.001937 -0.004791 0.000000 0.000000 0.000000
# 2 0.001937 0.007807 -0.001571 0.000000 0.000000 0.000000
# 3 -0.004791 -0.001571 0.008045 0.000000 0.000000 0.000000
# 4 0.000000 0.000000 0.000000 -0.009496 0.000000 0.000000
# 5 0.000000 0.000000 0.000000 0.000000 -0.031697 0.000000
# 6 0.000000 0.000000 0.000000 0.000000 0.000000 0.032523
#
#
# Mechanical properties :
#
#
# Convention : Reuss Voigt Hill
#
# Bulk Modulus (GPa) = 53.66055 61.47370 57.56712
# Shear Modulus (GPa) = 147.58475 2.12955 74.85715
#
# Velocity S-wave (km/s) = 7.84268 0.94208 5.58548
# Velocity P-wave (km/s) = 10.21636 5.17719 8.09868
#
# Compressibility (1/GPa) = 0.01863566
#
# Stress axis : x y z
#
# Youngs Moduli (GPa) = 85.95105 128.08387 124.30558
#
# Poissons Ratio (x) = -0.24806 0.59559
# Poissons Ratio (y) = -0.16646 0.19526
# Poissons Ratio (z) = 0.41182 0.20120
#
# Static dielectric constant tensor:
#      x y z
#    x 1.776380 0.000000 0.000000 
#    y 0.000000 2.239250 0.000000 
#    z 0.000000 0.000000 1.895930 
# 
# From -- ./inp_files/19963.got.cif
#   From: 2010.05.17/outbox.cif.g08.bks.cpg/sg55_10_cif.got.tgz:19963.got - 2010.06.03 13:27:54.
