data_PCOD9425371
_publ_section_title
;
Structure prediction by ZEFSAII (Michael W. Deem and Ramdas Pophale) SiO2 
 PCOD9425371
Probable space group: P B A M
;
_chemical_formula_sum "Si O2"
_cell_formula_units_Z 64
_cell_length_a 14.781412
_cell_length_b 20.126167
_cell_length_c 11.674289
_cell_angle_alpha 90.000000
_cell_angle_beta 90.000000
_cell_angle_gamma 90.000000
_cell_volume 3473.021200
_symmetry_space_group_name_H-M "P B A M"
_symmetry_group_IT_number 55
_symmetry_cell_setting 'orthorhombic'
loop_
_space_group_symop_operation_xyz
x,y,z
-x,-y,z
1/2+x,1/2-y,-z
1/2-x,1/2+y,-z
-x,-y,-z
x,y,-z
1/2-x,1/2+y,z
1/2+x,1/2-y,z
loop_
_atom_site_type_symbol
_atom_site_label
_atom_site_fract_x
_atom_site_fract_y
_atom_site_fract_z
Si Si1 0.861586 0.062690 0.861609
Si Si2 0.832504 0.916356 0.812610
Si Si3 0.847506 0.589165 0.132810
Si Si4 0.002665 0.171911 0.128406
Si Si5 0.785270 0.812053 0.631523
Si Si6 0.911687 0.358703 0.370511
Si Si7 0.073797 0.290536 0.274972
Si Si8 0.623832 0.935860 0.868500
O O1 0.758665 0.083601 0.837966
O O2 0.930554 0.119344 0.822867
O O3 0.874231 0.989746 0.809313
O O4 0.871979 0.054942 0.000000
O O5 0.902325 0.867631 0.874801
O O6 0.816355 0.880025 0.692367
O O7 0.732884 0.923020 0.868126
O O8 0.894038 0.645633 0.205320
O O9 0.888219 0.515222 0.144953
O O10 0.853738 0.607499 0.000000
O O11 0.017181 0.238302 0.199149
O O12 0.973552 0.188983 0.000000
O O13 0.809881 0.814319 0.500000
O O14 0.676756 0.811928 0.642168
O O15 0.838466 0.750381 0.685097
O O16 0.902671 0.390380 0.500000
O O17 0.910146 0.401761 0.250732
O O18 0.004270 0.317719 0.368476
O O19 0.591631 0.917458 0.000000
#
# Coordination Sequence:
#
# PCOD9425371 Si02
#       8
#     8   8   8   8   8   8   8   8
#     4   9  17  30  51  77 111 145 176 221 281 335
#     4   9  16  30  54  80 106 141 180 227 279 334
#     4   9  19  35  53  79 116 149 180 228 283 332
#     4  10  19  29  47  80 114 144 182 226 274 329
#     4   9  20  38  57  76 105 145 185 229 276 327
#     4  10  22  40  60  82 110 145 188 235 279 331
#     4  11  22  34  55  78 109 149 191 222 270 331
#     4   9  18  35  59  84 110 147 188 230 282 331
#
# _framework density 18.427759999999999
#
# number of rings (size 3 to 8) (size 9 to 14) (size 15 to 20)
#    0.000    2.500    0.000    3.000    1.750    2.500 
#    0.000    3.750    0.000    8.250    0.000    0.000 
#    0.000    0.000    0.000    0.000    0.000    0.000 
#
# Total GULP energy -356443.854237 kJ/mol
# GULP energy per Si atom -5569.435222 kJ/mol
# Density = 1.838582 g / cm^3
# Si number density = 18.427760 Si / 1000 Ang^3
#
#
#
# Elastic Constant Matrix: (Units=GPa)
#
#
# Indices 1 2 3 4 5 6 
#
# 1 51.5265 41.5740 29.3969 0.0000 0.0000 0.0000
# 2 41.5740 78.5435 54.6305 0.0000 0.0000 0.0000
# 3 29.3969 54.6305 99.9609 0.0000 0.0000 0.0000
# 4 0.0000 0.0000 0.0000 3.8030 0.0000 0.0000
# 5 0.0000 0.0000 0.0000 0.0000 13.9460 0.0000
# 6 0.0000 0.0000 0.0000 0.0000 0.0000 21.8286
#
#
#
# Elastic Compliance Matrix: (Units=1/GPa)
#
#
# Indices 1 2 3 4 5 6 
#
# 1 0.033879 -0.017750 -0.000263 0.000000 0.000000 0.000000
# 2 -0.017750 0.029839 -0.011088 0.000000 0.000000 0.000000
# 3 -0.000263 -0.011088 0.016141 0.000000 0.000000 0.000000
# 4 0.000000 0.000000 0.000000 0.262947 0.000000 0.000000
# 5 0.000000 0.000000 0.000000 0.000000 0.071705 0.000000
# 6 0.000000 0.000000 0.000000 0.000000 0.000000 0.045811
#
#
# Mechanical properties :
#
#
# Convention : Reuss Voigt Hill
#
# Bulk Modulus (GPa) = 46.17153 53.47042 49.82097
# Shear Modulus (GPa) = 9.51039 14.87750 12.19395
#
# Velocity S-wave (km/s) = 2.27423 2.84446 2.57518
# Velocity P-wave (km/s) = 5.65738 6.31404 5.99471
#
# Compressibility (1/GPa) = 0.02165837
#
# Stress axis : x y z
#
# Youngs Moduli (GPa) = 29.51721 33.51342 61.95512
#
# Poissons Ratio (x) = 0.59485 0.01627
# Poissons Ratio (y) = 0.52392 0.68693
# Poissons Ratio (z) = 0.00775 0.37158
#
# Static dielectric constant tensor:
#      x y z
#    x 1.679300 0.000000 0.000000 
#    y 0.000000 1.612390 0.000000 
#    z 0.000000 0.000000 1.653810 
# 
# From -- ./inp_files/14385.got.cif
#   From: 2010.05.17/outbox.cif.g08.bks.cpg/sg55_8_cif.got.tgz:14385.got - 2010.06.03 13:27:54.
