data_PCOD9425441
_publ_section_title
;
Structure prediction by ZEFSAII (Michael W. Deem and Ramdas Pophale) SiO2 
 PCOD9425441
Probable space group: P B A M
;
_chemical_formula_sum "Si O2"
_cell_formula_units_Z 40
_cell_length_a 23.339758
_cell_length_b 5.010676
_cell_length_c 21.426058
_cell_angle_alpha 90.000000
_cell_angle_beta 90.000000
_cell_angle_gamma 90.000000
_cell_volume 2505.733887
_symmetry_space_group_name_H-M "P B A M"
_symmetry_group_IT_number 55
_symmetry_cell_setting 'orthorhombic'
loop_
_space_group_symop_operation_xyz
x,y,z
-x,-y,z
1/2+x,1/2-y,-z
1/2-x,1/2+y,-z
-x,-y,-z
x,y,-z
1/2-x,1/2+y,z
1/2+x,1/2-y,z
loop_
_atom_site_type_symbol
_atom_site_label
_atom_site_fract_x
_atom_site_fract_y
_atom_site_fract_z
Si Si1 0.708933 0.550348 0.232522
Si Si2 0.210548 0.846012 0.631331
Si Si3 0.868689 0.096545 0.887313
Si Si4 0.712753 0.420587 0.000000
Si Si5 0.209604 0.974029 0.500000
Si Si6 0.062952 0.387749 0.074686
O O1 0.739322 0.263871 0.226965
O O2 0.682976 0.591876 0.301912
O O3 0.663161 0.594701 0.178575
O O4 0.234120 0.544970 0.630725
O O5 0.179611 0.912797 0.566047
O O6 0.920655 0.885975 0.891477
O O7 0.891660 0.386189 0.906067
O O8 0.823827 0.993515 0.939219
O O9 0.767843 0.614560 0.000000
O O10 0.264042 0.769641 0.500000
O O11 0.000000 0.500000 0.088749
O O12 0.065993 0.341658 0.000000
#
# Coordination Sequence:
#
# PCOD9425441 Si02
#       6
#     8   8   8   4   4   8
#     4  10  19  31  44  64  93 125 149 172 208 260
#     4   8  14  23  37  55  81 114 149 176 201 235
#     4  12  21  35  50  68  88 116 144 181 222 263
#     4  12  22  32  45  66  91 116 144 172 200 248
#     4   8  12  20  34  54  76 108 149 182 199 224
#     4  11  22  38  54  68  82 104 144 193 236 272
#
# _framework density 15.963386
#
# number of rings (size 3 to 8) (size 9 to 14) (size 15 to 20)
#    0.000    1.800    2.000    4.200    0.000    1.600 
#    0.000    0.000    0.000    0.000    0.000    0.000 
#    0.000    0.000    0.000    5.400    0.000    2.000 
#
# Total GULP energy -223070.820784 kJ/mol
# GULP energy per Si atom -5576.770520 kJ/mol
# Density = 1.592705 g / cm^3
# Si number density = 15.963386 Si / 1000 Ang^3
#
#
#
# Elastic Constant Matrix: (Units=GPa)
#
#
# Indices 1 2 3 4 5 6 
#
# 1 25.6083 -5.8228 28.8260 0.0000 0.0000 0.0000
# 2 -5.8228 56.2586 -13.9637 0.0000 0.0000 0.0000
# 3 28.8260 -13.9637 117.9847 0.0000 0.0000 0.0000
# 4 0.0000 0.0000 0.0000 17.3740 0.0000 0.0000
# 5 0.0000 0.0000 0.0000 0.0000 1.4427 0.0000
# 6 0.0000 0.0000 0.0000 0.0000 0.0000 21.4162
#
#
#
# Elastic Compliance Matrix: (Units=1/GPa)
#
#
# Indices 1 2 3 4 5 6 
#
# 1 0.054174 0.002392 -0.012953 0.000000 0.000000 0.000000
# 2 0.002392 0.018419 0.001595 0.000000 0.000000 0.000000
# 3 -0.012953 0.001595 0.011829 0.000000 0.000000 0.000000
# 4 0.000000 0.000000 0.000000 0.057557 0.000000 0.000000
# 5 0.000000 0.000000 0.000000 0.000000 0.693160 0.000000
# 6 0.000000 0.000000 0.000000 0.000000 0.000000 0.046694
#
#
# Mechanical properties :
#
#
# Convention : Reuss Voigt Hill
#
# Bulk Modulus (GPa) = 15.03954 24.21453 19.62704
# Shear Modulus (GPa) = 5.42343 20.76738 13.09541
#
# Velocity S-wave (km/s) = 1.84521 3.61077 2.86727
# Velocity P-wave (km/s) = 3.73918 5.70835 4.82528
#
# Compressibility (1/GPa) = 0.06649139
#
# Stress axis : x y z
#
# Youngs Moduli (GPa) = 18.45909 54.29283 84.53737
#
# Poissons Ratio (x) = -0.12988 1.09498
# Poissons Ratio (y) = -0.04416 -0.13487
# Poissons Ratio (z) = 0.23909 -0.08662
#
# Static dielectric constant tensor:
#      x y z
#    x 1.503280 0.000000 0.000000 
#    y 0.000000 1.556320 0.000000 
#    z 0.000000 0.000000 1.589130 
# 
# From -- ./inp_files/22301.got.cif
#   From: 2010.05.17/outbox.cif.g08.bks.cpg/sg55_12_cif.got.tgz:22301.got - 2010.06.03 13:27:54.
