data_PCOD9425141
_publ_section_title
;
Structure prediction by ZEFSAII (Michael W. Deem and Ramdas Pophale) SiO2 
 PCOD9425141
Probable space group: P B A M
;
_chemical_formula_sum "Si O2"
_cell_formula_units_Z 64
_cell_length_a 14.710995
_cell_length_b 31.109233
_cell_length_c 9.017741
_cell_angle_alpha 90.000000
_cell_angle_beta 90.000000
_cell_angle_gamma 90.000000
_cell_volume 4126.949069
_symmetry_space_group_name_H-M "P B A M"
_symmetry_group_IT_number 55
_symmetry_cell_setting 'orthorhombic'
loop_
_space_group_symop_operation_xyz
x,y,z
-x,-y,z
1/2+x,1/2-y,-z
1/2-x,1/2+y,-z
-x,-y,-z
x,y,-z
1/2-x,1/2+y,z
1/2+x,1/2-y,z
loop_
_atom_site_type_symbol
_atom_site_label
_atom_site_fract_x
_atom_site_fract_y
_atom_site_fract_z
Si Si1 0.989474 0.276459 0.327908
Si Si2 0.832802 0.866608 0.175143
Si Si3 0.499413 0.673677 0.667428
Si Si4 0.392980 0.452673 0.319810
Si Si5 0.705125 0.787935 0.179223
Si Si6 0.395878 0.550240 0.321405
Si Si7 0.301913 0.367263 0.675296
Si Si8 0.821977 0.702888 0.177646
O O1 0.988073 0.289726 0.500000
O O2 0.999479 0.224831 0.323341
O O3 0.894179 0.287050 0.250390
O O4 0.077731 0.294813 0.246142
O O5 0.758628 0.831263 0.223064
O O6 0.833897 0.912650 0.254216
O O7 0.929453 0.845486 0.216480
O O8 0.824610 0.872471 0.000000
O O9 0.470236 0.660661 0.500000
O O10 0.600758 0.656405 0.688169
O O11 0.392931 0.451600 0.500000
O O12 0.371878 0.501524 0.275018
O O13 0.497839 0.442775 0.277330
O O14 0.323486 0.415726 0.271546
O O15 0.763922 0.745609 0.223053
O O16 0.697969 0.787043 0.000000
O O17 0.392509 0.551985 0.500000
O O18 0.277904 0.367905 0.500000
O O19 0.230029 0.339158 0.764129
O O20 0.827013 0.703047 0.000000
#
# Coordination Sequence:
#
# PCOD9425141 Si02
#       8
#     8   8   8   8   8   8   8   8
#     4  11  22  35  52  73  96 127 170 216 247 277
#     4  11  21  32  47  71 101 136 169 201 243 294
#     4  10  19  30  48  71  98 130 166 207 244 281
#     4   8  15  28  49  71  98 131 164 202 248 293
#     4  10  22  36  49  68  99 136 168 198 244 298
#     4   9  16  30  49  71  97 131 167 202 246 294
#     4  10  18  32  50  73  99 131 172 208 239 285
#     4  11  22  35  50  71 101 136 165 199 248 300
#
# _framework density 15.507825
#
# number of rings (size 3 to 8) (size 9 to 14) (size 15 to 20)
#    0.000    2.000    3.750    1.875    0.000    2.500 
#    0.000    1.875    0.000    0.000    0.000    0.875 
#    0.000    7.000    0.000    0.000    0.000    0.000 
#
# Total GULP energy -356913.267738 kJ/mol
# GULP energy per Si atom -5576.769808 kJ/mol
# Density = 1.547253 g / cm^3
# Si number density = 15.507825 Si / 1000 Ang^3
#
#
#
# Elastic Constant Matrix: (Units=GPa)
#
#
# Indices 1 2 3 4 5 6 
#
# 1 86.1506 48.2500 34.7760 0.0000 0.0000 0.0000
# 2 48.2500 110.8062 32.7135 0.0000 0.0000 0.0000
# 3 34.7760 32.7135 34.1158 0.0000 0.0000 0.0000
# 4 0.0000 0.0000 0.0000 20.4992 0.0000 0.0000
# 5 0.0000 0.0000 0.0000 0.0000 25.3408 0.0000
# 6 0.0000 0.0000 0.0000 0.0000 0.0000 23.8084
#
#
#
# Elastic Compliance Matrix: (Units=1/GPa)
#
#
# Indices 1 2 3 4 5 6 
#
# 1 0.020874 -0.003916 -0.017523 0.000000 0.000000 0.000000
# 2 -0.003916 0.013323 -0.008784 0.000000 0.000000 0.000000
# 3 -0.017523 -0.008784 0.055597 0.000000 0.000000 0.000000
# 4 0.000000 0.000000 0.000000 0.048782 0.000000 0.000000
# 5 0.000000 0.000000 0.000000 0.000000 0.039462 0.000000
# 6 0.000000 0.000000 0.000000 0.000000 0.000000 0.042002
#
#
# Mechanical properties :
#
#
# Convention : Reuss Voigt Hill
#
# Bulk Modulus (GPa) = 34.07332 51.39463 42.73397
# Shear Modulus (GPa) = 17.22539 21.61854 19.42196
#
# Velocity S-wave (km/s) = 3.33641 3.73774 3.54276
# Velocity P-wave (km/s) = 6.07138 7.20004 6.65966
#
# Compressibility (1/GPa) = 0.02934847
#
# Stress axis : x y z
#
# Youngs Moduli (GPa) = 47.90567 75.05659 17.98674
#
# Poissons Ratio (x) = 0.29394 0.31518
# Poissons Ratio (y) = 0.18761 0.15799
# Poissons Ratio (z) = 0.83945 0.65927
#
# Static dielectric constant tensor:
#      x y z
#    x 1.485120 0.000000 0.000000 
#    y 0.000000 1.538100 0.000000 
#    z 0.000000 0.000000 1.528490 
# 
# From -- ./inp_files/6904.got.cif
#   From: 2010.05.17/outbox.cif.g08.bks.cpg/sg55_4_cif.got.tgz:6904.got - 2010.06.03 13:27:54.
