data_PCOD9425234
_publ_section_title
;
Structure prediction by ZEFSAII (Michael W. Deem and Ramdas Pophale) SiO2 
 PCOD9425234
Probable space group: P B A M
;
_chemical_formula_sum "Si O2"
_cell_formula_units_Z 64
_cell_length_a 14.841874
_cell_length_b 24.349807
_cell_length_c 8.663857
_cell_angle_alpha 90.000000
_cell_angle_beta 90.000000
_cell_angle_gamma 90.000000
_cell_volume 3131.089913
_symmetry_space_group_name_H-M "P B A M"
_symmetry_group_IT_number 55
_symmetry_cell_setting 'orthorhombic'
loop_
_space_group_symop_operation_xyz
x,y,z
-x,-y,z
1/2+x,1/2-y,-z
1/2-x,1/2+y,-z
-x,-y,-z
x,y,-z
1/2-x,1/2+y,z
1/2+x,1/2-y,z
loop_
_atom_site_type_symbol
_atom_site_label
_atom_site_fract_x
_atom_site_fract_y
_atom_site_fract_z
Si Si1 0.004831 0.333337 0.179568
Si Si2 0.832931 0.292182 0.320831
Si Si3 0.065327 0.950023 0.812146
Si Si4 0.266846 0.591446 0.678727
Si Si5 0.949782 0.555495 0.316408
Si Si6 0.268707 0.978276 0.815343
Si Si7 0.144281 0.253888 0.684248
Si Si8 0.936298 0.856816 0.818003
O O1 0.996374 0.389899 0.272577
O O2 0.095876 0.303385 0.230936
O O3 0.922790 0.292743 0.221914
O O4 0.004304 0.345561 0.000000
O O5 0.854363 0.280428 0.500000
O O6 0.792906 0.353931 0.312444
O O7 0.748779 0.254812 0.270845
O O8 0.168929 0.958471 0.766192
O O9 0.023174 0.891394 0.765714
O O10 0.062607 0.950896 0.000000
O O11 0.000000 0.000000 0.759678
O O12 0.295137 0.585373 0.500000
O O13 0.217315 0.537405 0.736144
O O14 0.352898 0.601825 0.787120
O O15 0.939211 0.552353 0.500000
O O16 0.851689 0.558600 0.238553
O O17 0.000000 0.500000 0.263416
O O18 0.269261 0.983546 0.000000
O O19 0.140786 0.261024 0.500000
O O20 0.090560 0.198095 0.727759
O O21 0.942689 0.844311 0.000000
#
# Coordination Sequence:
#
# PCOD9425234 Si02
#       8
#     8   8   8   8   8   8   8   8
#     4  12  25  42  67  97 125 159 205 257 313 373
#     4   9  20  39  63  88 117 157 199 246 303 361
#     4   9  17  32  53  83 123 165 201 245 308 365
#     4  10  19  32  53  84 120 158 202 249 299 358
#     4  11  25  45  66  89 123 164 204 254 318 382
#     4  11  21  35  57  86 120 160 205 253 304 365
#     4  10  22  42  65  90 123 159 202 253 308 368
#     4  10  18  33  57  83 116 159 207 254 301 355
#
# _framework density 20.440166999999999
#
# number of rings (size 3 to 8) (size 9 to 14) (size 15 to 20)
#    0.000    1.750    1.250    4.500    0.000    7.000 
#    2.250    3.125    0.000    0.000    0.000    0.000 
#    0.000    0.000    0.000    0.000    0.000    0.000 
#
# Total GULP energy -357536.856830 kJ/mol
# GULP energy per Si atom -5586.513388 kJ/mol
# Density = 2.039364 g / cm^3
# Si number density = 20.440167 Si / 1000 Ang^3
#
#
#
# Elastic Constant Matrix: (Units=GPa)
#
#
# Indices 1 2 3 4 5 6 
#
# 1 96.4129 9.2867 13.6287 0.0000 0.0000 0.0000
# 2 9.2867 34.9382 -8.9084 0.0000 0.0000 0.0000
# 3 13.6287 -8.9084 30.2396 0.0000 0.0000 0.0000
# 4 0.0000 0.0000 0.0000 27.6756 0.0000 0.0000
# 5 0.0000 0.0000 0.0000 0.0000 26.0524 0.0000
# 6 0.0000 0.0000 0.0000 0.0000 0.0000 26.9882
#
#
#
# Elastic Compliance Matrix: (Units=1/GPa)
#
#
# Indices 1 2 3 4 5 6 
#
# 1 0.011793 -0.004855 -0.006745 0.000000 0.000000 0.000000
# 2 -0.004855 0.032945 0.011893 0.000000 0.000000 0.000000
# 3 -0.006745 0.011893 0.039613 0.000000 0.000000 0.000000
# 4 0.000000 0.000000 0.000000 0.036133 0.000000 0.000000
# 5 0.000000 0.000000 0.000000 0.000000 0.038384 0.000000
# 6 0.000000 0.000000 0.000000 0.000000 0.000000 0.037053
#
#
# Mechanical properties :
#
#
# Convention : Reuss Voigt Hill
#
# Bulk Modulus (GPa) = 11.77329 21.06720 16.42025
# Shear Modulus (GPa) = 22.35669 25.98216 24.16943
#
# Velocity S-wave (km/s) = 3.31080 3.56916 3.44240
# Velocity P-wave (km/s) = 4.51526 5.22632 4.88374
#
# Compressibility (1/GPa) = 0.08493804
#
# Stress axis : x y z
#
# Youngs Moduli (GPa) = 84.79505 30.35373 25.24430
#
# Poissons Ratio (x) = 0.14735 0.17028
# Poissons Ratio (y) = 0.41164 -0.30024
# Poissons Ratio (z) = 0.57196 -0.36101
#
# Static dielectric constant tensor:
#      x y z
#    x 1.749770 0.000000 0.000000 
#    y 0.000000 1.731380 0.000000 
#    z 0.000000 0.000000 1.683630 
# 
# From -- ./inp_files/6544.got.cif
#   From: 2010.05.17/outbox.cif.g08.bks.cpg/sg55_4_cif.got.tgz:6544.got - 2010.06.03 13:27:54.
