data_PCOD9425871
_publ_section_title
;
Structure prediction by ZEFSAII (Michael W. Deem and Ramdas Pophale) SiO2 
 PCOD9425871
Probable space group: P B A M
;
_chemical_formula_sum "Si O2"
_cell_formula_units_Z 56
_cell_length_a 12.702423
_cell_length_b 14.645399
_cell_length_c 14.420304
_cell_angle_alpha 90.000000
_cell_angle_beta 90.000000
_cell_angle_gamma 90.000000
_cell_volume 2682.638759
_symmetry_space_group_name_H-M "P B A M"
_symmetry_group_IT_number 55
_symmetry_cell_setting 'orthorhombic'
loop_
_space_group_symop_operation_xyz
x,y,z
-x,-y,z
1/2+x,1/2-y,-z
1/2-x,1/2+y,-z
-x,-y,-z
x,y,-z
1/2-x,1/2+y,z
1/2+x,1/2-y,z
loop_
_atom_site_type_symbol
_atom_site_label
_atom_site_fract_x
_atom_site_fract_y
_atom_site_fract_z
Si Si1 0.719440 0.603836 0.893576
Si Si2 0.748820 0.833130 0.286092
Si Si3 0.389442 0.842636 0.243447
Si Si4 0.033454 0.702552 0.389704
Si Si5 0.443511 0.594174 0.611195
Si Si6 0.476901 0.271499 0.107738
Si Si7 0.180815 0.100941 0.102392
O O1 0.815567 0.596957 0.821903
O O2 0.633494 0.680594 0.868912
O O3 0.662301 0.506668 0.894404
O O4 0.756108 0.622380 0.000000
O O5 0.809703 0.737900 0.272949
O O6 0.645632 0.819499 0.345734
O O7 0.831693 0.898000 0.338813
O O8 0.738714 0.871480 0.182388
O O9 0.448700 0.863427 0.339088
O O10 0.482769 0.805401 0.177192
O O11 0.032290 0.692431 0.500000
O O12 0.004404 0.809894 0.368542
O O13 0.500000 0.500000 0.639989
O O14 0.430312 0.591226 0.500000
O O15 0.571101 0.346292 0.115644
O O16 0.473556 0.242861 0.000000
O O17 0.221444 0.125147 0.000000
#
# Coordination Sequence:
#
# PCOD9425871 Si02
#       7
#     8   8   8   8   8   8   8
#     4  10  19  33  55  80 108 143 183 229 279 329
#     4  10  20  34  57  81 110 149 186 227 279 338
#     4  10  20  33  51  79 109 142 183 224 274 333
#     4  10  21  38  58  80 109 145 185 229 282 341
#     4   9  19  36  60  90 117 141 182 242 295 335
#     4   9  17  31  52  80 113 143 175 220 274 334
#     4   9  19  34  53  80 110 141 181 229 278 328
#
# _framework density 20.874969
#
# number of rings (size 3 to 8) (size 9 to 14) (size 15 to 20)
#    0.000    2.429    0.000    2.143    0.000    7.429 
#    0.000    2.143    0.000    5.143    0.000    0.000 
#    0.000    0.000    0.000    0.000    0.000    0.000 
#
# Total GULP energy -312496.297130 kJ/mol
# GULP energy per Si atom -5580.291020 kJ/mol
# Density = 2.082746 g / cm^3
# Si number density = 20.874969 Si / 1000 Ang^3
#
#
#
# Elastic Constant Matrix: (Units=GPa)
#
#
# Indices 1 2 3 4 5 6 
#
# 1 86.2278 12.7506 71.9763 0.0000 0.0000 0.0000
# 2 12.7506 23.0323 20.6468 0.0000 0.0000 0.0000
# 3 71.9763 20.6468 117.4848 0.0000 0.0000 0.0000
# 4 0.0000 0.0000 0.0000 22.0465 0.0000 0.0000
# 5 0.0000 0.0000 0.0000 0.0000 33.7274 0.0000
# 6 0.0000 0.0000 0.0000 0.0000 0.0000 20.2034
#
#
#
# Elastic Compliance Matrix: (Units=1/GPa)
#
#
# Indices 1 2 3 4 5 6 
#
# 1 0.023735 -0.000124 -0.014519 0.000000 0.000000 0.000000
# 2 -0.000124 0.051537 -0.008981 0.000000 0.000000 0.000000
# 3 -0.014519 -0.008981 0.018985 0.000000 0.000000 0.000000
# 4 0.000000 0.000000 0.000000 0.045359 0.000000 0.000000
# 5 0.000000 0.000000 0.000000 0.000000 0.029649 0.000000
# 6 0.000000 0.000000 0.000000 0.000000 0.000000 0.049497
#
#
# Mechanical properties :
#
#
# Convention : Reuss Voigt Hill
#
# Bulk Modulus (GPa) = 21.27288 48.61026 34.94157
# Shear Modulus (GPa) = 17.75059 23.28688 20.51873
#
# Velocity S-wave (km/s) = 2.91920 3.34359 3.13858
# Velocity P-wave (km/s) = 4.64490 6.18410 5.46892
#
# Compressibility (1/GPa) = 0.04700821
#
# Stress axis : x y z
#
# Youngs Moduli (GPa) = 42.13141 19.40358 52.67231
#
# Poissons Ratio (x) = 0.00241 0.76477
# Poissons Ratio (y) = 0.00523 0.47305
# Poissons Ratio (z) = 0.61172 0.17426
#
# Static dielectric constant tensor:
#      x y z
#    x 1.734620 0.000000 0.000000 
#    y 0.000000 1.767370 0.000000 
#    z 0.000000 0.000000 1.786110 
# 
# From -- ./inp_files/18350.got.cif
#   From: 2010.05.17/outbox.cif.g08.bks.cpg/sg55_10_cif.got.tgz:18350.got - 2010.06.03 13:27:54.
