data_PCOD9425660
_publ_section_title
;
Structure prediction by ZEFSAII (Michael W. Deem and Ramdas Pophale) SiO2 
 PCOD9425660
Probable space group: P B A M
;
_chemical_formula_sum "Si O2"
_cell_formula_units_Z 64
_cell_length_a 14.566463
_cell_length_b 21.352238
_cell_length_c 8.695510
_cell_angle_alpha 90.000000
_cell_angle_beta 90.000000
_cell_angle_gamma 90.000000
_cell_volume 2704.534778
_symmetry_space_group_name_H-M "P B A M"
_symmetry_group_IT_number 55
_symmetry_cell_setting 'orthorhombic'
loop_
_space_group_symop_operation_xyz
x,y,z
-x,-y,z
1/2+x,1/2-y,-z
1/2-x,1/2+y,-z
-x,-y,-z
x,y,-z
1/2-x,1/2+y,z
1/2+x,1/2-y,z
loop_
_atom_site_type_symbol
_atom_site_label
_atom_site_fract_x
_atom_site_fract_y
_atom_site_fract_z
Si Si1 0.780579 0.021486 0.675312
Si Si2 0.929106 0.132508 0.668193
Si Si3 0.058280 0.748994 0.176798
Si Si4 0.195739 0.652952 0.319222
Si Si5 0.144288 0.374586 0.685683
Si Si6 0.926691 0.942330 0.828972
Si Si7 0.842414 0.756864 0.817712
Si Si8 0.040642 0.566814 0.687230
O O1 0.761794 0.999990 0.500000
O O2 0.695370 0.061687 0.735905
O O3 0.858592 0.075415 0.665011
O O4 0.829243 0.968538 0.775147
O O5 0.928521 0.162977 0.500000
O O6 0.903350 0.181191 0.799144
O O7 0.028025 0.103561 0.706636
O O8 0.951186 0.757898 0.217045
O O9 0.116855 0.704635 0.285804
O O10 0.066850 0.728268 0.000000
O O11 0.213594 0.647475 0.500000
O O12 0.285000 0.683709 0.241760
O O13 0.141733 0.589968 0.264039
O O14 0.150110 0.373848 0.500000
O O15 0.186427 0.310078 0.745756
O O16 0.038208 0.383348 0.732413
O O17 0.922347 0.914303 0.000000
O O18 0.000000 0.000000 0.836678
O O19 0.830707 0.753960 0.000000
O O20 0.043106 0.565407 0.500000
O O21 0.000000 0.500000 0.737191
#
# Coordination Sequence:
#
# PCOD9425660 Si02
#       8
#     8   8   8   8   8   8   8   8
#     4   9  18  31  50  80 111 146 193 251 305 360
#     4  10  19  32  52  79 114 154 200 248 305 369
#     4  11  23  39  59  85 122 162 202 254 319 384
#     4  11  22  39  66  95 126 165 213 264 319 385
#     4  10  19  36  62  89 120 155 206 264 314 375
#     4   9  17  30  48  70 104 149 190 232 285 348
#     4  11  24  40  61  90 127 164 203 258 324 389
#     4   9  19  38  64  93 126 164 210 266 322 375
#
# _framework density 23.663958999999998
#
# number of rings (size 3 to 8) (size 9 to 14) (size 15 to 20)
#    0.000    2.000    1.250    2.625    0.000    5.000 
#    2.250    0.000    0.000    3.375    0.000    0.000 
#    0.000    0.000    0.000    0.000    0.000    0.000 
#
# Total GULP energy -357612.929355 kJ/mol
# GULP energy per Si atom -5587.702021 kJ/mol
# Density = 2.361010 g / cm^3
# Si number density = 23.663959 Si / 1000 Ang^3
#
#
#
# Elastic Constant Matrix: (Units=GPa)
#
#
# Indices 1 2 3 4 5 6 
#
# 1 127.0424 21.7643 18.9990 0.0000 0.0000 0.0000
# 2 21.7643 88.0486 5.4732 0.0000 0.0000 0.0000
# 3 18.9990 5.4732 30.8793 0.0000 0.0000 0.0000
# 4 0.0000 0.0000 0.0000 6.9717 0.0000 0.0000
# 5 0.0000 0.0000 0.0000 0.0000 21.1683 0.0000
# 6 0.0000 0.0000 0.0000 0.0000 0.0000 44.4780
#
#
#
# Elastic Compliance Matrix: (Units=1/GPa)
#
#
# Indices 1 2 3 4 5 6 
#
# 1 0.008971 -0.001895 -0.005184 0.000000 0.000000 0.000000
# 2 -0.001895 0.011884 -0.000940 0.000000 0.000000 0.000000
# 3 -0.005184 -0.000940 0.035740 0.000000 0.000000 0.000000
# 4 0.000000 0.000000 0.000000 0.143438 0.000000 0.000000
# 5 0.000000 0.000000 0.000000 0.000000 0.047240 0.000000
# 6 0.000000 0.000000 0.000000 0.000000 0.000000 0.022483
#
#
# Mechanical properties :
#
#
# Convention : Reuss Voigt Hill
#
# Bulk Modulus (GPa) = 24.65667 37.60481 31.13074
# Shear Modulus (GPa) = 16.70482 27.83919 22.27201
#
# Velocity S-wave (km/s) = 2.65979 3.43365 3.07119
# Velocity P-wave (km/s) = 4.45812 5.62544 5.07545
#
# Compressibility (1/GPa) = 0.04055697
#
# Stress axis : x y z
#
# Youngs Moduli (GPa) = 111.46624 84.14457 27.97965
#
# Poissons Ratio (x) = 0.15948 0.14504
# Poissons Ratio (y) = 0.21127 0.02631
# Poissons Ratio (z) = 0.57782 0.07912
#
# Static dielectric constant tensor:
#      x y z
#    x 1.949580 0.000000 0.000000 
#    y 0.000000 1.954640 0.000000 
#    z 0.000000 0.000000 1.818270 
# 
# From -- ./inp_files/6656.got.cif
#   From: 2010.05.17/outbox.cif.g08.bks.cpg/sg55_4_cif.got.tgz:6656.got - 2010.06.03 13:27:54.
