data_PCOD9425879
_publ_section_title
;
Structure prediction by ZEFSAII (Michael W. Deem and Ramdas Pophale) SiO2 
 PCOD9425879
Probable space group: P B A M
;
_chemical_formula_sum "Si O2"
_cell_formula_units_Z 64
_cell_length_a 20.110177
_cell_length_b 20.557774
_cell_length_c 9.014346
_cell_angle_alpha 90.000000
_cell_angle_beta 90.000000
_cell_angle_gamma 90.000000
_cell_volume 3726.715195
_symmetry_space_group_name_H-M "P B A M"
_symmetry_group_IT_number 55
_symmetry_cell_setting 'orthorhombic'
loop_
_space_group_symop_operation_xyz
x,y,z
-x,-y,z
1/2+x,1/2-y,-z
1/2-x,1/2+y,-z
-x,-y,-z
x,y,-z
1/2-x,1/2+y,z
1/2+x,1/2-y,z
loop_
_atom_site_type_symbol
_atom_site_label
_atom_site_fract_x
_atom_site_fract_y
_atom_site_fract_z
Si Si1 0.906331 0.298434 0.322683
Si Si2 0.437257 0.334857 0.823575
Si Si3 0.927346 0.527288 0.821663
Si Si4 0.441130 0.836004 0.323617
Si Si5 0.328898 0.577910 0.821688
Si Si6 0.174136 0.586974 0.178211
Si Si7 0.409582 0.704615 0.824048
Si Si8 0.426104 0.473410 0.677615
O O1 0.901311 0.293138 0.500000
O O2 0.901877 0.227587 0.248413
O O3 0.853876 0.349246 0.258122
O O4 0.980487 0.325644 0.286270
O O5 0.516330 0.323786 0.797243
O O6 0.417472 0.402610 0.749606
O O7 0.426352 0.336503 0.000000
O O8 0.917263 0.597259 0.748874
O O9 0.871997 0.474300 0.780295
O O10 0.000000 0.500000 0.778193
O O11 0.926913 0.534453 0.000000
O O12 0.435195 0.839102 0.500000
O O13 0.404432 0.772298 0.261696
O O14 0.251014 0.574115 0.787165
O O15 0.357599 0.648959 0.781293
O O16 0.372258 0.523498 0.740873
O O17 0.337523 0.570660 0.000000
O O18 0.168161 0.596048 0.000000
O O19 0.403801 0.717111 0.000000
O O20 0.500000 0.500000 0.715708
O O21 0.421574 0.469126 0.500000
#
# Coordination Sequence:
#
# PCOD9425879 Si02
#       8
#     8   8   8   8   8   8   8   8
#     4  10  20  34  53  80 113 143 177 225 280 332
#     4  10  19  33  57  83 108 139 182 229 272 322
#     4  10  19  33  55  81 109 143 182 227 274 324
#     4  10  20  32  52  81 110 139 176 225 273 323
#     4  10  21  38  58  81 110 147 190 231 275 332
#     4  10  21  37  57  81 110 147 190 230 275 333
#     4   9  18  33  54  79 106 138 176 223 272 322
#     4  11  22  35  55  84 116 147 182 229 282 336
#
# _framework density 17.173300999999999
#
# number of rings (size 3 to 8) (size 9 to 14) (size 15 to 20)
#    0.000    2.000    2.500    1.500    0.000    3.750 
#    0.000    1.250    0.000    3.000    0.000    0.000 
#    0.000    0.000    0.000    0.000    0.000    0.000 
#
# Total GULP energy -357303.710032 kJ/mol
# GULP energy per Si atom -5582.870469 kJ/mol
# Density = 1.713421 g / cm^3
# Si number density = 17.173301 Si / 1000 Ang^3
#
#
#
# Elastic Constant Matrix: (Units=GPa)
#
#
# Indices 1 2 3 4 5 6 
#
# 1 106.3961 82.2630 50.5399 0.0000 0.0000 0.0000
# 2 82.2630 182.4257 67.2602 0.0000 0.0000 0.0000
# 3 50.5399 67.2602 42.9202 0.0000 0.0000 0.0000
# 4 0.0000 0.0000 0.0000 3.6995 0.0000 0.0000
# 5 0.0000 0.0000 0.0000 0.0000 17.0881 0.0000
# 6 0.0000 0.0000 0.0000 0.0000 0.0000 25.0693
#
#
#
# Elastic Compliance Matrix: (Units=1/GPa)
#
#
# Indices 1 2 3 4 5 6 
#
# 1 0.021385 -0.000850 -0.023849 0.000000 0.000000 0.000000
# 2 -0.000850 0.013017 -0.019398 0.000000 0.000000 0.000000
# 3 -0.023849 -0.019398 0.081781 0.000000 0.000000 0.000000
# 4 0.000000 0.000000 0.000000 0.270305 0.000000 0.000000
# 5 0.000000 0.000000 0.000000 0.000000 0.058520 0.000000
# 6 0.000000 0.000000 0.000000 0.000000 0.000000 0.039889
#
#
# Mechanical properties :
#
#
# Convention : Reuss Voigt Hill
#
# Bulk Modulus (GPa) = 35.72938 81.31870 58.52404
# Shear Modulus (GPa) = 8.58486 17.94997 13.26741
#
# Velocity S-wave (km/s) = 2.23826 3.23650 2.78251
# Velocity P-wave (km/s) = 5.24691 7.83717 6.66901
#
# Compressibility (1/GPa) = 0.02798817
#
# Stress axis : x y z
#
# Youngs Moduli (GPa) = 46.76207 76.82228 12.22783
#
# Poissons Ratio (x) = 0.06531 0.29162
# Poissons Ratio (y) = 0.03975 0.23720
# Poissons Ratio (z) = 1.11523 1.49020
#
# Static dielectric constant tensor:
#      x y z
#    x 1.569290 0.000000 0.000000 
#    y 0.000000 1.556210 0.000000 
#    z 0.000000 0.000000 1.566370 
# 
# From -- ./inp_files/8987.got.cif
#   From: 2010.05.17/outbox.cif.g08.bks.cpg/sg55_5_cif.got.tgz:8987.got - 2010.06.03 13:27:54.
