data_PCOD9425558
_publ_section_title
;
Structure prediction by ZEFSAII (Michael W. Deem and Ramdas Pophale) SiO2 
 PCOD9425558
Probable space group: P B A M
;
_chemical_formula_sum "Si O2"
_cell_formula_units_Z 64
_cell_length_a 13.038031
_cell_length_b 29.041288
_cell_length_c 7.426053
_cell_angle_alpha 90.000000
_cell_angle_beta 90.000000
_cell_angle_gamma 90.000000
_cell_volume 2811.809717
_symmetry_space_group_name_H-M "P B A M"
_symmetry_group_IT_number 55
_symmetry_cell_setting 'orthorhombic'
loop_
_space_group_symop_operation_xyz
x,y,z
-x,-y,z
1/2+x,1/2-y,-z
1/2-x,1/2+y,-z
-x,-y,-z
x,y,-z
1/2-x,1/2+y,z
1/2+x,1/2-y,z
loop_
_atom_site_type_symbol
_atom_site_label
_atom_site_fract_x
_atom_site_fract_y
_atom_site_fract_z
Si Si1 0.029842 0.348408 0.279321
Si Si2 0.913033 0.033361 0.790197
Si Si3 0.599368 0.635542 0.207987
Si Si4 0.770236 0.705098 0.703596
Si Si5 0.873392 0.864880 0.717034
Si Si6 0.535076 0.948892 0.280475
Si Si7 0.231091 0.044248 0.716962
Si Si8 0.683418 0.801214 0.719732
O O1 0.031975 0.349384 0.500000
O O2 0.024085 0.402350 0.223270
O O3 0.925973 0.321813 0.223282
O O4 0.129589 0.319967 0.217542
O O5 0.904062 0.084089 0.712417
O O6 0.807771 0.005297 0.777216
O O7 0.939654 0.039932 0.000000
O O8 0.000000 0.000000 0.709369
O O9 0.679964 0.667948 0.302228
O O10 0.482418 0.652700 0.216582
O O11 0.632068 0.633224 0.000000
O O12 0.801269 0.718578 0.500000
O O13 0.718780 0.750870 0.784214
O O14 0.877871 0.864765 0.500000
O O15 0.848902 0.916844 0.778719
O O16 0.775816 0.835020 0.770291
O O17 0.530695 0.949314 0.500000
O O18 0.654082 0.943790 0.226908
O O19 0.500000 0.000000 0.221736
O O20 0.230783 0.044601 0.500000
O O21 0.677428 0.800190 0.500000
#
# Coordination Sequence:
#
# PCOD9425558 Si02
#       8
#     8   8   8   8   8   8   8   8
#     4   9  17  32  52  81 116 143 175 222 278 336
#     4  10  21  37  53  72 107 152 186 217 272 337
#     4  11  24  40  56  77 113 155 191 233 285 335
#     4  10  22  36  59  87 110 145 187 231 280 335
#     4  10  19  34  58  87 114 141 185 235 277 332
#     4   9  17  29  47  76 113 145 173 217 277 330
#     4  10  19  31  53  84 110 140 182 230 274 319
#     4   9  18  34  57  85 115 144 178 226 285 338
#
# _framework density 22.761140999999999
#
# number of rings (size 3 to 8) (size 9 to 14) (size 15 to 20)
#    0.000    2.250    2.500    0.375    3.500    1.250 
#    0.000    0.625    0.000    1.875    0.000    0.000 
#    0.000    0.000    0.000    0.000    0.000    0.000 
#
# Total GULP energy -357453.699571 kJ/mol
# GULP energy per Si atom -5585.214056 kJ/mol
# Density = 2.270934 g / cm^3
# Si number density = 22.761141 Si / 1000 Ang^3
#
#
#
# Elastic Constant Matrix: (Units=GPa)
#
#
# Indices 1 2 3 4 5 6 
#
# 1 140.4004 76.7376 -3.9070 0.0000 0.0000 0.0000
# 2 76.7376 160.2129 4.5729 0.0000 0.0000 0.0000
# 3 -3.9070 4.5729 74.3212 0.0000 0.0000 0.0000
# 4 0.0000 0.0000 0.0000 -2.6174 0.0000 0.0000
# 5 0.0000 0.0000 0.0000 0.0000 270.2055 0.0000
# 6 0.0000 0.0000 0.0000 0.0000 0.0000 35.0041
#
#
#
# Elastic Compliance Matrix: (Units=1/GPa)
#
#
# Indices 1 2 3 4 5 6 
#
# 1 0.009695 -0.004666 0.000797 0.000000 0.000000 0.000000
# 2 -0.004666 0.008499 -0.000768 0.000000 0.000000 0.000000
# 3 0.000797 -0.000768 0.013544 0.000000 0.000000 0.000000
# 4 0.000000 0.000000 0.000000 -0.382061 0.000000 0.000000
# 5 0.000000 0.000000 0.000000 0.000000 0.003701 0.000000
# 6 0.000000 0.000000 0.000000 0.000000 0.000000 0.028568
#
#
# Mechanical properties :
#
#
# Convention : Reuss Voigt Hill
#
# Bulk Modulus (GPa) = 44.51891 58.86017 51.68954
# Shear Modulus (GPa) = -16.59525 80.35385 31.87930
#
# Velocity S-wave (km/s) = -2.70312 5.94809 3.74652
# Velocity P-wave (km/s) = 3.13993 8.54921 6.44004
#
# Compressibility (1/GPa) = 0.02246236
#
# Stress axis : x y z
#
# Youngs Moduli (GPa) = 103.14413 117.66462 73.83197
#
# Poissons Ratio (x) = 0.54908 -0.05883
# Poissons Ratio (y) = 0.48132 0.05672
# Poissons Ratio (z) = -0.08218 0.09039
#
# Static dielectric constant tensor:
#      x y z
#    x 1.807940 0.000000 0.000000 
#    y 0.000000 1.852730 0.000000 
#    z 0.000000 0.000000 1.857920 
# 
# From -- ./inp_files/4612.got.cif
#   From: 2010.05.17/outbox.cif.g08.bks.cpg/sg55_3_cif.got.tgz:4612.got - 2010.06.03 13:27:54.
