data_PCOD9425994
_publ_section_title
;
Structure prediction by ZEFSAII (Michael W. Deem and Ramdas Pophale) SiO2 
 PCOD9425994
Probable space group: P B A M
;
_chemical_formula_sum "Si O2"
_cell_formula_units_Z 64
_cell_length_a 10.834346
_cell_length_b 33.745524
_cell_length_c 7.473573
_cell_angle_alpha 90.000000
_cell_angle_beta 90.000000
_cell_angle_gamma 90.000000
_cell_volume 2732.418129
_symmetry_space_group_name_H-M "P B A M"
_symmetry_group_IT_number 55
_symmetry_cell_setting 'orthorhombic'
loop_
_space_group_symop_operation_xyz
x,y,z
-x,-y,z
1/2+x,1/2-y,-z
1/2-x,1/2+y,-z
-x,-y,-z
x,y,-z
1/2-x,1/2+y,z
1/2+x,1/2-y,z
loop_
_atom_site_type_symbol
_atom_site_label
_atom_site_fract_x
_atom_site_fract_y
_atom_site_fract_z
Si Si1 0.077787 0.942226 0.206716
Si Si2 0.322968 0.138468 0.198929
Si Si3 0.536251 0.083852 0.708952
Si Si4 0.691154 0.432795 0.779430
Si Si5 0.055094 0.719315 0.780109
Si Si6 0.183842 0.489908 0.216328
Si Si7 0.719630 0.631849 0.285716
Si Si8 0.228074 0.277657 0.791522
O O1 0.194579 0.965735 0.282502
O O2 0.109362 0.895559 0.216448
O O3 0.942081 0.948222 0.281117
O O4 0.072873 0.954684 0.000000
O O5 0.425575 0.104058 0.187920
O O6 0.215102 0.112126 0.284276
O O7 0.390629 0.176566 0.278290
O O8 0.281837 0.150827 0.000000
O O9 0.515575 0.091716 0.500000
O O10 0.569888 0.037908 0.732220
O O11 0.657112 0.108279 0.769455
O O12 0.792102 0.465346 0.722464
O O13 0.689512 0.431527 0.000000
O O14 0.158803 0.750930 0.721048
O O15 0.912989 0.725970 0.718853
O O16 0.048704 0.719001 0.000000
O O17 0.181808 0.490703 0.000000
O O18 0.713947 0.631870 0.500000
O O19 0.731166 0.676675 0.222999
O O20 0.218434 0.266675 0.000000
#
# Coordination Sequence:
#
# PCOD9425994 Si02
#       8
#     8   8   8   8   8   8   8   8
#     4   9  17  31  53  78 105 140 177 219 268 320
#     4  10  19  34  54  76 103 137 174 216 267 320
#     4  10  20  34  52  74 102 138 180 221 261 310
#     4   9  18  31  51  79 107 136 176 224 269 315
#     4   9  19  33  55  82 107 133 171 217 265 320
#     4   9  17  31  52  77 104 137 178 223 269 317
#     4  10  20  34  53  78 104 136 177 216 257 312
#     4  10  19  35  57  82 107 137 174 218 267 320
#
# _framework density 23.422477000000001
#
# number of rings (size 3 to 8) (size 9 to 14) (size 15 to 20)
#    0.000    2.500    1.250    1.125    0.000    4.000 
#    0.000    9.375    0.000    3.000    0.000    0.000 
#    0.000    0.000    0.000    0.000    0.000    0.000 
#
# Total GULP energy -357148.987917 kJ/mol
# GULP energy per Si atom -5580.452936 kJ/mol
# Density = 2.336917 g / cm^3
# Si number density = 23.422477 Si / 1000 Ang^3
#
#
#
# Elastic Constant Matrix: (Units=GPa)
#
#
# Indices 1 2 3 4 5 6 
#
# 1 79.2319 48.4157 -5.4949 0.0000 0.0000 0.0000
# 2 48.4157 149.9734 -11.5545 0.0000 0.0000 0.0000
# 3 -5.4949 -11.5545 70.5932 0.0000 0.0000 0.0000
# 4 0.0000 0.0000 0.0000 102.5168 0.0000 0.0000
# 5 0.0000 0.0000 0.0000 0.0000 -6.0161 0.0000
# 6 0.0000 0.0000 0.0000 0.0000 0.0000 35.7894
#
#
#
# Elastic Compliance Matrix: (Units=1/GPa)
#
#
# Indices 1 2 3 4 5 6 
#
# 1 0.015734 -0.005049 0.000398 0.000000 0.000000 0.000000
# 2 -0.005049 0.008373 0.000977 0.000000 0.000000 0.000000
# 3 0.000398 0.000977 0.014357 0.000000 0.000000 0.000000
# 4 0.000000 0.000000 0.000000 0.009755 0.000000 0.000000
# 5 0.000000 0.000000 0.000000 0.000000 -0.166221 0.000000
# 6 0.000000 0.000000 0.000000 0.000000 0.000000 0.027941
#
#
# Mechanical properties :
#
#
# Convention : Reuss Voigt Hill
#
# Bulk Modulus (GPa) = 32.13580 40.28122 36.20851
# Shear Modulus (GPa) = -69.11466 44.35350 -12.38058
#
# Velocity S-wave (km/s) = -5.43800 4.35631 -2.30157
# Velocity P-wave (km/s) = 5.06748 6.52213 2.90335
#
# Compressibility (1/GPa) = 0.03111794
#
# Stress axis : x y z
#
# Youngs Moduli (GPa) = 63.55728 119.43143 69.65401
#
# Poissons Ratio (x) = 0.60297 -0.02775
# Poissons Ratio (y) = 0.32088 -0.06809
# Poissons Ratio (z) = -0.02532 -0.11674
#
# Static dielectric constant tensor:
#      x y z
#    x 1.922260 0.000000 0.000000 
#    y 0.000000 1.865550 0.000000 
#    z 0.000000 0.000000 1.931210 
# 
# From -- ./inp_files/4596.got.cif
#   From: 2010.05.17/outbox.cif.g08.bks.cpg/sg55_3_cif.got.tgz:4596.got - 2010.06.03 13:27:54.
