data_PCOD9425936
_publ_section_title
;
Structure prediction by ZEFSAII (Michael W. Deem and Ramdas Pophale) SiO2 
 PCOD9425936
Probable space group: P B A M
;
_chemical_formula_sum "Si O2"
_cell_formula_units_Z 64
_cell_length_a 18.508861
_cell_length_b 8.076254
_cell_length_c 19.793565
_cell_angle_alpha 90.000000
_cell_angle_beta 90.000000
_cell_angle_gamma 90.000000
_cell_volume 2958.786883
_symmetry_space_group_name_H-M "P B A M"
_symmetry_group_IT_number 55
_symmetry_cell_setting 'orthorhombic'
loop_
_space_group_symop_operation_xyz
x,y,z
-x,-y,z
1/2+x,1/2-y,-z
1/2-x,1/2+y,-z
-x,-y,-z
x,y,-z
1/2-x,1/2+y,z
1/2+x,1/2-y,z
loop_
_atom_site_type_symbol
_atom_site_label
_atom_site_fract_x
_atom_site_fract_y
_atom_site_fract_z
Si Si1 0.804914 0.265225 0.627317
Si Si2 0.294917 0.180534 0.777934
Si Si3 0.657890 0.408331 0.422072
Si Si4 0.857107 0.680505 0.071448
Si Si5 0.862059 0.688670 0.782055
Si Si6 0.803274 0.300278 0.073383
Si Si7 0.939582 0.359415 0.424380
Si Si8 0.529760 0.333353 0.677426
O O1 0.816731 0.237861 0.707109
O O2 0.722806 0.313397 0.614548
O O3 0.857750 0.405877 0.595800
O O4 0.823606 0.101094 0.586356
O O5 0.207230 0.188896 0.777175
O O6 0.320486 0.259736 0.849855
O O7 0.326206 0.993809 0.775296
O O8 0.653346 0.360071 0.500000
O O9 0.584003 0.376385 0.383452
O O10 0.894753 0.706852 0.142683
O O11 0.829342 0.490046 0.072174
O O12 0.783645 0.787898 0.071831
O O13 0.895822 0.709001 0.000000
O O14 0.923927 0.722641 0.728139
O O15 0.827141 0.225428 0.000000
O O16 0.939911 0.285056 0.500000
O O17 0.000000 0.500000 0.425831
O O18 0.963625 0.250339 0.361028
O O19 0.500000 0.500000 0.711181
#
# Coordination Sequence:
#
# PCOD9425936 Si02
#       8
#     8   8   8   8   8   8   8   8
#     4  12  24  41  61  88 116 150 192 241 298 347
#     4  10  19  33  56  85 119 148 186 240 286 340
#     4  12  26  42  62  86 115 150 194 242 294 352
#     4   8  14  26  46  74 111 148 184 224 275 338
#     4  10  20  34  55  86 115 151 192 236 290 341
#     4   8  14  25  44  75 113 150 180 218 277 336
#     4  11  25  43  63  86 115 150 193 242 296 357
#     4  12  25  42  61  81 114 155 194 240 286 350
#
# _framework density 21.630486999999999
#
# number of rings (size 3 to 8) (size 9 to 14) (size 15 to 20)
#    0.000    1.625    2.500    3.000    1.750    0.500 
#    0.000    0.000    0.000    0.375    0.000    0.875 
#    0.000    5.000    0.000    0.000    0.000    0.000 
#
# Total GULP energy -356888.869513 kJ/mol
# GULP energy per Si atom -5576.388586 kJ/mol
# Density = 2.158126 g / cm^3
# Si number density = 21.630487 Si / 1000 Ang^3
#
#
#
# Elastic Constant Matrix: (Units=GPa)
#
#
# Indices 1 2 3 4 5 6 
#
# 1 50.0111 -4.0562 9.5755 0.0000 0.0000 0.0000
# 2 -4.0562 11.2863 -2.8858 0.0000 0.0000 0.0000
# 3 9.5755 -2.8858 153.6222 0.0000 0.0000 0.0000
# 4 0.0000 0.0000 0.0000 17.2258 0.0000 0.0000
# 5 0.0000 0.0000 0.0000 0.0000 15.0949 0.0000
# 6 0.0000 0.0000 0.0000 0.0000 0.0000 12.4416
#
#
#
# Elastic Compliance Matrix: (Units=1/GPa)
#
#
# Indices 1 2 3 4 5 6 
#
# 1 0.020800 0.007178 -0.001162 0.000000 0.000000 0.000000
# 2 0.007178 0.091508 0.001272 0.000000 0.000000 0.000000
# 3 -0.001162 0.001272 0.006606 0.000000 0.000000 0.000000
# 4 0.000000 0.000000 0.000000 0.058052 0.000000 0.000000
# 5 0.000000 0.000000 0.000000 0.000000 0.066248 0.000000
# 6 0.000000 0.000000 0.000000 0.000000 0.000000 0.080376
#
#
# Mechanical properties :
#
#
# Convention : Reuss Voigt Hill
#
# Bulk Modulus (GPa) = 7.49119 24.46517 15.97818
# Shear Modulus (GPa) = 14.14388 23.10487 18.62437
#
# Velocity S-wave (km/s) = 2.55989 3.27182 2.93750
# Velocity P-wave (km/s) = 3.49402 5.06045 4.34835
#
# Compressibility (1/GPa) = 0.13349021
#
# Stress axis : x y z
#
# Youngs Moduli (GPa) = 48.07655 10.92803 151.38277
#
# Poissons Ratio (x) = -0.07844 0.17585
# Poissons Ratio (y) = -0.34511 -0.19249
# Poissons Ratio (z) = 0.05585 -0.01390
#
# Static dielectric constant tensor:
#      x y z
#    x 1.782630 0.000000 0.000000 
#    y 0.000000 1.844980 0.000000 
#    z 0.000000 0.000000 1.842750 
# 
# From -- ./inp_files/23063.got.cif
#   From: 2010.05.17/outbox.cif.g08.bks.cpg/sg55_12_cif.got.tgz:23063.got - 2010.06.03 13:27:54.
