data_PCOD9425820
_publ_section_title
;
Structure prediction by ZEFSAII (Michael W. Deem and Ramdas Pophale) SiO2 
 PCOD9425820
Probable space group: P B A M
;
_chemical_formula_sum "Si O2"
_cell_formula_units_Z 64
_cell_length_a 11.954553
_cell_length_b 33.981438
_cell_length_c 8.535321
_cell_angle_alpha 90.000000
_cell_angle_beta 90.000000
_cell_angle_gamma 90.000000
_cell_volume 3467.328216
_symmetry_space_group_name_H-M "P B A M"
_symmetry_group_IT_number 55
_symmetry_cell_setting 'orthorhombic'
loop_
_space_group_symop_operation_xyz
x,y,z
-x,-y,z
1/2+x,1/2-y,-z
1/2-x,1/2+y,-z
-x,-y,-z
x,y,-z
1/2-x,1/2+y,z
1/2+x,1/2-y,z
loop_
_atom_site_type_symbol
_atom_site_label
_atom_site_fract_x
_atom_site_fract_y
_atom_site_fract_z
Si Si1 0.900936 0.715320 0.687676
Si Si2 0.214389 0.133222 0.689524
Si Si3 0.808830 0.171079 0.810644
Si Si4 0.338435 0.470703 0.688943
Si Si5 0.320677 0.907344 0.813079
Si Si6 0.053049 0.198482 0.812502
Si Si7 0.917529 0.943878 0.690772
Si Si8 0.470420 0.136337 0.311002
O O1 0.902472 0.717649 0.500000
O O2 0.777380 0.703164 0.744547
O O3 0.938022 0.756675 0.757527
O O4 0.980955 0.679041 0.737286
O O5 0.214270 0.132889 0.500000
O O6 0.153822 0.172588 0.745581
O O7 0.142855 0.095575 0.745236
O O8 0.343110 0.130987 0.741714
O O9 0.761080 0.128565 0.760325
O O10 0.934963 0.179671 0.759348
O O11 0.805225 0.172543 0.000000
O O12 0.335391 0.469737 0.500000
O O13 0.232393 0.447639 0.753068
O O14 0.453450 0.448950 0.740395
O O15 0.352688 0.516218 0.736869
O O16 0.442892 0.896069 0.750712
O O17 0.322932 0.907376 0.000000
O O18 0.056388 0.197091 0.000000
O O19 0.918468 0.943319 0.500000
O O20 0.472542 0.135107 0.500000
#
# Coordination Sequence:
#
# PCOD9425820 Si02
#       8
#     8   8   8   8   8   8   8   8
#     4  10  21  36  54  76 101 132 175 221 261 305
#     4  10  20  36  56  79 106 138 178 221 266 316
#     4   9  20  37  53  74 104 136 172 215 261 316
#     4   9  16  30  54  81 109 140 176 218 267 319
#     4  10  19  33  54  78 104 138 179 219 263 313
#     4  11  23  36  53  78 106 137 170 210 266 325
#     4   8  16  31  53  81 110 140 175 219 268 319
#     4   9  20  37  55  75 102 137 177 221 265 311
#
# _framework density 18.458015
#
# number of rings (size 3 to 8) (size 9 to 14) (size 15 to 20)
#    0.000    2.500    0.000    2.625    1.750    2.500 
#    0.000    2.500    0.000    3.750    0.000    0.000 
#    0.000    0.000    0.000    0.000    0.000    0.000 
#
# Total GULP energy -357162.716275 kJ/mol
# GULP energy per Si atom -5580.667442 kJ/mol
# Density = 1.841600 g / cm^3
# Si number density = 18.458015 Si / 1000 Ang^3
#
#
#
# Elastic Constant Matrix: (Units=GPa)
#
#
# Indices 1 2 3 4 5 6 
#
# 1 71.1545 19.7379 12.4238 0.0000 0.0000 0.0000
# 2 19.7379 62.2955 6.2543 0.0000 0.0000 0.0000
# 3 12.4238 6.2543 7.6132 0.0000 0.0000 0.0000
# 4 0.0000 0.0000 0.0000 6.2589 0.0000 0.0000
# 5 0.0000 0.0000 0.0000 0.0000 19.2263 0.0000
# 6 0.0000 0.0000 0.0000 0.0000 0.0000 16.5216
#
#
#
# Elastic Compliance Matrix: (Units=1/GPa)
#
#
# Indices 1 2 3 4 5 6 
#
# 1 0.020288 -0.003383 -0.030327 0.000000 0.000000 0.000000
# 2 -0.003383 0.018060 -0.009315 0.000000 0.000000 0.000000
# 3 -0.030327 -0.009315 0.188493 0.000000 0.000000 0.000000
# 4 0.000000 0.000000 0.000000 0.159774 0.000000 0.000000
# 5 0.000000 0.000000 0.000000 0.000000 0.052012 0.000000
# 6 0.000000 0.000000 0.000000 0.000000 0.000000 0.060527
#
#
# Mechanical properties :
#
#
# Convention : Reuss Voigt Hill
#
# Bulk Modulus (GPa) = 7.10284 24.21057 15.65670
# Shear Modulus (GPa) = 7.90972 15.24450 11.57711
#
# Velocity S-wave (km/s) = 2.07233 2.87697 2.50714
# Velocity P-wave (km/s) = 3.09557 4.91741 4.10874
#
# Compressibility (1/GPa) = 0.14078878
#
# Stress axis : x y z
#
# Youngs Moduli (GPa) = 49.29106 55.37196 5.30524
#
# Poissons Ratio (x) = 0.18734 0.16089
# Poissons Ratio (y) = 0.16676 0.04942
# Poissons Ratio (z) = 1.49487 0.51579
#
# Static dielectric constant tensor:
#      x y z
#    x 1.624890 0.000000 0.000000 
#    y 0.000000 1.624110 0.000000 
#    z 0.000000 0.000000 1.619710 
# 
# From -- ./inp_files/4522.got.cif
#   From: 2010.05.17/outbox.cif.g08.bks.cpg/sg55_3_cif.got.tgz:4522.got - 2010.06.03 13:27:54.
