data_PCOD9425524
_publ_section_title
;
Structure prediction by ZEFSAII (Michael W. Deem and Ramdas Pophale) SiO2 
 PCOD9425524
Probable space group: P B A M
;
_chemical_formula_sum "Si O2"
_cell_formula_units_Z 48
_cell_length_a 11.537851
_cell_length_b 14.791328
_cell_length_c 11.170953
_cell_angle_alpha 90.000000
_cell_angle_beta 90.000000
_cell_angle_gamma 90.000000
_cell_volume 1906.436387
_symmetry_space_group_name_H-M "P B A M"
_symmetry_group_IT_number 55
_symmetry_cell_setting 'orthorhombic'
loop_
_space_group_symop_operation_xyz
x,y,z
-x,-y,z
1/2+x,1/2-y,-z
1/2-x,1/2+y,-z
-x,-y,-z
x,y,-z
1/2-x,1/2+y,z
1/2+x,1/2-y,z
loop_
_atom_site_type_symbol
_atom_site_label
_atom_site_fract_x
_atom_site_fract_y
_atom_site_fract_z
Si Si1 0.645838 0.657856 0.870216
Si Si2 0.763061 0.943932 0.631994
Si Si3 0.089635 0.390841 0.369758
Si Si4 0.099661 0.102562 0.866840
Si Si5 0.812364 0.238790 0.625450
Si Si6 0.590894 0.176017 0.868225
O O1 0.539421 0.589400 0.870297
O O2 0.627274 0.710710 0.747282
O O3 0.780155 0.631182 0.866206
O O4 0.636363 0.705934 0.000000
O O5 0.819523 0.962542 0.500000
O O6 0.842030 0.941577 0.750649
O O7 0.713993 0.843479 0.626363
O O8 0.659619 0.015922 0.641450
O O9 0.029818 0.389897 0.500000
O O10 0.189728 0.313961 0.375416
O O11 0.027197 0.367183 0.245762
O O12 0.109861 0.214524 0.857544
O O13 0.147435 0.079851 0.000000
O O14 0.873241 0.213201 0.500000
O O15 0.542266 0.157358 0.000000
#
# Coordination Sequence:
#
# PCOD9425524 Si02
#       6
#     8   8   8   8   8   8
#     4   9  17  30  50  74  99 129 164 204 243 290
#     4  10  19  31  51  77 100 130 169 202 242 296
#     4   9  17  30  50  74  99 129 164 204 243 290
#     4  10  19  31  51  77 100 130 169 202 242 296
#     4   9  17  32  50  70  99 131 163 202 247 292
#     4   9  17  32  50  70  99 131 163 202 247 292
#
# _framework density 25.177866999999999
#
# number of rings (size 3 to 8) (size 9 to 14) (size 15 to 20)
#    0.000    2.667    3.333    0.000    0.000    1.333 
#    0.000    3.333    0.000   19.000    0.000    7.000 
#    0.000    0.000    0.000    0.000    0.000    0.000 
#
# Total GULP energy -267867.725799 kJ/mol
# GULP energy per Si atom -5580.577621 kJ/mol
# Density = 2.512056 g / cm^3
# Si number density = 25.177867 Si / 1000 Ang^3
#
#
#
# Elastic Constant Matrix: (Units=GPa)
#
#
# Indices 1 2 3 4 5 6 
#
# 1 50.8007 2.0534 21.9205 0.0000 0.0000 0.0000
# 2 2.0534 97.8761 32.5291 0.0000 0.0000 0.0000
# 3 21.9205 32.5291 333.5485 0.0000 0.0000 0.0000
# 4 0.0000 0.0000 0.0000 -51.6890 0.0000 0.0000
# 5 0.0000 0.0000 0.0000 0.0000 8.5091 0.0000
# 6 0.0000 0.0000 0.0000 0.0000 0.0000 36.0008
#
#
#
# Elastic Compliance Matrix: (Units=1/GPa)
#
#
# Indices 1 2 3 4 5 6 
#
# 1 0.020259 0.000018 -0.001333 0.000000 0.000000 0.000000
# 2 0.000018 0.010559 -0.001031 0.000000 0.000000 0.000000
# 3 -0.001333 -0.001031 0.003186 0.000000 0.000000 0.000000
# 4 0.000000 0.000000 0.000000 -0.019346 0.000000 0.000000
# 5 0.000000 0.000000 0.000000 0.000000 0.117521 0.000000
# 6 0.000000 0.000000 0.000000 0.000000 0.000000 0.027777
#
#
# Mechanical properties :
#
#
# Convention : Reuss Voigt Hill
#
# Bulk Modulus (GPa) = 34.11505 66.13681 50.12593
# Shear Modulus (GPa) = 28.66654 26.94567 27.80610
#
# Velocity S-wave (km/s) = 3.37792 3.27496 3.32684
# Velocity P-wave (km/s) = 5.36589 6.37380 5.89144
#
# Compressibility (1/GPa) = 0.02931258
#
# Stress axis : x y z
#
# Youngs Moduli (GPa) = 49.36006 94.70359 313.85104
#
# Poissons Ratio (x) = -0.00171 0.41842
# Poissons Ratio (y) = -0.00089 0.32357
# Poissons Ratio (z) = 0.06581 0.09764
#
# Static dielectric constant tensor:
#      x y z
#    x 1.959590 0.000000 0.000000 
#    y 0.000000 2.023320 0.000000 
#    z 0.000000 0.000000 2.087300 
# 
# From -- ./inp_files/14136.got.cif
#   From: 2010.05.17/outbox.cif.g08.bks.cpg/sg55_8_cif.got.tgz:14136.got - 2010.06.03 13:27:54.
