data_PCOD9425481
_publ_section_title
;
Structure prediction by ZEFSAII (Michael W. Deem and Ramdas Pophale) SiO2 
 PCOD9425481
Probable space group: P B A M
;
_chemical_formula_sum "Si O2"
_cell_formula_units_Z 48
_cell_length_a 5.211095
_cell_length_b 9.722583
_cell_length_c 34.046404
_cell_angle_alpha 90.000000
_cell_angle_beta 90.000000
_cell_angle_gamma 90.000000
_cell_volume 1724.971397
_symmetry_space_group_name_H-M "P B A M"
_symmetry_group_IT_number 55
_symmetry_cell_setting 'orthorhombic'
loop_
_space_group_symop_operation_xyz
x,y,z
-x,-y,z
1/2+x,1/2-y,-z
1/2-x,1/2+y,-z
-x,-y,-z
x,y,-z
1/2-x,1/2+y,z
1/2+x,1/2-y,z
loop_
_atom_site_type_symbol
_atom_site_label
_atom_site_fract_x
_atom_site_fract_y
_atom_site_fract_z
Si Si1 0.677403 0.824851 0.369171
Si Si2 0.799831 0.343666 0.207138
Si Si3 0.303121 0.656155 0.124627
Si Si4 0.750687 0.407636 0.541212
Si Si5 0.786324 0.344913 0.957882
Si Si6 0.311700 0.656888 0.288918
O O1 0.375416 0.802391 0.364735
O O2 0.731890 0.852716 0.414788
O O3 0.763842 0.912300 0.331207
O O4 0.582496 0.222967 0.207154
O O5 0.748698 0.418769 0.165881
O O6 0.746357 0.420151 0.248185
O O7 0.585522 0.723415 0.124656
O O8 0.254201 0.579038 0.083485
O O9 0.500000 0.500000 0.540904
O O10 0.742900 0.322628 0.500000
O O11 0.000000 0.500000 0.538648
O O12 0.561611 0.229854 0.957444
O O13 0.759990 0.418913 0.000000
O O14 0.593913 0.722832 0.288151
#
# Coordination Sequence:
#
# PCOD9425481 Si02
#       6
#     8   8   8   8   8   8
#     4  10  19  31  49  71  91 113 145 181 213 248
#     4   8  12  18  27  39  57  79 101 128 168 216
#     4   8  12  16  22  31  43  63  90 118 154 202
#     4  10  21  36  51  68  93 122 147 174 213 256
#     4   8  12  16  20  26  37  54  80 116 154 190
#     4   8  14  23  35  53  75  95 117 151 192 228
#
# _framework density 27.826549
#
# number of rings (size 3 to 8) (size 9 to 14) (size 15 to 20)
#    0.000    3.333    0.000    1.000    0.000    0.667 
#    0.000    0.000    0.000    0.000    0.000    0.000 
#    0.000    0.000    0.000    0.000    0.000    0.000 
#
# Total GULP energy -267977.654967 kJ/mol
# GULP energy per Si atom -5582.867812 kJ/mol
# Density = 2.776321 g / cm^3
# Si number density = 27.826549 Si / 1000 Ang^3
#
#
#
# Elastic Constant Matrix: (Units=GPa)
#
#
# Indices 1 2 3 4 5 6 
#
# 1 218.8450 61.0448 -0.5278 0.0000 0.0000 0.0000
# 2 61.0448 50.9001 36.4605 0.0000 0.0000 0.0000
# 3 -0.5278 36.4605 352.6648 0.0000 0.0000 0.0000
# 4 0.0000 0.0000 0.0000 -4.7449 0.0000 0.0000
# 5 0.0000 0.0000 0.0000 0.0000 33.7760 0.0000
# 6 0.0000 0.0000 0.0000 0.0000 0.0000 56.1982
#
#
#
# Elastic Compliance Matrix: (Units=1/GPa)
#
#
# Indices 1 2 3 4 5 6 
#
# 1 0.007161 -0.009284 0.000971 0.000000 0.000000 0.000000
# 2 -0.009284 0.033253 -0.003452 0.000000 0.000000 0.000000
# 3 0.000971 -0.003452 0.003194 0.000000 0.000000 0.000000
# 4 0.000000 0.000000 0.000000 -0.210751 0.000000 0.000000
# 5 0.000000 0.000000 0.000000 0.000000 0.029607 0.000000
# 6 0.000000 0.000000 0.000000 0.000000 0.000000 0.017794
#
#
# Mechanical properties :
#
#
# Convention : Reuss Voigt Hill
#
# Bulk Modulus (GPa) = 49.80553 90.70720 70.25636
# Shear Modulus (GPa) = -55.85466 52.07468 -1.88999
#
# Velocity S-wave (km/s) = -4.48509 4.33066 -0.82503
# Velocity P-wave (km/s) = 2.98059 7.59436 4.93915
#
# Compressibility (1/GPa) = 0.02007809
#
# Stress axis : x y z
#
# Youngs Moduli (GPa) = 139.63590 30.07219 313.09943
#
# Poissons Ratio (x) = 0.27919 -0.30388
# Poissons Ratio (y) = 1.29638 1.08076
# Poissons Ratio (z) = -0.13552 0.10380
#
# Static dielectric constant tensor:
#      x y z
#    x 2.064660 0.000000 0.000000 
#    y 0.000000 1.705310 0.000000 
#    z 0.000000 0.000000 2.339800 
# 
# From -- ./inp_files/24040.got.cif
#   From: 2010.05.17/outbox.cif.g08.bks.cpg/sg55_13_cif.got.tgz:24040.got - 2010.06.03 13:27:54.
