data_PCOD9425978
_publ_section_title
;
Structure prediction by ZEFSAII (Michael W. Deem and Ramdas Pophale) SiO2 
 PCOD9425978
Probable space group: P B A M
;
_chemical_formula_sum "Si O2"
_cell_formula_units_Z 56
_cell_length_a 14.950751
_cell_length_b 21.265240
_cell_length_c 7.649058
_cell_angle_alpha 90.000000
_cell_angle_beta 90.000000
_cell_angle_gamma 90.000000
_cell_volume 2431.875016
_symmetry_space_group_name_H-M "P B A M"
_symmetry_group_IT_number 55
_symmetry_cell_setting 'orthorhombic'
loop_
_space_group_symop_operation_xyz
x,y,z
-x,-y,z
1/2+x,1/2-y,-z
1/2-x,1/2+y,-z
-x,-y,-z
x,y,-z
1/2-x,1/2+y,z
1/2+x,1/2-y,z
loop_
_atom_site_type_symbol
_atom_site_label
_atom_site_fract_x
_atom_site_fract_y
_atom_site_fract_z
Si Si1 0.294169 0.758488 0.798150
Si Si2 0.509985 0.273092 0.212206
Si Si3 0.274881 0.487763 0.289101
Si Si4 0.557876 0.858728 0.795367
Si Si5 0.254797 0.121719 0.301458
Si Si6 0.644393 0.643450 0.790225
Si Si7 0.578229 0.045595 0.709510
O O1 0.392279 0.745093 0.718395
O O2 0.253661 0.687893 0.795240
O O3 0.225742 0.810989 0.723438
O O4 0.308144 0.777707 0.000000
O O5 0.446129 0.214147 0.249865
O O6 0.452552 0.332539 0.274138
O O7 0.519857 0.278212 0.000000
O O8 0.270871 0.492787 0.500000
O O9 0.292495 0.559274 0.227201
O O10 0.338098 0.429489 0.246752
O O11 0.176548 0.467597 0.221969
O O12 0.638711 0.892763 0.697765
O O13 0.460886 0.886574 0.754196
O O14 0.574737 0.865910 0.000000
O O15 0.224846 0.132176 0.500000
O O16 0.643824 0.652060 0.000000
O O17 0.581191 0.039692 0.500000
O O18 0.500000 0.000000 0.778145
#
# Coordination Sequence:
#
# PCOD9425978 Si02
#       7
#     8   8   8   8   8   8   8
#     4  10  20  38  62  86 114 148 190 238 284 338
#     4   9  19  36  58  84 114 144 182 238 294 334
#     4  10  22  38  55  78 115 157 192 233 286 340
#     4  11  20  34  57  84 112 146 189 236 285 343
#     4  11  22  38  57  81 116 154 190 233 285 341
#     4  10  20  37  59  85 116 148 187 239 290 338
#     4  10  19  34  51  74 113 152 181 222 284 343
#
# _framework density 23.027497
#
# number of rings (size 3 to 8) (size 9 to 14) (size 15 to 20)
#    0.000    1.857    2.857    1.714    0.000    3.714 
#    0.000    2.857    0.000    4.286    0.000    0.000 
#    0.000    0.000    0.000    0.000    0.000    0.000 
#
# Total GULP energy -312512.839075 kJ/mol
# GULP energy per Si atom -5580.586412 kJ/mol
# Density = 2.297509 g / cm^3
# Si number density = 23.027497 Si / 1000 Ang^3
#
#
#
# Elastic Constant Matrix: (Units=GPa)
#
#
# Indices 1 2 3 4 5 6 
#
# 1 50.9559 -0.5599 -0.1659 0.0000 0.0000 0.0000
# 2 -0.5599 53.0772 -3.7143 0.0000 0.0000 0.0000
# 3 -0.1659 -3.7143 43.5811 0.0000 0.0000 0.0000
# 4 0.0000 0.0000 0.0000 21.6913 0.0000 0.0000
# 5 0.0000 0.0000 0.0000 0.0000 9.6527 0.0000
# 6 0.0000 0.0000 0.0000 0.0000 0.0000 29.1776
#
#
#
# Elastic Compliance Matrix: (Units=1/GPa)
#
#
# Indices 1 2 3 4 5 6 
#
# 1 0.019627 0.000214 0.000093 0.000000 0.000000 0.000000
# 2 0.000214 0.018956 0.001616 0.000000 0.000000 0.000000
# 3 0.000093 0.001616 0.023084 0.000000 0.000000 0.000000
# 4 0.000000 0.000000 0.000000 0.046101 0.000000 0.000000
# 5 0.000000 0.000000 0.000000 0.000000 0.103598 0.000000
# 6 0.000000 0.000000 0.000000 0.000000 0.000000 0.034273
#
#
# Mechanical properties :
#
#
# Convention : Reuss Voigt Hill
#
# Bulk Modulus (GPa) = 15.26419 15.41489 15.33954
# Shear Modulus (GPa) = 18.96585 22.24127 20.60356
#
# Velocity S-wave (km/s) = 2.87299 3.11120 2.99446
# Velocity P-wave (km/s) = 4.20101 4.42885 4.31643
#
# Compressibility (1/GPa) = 0.06551281
#
# Stress axis : x y z
#
# Youngs Moduli (GPa) = 50.94905 52.75419 43.32034
#
# Poissons Ratio (x) = -0.01127 -0.00403
# Poissons Ratio (y) = -0.01088 -0.07002
# Poissons Ratio (z) = -0.00473 -0.08527
#
# Static dielectric constant tensor:
#      x y z
#    x 1.909090 0.000000 0.000000 
#    y 0.000000 1.926530 0.000000 
#    z 0.000000 0.000000 1.844510 
# 
# From -- ./inp_files/6197.got.cif
#   From: 2010.05.17/outbox.cif.g08.bks.cpg/sg55_4_cif.got.tgz:6197.got - 2010.06.03 13:27:54.
