data_PCOD9425421
_publ_section_title
;
Structure prediction by ZEFSAII (Michael W. Deem and Ramdas Pophale) SiO2 
 PCOD9425421
Probable space group: P B A M
;
_chemical_formula_sum "Si O2"
_cell_formula_units_Z 56
_cell_length_a 9.481651
_cell_length_b 22.832994
_cell_length_c 14.506184
_cell_angle_alpha 90.000000
_cell_angle_beta 90.000000
_cell_angle_gamma 90.000000
_cell_volume 3140.508768
_symmetry_space_group_name_H-M "P B A M"
_symmetry_group_IT_number 55
_symmetry_cell_setting 'orthorhombic'
loop_
_space_group_symop_operation_xyz
x,y,z
-x,-y,z
1/2+x,1/2-y,-z
1/2-x,1/2+y,-z
-x,-y,-z
x,y,-z
1/2-x,1/2+y,z
1/2+x,1/2-y,z
loop_
_atom_site_type_symbol
_atom_site_label
_atom_site_fract_x
_atom_site_fract_y
_atom_site_fract_z
Si Si1 0.968141 0.351341 0.390983
Si Si2 0.350530 0.612080 0.393658
Si Si3 0.077384 0.174408 0.108632
Si Si4 0.222867 0.361982 0.267469
Si Si5 0.429070 0.285407 0.392193
Si Si6 0.008944 0.935291 0.228161
Si Si7 0.235009 0.779574 0.109104
O O1 0.003519 0.356868 0.500000
O O2 0.814106 0.378440 0.376513
O O3 0.958837 0.281843 0.369606
O O4 0.086257 0.378370 0.325511
O O5 0.370796 0.594900 0.500000
O O6 0.432182 0.674239 0.381326
O O7 0.423413 0.567807 0.323779
O O8 0.059531 0.115014 0.164786
O O9 0.932141 0.211016 0.122517
O O10 0.206043 0.216170 0.136844
O O11 0.089044 0.161801 0.000000
O O12 0.310415 0.315068 0.329489
O O13 0.331374 0.414373 0.247346
O O14 0.191861 0.328711 0.171956
O O15 0.385935 0.287660 0.500000
O O16 0.000000 0.000000 0.188293
O O17 0.265029 0.786951 0.000000
#
# Coordination Sequence:
#
# PCOD9425421 Si02
#       7
#     8   8   8   8   8   8   8
#     4  10  19  30  48  77 107 133 168 215 265 318
#     4   9  19  33  49  72 102 138 174 212 258 306
#     4   9  19  35  56  82 108 134 164 210 264 312
#     4  10  20  30  53  76 104 141 171 212 260 308
#     4   9  17  29  46  74 109 138 164 200 257 323
#     4  10  22  38  53  73 101 141 187 218 248 301
#     4   9  19  33  50  78 110 133 164 204 257 319
#
# _framework density 17.831506999999998
#
# number of rings (size 3 to 8) (size 9 to 14) (size 15 to 20)
#    0.000    2.571    0.000    1.286    8.000    3.429 
#    0.000    0.714    0.000    1.714    0.000    0.000 
#    0.000   16.000    0.000    0.000    0.000    0.000 
#
# Total GULP energy -312506.503154 kJ/mol
# GULP energy per Si atom -5580.473271 kJ/mol
# Density = 1.779092 g / cm^3
# Si number density = 17.831507 Si / 1000 Ang^3
#
#
#
# Elastic Constant Matrix: (Units=GPa)
#
#
# Indices 1 2 3 4 5 6 
#
# 1 55.2736 33.1242 35.5229 0.0000 0.0000 0.0000
# 2 33.1242 83.3341 33.2062 0.0000 0.0000 0.0000
# 3 35.5229 33.2062 50.6612 0.0000 0.0000 0.0000
# 4 0.0000 0.0000 0.0000 11.6506 0.0000 0.0000
# 5 0.0000 0.0000 0.0000 0.0000 22.7867 0.0000
# 6 0.0000 0.0000 0.0000 0.0000 0.0000 7.6199
#
#
#
# Elastic Compliance Matrix: (Units=1/GPa)
#
#
# Indices 1 2 3 4 5 6 
#
# 1 0.034731 -0.005551 -0.020714 0.000000 0.000000 0.000000
# 2 -0.005551 0.017129 -0.007335 0.000000 0.000000 0.000000
# 3 -0.020714 -0.007335 0.039071 0.000000 0.000000 0.000000
# 4 0.000000 0.000000 0.000000 0.085833 0.000000 0.000000
# 5 0.000000 0.000000 0.000000 0.000000 0.043885 0.000000
# 6 0.000000 0.000000 0.000000 0.000000 0.000000 0.131234
#
#
# Mechanical properties :
#
#
# Convention : Reuss Voigt Hill
#
# Bulk Modulus (GPa) = 42.13982 43.66394 42.90188
# Shear Modulus (GPa) = 11.70973 14.23915 12.97444
#
# Velocity S-wave (km/s) = 2.56537 2.82891 2.70036
# Velocity P-wave (km/s) = 5.69722 5.93384 5.81673
#
# Compressibility (1/GPa) = 0.02373052
#
# Stress axis : x y z
#
# Youngs Moduli (GPa) = 28.79264 58.37993 25.59415
#
# Poissons Ratio (x) = 0.32407 0.53017
# Poissons Ratio (y) = 0.15983 0.18774
# Poissons Ratio (z) = 0.59642 0.42822
#
# Static dielectric constant tensor:
#      x y z
#    x 1.616270 0.000000 0.000000 
#    y 0.000000 1.578520 0.000000 
#    z 0.000000 0.000000 1.639860 
# 
# From -- ./inp_files/17619.got.cif
#   From: 2010.05.17/outbox.cif.g08.bks.cpg/sg55_9_cif.got.tgz:17619.got - 2010.06.03 13:27:54.
