data_PCOD9425077
_publ_section_title
;
Structure prediction by ZEFSAII (Michael W. Deem and Ramdas Pophale) SiO2 
 PCOD9425077
Probable space group: P B A M
;
_chemical_formula_sum "Si O2"
_cell_formula_units_Z 60
_cell_length_a 19.162053
_cell_length_b 5.510635
_cell_length_c 27.801164
_cell_angle_alpha 90.000000
_cell_angle_beta 90.000000
_cell_angle_gamma 90.000000
_cell_volume 2935.666135
_symmetry_space_group_name_H-M "P B A M"
_symmetry_group_IT_number 55
_symmetry_cell_setting 'orthorhombic'
loop_
_space_group_symop_operation_xyz
x,y,z
-x,-y,z
1/2+x,1/2-y,-z
1/2-x,1/2+y,-z
-x,-y,-z
x,y,-z
1/2-x,1/2+y,z
1/2+x,1/2-y,z
loop_
_atom_site_type_symbol
_atom_site_label
_atom_site_fract_x
_atom_site_fract_y
_atom_site_fract_z
Si Si1 0.077629 0.120676 0.853721
Si Si2 0.338326 0.034661 0.407101
Si Si3 0.275048 0.048972 0.944443
Si Si4 0.317662 0.534629 0.444199
Si Si5 0.415075 0.001986 0.305545
Si Si6 0.409167 0.347784 0.052912
Si Si7 0.415318 0.502217 0.749010
Si Si8 0.500000 0.000000 0.102069
O O1 0.111356 0.049947 0.803359
O O2 0.061250 0.404289 0.863067
O O3 0.110662 0.013161 0.902051
O O4 0.000000 0.000000 0.850713
O O5 0.357825 0.783149 0.433237
O O6 0.253411 0.036210 0.412282
O O7 0.358356 0.288605 0.432003
O O8 0.371911 0.028282 0.354667
O O9 0.239744 0.288384 0.922359
O O10 0.355176 0.123947 0.947497
O O11 0.248075 0.024589 0.000000
O O12 0.296070 0.530554 0.500000
O O13 0.397099 0.239309 0.273050
O O14 0.500000 0.000000 0.312989
O O15 0.396569 0.741661 0.281790
O O16 0.481176 0.220606 0.067232
O O17 0.409784 0.459075 0.000000
O O18 0.500000 0.500000 0.750475
#
# Coordination Sequence:
#
# PCOD9425077 Si02
#       8
#     8   8   8   8   8   8   8   4
#     4   9  20  33  51  75 105 138 177 216 267 343
#     4  10  18  31  52  81 109 139 186 229 271 310
#     4   9  19  35  54  75  96 130 177 219 250 298
#     4  10  19  33  56  81 111 150 190 228 257 306
#     4  10  20  33  53  80 106 138 175 236 282 318
#     4  10  21  34  52  80 112 140 174 224 282 341
#     4   9  19  33  53  74 103 135 183 220 270 325
#     4  10  21  32  52  80 112 144 172 212 285 346
#
# _framework density 20.438293000000002
#
# number of rings (size 3 to 8) (size 9 to 14) (size 15 to 20)
#    0.000    2.400    0.000    3.000    8.400    2.933 
#    0.000    0.000    0.000    4.400   20.800    0.000 
#    0.000    0.000    0.000    0.000    0.000    0.000 
#
# Total GULP energy -334063.022772 kJ/mol
# GULP energy per Si atom -5567.717046 kJ/mol
# Density = 2.039177 g / cm^3
# Si number density = 20.438293 Si / 1000 Ang^3
#
#
#
# Elastic Constant Matrix: (Units=GPa)
#
#
# Indices 1 2 3 4 5 6 
#
# 1 26.8260 14.8398 30.7510 0.0000 0.0000 0.0000
# 2 14.8398 166.0677 64.5043 0.0000 0.0000 0.0000
# 3 30.7510 64.5043 153.1580 0.0000 0.0000 0.0000
# 4 0.0000 0.0000 0.0000 23.1236 0.0000 0.0000
# 5 0.0000 0.0000 0.0000 0.0000 0.5176 0.0000
# 6 0.0000 0.0000 0.0000 0.0000 0.0000 24.2375
#
#
#
# Elastic Compliance Matrix: (Units=1/GPa)
#
#
# Indices 1 2 3 4 5 6 
#
# 1 0.048482 -0.000659 -0.009457 0.000000 0.000000 0.000000
# 2 -0.000659 0.007208 -0.002904 0.000000 0.000000 0.000000
# 3 -0.009457 -0.002904 0.009651 0.000000 0.000000 0.000000
# 4 0.000000 0.000000 0.000000 0.043246 0.000000 0.000000
# 5 0.000000 0.000000 0.000000 0.000000 1.932050 0.000000
# 6 0.000000 0.000000 0.000000 0.000000 0.000000 0.041258
#
#
# Mechanical properties :
#
#
# Convention : Reuss Voigt Hill
#
# Bulk Modulus (GPa) = 25.44359 62.91575 44.17967
# Shear Modulus (GPa) = 2.35734 25.30619 13.83176
#
# Velocity S-wave (km/s) = 1.07513 3.52259 2.60428
# Velocity P-wave (km/s) = 3.74396 6.88440 5.54131
#
# Compressibility (1/GPa) = 0.03930264
#
# Stress axis : x y z
#
# Youngs Moduli (GPa) = 20.62611 138.72822 103.61885
#
# Poissons Ratio (x) = 0.09145 0.97988
# Poissons Ratio (y) = 0.01360 0.30086
# Poissons Ratio (z) = 0.19505 0.40280
#
# Static dielectric constant tensor:
#      x y z
#    x 1.783090 0.000000 0.000000 
#    y 0.000000 1.832870 0.000000 
#    z 0.000000 0.000000 1.731850 
# 
# From -- ./inp_files/23697.got.cif
#   From: 2010.05.17/outbox.cif.g08.bks.cpg/sg55_12_cif.got.tgz:23697.got - 2010.06.03 13:27:54.
