data_PCOD9425609
_publ_section_title
;
Structure prediction by ZEFSAII (Michael W. Deem and Ramdas Pophale) SiO2 
 PCOD9425609
Probable space group: P B A M
;
_chemical_formula_sum "Si O2"
_cell_formula_units_Z 64
_cell_length_a 31.722106
_cell_length_b 11.480222
_cell_length_c 7.382587
_cell_angle_alpha 90.000000
_cell_angle_beta 90.000000
_cell_angle_gamma 90.000000
_cell_volume 2688.567051
_symmetry_space_group_name_H-M "P B A M"
_symmetry_group_IT_number 55
_symmetry_cell_setting 'orthorhombic'
loop_
_space_group_symop_operation_xyz
x,y,z
-x,-y,z
1/2+x,1/2-y,-z
1/2-x,1/2+y,-z
-x,-y,-z
x,y,-z
1/2-x,1/2+y,z
1/2+x,1/2-y,z
loop_
_atom_site_type_symbol
_atom_site_label
_atom_site_fract_x
_atom_site_fract_y
_atom_site_fract_z
Si Si1 0.278879 0.346097 0.278212
Si Si2 0.871940 0.129786 0.299627
Si Si3 0.134411 0.459380 0.718726
Si Si4 0.592350 0.259022 0.702091
Si Si5 0.951323 0.989764 0.278118
Si Si6 0.508845 0.133658 0.218400
Si Si7 0.581254 0.832306 0.789546
Si Si8 0.722055 0.927273 0.720252
O O1 0.278764 0.342545 0.500000
O O2 0.326283 0.377737 0.214080
O O3 0.251032 0.460044 0.227327
O O4 0.269064 0.209327 0.223811
O O5 0.868178 0.076762 0.500000
O O6 0.916368 0.084632 0.223169
O O7 0.882059 0.265852 0.312109
O O8 0.135620 0.452954 0.500000
O O9 0.127439 0.326500 0.783841
O O10 0.093614 0.533043 0.774566
O O11 0.175719 0.528409 0.779547
O O12 0.607181 0.290917 0.500000
O O13 0.573061 0.374273 0.787339
O O14 0.550048 0.182513 0.691976
O O15 0.953867 0.987718 0.500000
O O16 0.000000 0.000000 0.216227
O O17 0.465538 0.195362 0.278190
O O18 0.500000 0.000000 0.258688
O O19 0.512711 0.145800 0.000000
O O20 0.583265 0.803530 0.000000
O O21 0.723073 0.924160 0.500000
#
# Coordination Sequence:
#
# PCOD9425609 Si02
#       8
#     8   8   8   8   8   8   8   8
#     4   9  17  29  50  78 105 136 171 213 263 317
#     4  10  19  34  56  77 102 139 179 213 261 318
#     4  10  19  32  51  76 106 134 169 217 263 312
#     4  10  20  32  50  77 104 136 177 219 265 311
#     4   9  18  32  49  73 106 139 172 215 262 310
#     4  10  20  33  47  69 102 138 174 214 261 309
#     4  11  21  33  52  75 102 135 175 218 263 308
#     4   9  17  30  48  76 109 134 166 213 266 318
#
# _framework density 23.804501999999999
#
# number of rings (size 3 to 8) (size 9 to 14) (size 15 to 20)
#    0.000    2.250    2.500    1.125    0.000    3.250 
#    0.000    5.625    0.000    3.000    0.000    0.000 
#    0.000    0.000    0.000    0.000    0.000    0.000 
#
# Total GULP energy -356538.646404 kJ/mol
# GULP energy per Si atom -5570.916350 kJ/mol
# Density = 2.375032 g / cm^3
# Si number density = 23.804502 Si / 1000 Ang^3
#
#
#
# Elastic Constant Matrix: (Units=GPa)
#
#
# Indices 1 2 3 4 5 6 
#
# 1 124.0042 68.8152 1.3046 0.0000 0.0000 0.0000
# 2 68.8152 155.1378 5.7785 0.0000 0.0000 0.0000
# 3 1.3046 5.7785 85.1296 0.0000 0.0000 0.0000
# 4 0.0000 0.0000 0.0000 -301.4092 0.0000 0.0000
# 5 0.0000 0.0000 0.0000 0.0000 0.0955 0.0000
# 6 0.0000 0.0000 0.0000 0.0000 0.0000 46.1741
#
#
#
# Elastic Compliance Matrix: (Units=1/GPa)
#
#
# Indices 1 2 3 4 5 6 
#
# 1 0.010700 -0.004752 0.000159 0.000000 0.000000 0.000000
# 2 -0.004752 0.008573 -0.000509 0.000000 0.000000 0.000000
# 3 0.000159 -0.000509 0.011779 0.000000 0.000000 0.000000
# 4 0.000000 0.000000 0.000000 -0.003318 0.000000 0.000000
# 5 0.000000 0.000000 0.000000 0.000000 10.474589 0.000000
# 6 0.000000 0.000000 0.000000 0.000000 0.000000 0.021657
#
#
# Mechanical properties :
#
#
# Convention : Reuss Voigt Hill
#
# Bulk Modulus (GPa) = 47.97013 57.34092 52.65552
# Shear Modulus (GPa) = 0.47433 -31.80305 -15.66436
#
# Velocity S-wave (km/s) = 0.44687 -3.65911 -2.56802
# Velocity P-wave (km/s) = 4.52346 2.50767 3.65719
#
# Compressibility (1/GPa) = 0.02084631
#
# Stress axis : x y z
#
# Youngs Moduli (GPa) = 93.46089 116.64918 84.89738
#
# Poissons Ratio (x) = 0.55432 -0.01346
# Poissons Ratio (y) = 0.44413 0.04322
# Poissons Ratio (z) = -0.01482 0.05938
#
# Static dielectric constant tensor:
#      x y z
#    x 1.872100 0.000000 0.000000 
#    y 0.000000 2.100320 0.000000 
#    z 0.000000 0.000000 1.951340 
# 
# From -- ./inp_files/10757.got.cif
#   From: 2010.05.17/outbox.cif.g08.bks.cpg/sg55_6_cif.got.tgz:10757.got - 2010.06.03 13:27:54.
