data_PCOD9425535
_publ_section_title
;
Structure prediction by ZEFSAII (Michael W. Deem and Ramdas Pophale) SiO2 
 PCOD9425535
Probable space group: P B A M
;
_chemical_formula_sum "Si O2"
_cell_formula_units_Z 64
_cell_length_a 24.881760
_cell_length_b 14.952197
_cell_length_c 8.902720
_cell_angle_alpha 90.000000
_cell_angle_beta 90.000000
_cell_angle_gamma 90.000000
_cell_volume 3312.141038
_symmetry_space_group_name_H-M "P B A M"
_symmetry_group_IT_number 55
_symmetry_cell_setting 'orthorhombic'
loop_
_space_group_symop_operation_xyz
x,y,z
-x,-y,z
1/2+x,1/2-y,-z
1/2-x,1/2+y,-z
-x,-y,-z
x,y,-z
1/2-x,1/2+y,z
1/2+x,1/2-y,z
loop_
_atom_site_type_symbol
_atom_site_label
_atom_site_fract_x
_atom_site_fract_y
_atom_site_fract_z
Si Si1 0.051591 0.560640 0.818692
Si Si2 0.139406 0.440947 0.326424
Si Si3 0.307986 0.675454 0.178566
Si Si4 0.255423 0.854722 0.819145
Si Si5 0.554341 0.551612 0.320533
Si Si6 0.334524 0.483201 0.821101
Si Si7 0.085881 0.248767 0.328019
Si Si8 0.473657 0.263952 0.178176
O O1 0.105904 0.518385 0.753887
O O2 0.044285 0.664231 0.774072
O O3 0.000000 0.500000 0.771551
O O4 0.053283 0.557175 0.000000
O O5 0.149989 0.462679 0.500000
O O6 0.194252 0.409583 0.247188
O O7 0.100912 0.353474 0.322367
O O8 0.264069 0.750295 0.218813
O O9 0.297859 0.571168 0.203818
O O10 0.361014 0.699897 0.270910
O O11 0.319020 0.686534 0.000000
O O12 0.199587 0.897918 0.768594
O O13 0.257278 0.863203 0.000000
O O14 0.500000 0.500000 0.270457
O O15 0.554812 0.551094 0.500000
O O16 0.608465 0.507207 0.258478
O O17 0.553852 0.652934 0.259841
O O18 0.344312 0.475958 0.000000
O O19 0.072715 0.223858 0.500000
O O20 0.036308 0.229502 0.220783
O O21 0.465696 0.271847 0.000000
#
# Coordination Sequence:
#
# PCOD9425535 Si02
#       8
#     8   8   8   8   8   8   8   8
#     4  10  20  35  55  82 117 156 198 240 290 350
#     4  10  20  33  53  81 115 154 195 239 287 341
#     4   9  18  34  58  83 108 145 189 236 286 339
#     4   9  19  37  59  83 114 148 191 244 292 340
#     4  11  25  43  62  86 119 156 193 242 303 362
#     4  10  21  39  62  88 115 150 197 245 293 348
#     4  10  19  31  51  81 115 149 189 236 282 336
#     4  11  22  36  57  84 114 153 195 238 288 346
#
# _framework density 19.322848
#
# number of rings (size 3 to 8) (size 9 to 14) (size 15 to 20)
#    0.000    2.000    1.250    2.250    0.000    6.250 
#    2.250    0.000    0.000    0.000    0.000    0.000 
#    0.000    0.000    0.000    0.000    0.000    0.000 
#
# Total GULP energy -357200.047649 kJ/mol
# GULP energy per Si atom -5581.250745 kJ/mol
# Density = 1.927887 g / cm^3
# Si number density = 19.322848 Si / 1000 Ang^3
#
#
#
# Elastic Constant Matrix: (Units=GPa)
#
#
# Indices 1 2 3 4 5 6 
#
# 1 69.9985 34.2452 17.8879 0.0000 0.0000 0.0000
# 2 34.2452 113.2334 33.6721 0.0000 0.0000 0.0000
# 3 17.8879 33.6721 23.2167 0.0000 0.0000 0.0000
# 4 0.0000 0.0000 0.0000 16.4577 0.0000 0.0000
# 5 0.0000 0.0000 0.0000 0.0000 -4.3825 0.0000
# 6 0.0000 0.0000 0.0000 0.0000 0.0000 24.7619
#
#
#
# Elastic Compliance Matrix: (Units=1/GPa)
#
#
# Indices 1 2 3 4 5 6 
#
# 1 0.018134 -0.002338 -0.010581 0.000000 0.000000 0.000000
# 2 -0.002338 0.015830 -0.021158 0.000000 0.000000 0.000000
# 3 -0.010581 -0.021158 0.081911 0.000000 0.000000 0.000000
# 4 0.000000 0.000000 0.000000 0.060762 0.000000 0.000000
# 5 0.000000 0.000000 0.000000 0.000000 -0.228180 0.000000
# 6 0.000000 0.000000 0.000000 0.000000 0.000000 0.040385
#
#
# Mechanical properties :
#
#
# Convention : Reuss Voigt Hill
#
# Bulk Modulus (GPa) = 20.95497 42.00654 31.48075
# Shear Modulus (GPa) = 68.58635 15.41031 41.99833
#
# Velocity S-wave (km/s) = 5.96423 2.82710 4.66715
# Velocity P-wave (km/s) = 7.63528 5.69589 6.73575
#
# Compressibility (1/GPa) = 0.04772138
#
# Stress axis : x y z
#
# Youngs Moduli (GPa) = 55.14615 63.17163 12.20844
#
# Poissons Ratio (x) = 0.14767 0.12918
# Poissons Ratio (y) = 0.12891 0.25830
# Poissons Ratio (z) = 0.58351 1.33656
#
# Static dielectric constant tensor:
#      x y z
#    x 1.654310 0.000000 0.000000 
#    y 0.000000 1.703890 0.000000 
#    z 0.000000 0.000000 1.649780 
# 
# From -- ./inp_files/9668.got.cif
#   From: 2010.05.17/outbox.cif.g08.bks.cpg/sg55_5_cif.got.tgz:9668.got - 2010.06.03 13:27:54.
