data_PCOD9425100
_publ_section_title
;
Structure prediction by ZEFSAII (Michael W. Deem and Ramdas Pophale) SiO2 
 PCOD9425100
Probable space group: P B A M
;
_chemical_formula_sum "Si O2"
_cell_formula_units_Z 48
_cell_length_a 16.482092
_cell_length_b 5.421370
_cell_length_c 23.290034
_cell_angle_alpha 90.000000
_cell_angle_beta 90.000000
_cell_angle_gamma 90.000000
_cell_volume 2081.093078
_symmetry_space_group_name_H-M "P B A M"
_symmetry_group_IT_number 55
_symmetry_cell_setting 'orthorhombic'
loop_
_space_group_symop_operation_xyz
x,y,z
-x,-y,z
1/2+x,1/2-y,-z
1/2-x,1/2+y,-z
-x,-y,-z
x,y,-z
1/2-x,1/2+y,z
1/2+x,1/2-y,z
loop_
_atom_site_type_symbol
_atom_site_label
_atom_site_fract_x
_atom_site_fract_y
_atom_site_fract_z
Si Si1 0.836984 0.446638 0.067866
Si Si2 0.409737 0.902413 0.565123
Si Si3 0.652635 0.446638 0.884915
Si Si4 0.402034 0.013240 0.308369
Si Si5 0.400853 0.511611 0.245613
Si Si6 0.203389 0.018248 0.568402
O O1 0.879509 0.191240 0.083908
O O2 0.748660 0.438184 0.098933
O O3 0.880911 0.689566 0.090973
O O4 0.823101 0.465466 0.000000
O O5 0.376097 0.952639 0.500000
O O6 0.383928 0.030175 0.624394
O O7 0.389397 0.613261 0.578484
O O8 0.500000 0.000000 0.560090
O O9 0.635246 0.469259 0.817931
O O10 0.374155 0.754735 0.280802
O O11 0.500000 0.000000 0.303461
O O12 0.373574 0.257631 0.275638
O O13 0.500000 0.500000 0.242616
O O14 0.204195 0.992032 0.500000
O O15 0.252101 0.267567 0.586680
#
# Coordination Sequence:
#
# PCOD9425100 Si02
#       6
#     8   8   8   8   8   8
#     4  10  19  33  56  82 108 141 174 216 273 312
#     4   9  18  35  61  88 110 140 192 249 295 348
#     4  10  18  31  54  77 105 140 180 217 250 316
#     4   9  19  35  54  77 106 138 179 229 278 324
#     4  10  20  35  55  76 104 147 185 215 263 328
#     4   9  18  33  53  74 105 142 173 208 273 354
#
# _framework density 23.064802
#
# number of rings (size 3 to 8) (size 9 to 14) (size 15 to 20)
#    0.000    2.500    0.000    3.500    0.000    1.333 
#    0.000    5.000   22.000   19.500    0.000    0.000 
#    0.000    0.000    0.000    0.000    0.000    0.000 
#
# Total GULP energy -267412.775072 kJ/mol
# GULP energy per Si atom -5571.099481 kJ/mol
# Density = 2.301231 g / cm^3
# Si number density = 23.064802 Si / 1000 Ang^3
#
#
#
# Elastic Constant Matrix: (Units=GPa)
#
#
# Indices 1 2 3 4 5 6 
#
# 1 18.1080 8.4782 17.2819 0.0000 0.0000 0.0000
# 2 8.4782 169.4342 29.7483 0.0000 0.0000 0.0000
# 3 17.2819 29.7483 148.9543 0.0000 0.0000 0.0000
# 4 0.0000 0.0000 0.0000 64.5883 0.0000 0.0000
# 5 0.0000 0.0000 0.0000 0.0000 38.4774 0.0000
# 6 0.0000 0.0000 0.0000 0.0000 0.0000 10.0852
#
#
#
# Elastic Compliance Matrix: (Units=1/GPa)
#
#
# Indices 1 2 3 4 5 6 
#
# 1 0.062702 -0.001928 -0.006890 0.000000 0.000000 0.000000
# 2 -0.001928 0.006176 -0.001010 0.000000 0.000000 0.000000
# 3 -0.006890 -0.001010 0.007714 0.000000 0.000000 0.000000
# 4 0.000000 0.000000 0.000000 0.015483 0.000000 0.000000
# 5 0.000000 0.000000 0.000000 0.000000 0.025989 0.000000
# 6 0.000000 0.000000 0.000000 0.000000 0.000000 0.099155
#
#
# Mechanical properties :
#
#
# Convention : Reuss Voigt Hill
#
# Bulk Modulus (GPa) = 17.56299 49.72370 33.64335
# Shear Modulus (GPa) = 19.54240 41.36272 30.45256
#
# Velocity S-wave (km/s) = 2.91397 4.23936 3.63754
# Velocity P-wave (km/s) = 4.35348 6.75041 5.67982
#
# Compressibility (1/GPa) = 0.05693792
#
# Stress axis : x y z
#
# Youngs Moduli (GPa) = 15.94834 161.92380 129.62626
#
# Poissons Ratio (x) = 0.31217 0.89310
# Poissons Ratio (y) = 0.03075 0.13089
# Poissons Ratio (z) = 0.10988 0.16350
#
# Static dielectric constant tensor:
#      x y z
#    x 1.633620 0.000000 0.000000 
#    y 0.000000 2.009080 0.000000 
#    z 0.000000 0.000000 1.846730 
# 
# From -- ./inp_files/23646.got.cif
#   From: 2010.05.17/outbox.cif.g08.bks.cpg/sg55_12_cif.got.tgz:23646.got - 2010.06.03 13:27:54.
