data_PCOD9425712
_publ_section_title
;
Structure prediction by ZEFSAII (Michael W. Deem and Ramdas Pophale) SiO2 
 PCOD9425712
Probable space group: P B A M
;
_chemical_formula_sum "Si O2"
_cell_formula_units_Z 64
_cell_length_a 15.829565
_cell_length_b 23.729391
_cell_length_c 9.037200
_cell_angle_alpha 90.000000
_cell_angle_beta 90.000000
_cell_angle_gamma 90.000000
_cell_volume 3394.606720
_symmetry_space_group_name_H-M "P B A M"
_symmetry_group_IT_number 55
_symmetry_cell_setting 'orthorhombic'
loop_
_space_group_symop_operation_xyz
x,y,z
-x,-y,z
1/2+x,1/2-y,-z
1/2-x,1/2+y,-z
-x,-y,-z
x,y,-z
1/2-x,1/2+y,z
1/2+x,1/2-y,z
loop_
_atom_site_type_symbol
_atom_site_label
_atom_site_fract_x
_atom_site_fract_y
_atom_site_fract_z
Si Si1 0.119908 0.453093 0.678458
Si Si2 0.132830 0.697760 0.320881
Si Si3 0.029821 0.907386 0.173876
Si Si4 0.435683 0.078506 0.320620
Si Si5 0.007554 0.225155 0.173295
Si Si6 0.678713 0.299816 0.675963
Si Si7 0.141195 0.068091 0.674266
Si Si8 0.290726 0.459940 0.176407
O O1 0.127543 0.451408 0.500000
O O2 0.101983 0.518192 0.724144
O O3 0.206698 0.434400 0.751861
O O4 0.034732 0.419854 0.720987
O O5 0.130615 0.698553 0.500000
O O6 0.114554 0.633474 0.271834
O O7 0.226949 0.716458 0.276059
O O8 0.059431 0.736549 0.257703
O O9 0.123006 0.927391 0.216823
O O10 0.019974 0.840228 0.190253
O O11 0.954963 0.935049 0.267992
O O12 0.016642 0.921443 0.000000
O O13 0.433619 0.077761 0.500000
O O14 0.101612 0.229107 0.239789
O O15 0.008040 0.238688 0.000000
O O16 0.669597 0.289761 0.500000
O O17 0.670239 0.367472 0.698274
O O18 0.146732 0.056236 0.500000
O O19 0.196306 0.022966 0.761761
O O20 0.283336 0.460305 0.000000
#
# Coordination Sequence:
#
# PCOD9425712 Si02
#       8
#     8   8   8   8   8   8   8   8
#     4   9  17  33  55  78 105 138 174 212 258 315
#     4  10  19  35  59  83 107 137 177 223 272 322
#     4   9  20  37  51  67 103 146 176 211 266 317
#     4   8  16  33  57  80 105 135 168 216 270 312
#     4  10  21  38  56  76 106 144 182 225 268 315
#     4   9  19  36  58  82 107 138 176 224 275 320
#     4  10  19  32  54  81 105 132 175 224 262 310
#     4  11  21  32  48  74 108 145 175 208 261 320
#
# _framework density 18.853437
#
# number of rings (size 3 to 8) (size 9 to 14) (size 15 to 20)
#    0.000    2.500    0.000    3.000    0.000    6.000 
#    2.250    3.750    0.000    0.000    0.000    0.000 
#    0.000    0.000    0.000    0.000    0.000    0.000 
#
# Total GULP energy -357178.467920 kJ/mol
# GULP energy per Si atom -5580.913561 kJ/mol
# Density = 1.881053 g / cm^3
# Si number density = 18.853437 Si / 1000 Ang^3
#
#
#
# Elastic Constant Matrix: (Units=GPa)
#
#
# Indices 1 2 3 4 5 6 
#
# 1 157.0649 21.6740 41.2707 0.0000 0.0000 0.0000
# 2 21.6740 15.8897 12.3370 0.0000 0.0000 0.0000
# 3 41.2707 12.3370 28.9594 0.0000 0.0000 0.0000
# 4 0.0000 0.0000 0.0000 11.4991 0.0000 0.0000
# 5 0.0000 0.0000 0.0000 0.0000 -256.7110 0.0000
# 6 0.0000 0.0000 0.0000 0.0000 0.0000 21.1563
#
#
#
# Elastic Compliance Matrix: (Units=1/GPa)
#
#
# Indices 1 2 3 4 5 6 
#
# 1 0.010344 -0.003981 -0.013046 0.000000 0.000000 0.000000
# 2 -0.003981 0.095570 -0.035041 0.000000 0.000000 0.000000
# 3 -0.013046 -0.035041 0.068050 0.000000 0.000000 0.000000
# 4 0.000000 0.000000 0.000000 0.086964 0.000000 0.000000
# 5 0.000000 0.000000 0.000000 0.000000 -0.003895 0.000000
# 6 0.000000 0.000000 0.000000 0.000000 0.000000 0.047267
#
#
# Mechanical properties :
#
#
# Convention : Reuss Voigt Hill
#
# Bulk Modulus (GPa) = 14.32047 39.16417 26.74232
# Shear Modulus (GPa) = 11.58180 -36.36896 -12.39358
#
# Velocity S-wave (km/s) = 2.48121 -4.39684 -2.56669
# Velocity P-wave (km/s) = 3.97753 2.22672 2.33050
#
# Compressibility (1/GPa) = 0.06983011
#
# Stress axis : x y z
#
# Youngs Moduli (GPa) = 96.67446 10.46349 14.69497
#
# Poissons Ratio (x) = 0.04165 0.19170
# Poissons Ratio (y) = 0.38483 0.51493
# Poissons Ratio (z) = 1.26118 0.36665
#
# Static dielectric constant tensor:
#      x y z
#    x 1.659570 0.000000 0.000000 
#    y 0.000000 1.652460 0.000000 
#    z 0.000000 0.000000 1.627740 
# 
# From -- ./inp_files/6678.got.cif
#   From: 2010.05.17/outbox.cif.g08.bks.cpg/sg55_4_cif.got.tgz:6678.got - 2010.06.03 13:27:54.
