data_PCOD9425418
_publ_section_title
;
Structure prediction by ZEFSAII (Michael W. Deem and Ramdas Pophale) SiO2 
 PCOD9425418
Probable space group: P B A M
;
_chemical_formula_sum "Si O2"
_cell_formula_units_Z 64
_cell_length_a 5.005902
_cell_length_b 34.924730
_cell_length_c 16.953367
_cell_angle_alpha 90.000000
_cell_angle_beta 90.000000
_cell_angle_gamma 90.000000
_cell_volume 2963.953351
_symmetry_space_group_name_H-M "P B A M"
_symmetry_group_IT_number 55
_symmetry_cell_setting 'orthorhombic'
loop_
_space_group_symop_operation_xyz
x,y,z
-x,-y,z
1/2+x,1/2-y,-z
1/2-x,1/2+y,-z
-x,-y,-z
x,y,-z
1/2-x,1/2+y,z
1/2+x,1/2-y,z
loop_
_atom_site_type_symbol
_atom_site_label
_atom_site_fract_x
_atom_site_fract_y
_atom_site_fract_z
Si Si1 0.556866 0.573674 0.237811
Si Si2 0.818926 0.646471 0.092884
Si Si3 0.584783 0.723901 0.592260
Si Si4 0.452039 0.882628 0.413575
Si Si5 0.047148 0.146153 0.333119
Si Si6 0.694346 0.401034 0.090974
Si Si7 0.511995 0.772378 0.096418
Si Si8 0.054059 0.543823 0.326767
O O1 0.532364 0.619368 0.258930
O O2 0.446919 0.569442 0.149646
O O3 0.845471 0.557845 0.259504
O O4 0.349734 0.552162 0.295227
O O5 0.509914 0.635149 0.093013
O O6 0.018216 0.613187 0.121970
O O7 0.900929 0.687335 0.126891
O O8 0.890939 0.648446 0.000000
O O9 0.555423 0.710511 0.500000
O O10 0.879150 0.741028 0.601660
O O11 0.520038 0.690546 0.654701
O O12 0.532240 0.870088 0.500000
O O13 0.642601 0.861049 0.351543
O O14 0.499613 0.927331 0.398545
O O15 0.144056 0.873400 0.398707
O O16 0.710884 0.413996 0.000000
O O17 0.308974 0.738769 0.120298
O O18 0.507003 0.773293 0.000000
O O19 0.000000 0.500000 0.344869
#
# Coordination Sequence:
#
# PCOD9425418 Si02
#       8
#     8   8   8   8   8   8   8   8
#     4  10  21  37  58  80 103 142 179 212 268 322
#     4   9  17  28  45  70  95 121 156 208 267 308
#     4  10  19  30  48  74 103 138 179 224 269 304
#     4  10  19  32  54  82 111 145 180 215 256 300
#     4  10  20  34  52  76 109 145 184 224 262 314
#     4  10  19  33  54  77  99 124 168 226 269 313
#     4   9  15  23  37  58  87 121 152 185 238 310
#     4  10  21  37  57  82 112 143 174 208 252 314
#
# _framework density 21.592782
#
# number of rings (size 3 to 8) (size 9 to 14) (size 15 to 20)
#    0.000    2.250    0.000    3.750    0.000    4.250 
#    0.000    0.000    0.000   11.250    0.000    0.000 
#    0.000    0.000    0.000    0.000    0.000    0.000 
#
# Total GULP energy -357026.522610 kJ/mol
# GULP energy per Si atom -5578.539416 kJ/mol
# Density = 2.154364 g / cm^3
# Si number density = 21.592782 Si / 1000 Ang^3
#
#
#
# Elastic Constant Matrix: (Units=GPa)
#
#
# Indices 1 2 3 4 5 6 
#
# 1 65.2198 -2.3326 -6.0442 0.0000 0.0000 0.0000
# 2 -2.3326 40.4695 -4.9821 0.0000 0.0000 0.0000
# 3 -6.0442 -4.9821 24.1570 0.0000 0.0000 0.0000
# 4 0.0000 0.0000 0.0000 8.9251 0.0000 0.0000
# 5 0.0000 0.0000 0.0000 0.0000 -9.0240 0.0000
# 6 0.0000 0.0000 0.0000 0.0000 0.0000 18.1577
#
#
#
# Elastic Compliance Matrix: (Units=1/GPa)
#
#
# Indices 1 2 3 4 5 6 
#
# 1 0.015777 0.001432 0.004243 0.000000 0.000000 0.000000
# 2 0.001432 0.025484 0.005614 0.000000 0.000000 0.000000
# 3 0.004243 0.005614 0.043615 0.000000 0.000000 0.000000
# 4 0.000000 0.000000 0.000000 0.112043 0.000000 0.000000
# 5 0.000000 0.000000 0.000000 0.000000 -0.110816 0.000000
# 6 0.000000 0.000000 0.000000 0.000000 0.000000 0.055073
#
#
# Mechanical properties :
#
#
# Convention : Reuss Voigt Hill
#
# Bulk Modulus (GPa) = 9.30639 11.45871 10.38255
# Shear Modulus (GPa) = 32.37969 13.15877 22.76923
#
# Velocity S-wave (km/s) = 3.87662 2.47129 3.25080
# Velocity P-wave (km/s) = 4.93527 3.66897 4.34846
#
# Compressibility (1/GPa) = 0.10745300
#
# Stress axis : x y z
#
# Youngs Moduli (GPa) = 63.38268 39.24094 22.92771
#
# Poissons Ratio (x) = -0.05618 -0.09728
# Poissons Ratio (y) = -0.09074 -0.12871
# Poissons Ratio (z) = -0.26892 -0.22030
#
# Static dielectric constant tensor:
#      x y z
#    x 1.746450 0.000000 0.000000 
#    y 0.000000 1.800350 0.000000 
#    z 0.000000 0.000000 1.820820 
# 
# From -- ./inp_files/20565.got.cif
#   From: 2010.05.17/outbox.cif.g08.bks.cpg/sg55_11_cif.got.tgz:20565.got - 2010.06.03 13:27:54.
