data_PCOD9425677
_publ_section_title
;
Structure prediction by ZEFSAII (Michael W. Deem and Ramdas Pophale) SiO2 
 PCOD9425677
Probable space group: P B A M
;
_chemical_formula_sum "Si O2"
_cell_formula_units_Z 64
_cell_length_a 23.727327
_cell_length_b 16.308813
_cell_length_c 7.536933
_cell_angle_alpha 90.000000
_cell_angle_beta 90.000000
_cell_angle_gamma 90.000000
_cell_volume 2916.525804
_symmetry_space_group_name_H-M "P B A M"
_symmetry_group_IT_number 55
_symmetry_cell_setting 'orthorhombic'
loop_
_space_group_symop_operation_xyz
x,y,z
-x,-y,z
1/2+x,1/2-y,-z
1/2-x,1/2+y,-z
-x,-y,-z
x,y,-z
1/2-x,1/2+y,z
1/2+x,1/2-y,z
loop_
_atom_site_type_symbol
_atom_site_label
_atom_site_fract_x
_atom_site_fract_y
_atom_site_fract_z
Si Si1 0.934880 0.755223 0.213033
Si Si2 0.643240 0.968970 0.199244
Si Si3 0.984435 0.091073 0.713171
Si Si4 0.958393 0.573736 0.783988
Si Si5 0.754345 0.567311 0.291578
Si Si6 0.309839 0.189895 0.212116
Si Si7 0.139763 0.867188 0.286367
Si Si8 0.305897 0.753967 0.784831
O O1 0.962339 0.668513 0.276750
O O2 0.869754 0.761374 0.277061
O O3 0.971352 0.836018 0.251114
O O4 0.931593 0.748621 0.000000
O O5 0.650813 0.881455 0.288721
O O6 0.602582 0.038634 0.272921
O O7 0.706036 0.003702 0.194948
O O8 0.620735 0.955488 0.000000
O O9 0.980733 0.085547 0.500000
O O10 0.922349 0.114637 0.781265
O O11 0.000000 0.000000 0.778714
O O12 0.000000 0.500000 0.727264
O O13 0.962721 0.578116 0.000000
O O14 0.754190 0.547448 0.500000
O O15 0.690457 0.574078 0.224549
O O16 0.783795 0.655932 0.267465
O O17 0.339539 0.276346 0.241766
O O18 0.245141 0.194954 0.277236
O O19 0.306591 0.176423 0.000000
O O20 0.139159 0.873601 0.500000
O O21 0.306645 0.751644 0.000000
#
# Coordination Sequence:
#
# PCOD9425677 Si02
#       8
#     8   8   8   8   8   8   8   8
#     4  10  20  35  59  83 110 145 183 232 279 321
#     4  10  19  33  52  79 112 143 177 219 270 326
#     4  10  23  42  59  77 107 147 189 232 280 331
#     4   9  18  32  52  78 111 149 183 215 265 332
#     4  10  19  32  53  78 105 141 181 221 267 325
#     4   9  19  32  54  83 109 141 180 219 269 336
#     4   9  20  38  56  75 106 144 181 225 278 325
#     4   9  17  34  53  77 109 139 174 223 278 323
#
# _framework density 21.943916999999999
#
# number of rings (size 3 to 8) (size 9 to 14) (size 15 to 20)
#    0.000    2.500    1.250    0.375    1.750    3.250 
#    0.000    0.000    0.000    0.750    0.000    0.000 
#    0.000    0.000    0.000    0.000    0.000    0.000 
#
# Total GULP energy -356867.542911 kJ/mol
# GULP energy per Si atom -5576.055358 kJ/mol
# Density = 2.189397 g / cm^3
# Si number density = 21.943917 Si / 1000 Ang^3
#
#
#
# Elastic Constant Matrix: (Units=GPa)
#
#
# Indices 1 2 3 4 5 6 
#
# 1 144.2200 69.8098 5.2775 0.0000 0.0000 0.0000
# 2 69.8098 129.2303 -0.5603 0.0000 0.0000 0.0000
# 3 5.2775 -0.5603 56.6587 0.0000 0.0000 0.0000
# 4 0.0000 0.0000 0.0000 7.6234 0.0000 0.0000
# 5 0.0000 0.0000 0.0000 0.0000 12.8905 0.0000
# 6 0.0000 0.0000 0.0000 0.0000 0.0000 26.9659
#
#
#
# Elastic Compliance Matrix: (Units=1/GPa)
#
#
# Indices 1 2 3 4 5 6 
#
# 1 0.009438 -0.005102 -0.000930 0.000000 0.000000 0.000000
# 2 -0.005102 0.010497 0.000579 0.000000 0.000000 0.000000
# 3 -0.000930 0.000579 0.017742 0.000000 0.000000 0.000000
# 4 0.000000 0.000000 0.000000 0.131175 0.000000 0.000000
# 5 0.000000 0.000000 0.000000 0.000000 0.077576 0.000000
# 6 0.000000 0.000000 0.000000 0.000000 0.000000 0.037084
#
#
# Mechanical properties :
#
#
# Convention : Reuss Voigt Hill
#
# Bulk Modulus (GPa) = 37.35395 53.24033 45.29714
# Shear Modulus (GPa) = 16.48311 26.53476 21.50894
#
# Velocity S-wave (km/s) = 2.74368 3.48114 3.13418
# Velocity P-wave (km/s) = 5.20543 6.36180 5.81244
#
# Compressibility (1/GPa) = 0.02677093
#
# Stress axis : x y z
#
# Youngs Moduli (GPa) = 105.95934 95.26694 56.36392
#
# Poissons Ratio (x) = 0.48607 0.05239
# Poissons Ratio (y) = 0.54062 -0.03264
# Poissons Ratio (z) = 0.09849 -0.05516
#
# Static dielectric constant tensor:
#      x y z
#    x 1.826940 0.000000 0.000000 
#    y 0.000000 1.804960 0.000000 
#    z 0.000000 0.000000 1.840510 
# 
# From -- ./inp_files/9800.got.cif
#   From: 2010.05.17/outbox.cif.g08.bks.cpg/sg55_5_cif.got.tgz:9800.got - 2010.06.03 13:27:54.
