data_PCOD9425256
_publ_section_title
;
Structure prediction by ZEFSAII (Michael W. Deem and Ramdas Pophale) SiO2 
 PCOD9425256
Probable space group: P B A M
;
_chemical_formula_sum "Si O2"
_cell_formula_units_Z 64
_cell_length_a 24.162227
_cell_length_b 15.707838
_cell_length_c 8.570017
_cell_angle_alpha 90.000000
_cell_angle_beta 90.000000
_cell_angle_gamma 90.000000
_cell_volume 3252.632950
_symmetry_space_group_name_H-M "P B A M"
_symmetry_group_IT_number 55
_symmetry_cell_setting 'orthorhombic'
loop_
_space_group_symop_operation_xyz
x,y,z
-x,-y,z
1/2+x,1/2-y,-z
1/2-x,1/2+y,-z
-x,-y,-z
x,y,-z
1/2-x,1/2+y,z
1/2+x,1/2-y,z
loop_
_atom_site_type_symbol
_atom_site_label
_atom_site_fract_x
_atom_site_fract_y
_atom_site_fract_z
Si Si1 0.883744 0.408047 0.313319
Si Si2 0.297941 0.750354 0.686972
Si Si3 0.373387 0.600853 0.814151
Si Si4 0.388801 0.421044 0.316279
Si Si5 0.001271 0.332556 0.686653
Si Si6 0.879249 0.598063 0.310177
Si Si7 0.499056 0.644882 0.814638
Si Si8 0.174679 0.758350 0.183748
O O1 0.873703 0.401303 0.500000
O O2 0.867046 0.502064 0.258650
O O3 0.852597 0.331194 0.230988
O O4 0.949368 0.394345 0.289090
O O5 0.291318 0.753160 0.500000
O O6 0.331298 0.665506 0.733058
O O7 0.335235 0.830999 0.737355
O O8 0.238463 0.755141 0.766204
O O9 0.363900 0.502960 0.769936
O O10 0.436621 0.622357 0.764745
O O11 0.369779 0.612601 0.000000
O O12 0.385296 0.434466 0.500000
O O13 0.452671 0.408631 0.266248
O O14 0.356813 0.335076 0.270140
O O15 0.004353 0.315062 0.500000
O O16 0.059348 0.372706 0.737630
O O17 0.991443 0.243610 0.772820
O O18 0.879803 0.596100 0.500000
O O19 0.503313 0.631269 0.000000
O O20 0.168955 0.772104 0.000000
#
# Coordination Sequence:
#
# PCOD9425256 Si02
#       8
#     8   8   8   8   8   8   8   8
#     4  10  20  37  63  94 126 161 203 251 304 372
#     4  11  23  42  66  91 122 164 216 264 304 364
#     4  11  24  42  64  94 130 166 203 254 319 379
#     4  12  25  42  66  94 123 163 213 261 310 375
#     4  10  18  33  61  93 126 162 199 243 303 370
#     4   9  19  36  62  95 126 158 201 250 301 358
#     4  11  22  37  61  93 132 167 199 248 314 378
#     4  12  26  44  63  87 124 165 209 264 320 372
#
# _framework density 19.676366999999999
#
# number of rings (size 3 to 8) (size 9 to 14) (size 15 to 20)
#    0.000    1.250    2.500    4.125    0.000    5.500 
#    0.000    5.625    0.000    1.500    0.000    0.000 
#    0.000    0.000    0.000    0.000    0.000    0.000 
#
# Total GULP energy -357927.877773 kJ/mol
# GULP energy per Si atom -5592.623090 kJ/mol
# Density = 1.963158 g / cm^3
# Si number density = 19.676367 Si / 1000 Ang^3
#
#
#
# Elastic Constant Matrix: (Units=GPa)
#
#
# Indices 1 2 3 4 5 6 
#
# 1 83.0756 3.6257 2.9696 0.0000 0.0000 0.0000
# 2 3.6257 80.6008 -15.8880 0.0000 0.0000 0.0000
# 3 2.9696 -15.8880 21.8030 0.0000 0.0000 0.0000
# 4 0.0000 0.0000 0.0000 -13.6474 0.0000 0.0000
# 5 0.0000 0.0000 0.0000 0.0000 17.6852 0.0000
# 6 0.0000 0.0000 0.0000 0.0000 0.0000 1.7416
#
#
#
# Elastic Compliance Matrix: (Units=1/GPa)
#
#
# Indices 1 2 3 4 5 6 
#
# 1 0.012168 -0.001021 -0.002401 0.000000 0.000000 0.000000
# 2 -0.001021 0.014574 0.010759 0.000000 0.000000 0.000000
# 3 -0.002401 0.010759 0.054032 0.000000 0.000000 0.000000
# 4 0.000000 0.000000 0.000000 -0.073274 0.000000 0.000000
# 5 0.000000 0.000000 0.000000 0.000000 0.056545 0.000000
# 6 0.000000 0.000000 0.000000 0.000000 0.000000 0.574189
#
#
# Mechanical properties :
#
#
# Convention : Reuss Voigt Hill
#
# Bulk Modulus (GPa) = 10.47693 18.54377 14.51035
# Shear Modulus (GPa) = 7.62923 14.14068 10.88495
#
# Velocity S-wave (km/s) = 1.97124 2.68370 2.35457
# Velocity P-wave (km/s) = 3.24303 4.36438 3.84480
#
# Compressibility (1/GPa) = 0.09544777
#
# Stress axis : x y z
#
# Youngs Moduli (GPa) = 82.18545 68.61767 18.50747
#
# Poissons Ratio (x) = 0.07003 0.04444
# Poissons Ratio (y) = 0.08388 -0.19912
# Poissons Ratio (z) = 0.19733 -0.73824
#
# Static dielectric constant tensor:
#      x y z
#    x 1.669690 0.000000 0.000000 
#    y 0.000000 1.672460 0.000000 
#    z 0.000000 0.000000 1.660650 
# 
# From -- ./inp_files/9705.got.cif
#   From: 2010.05.17/outbox.cif.g08.bks.cpg/sg55_5_cif.got.tgz:9705.got - 2010.06.03 13:27:54.
