data_PCOD9425627
_publ_section_title
;
Structure prediction by ZEFSAII (Michael W. Deem and Ramdas Pophale) SiO2 
 PCOD9425627
Probable space group: P B A M
;
_chemical_formula_sum "Si O2"
_cell_formula_units_Z 52
_cell_length_a 5.108492
_cell_length_b 17.482598
_cell_length_c 31.844727
_cell_angle_alpha 90.000000
_cell_angle_beta 90.000000
_cell_angle_gamma 90.000000
_cell_volume 2844.043398
_symmetry_space_group_name_H-M "P B A M"
_symmetry_group_IT_number 55
_symmetry_cell_setting 'orthorhombic'
loop_
_space_group_symop_operation_xyz
x,y,z
-x,-y,z
1/2+x,1/2-y,-z
1/2-x,1/2+y,-z
-x,-y,-z
x,y,-z
1/2-x,1/2+y,z
1/2+x,1/2-y,z
loop_
_atom_site_type_symbol
_atom_site_label
_atom_site_fract_x
_atom_site_fract_y
_atom_site_fract_z
Si Si1 0.663519 0.200901 0.202056
Si Si2 0.742108 0.552064 0.951265
Si Si3 0.991638 0.408836 0.724882
Si Si4 0.380084 0.698584 0.500000
Si Si5 0.519448 0.303948 0.409250
Si Si6 0.369920 0.800271 0.896554
Si Si7 0.508924 0.591444 0.670882
O O1 0.457901 0.270063 0.209389
O O2 0.572984 0.134790 0.233183
O O3 0.642891 0.179733 0.152963
O O4 0.500000 0.500000 0.936311
O O5 0.793604 0.627032 0.924049
O O6 0.000000 0.500000 0.950090
O O7 0.689447 0.573266 0.000000
O O8 0.709185 0.389054 0.705878
O O9 0.000000 0.500000 0.731839
O O10 0.207710 0.389298 0.689655
O O11 0.582387 0.770945 0.500000
O O12 0.441769 0.659413 0.455602
O O13 0.741134 0.238474 0.406507
O O14 0.545548 0.363179 0.371579
O O15 0.657744 0.766603 0.904775
O O16 0.500000 0.500000 0.663906
#
# Coordination Sequence:
#
# PCOD9425627 Si02
#       7
#     8   8   8   4   8   8   8
#     4  10  21  36  54  77 105 134 171 218 257 299
#     4  10  21  37  57  83 113 144 182 226 267 314
#     4  10  21  36  52  72 101 136 169 206 255 306
#     4   8  16  30  47  70  99 124 156 204 246 288
#     4  10  19  32  52  75  97 128 167 203 245 299
#     4  10  21  37  56  81 111 143 179 221 272 322
#     4  10  21  35  50  73 104 131 163 209 254 298
#
# _framework density 18.283826999999999
#
# number of rings (size 3 to 8) (size 9 to 14) (size 15 to 20)
#    0.000    2.154    0.000    2.769    0.000    4.923 
#    0.000    2.692    0.000    0.000    0.000    9.692 
#    0.000    0.000    0.000    0.000    0.000    0.000 
#
# Total GULP energy -290205.006685 kJ/mol
# GULP energy per Si atom -5580.865513 kJ/mol
# Density = 1.824221 g / cm^3
# Si number density = 18.283827 Si / 1000 Ang^3
#
#
#
# Elastic Constant Matrix: (Units=GPa)
#
#
# Indices 1 2 3 4 5 6 
#
# 1 73.1786 3.8847 9.9340 0.0000 0.0000 0.0000
# 2 3.8847 47.8163 63.2126 0.0000 0.0000 0.0000
# 3 9.9340 63.2126 103.7389 0.0000 0.0000 0.0000
# 4 0.0000 0.0000 0.0000 62.4515 0.0000 0.0000
# 5 0.0000 0.0000 0.0000 0.0000 29.0103 0.0000
# 6 0.0000 0.0000 0.0000 0.0000 0.0000 21.1637
#
#
#
# Elastic Compliance Matrix: (Units=1/GPa)
#
#
# Indices 1 2 3 4 5 6 
#
# 1 0.013943 0.003252 -0.003317 0.000000 0.000000 0.000000
# 2 0.003252 0.108307 -0.066307 0.000000 0.000000 0.000000
# 3 -0.003317 -0.066307 0.050361 0.000000 0.000000 0.000000
# 4 0.000000 0.000000 0.000000 0.016012 0.000000 0.000000
# 5 0.000000 0.000000 0.000000 0.000000 0.034471 0.000000
# 6 0.000000 0.000000 0.000000 0.000000 0.000000 0.047251
#
#
# Mechanical properties :
#
#
# Convention : Reuss Voigt Hill
#
# Bulk Modulus (GPa) = 25.08389 42.08848 33.58618
# Shear Modulus (GPa) = 12.00835 32.37195 22.19015
#
# Velocity S-wave (km/s) = 2.56554 4.21232 3.48753
# Velocity P-wave (km/s) = 4.74605 6.83577 5.88441
#
# Compressibility (1/GPa) = 0.03986622
#
# Stress axis : x y z
#
# Youngs Moduli (GPa) = 71.72162 9.23305 19.85660
#
# Poissons Ratio (x) = -0.03002 0.06586
# Poissons Ratio (y) = -0.23322 1.31664
# Poissons Ratio (z) = 0.23787 0.61222
#
# Static dielectric constant tensor:
#      x y z
#    x 1.640620 0.000000 0.000000 
#    y 0.000000 1.587910 0.000000 
#    z 0.000000 0.000000 1.628710 
# 
# From -- ./inp_files/24076.got.cif
#   From: 2010.05.17/outbox.cif.g08.bks.cpg/sg55_13_cif.got.tgz:24076.got - 2010.06.03 13:27:54.
