data_PCOD9425922
_publ_section_title
;
Structure prediction by ZEFSAII (Michael W. Deem and Ramdas Pophale) SiO2 
 PCOD9425922
Probable space group: P B A M
;
_chemical_formula_sum "Si O2"
_cell_formula_units_Z 64
_cell_length_a 28.337337
_cell_length_b 12.375699
_cell_length_c 9.384694
_cell_angle_alpha 90.000000
_cell_angle_beta 90.000000
_cell_angle_gamma 90.000000
_cell_volume 3291.159192
_symmetry_space_group_name_H-M "P B A M"
_symmetry_group_IT_number 55
_symmetry_cell_setting 'orthorhombic'
loop_
_space_group_symop_operation_xyz
x,y,z
-x,-y,z
1/2+x,1/2-y,-z
1/2-x,1/2+y,-z
-x,-y,-z
x,y,-z
1/2-x,1/2+y,z
1/2+x,1/2-y,z
loop_
_atom_site_type_symbol
_atom_site_label
_atom_site_fract_x
_atom_site_fract_y
_atom_site_fract_z
Si Si1 0.827325 0.366597 0.338372
Si Si2 0.928741 0.485212 0.663110
Si Si3 0.284329 0.943250 0.831091
Si Si4 0.317652 0.350130 0.833111
Si Si5 0.581070 0.572567 0.167709
Si Si6 0.031698 0.737156 0.333763
Si Si7 0.882347 0.676383 0.830298
Si Si8 0.432039 0.642003 0.333849
O O1 0.811693 0.354009 0.500000
O O2 0.879250 0.419506 0.338507
O O3 0.794069 0.448438 0.254544
O O4 0.828244 0.253644 0.260134
O O5 0.938490 0.522763 0.500000
O O6 0.965412 0.390299 0.704125
O O7 0.917538 0.584789 0.766395
O O8 0.233362 0.896274 0.794432
O O9 0.328771 0.863987 0.802980
O O10 0.285002 0.965776 0.000000
O O11 0.362058 0.429822 0.817507
O O12 0.316055 0.319175 0.000000
O O13 0.562878 0.685406 0.233927
O O14 0.560793 0.472149 0.255863
O O15 0.569172 0.566455 0.000000
O O16 0.047626 0.744186 0.500000
O O17 0.979768 0.787517 0.326904
O O18 0.893495 0.787285 0.749726
O O19 0.888984 0.686984 0.000000
O O20 0.420205 0.625731 0.500000
#
# Coordination Sequence:
#
# PCOD9425922 Si02
#       8
#     8   8   8   8   8   8   8   8
#     4  10  19  33  56  83 111 142 181 237 285 326
#     4   9  18  35  59  83 111 145 186 232 281 339
#     4   9  20  38  58  80 111 151 190 228 281 349
#     4  10  21  37  58  83 111 149 190 229 282 346
#     4  11  23  38  59  86 116 148 191 244 289 334
#     4  10  21  39  61  85 113 153 195 232 285 349
#     4  10  21  38  59  83 114 150 191 239 287 336
#     4  11  24  40  59  81 116 160 194 230 286 352
#
# _framework density 19.446035999999999
#
# number of rings (size 3 to 8) (size 9 to 14) (size 15 to 20)
#    0.000    2.000    1.250    1.875    0.000    6.500 
#    0.000    7.500    0.000    0.000    0.000    0.000 
#    0.000    0.000    0.000    0.000    0.000    0.000 
#
# Total GULP energy -357419.708388 kJ/mol
# GULP energy per Si atom -5584.682944 kJ/mol
# Density = 1.940178 g / cm^3
# Si number density = 19.446036 Si / 1000 Ang^3
#
#
#
# Elastic Constant Matrix: (Units=GPa)
#
#
# Indices 1 2 3 4 5 6 
#
# 1 55.7910 4.7154 31.0509 0.0000 0.0000 0.0000
# 2 4.7154 65.7010 38.7656 0.0000 0.0000 0.0000
# 3 31.0509 38.7656 67.3444 0.0000 0.0000 0.0000
# 4 0.0000 0.0000 0.0000 158.9860 0.0000 0.0000
# 5 0.0000 0.0000 0.0000 0.0000 19.5782 0.0000
# 6 0.0000 0.0000 0.0000 0.0000 0.0000 24.8575
#
#
#
# Elastic Compliance Matrix: (Units=1/GPa)
#
#
# Indices 1 2 3 4 5 6 
#
# 1 0.026679 0.008091 -0.016958 0.000000 0.000000 0.000000
# 2 0.008091 0.025503 -0.018411 0.000000 0.000000 0.000000
# 3 -0.016958 -0.018411 0.033266 0.000000 0.000000 0.000000
# 4 0.000000 0.000000 0.000000 0.006290 0.000000 0.000000
# 5 0.000000 0.000000 0.000000 0.000000 0.051077 0.000000
# 6 0.000000 0.000000 0.000000 0.000000 0.000000 0.040229
#
#
# Mechanical properties :
#
#
# Convention : Reuss Voigt Hill
#
# Bulk Modulus (GPa) = 32.37165 37.54448 34.95806
# Shear Modulus (GPa) = 20.16964 48.30463 34.23714
#
# Velocity S-wave (km/s) = 3.22407 4.98942 4.20053
# Velocity P-wave (km/s) = 5.52653 7.24854 6.44530
#
# Compressibility (1/GPa) = 0.03089123
#
# Stress axis : x y z
#
# Youngs Moduli (GPa) = 37.48327 39.21141 30.06056
#
# Poissons Ratio (x) = -0.31727 0.50978
# Poissons Ratio (y) = -0.30329 0.55344
# Poissons Ratio (z) = 0.63566 0.72192
#
# Static dielectric constant tensor:
#      x y z
#    x 1.711380 0.000000 0.000000 
#    y 0.000000 1.660850 0.000000 
#    z 0.000000 0.000000 1.649980 
# 
# From -- ./inp_files/4565.got.cif
#   From: 2010.05.17/outbox.cif.g08.bks.cpg/sg55_3_cif.got.tgz:4565.got - 2010.06.03 13:27:54.
