data_PCOD9425956
_publ_section_title
;
Structure prediction by ZEFSAII (Michael W. Deem and Ramdas Pophale) SiO2 
 PCOD9425956
Probable space group: P B A M
;
_chemical_formula_sum "Si O2"
_cell_formula_units_Z 48
_cell_length_a 15.117423
_cell_length_b 20.226607
_cell_length_c 8.839499
_cell_angle_alpha 90.000000
_cell_angle_beta 90.000000
_cell_angle_gamma 90.000000
_cell_volume 2702.890504
_symmetry_space_group_name_H-M "P B A M"
_symmetry_group_IT_number 55
_symmetry_cell_setting 'orthorhombic'
loop_
_space_group_symop_operation_xyz
x,y,z
-x,-y,z
1/2+x,1/2-y,-z
1/2-x,1/2+y,-z
-x,-y,-z
x,y,-z
1/2-x,1/2+y,z
1/2+x,1/2-y,z
loop_
_atom_site_type_symbol
_atom_site_label
_atom_site_fract_x
_atom_site_fract_y
_atom_site_fract_z
Si Si1 0.719084 0.481867 0.180205
Si Si2 0.419430 0.047345 0.819068
Si Si3 0.066335 0.938772 0.680055
Si Si4 0.609900 0.810282 0.320050
Si Si5 0.311204 0.662293 0.680819
Si Si6 0.991529 0.804164 0.180019
O O1 0.824043 0.486176 0.209314
O O2 0.661223 0.538104 0.258643
O O3 0.689555 0.410956 0.246926
O O4 0.704228 0.482536 0.000000
O O5 0.419879 0.117026 0.733679
O O6 0.500000 0.000000 0.775736
O O7 0.424851 0.059925 0.000000
O O8 0.068447 0.927988 0.500000
O O9 0.031484 0.873309 0.760707
O O10 0.000000 0.000000 0.710601
O O11 0.598552 0.803682 0.500000
O O12 0.715139 0.806529 0.286498
O O13 0.554087 0.754680 0.236137
O O14 0.320901 0.655935 0.500000
O O15 0.393697 0.701288 0.748815
O O16 0.985545 0.804839 0.000000
#
# Coordination Sequence:
#
# PCOD9425956 Si02
#       6
#     8   8   8   8   8   8
#     4  10  19  33  57  86 114 147 189 236 284 339
#     4   9  19  38  62  87 117 152 191 236 286 340
#     4  11  22  36  57  84 117 153 189 235 288 343
#     4  10  22  40  61  85 116 152 193 238 286 346
#     4  10  20  37  60  83 111 150 190 231 286 345
#     4  12  24  38  60  86 116 152 192 240 290 345
#
# _framework density 17.758766000000001
#
# number of rings (size 3 to 8) (size 9 to 14) (size 15 to 20)
#    0.000    1.667    1.667    3.500    0.000    3.667 
#    3.000    0.000    0.000    0.000    0.000    0.000 
#    0.000    0.000    0.000    0.000    0.000    0.000 
#
# Total GULP energy -268168.311164 kJ/mol
# GULP energy per Si atom -5586.839816 kJ/mol
# Density = 1.771835 g / cm^3
# Si number density = 17.758766 Si / 1000 Ang^3
#
#
#
# Elastic Constant Matrix: (Units=GPa)
#
#
# Indices 1 2 3 4 5 6 
#
# 1 133.1660 69.8807 66.2399 0.0000 0.0000 0.0000
# 2 69.8807 72.3421 48.4973 0.0000 0.0000 0.0000
# 3 66.2399 48.4973 79.1996 0.0000 0.0000 0.0000
# 4 0.0000 0.0000 0.0000 36.3220 0.0000 0.0000
# 5 0.0000 0.0000 0.0000 0.0000 29.5252 0.0000
# 6 0.0000 0.0000 0.0000 0.0000 0.0000 30.9428
#
#
#
# Elastic Compliance Matrix: (Units=1/GPa)
#
#
# Indices 1 2 3 4 5 6 
#
# 1 0.017359 -0.011934 -0.007210 0.000000 0.000000 0.000000
# 2 -0.011934 0.031654 -0.009402 0.000000 0.000000 0.000000
# 3 -0.007210 -0.009402 0.024414 0.000000 0.000000 0.000000
# 4 0.000000 0.000000 0.000000 0.027532 0.000000 0.000000
# 5 0.000000 0.000000 0.000000 0.000000 0.033869 0.000000
# 6 0.000000 0.000000 0.000000 0.000000 0.000000 0.032318
#
#
# Mechanical properties :
#
#
# Convention : Reuss Voigt Hill
#
# Bulk Modulus (GPa) = 61.22194 72.66039 66.94117
# Shear Modulus (GPa) = 21.76906 26.03064 23.89985
#
# Velocity S-wave (km/s) = 3.50497 3.83272 3.67250
# Velocity P-wave (km/s) = 7.13644 7.78398 7.46723
#
# Compressibility (1/GPa) = 0.01633401
#
# Stress axis : x y z
#
# Youngs Moduli (GPa) = 57.60767 31.59111 40.96015
#
# Poissons Ratio (x) = 0.37702 0.29534
# Poissons Ratio (y) = 0.68752 0.38510
# Poissons Ratio (z) = 0.41537 0.29701
#
# Static dielectric constant tensor:
#      x y z
#    x 1.616620 0.000000 0.000000 
#    y 0.000000 1.562780 0.000000 
#    z 0.000000 0.000000 1.590990 
# 
# From -- ./inp_files/5679.got.cif
#   From: 2010.05.17/outbox.cif.g08.bks.cpg/sg55_3_cif.got.tgz:5679.got - 2010.06.03 13:27:54.
