data_PCOD9425153
_publ_section_title
;
Structure prediction by ZEFSAII (Michael W. Deem and Ramdas Pophale) SiO2 
 PCOD9425153
Probable space group: P B A M
;
_chemical_formula_sum "Si O2"
_cell_formula_units_Z 48
_cell_length_a 23.117275
_cell_length_b 7.902117
_cell_length_c 13.226624
_cell_angle_alpha 90.000000
_cell_angle_beta 90.000000
_cell_angle_gamma 90.000000
_cell_volume 2416.178986
_symmetry_space_group_name_H-M "P B A M"
_symmetry_group_IT_number 55
_symmetry_cell_setting 'orthorhombic'
loop_
_space_group_symop_operation_xyz
x,y,z
-x,-y,z
1/2+x,1/2-y,-z
1/2-x,1/2+y,-z
-x,-y,-z
x,y,-z
1/2-x,1/2+y,z
1/2+x,1/2-y,z
loop_
_atom_site_type_symbol
_atom_site_label
_atom_site_fract_x
_atom_site_fract_y
_atom_site_fract_z
Si Si1 0.420722 0.636844 0.883269
Si Si2 0.788752 0.562726 0.500000
Si Si3 0.970658 0.328970 0.122254
Si Si4 0.356000 0.001399 0.115076
Si Si5 0.660924 0.443001 0.500000
Si Si6 0.159030 0.989096 0.714884
Si Si7 0.783369 0.378791 0.709034
O O1 0.486458 0.678520 0.849441
O O2 0.384345 0.525059 0.806058
O O3 0.388608 0.820683 0.884625
O O4 0.525561 0.833742 0.000000
O O5 0.718514 0.562382 0.500000
O O6 0.815776 0.749383 0.500000
O O7 0.802946 0.463445 0.603233
O O8 0.000000 0.500000 0.162770
O O9 0.903560 0.355533 0.143979
O O10 0.079225 0.072983 0.000000
O O11 0.306186 0.013260 0.196526
O O12 0.336238 0.031591 0.000000
O O13 0.629796 0.482318 0.394736
O O14 0.213782 0.118333 0.714258
O O15 0.189570 0.806765 0.717767
#
# Coordination Sequence:
#
# PCOD9425153 Si02
#       7
#     8   4   8   8   4   8   8
#     4   9  17  31  51  74  99 128 162 198 237 283
#     4  10  18  32  52  71  92 121 160 200 238 282
#     4   7  12  26  49  72  93 122 161 199 233 277
#     4   9  17  31  51  74  99 128 162 198 237 283
#     4  10  18  32  52  71  92 121 160 200 238 282
#     4  11  21  33  49  71  99 129 161 197 240 286
#     4  11  21  33  49  71  99 129 161 197 240 286
#
# _framework density 19.866077000000001
#
# number of rings (size 3 to 8) (size 9 to 14) (size 15 to 20)
#    0.000    2.500    0.000    8.500    0.000    1.333 
#    0.000    0.833    0.000    4.000    0.000    7.000 
#    0.000    0.000    0.000    0.000    0.000    0.000 
#
# Total GULP energy -267715.738909 kJ/mol
# GULP energy per Si atom -5577.411227 kJ/mol
# Density = 1.982086 g / cm^3
# Si number density = 19.866077 Si / 1000 Ang^3
#
#
#
# Elastic Constant Matrix: (Units=GPa)
#
#
# Indices 1 2 3 4 5 6 
#
# 1 14.9385 -5.0988 19.6420 0.0000 0.0000 0.0000
# 2 -5.0988 87.2331 15.9903 0.0000 0.0000 0.0000
# 3 19.6420 15.9903 103.2687 0.0000 0.0000 0.0000
# 4 0.0000 0.0000 0.0000 15.4844 0.0000 0.0000
# 5 0.0000 0.0000 0.0000 0.0000 0.7283 0.0000
# 6 0.0000 0.0000 0.0000 0.0000 0.0000 11.3916
#
#
#
# Elastic Compliance Matrix: (Units=1/GPa)
#
#
# Indices 1 2 3 4 5 6 
#
# 1 0.095963 0.009216 -0.019680 0.000000 0.000000 0.000000
# 2 0.009216 0.012684 -0.003717 0.000000 0.000000 0.000000
# 3 -0.019680 -0.003717 0.014002 0.000000 0.000000 0.000000
# 4 0.000000 0.000000 0.000000 0.064581 0.000000 0.000000
# 5 0.000000 0.000000 0.000000 0.000000 1.372976 0.000000
# 6 0.000000 0.000000 0.000000 0.000000 0.000000 0.087784
#
#
# Mechanical properties :
#
#
# Convention : Reuss Voigt Hill
#
# Bulk Modulus (GPa) = 10.60576 29.61193 20.10884
# Shear Modulus (GPa) = 2.92778 17.18132 10.05455
#
# Velocity S-wave (km/s) = 1.21530 2.94404 2.25214
# Velocity P-wave (km/s) = 2.70546 5.14729 4.11182
#
# Compressibility (1/GPa) = 0.09428839
#
# Stress axis : x y z
#
# Youngs Moduli (GPa) = 10.42071 78.84211 71.41772
#
# Poissons Ratio (x) = -0.72664 1.40547
# Poissons Ratio (y) = -0.09604 0.26546
# Poissons Ratio (z) = 0.20507 0.29305
#
# Static dielectric constant tensor:
#      x y z
#    x 1.708080 0.000000 0.000000 
#    y 0.000000 1.781390 0.000000 
#    z 0.000000 0.000000 1.698100 
# 
# From -- ./inp_files/15632.got.cif
#   From: 2010.05.17/outbox.cif.g08.bks.cpg/sg55_8_cif.got.tgz:15632.got - 2010.06.03 13:27:54.
