data_PCOD9425984
_publ_section_title
;
Structure prediction by ZEFSAII (Michael W. Deem and Ramdas Pophale) SiO2 
 PCOD9425984
Probable space group: P B A M
;
_chemical_formula_sum "Si O2"
_cell_formula_units_Z 24
_cell_length_a 16.920577
_cell_length_b 4.973685
_cell_length_c 13.073763
_cell_angle_alpha 90.000000
_cell_angle_beta 90.000000
_cell_angle_gamma 90.000000
_cell_volume 1100.256779
_symmetry_space_group_name_H-M "P B A M"
_symmetry_group_IT_number 55
_symmetry_cell_setting 'orthorhombic'
loop_
_space_group_symop_operation_xyz
x,y,z
-x,-y,z
1/2+x,1/2-y,-z
1/2-x,1/2+y,-z
-x,-y,-z
x,y,-z
1/2-x,1/2+y,z
1/2+x,1/2-y,z
loop_
_atom_site_type_symbol
_atom_site_label
_atom_site_fract_x
_atom_site_fract_y
_atom_site_fract_z
Si Si1 0.691851 0.881339 0.222312
Si Si2 0.195868 0.228791 0.500000
Si Si3 0.196477 0.723065 0.000000
Si Si4 0.417491 0.381132 0.384056
O O1 0.761859 0.660038 0.231000
O O2 0.626142 0.814293 0.306360
O O3 0.656827 0.845877 0.107838
O O4 0.228582 0.527604 0.500000
O O5 0.142361 0.128238 0.593477
O O6 0.274618 0.530931 0.000000
O O7 0.500000 0.500000 0.346511
O O8 0.431870 0.266858 0.500000
#
# Coordination Sequence:
#
# PCOD9425984 Si02
#       4
#     8   4   4   8
#     4  10  19  34  56  78 102 135 175 213 253 305
#     4  10  19  34  53  72  94 130 172 204 243 296
#     4   8  16  30  51  78 101 126 168 218 254 290
#     4   9  20  36  51  77 110 137 169 213 260 303
#
# _framework density 21.813089000000002
#
# number of rings (size 3 to 8) (size 9 to 14) (size 15 to 20)
#    1.000    1.667    0.000    2.000    0.000    0.000 
#    0.000    9.167    0.000    0.000    0.000   14.000 
#    0.000    0.000    0.000    0.000    0.000    0.000 
#
# Total GULP energy -133971.195594 kJ/mol
# GULP energy per Si atom -5582.133150 kJ/mol
# Density = 2.176344 g / cm^3
# Si number density = 21.813089 Si / 1000 Ang^3
#
#
#
# Elastic Constant Matrix: (Units=GPa)
#
#
# Indices 1 2 3 4 5 6 
#
# 1 61.8172 4.1820 9.3628 0.0000 0.0000 0.0000
# 2 4.1820 83.3853 11.1466 0.0000 0.0000 0.0000
# 3 9.3628 11.1466 122.4718 0.0000 0.0000 0.0000
# 4 0.0000 0.0000 0.0000 17.0200 0.0000 0.0000
# 5 0.0000 0.0000 0.0000 0.0000 13.3143 0.0000
# 6 0.0000 0.0000 0.0000 0.0000 0.0000 6.5892
#
#
#
# Elastic Compliance Matrix: (Units=1/GPa)
#
#
# Indices 1 2 3 4 5 6 
#
# 1 0.016402 -0.000663 -0.001194 0.000000 0.000000 0.000000
# 2 -0.000663 0.012167 -0.001057 0.000000 0.000000 0.000000
# 3 -0.001194 -0.001057 0.008353 0.000000 0.000000 0.000000
# 4 0.000000 0.000000 0.000000 0.058754 0.000000 0.000000
# 5 0.000000 0.000000 0.000000 0.000000 0.075107 0.000000
# 6 0.000000 0.000000 0.000000 0.000000 0.000000 0.151765
#
#
# Mechanical properties :
#
#
# Convention : Reuss Voigt Hill
#
# Bulk Modulus (GPa) = 32.15920 35.22855 33.69388
# Shear Modulus (GPa) = 14.76060 23.58356 19.17208
#
# Velocity S-wave (km/s) = 2.60414 3.29168 2.96788
# Velocity P-wave (km/s) = 4.88028 5.53463 5.21772
#
# Compressibility (1/GPa) = 0.03109530
#
# Stress axis : x y z
#
# Youngs Moduli (GPa) = 60.96686 82.18931 119.72373
#
# Poissons Ratio (x) = 0.05450 0.14290
# Poissons Ratio (y) = 0.04043 0.12651
# Poissons Ratio (z) = 0.07277 0.08685
#
# Static dielectric constant tensor:
#      x y z
#    x 1.751310 0.000000 0.000000 
#    y 0.000000 1.816020 0.000000 
#    z 0.000000 0.000000 1.917980 
# 
# From -- ./inp_files/16342.got.cif
#   From: 2010.05.17/outbox.cif.g08.bks.cpg/sg55_9_cif.got.tgz:16342.got - 2010.06.03 13:27:54.
