data_PCOD9425568
_publ_section_title
;
Structure prediction by ZEFSAII (Michael W. Deem and Ramdas Pophale) SiO2 
 PCOD9425568
Probable space group: P B A M
;
_chemical_formula_sum "Si O2"
_cell_formula_units_Z 64
_cell_length_a 20.695009
_cell_length_b 11.830222
_cell_length_c 14.313748
_cell_angle_alpha 90.000000
_cell_angle_beta 90.000000
_cell_angle_gamma 90.000000
_cell_volume 3504.385551
_symmetry_space_group_name_H-M "P B A M"
_symmetry_group_IT_number 55
_symmetry_cell_setting 'orthorhombic'
loop_
_space_group_symop_operation_xyz
x,y,z
-x,-y,z
1/2+x,1/2-y,-z
1/2-x,1/2+y,-z
-x,-y,-z
x,y,-z
1/2-x,1/2+y,z
1/2+x,1/2-y,z
loop_
_atom_site_type_symbol
_atom_site_label
_atom_site_fract_x
_atom_site_fract_y
_atom_site_fract_z
Si Si1 0.299418 0.324876 0.776151
Si Si2 0.945147 0.079271 0.607901
Si Si3 0.333483 0.966289 0.604831
Si Si4 0.418086 0.382734 0.110565
Si Si5 0.870451 0.285479 0.388997
Si Si6 0.309069 0.530880 0.658520
Si Si7 0.933919 0.851741 0.887716
Si Si8 0.836358 0.735230 0.751363
O O1 0.361334 0.313270 0.840875
O O2 0.314119 0.261713 0.677877
O O3 0.297058 0.457517 0.751979
O O4 0.230106 0.284014 0.808818
O O5 0.963724 0.092525 0.500000
O O6 0.931346 0.207186 0.640649
O O7 0.874924 0.019961 0.614946
O O8 0.000000 0.000000 0.653189
O O9 0.347526 0.923440 0.500000
O O10 0.258117 0.007551 0.605644
O O11 0.345011 0.873612 0.684687
O O12 0.374236 0.080574 0.622632
O O13 0.416529 0.516882 0.134291
O O14 0.489931 0.340374 0.132537
O O15 0.409930 0.376366 0.000000
O O16 0.857956 0.264995 0.500000
O O17 0.323595 0.658980 0.683074
O O18 0.892496 0.769881 0.822376
O O19 0.924274 0.835776 0.000000
#
# Coordination Sequence:
#
# PCOD9425568 Si02
#       8
#     8   8   8   8   8   8   8   8
#     4  10  19  32  55  81 113 146 187 237 285 328
#     4   9  18  31  50  76 103 137 186 241 287 322
#     4  10  21  35  52  77 112 159 201 230 277 338
#     4   9  18  35  61  87 110 143 184 227 292 361
#     4   9  18  34  52  74 110 153 190 228 279 332
#     4  10  19  32  48  77 110 145 183 235 279 334
#     4   9  19  37  60  86 116 145 179 235 297 351
#     4  11  21  32  55  87 119 146 193 240 288 335
#
# _framework density 18.262832
#
# number of rings (size 3 to 8) (size 9 to 14) (size 15 to 20)
#    0.000    2.375    2.500    1.125    0.000    6.500 
#    0.000    0.000    0.000    4.500    0.000   10.500 
#    0.000    0.000    0.000    0.000    0.000    0.000 
#
# Total GULP energy -356382.973528 kJ/mol
# GULP energy per Si atom -5568.483961 kJ/mol
# Density = 1.822126 g / cm^3
# Si number density = 18.262832 Si / 1000 Ang^3
#
#
#
# Elastic Constant Matrix: (Units=GPa)
#
#
# Indices 1 2 3 4 5 6 
#
# 1 90.8034 50.5788 60.0709 0.0000 0.0000 0.0000
# 2 50.5788 103.3989 45.7523 0.0000 0.0000 0.0000
# 3 60.0709 45.7523 68.4541 0.0000 0.0000 0.0000
# 4 0.0000 0.0000 0.0000 19.5780 0.0000 0.0000
# 5 0.0000 0.0000 0.0000 0.0000 21.4296 0.0000
# 6 0.0000 0.0000 0.0000 0.0000 0.0000 31.6781
#
#
#
# Elastic Compliance Matrix: (Units=1/GPa)
#
#
# Indices 1 2 3 4 5 6 
#
# 1 0.027326 -0.003914 -0.021364 0.000000 0.000000 0.000000
# 2 -0.003914 0.014293 -0.006119 0.000000 0.000000 0.000000
# 3 -0.021364 -0.006119 0.037445 0.000000 0.000000 0.000000
# 4 0.000000 0.000000 0.000000 0.051078 0.000000 0.000000
# 5 0.000000 0.000000 0.000000 0.000000 0.046664 0.000000
# 6 0.000000 0.000000 0.000000 0.000000 0.000000 0.031568
#
#
# Mechanical properties :
#
#
# Convention : Reuss Voigt Hill
#
# Bulk Modulus (GPa) = 61.45439 63.94005 62.69722
# Shear Modulus (GPa) = 18.07731 21.62078 19.84905
#
# Velocity S-wave (km/s) = 3.14959 3.44447 3.30032
# Velocity P-wave (km/s) = 6.85198 7.13486 6.99485
#
# Compressibility (1/GPa) = 0.01627223
#
# Stress axis : x y z
#
# Youngs Moduli (GPa) = 36.59526 69.96385 26.70572
#
# Poissons Ratio (x) = 0.27382 0.57053
# Poissons Ratio (y) = 0.14322 0.16340
# Poissons Ratio (z) = 0.78181 0.42808
#
# Static dielectric constant tensor:
#      x y z
#    x 1.674190 0.000000 0.000000 
#    y 0.000000 1.648280 0.000000 
#    z 0.000000 0.000000 1.659160 
# 
# From -- ./inp_files/19497.got.cif
#   From: 2010.05.17/outbox.cif.g08.bks.cpg/sg55_10_cif.got.tgz:19497.got - 2010.06.03 13:27:54.
