data_PCOD9425577
_publ_section_title
;
Structure prediction by ZEFSAII (Michael W. Deem and Ramdas Pophale) SiO2 
 PCOD9425577
Probable space group: P B A M
;
_chemical_formula_sum "Si O2"
_cell_formula_units_Z 40
_cell_length_a 7.657831
_cell_length_b 26.702557
_cell_length_c 7.903486
_cell_angle_alpha 90.000000
_cell_angle_beta 90.000000
_cell_angle_gamma 90.000000
_cell_volume 1616.133813
_symmetry_space_group_name_H-M "P B A M"
_symmetry_group_IT_number 55
_symmetry_cell_setting 'orthorhombic'
loop_
_space_group_symop_operation_xyz
x,y,z
-x,-y,z
1/2+x,1/2-y,-z
1/2-x,1/2+y,-z
-x,-y,-z
x,y,-z
1/2-x,1/2+y,z
1/2+x,1/2-y,z
loop_
_atom_site_type_symbol
_atom_site_label
_atom_site_fract_x
_atom_site_fract_y
_atom_site_fract_z
Si Si1 0.037346 0.182095 0.692332
Si Si2 0.667327 0.418867 0.699488
Si Si3 0.053500 0.383758 0.799020
Si Si4 0.191948 0.482210 0.296881
Si Si5 0.598350 0.784893 0.804791
O O1 0.971086 0.179321 0.500000
O O2 0.052820 0.126629 0.771771
O O3 0.238252 0.200774 0.690991
O O4 0.944716 0.226970 0.787903
O O5 0.622761 0.420988 0.500000
O O6 0.674066 0.475538 0.767448
O O7 0.869539 0.401233 0.717239
O O8 0.198885 0.423376 0.741120
O O9 0.058173 0.324187 0.762892
O O10 0.040708 0.389588 0.000000
O O11 0.193944 0.486684 0.500000
O O12 0.000000 0.500000 0.234964
O O13 0.647916 0.794940 0.000000
#
# Coordination Sequence:
#
# PCOD9425577 Si02
#       5
#     8   8   8   8   8
#     4  10  19  32  50  70  92 122 161 196 226 271
#     4   8  15  26  39  58  85 114 144 182 225 265
#     4   9  16  24  37  59  86 115 146 180 219 267
#     4   8  13  22  36  55  82 113 141 175 222 267
#     4  10  20  33  47  67  97 127 154 190 236 276
#
# _framework density 24.750426000000001
#
# number of rings (size 3 to 8) (size 9 to 14) (size 15 to 20)
#    0.000    3.000    0.000    3.000    0.000    6.800 
#    0.000    0.000    0.000    0.000    0.000    1.400 
#    0.000   11.200    0.000    0.000    0.000    0.000 
#
# Total GULP energy -222996.496350 kJ/mol
# GULP energy per Si atom -5574.912409 kJ/mol
# Density = 2.469409 g / cm^3
# Si number density = 24.750426 Si / 1000 Ang^3
#
#
#
# Elastic Constant Matrix: (Units=GPa)
#
#
# Indices 1 2 3 4 5 6 
#
# 1 2.7068 161.3484 -1.8080 0.0000 0.0000 0.0000
# 2 161.3484 -44.2137 -4.5752 0.0000 0.0000 0.0000
# 3 -1.8080 -4.5752 45.2956 0.0000 0.0000 0.0000
# 4 0.0000 0.0000 0.0000 31.4089 0.0000 0.0000
# 5 0.0000 0.0000 0.0000 0.0000 -5.2478 0.0000
# 6 0.0000 0.0000 0.0000 0.0000 0.0000 25.6688
#
#
#
# Elastic Compliance Matrix: (Units=1/GPa)
#
#
# Indices 1 2 3 4 5 6 
#
# 1 0.001712 0.006177 0.000692 0.000000 0.000000 0.000000
# 2 0.006177 -0.000101 0.000236 0.000000 0.000000 0.000000
# 3 0.000692 0.000236 0.022129 0.000000 0.000000 0.000000
# 4 0.000000 0.000000 0.000000 0.031838 0.000000 0.000000
# 5 0.000000 0.000000 0.000000 0.000000 -0.190557 0.000000
# 6 0.000000 0.000000 0.000000 0.000000 0.000000 0.038958
#
#
# Mechanical properties :
#
#
# Convention : Reuss Voigt Hill
#
# Bulk Modulus (GPa) = 26.34994 34.85768 30.60381
# Shear Modulus (GPa) = -51.23923 0.28756 -25.47583
#
# Velocity S-wave (km/s) = -4.55492 0.34123 -3.21176
# Velocity P-wave (km/s) = 4.12234 3.77750 1.16709
#
# Compressibility (1/GPa) = 0.03795075
#
# Stress axis : x y z
#
# Youngs Moduli (GPa) = 584.03166 -9903.34267 45.19017
#
# Poissons Ratio (x) = 61.17097 -0.03128
# Poissons Ratio (y) = -3.60745 -0.01068
# Poissons Ratio (z) = -0.40429 2.34062
#
# Static dielectric constant tensor:
#      x y z
#    x 2.014580 0.000000 0.000000 
#    y 0.000000 2.056550 0.000000 
#    z 0.000000 0.000000 1.892800 
# 
# From -- ./inp_files/2342.got.cif
#   From: 2010.05.17/outbox.cif.g08.bks.cpg/sg55_2_cif.got.tgz:2342.got - 2010.06.03 13:27:54.
