data_PCOD9425295
_publ_section_title
;
Structure prediction by ZEFSAII (Michael W. Deem and Ramdas Pophale) SiO2 
 PCOD9425295
Probable space group: P B A M
;
_chemical_formula_sum "Si O2"
_cell_formula_units_Z 58
_cell_length_a 15.772329
_cell_length_b 23.865446
_cell_length_c 8.559973
_cell_angle_alpha 90.000000
_cell_angle_beta 90.000000
_cell_angle_gamma 90.000000
_cell_volume 3222.090818
_symmetry_space_group_name_H-M "P B A M"
_symmetry_group_IT_number 55
_symmetry_cell_setting 'orthorhombic'
loop_
_space_group_symop_operation_xyz
x,y,z
-x,-y,z
1/2+x,1/2-y,-z
1/2-x,1/2+y,-z
-x,-y,-z
x,y,-z
1/2-x,1/2+y,z
1/2+x,1/2-y,z
loop_
_atom_site_type_symbol
_atom_site_label
_atom_site_fract_x
_atom_site_fract_y
_atom_site_fract_z
Si Si1 0.948571 0.419288 0.187139
Si Si2 0.741830 0.613174 0.185331
Si Si3 0.039802 0.209100 0.811060
Si Si4 0.621733 0.031173 0.315438
Si Si5 0.000000 0.000000 0.500000
Si Si6 0.392630 0.203781 0.190304
Si Si7 0.781724 0.739407 0.809309
Si Si8 0.441258 0.390641 0.671651
O O1 0.888256 0.470766 0.234502
O O2 0.913340 0.359361 0.240306
O O3 0.040253 0.433064 0.259458
O O4 0.958053 0.418493 0.000000
O O5 0.794260 0.564425 0.268746
O O6 0.775152 0.674382 0.237126
O O7 0.642471 0.609817 0.223358
O O8 0.755649 0.608485 0.000000
O O9 0.131497 0.231178 0.759237
O O10 0.967602 0.253895 0.764778
O O11 0.012364 0.149526 0.743157
O O12 0.039904 0.205979 0.000000
O O13 0.617148 0.023303 0.500000
O O14 0.974926 0.047428 0.366211
O O15 0.302137 0.227546 0.243086
O O16 0.390864 0.203234 0.000000
O O17 0.781204 0.739517 0.000000
O O18 0.416334 0.367249 0.500000
#
# Coordination Sequence:
#
# PCOD9425295 Si02
#       8
#     8   8   8   8   2   8   8   8
#     4  10  19  35  57  81 116 158 201 240 291 356
#     4  11  20  37  65  90 111 148 206 254 292 355
#     4  10  18  34  61  88 115 151 191 241 300 357
#     4  11  22  36  54  81 120 157 193 243 299 356
#     4   8  24  44  62  72 120 158 190 234 316 336
#     4   9  17  32  54  85 119 145 182 247 302 342
#     4   9  18  32  56  89 117 141 184 245 304 350
#     4  10  21  41  60  80 114 160 190 241 298 351
#
# _framework density 18.000734999999999
#
# number of rings (size 3 to 8) (size 9 to 14) (size 15 to 20)
#    0.414    1.655    1.379    4.138    0.000    2.207 
#    2.483    5.517    0.000    0.000    0.000    0.000 
#    0.000    0.000    0.000    0.000    0.000    0.000 
#
# Total GULP energy -322999.577083 kJ/mol
# GULP energy per Si atom -5568.958226 kJ/mol
# Density = 1.795976 g / cm^3
# Si number density = 18.000735 Si / 1000 Ang^3
#
#
#
# Elastic Constant Matrix: (Units=GPa)
#
#
# Indices 1 2 3 4 5 6 
#
# 1 92.7133 48.1615 -3.7711 0.0000 0.0000 0.0000
# 2 48.1615 101.5274 -3.6319 0.0000 0.0000 0.0000
# 3 -3.7711 -3.6319 17.4008 0.0000 0.0000 0.0000
# 4 0.0000 0.0000 0.0000 5.0335 0.0000 0.0000
# 5 0.0000 0.0000 0.0000 0.0000 0.0409 0.0000
# 6 0.0000 0.0000 0.0000 0.0000 0.0000 27.9076
#
#
#
# Elastic Compliance Matrix: (Units=1/GPa)
#
#
# Indices 1 2 3 4 5 6 
#
# 1 0.014363 -0.006752 0.001703 0.000000 0.000000 0.000000
# 2 -0.006752 0.013098 0.001270 0.000000 0.000000 0.000000
# 3 0.001703 0.001270 0.058103 0.000000 0.000000 0.000000
# 4 0.000000 0.000000 0.000000 0.198669 0.000000 0.000000
# 5 0.000000 0.000000 0.000000 0.000000 24.433183 0.000000
# 6 0.000000 0.000000 0.000000 0.000000 0.000000 0.035833
#
#
# Mechanical properties :
#
#
# Convention : Reuss Voigt Hill
#
# Bulk Modulus (GPa) = 12.81939 32.57316 22.69628
# Shear Modulus (GPa) = 0.20172 17.98861 9.09516
#
# Velocity S-wave (km/s) = 0.33512 3.16464 2.25025
# Velocity P-wave (km/s) = 2.69941 5.61142 4.40311
#
# Compressibility (1/GPa) = 0.07800682
#
# Stress axis : x y z
#
# Youngs Moduli (GPa) = 69.62409 76.34691 17.21084
#
# Poissons Ratio (x) = 0.51552 -0.02932
# Poissons Ratio (y) = 0.47013 -0.02187
# Poissons Ratio (z) = -0.11860 -0.09699
#
# Static dielectric constant tensor:
#      x y z
#    x 1.607120 0.000000 0.000000 
#    y 0.000000 1.600360 0.000000 
#    z 0.000000 0.000000 1.613460 
# 
# From -- ./inp_files/6405.got.cif
#   From: 2010.05.17/outbox.cif.g08.bks.cpg/sg55_4_cif.got.tgz:6405.got - 2010.06.03 13:27:54.
