data_PCOD9425297
_publ_section_title
;
Structure prediction by ZEFSAII (Michael W. Deem and Ramdas Pophale) SiO2 
 PCOD9425297
Probable space group: P B A M
;
_chemical_formula_sum "Si O2"
_cell_formula_units_Z 58
_cell_length_a 19.559340
_cell_length_b 17.749240
_cell_length_c 7.496700
_cell_angle_alpha 90.000000
_cell_angle_beta 90.000000
_cell_angle_gamma 90.000000
_cell_volume 2602.580010
_symmetry_space_group_name_H-M "P B A M"
_symmetry_group_IT_number 55
_symmetry_cell_setting 'orthorhombic'
loop_
_space_group_symop_operation_xyz
x,y,z
-x,-y,z
1/2+x,1/2-y,-z
1/2-x,1/2+y,-z
-x,-y,-z
x,y,-z
1/2-x,1/2+y,z
1/2+x,1/2-y,z
loop_
_atom_site_type_symbol
_atom_site_label
_atom_site_fract_x
_atom_site_fract_y
_atom_site_fract_z
Si Si1 0.163107 0.785795 0.716037
Si Si2 0.854579 0.505527 0.707430
Si Si3 0.928647 0.356227 0.281929
Si Si4 0.203956 0.044852 0.792569
Si Si5 0.414507 0.438150 0.205809
Si Si6 0.584924 0.161932 0.281732
Si Si7 0.193098 0.220726 0.715682
Si Si8 0.000000 0.000000 0.500000
O O1 0.162629 0.790286 0.500000
O O2 0.118522 0.713598 0.770969
O O3 0.129178 0.861731 0.784852
O O4 0.240751 0.769083 0.771914
O O5 0.874464 0.508843 0.500000
O O6 0.896353 0.434685 0.783387
O O7 0.774475 0.486672 0.715042
O O8 0.874926 0.587024 0.779508
O O9 0.927508 0.357858 0.500000
O O10 0.006496 0.344279 0.225985
O O11 0.199833 0.134443 0.772852
O O12 0.136272 0.003969 0.721128
O O13 0.205933 0.024987 0.000000
O O14 0.476974 0.439764 0.341697
O O15 0.433308 0.451443 0.000000
O O16 0.585634 0.163671 0.500000
O O17 0.625232 0.236307 0.223465
O O18 0.193767 0.219139 0.500000
#
# Coordination Sequence:
#
# PCOD9425297 Si02
#       8
#     8   8   8   8   8   8   8   2
#     4  10  19  37  61  92 130 169 219 266 324 388
#     4  10  18  34  62  88 120 161 205 254 313 383
#     4   9  17  31  55  92 130 161 206 258 315 386
#     4  11  24  40  60  90 125 162 212 270 327 384
#     4  11  26  45  68  99 129 170 226 275 329 403
#     4   9  18  31  54  91 123 154 199 258 316 375
#     4  10  20  35  59  92 124 164 220 271 316 389
#     4  12  26  48  72  90 128 172 210 284 340 390
#
# _framework density 22.28558
#
# number of rings (size 3 to 8) (size 9 to 14) (size 15 to 20)
#    0.000    1.931    2.069    1.862    1.931    4.414 
#    2.483    0.690    0.000    3.310    0.000    0.000 
#    0.000    0.000    0.000    0.000    0.000    0.000 
#
# Total GULP energy -323716.447553 kJ/mol
# GULP energy per Si atom -5581.318061 kJ/mol
# Density = 2.223486 g / cm^3
# Si number density = 22.285580 Si / 1000 Ang^3
#
#
#
# Elastic Constant Matrix: (Units=GPa)
#
#
# Indices 1 2 3 4 5 6 
#
# 1 66.0784 2.1485 2.1251 0.0000 0.0000 0.0000
# 2 2.1485 33.7050 0.7851 0.0000 0.0000 0.0000
# 3 2.1251 0.7851 82.8781 0.0000 0.0000 0.0000
# 4 0.0000 0.0000 0.0000 -13.3048 0.0000 0.0000
# 5 0.0000 0.0000 0.0000 0.0000 -17.9387 0.0000
# 6 0.0000 0.0000 0.0000 0.0000 0.0000 -5.4609
#
#
#
# Elastic Compliance Matrix: (Units=1/GPa)
#
#
# Indices 1 2 3 4 5 6 
#
# 1 0.015177 -0.000959 -0.000380 0.000000 0.000000 0.000000
# 2 -0.000959 0.029736 -0.000257 0.000000 0.000000 0.000000
# 3 -0.000380 -0.000257 0.012078 0.000000 0.000000 0.000000
# 4 0.000000 0.000000 0.000000 -0.075161 0.000000 0.000000
# 5 0.000000 0.000000 0.000000 0.000000 -0.055746 0.000000
# 6 0.000000 0.000000 0.000000 0.000000 0.000000 -0.183120
#
#
# Mechanical properties :
#
#
# Convention : Reuss Voigt Hill
#
# Bulk Modulus (GPa) = 18.58742 21.41986 20.00364
# Shear Modulus (GPa) = -21.19448 4.49931 -8.34759
#
# Velocity S-wave (km/s) = -3.08724 1.42243 -1.93749
# Velocity P-wave (km/s) = 2.08552 3.51143 1.99759
#
# Compressibility (1/GPa) = 0.05379983
#
# Stress axis : x y z
#
# Youngs Moduli (GPa) = 65.88945 33.62891 82.79450
#
# Poissons Ratio (x) = 0.03224 0.03147
# Poissons Ratio (y) = 0.06316 0.02129
# Poissons Ratio (z) = 0.02504 0.00865
#
# Static dielectric constant tensor:
#      x y z
#    x 1.839310 0.000000 0.000000 
#    y 0.000000 1.783430 0.000000 
#    z 0.000000 0.000000 1.859780 
# 
# From -- ./inp_files/7692.got.cif
#   From: 2010.05.17/outbox.cif.g08.bks.cpg/sg55_4_cif.got.tgz:7692.got - 2010.06.03 13:27:54.
