data_PCOD9425880
_publ_section_title
;
Structure prediction by ZEFSAII (Michael W. Deem and Ramdas Pophale) SiO2 
 PCOD9425880
Probable space group: P B A M
;
_chemical_formula_sum "Si O2"
_cell_formula_units_Z 48
_cell_length_a 14.556596
_cell_length_b 14.630143
_cell_length_c 12.397699
_cell_angle_alpha 90.000000
_cell_angle_beta 90.000000
_cell_angle_gamma 90.000000
_cell_volume 2640.276973
_symmetry_space_group_name_H-M "P B A M"
_symmetry_group_IT_number 55
_symmetry_cell_setting 'orthorhombic'
loop_
_space_group_symop_operation_xyz
x,y,z
-x,-y,z
1/2+x,1/2-y,-z
1/2-x,1/2+y,-z
-x,-y,-z
x,y,-z
1/2-x,1/2+y,z
1/2+x,1/2-y,z
loop_
_atom_site_type_symbol
_atom_site_label
_atom_site_fract_x
_atom_site_fract_y
_atom_site_fract_z
Si Si1 0.621723 0.339942 0.378691
Si Si2 0.345405 0.250717 0.125911
Si Si3 0.793702 0.026588 0.373048
Si Si4 0.998776 0.391462 0.870603
Si Si5 0.961428 0.093488 0.772587
Si Si6 0.675530 0.171239 0.260062
O O1 0.585820 0.353327 0.500000
O O2 0.699885 0.417010 0.363002
O O3 0.544216 0.358833 0.290417
O O4 0.655834 0.238238 0.359554
O O5 0.404271 0.161234 0.159798
O O6 0.413198 0.336590 0.147064
O O7 0.253763 0.276153 0.191158
O O8 0.323343 0.241957 0.000000
O O9 0.789315 0.048890 0.500000
O O10 0.887501 0.063660 0.318475
O O11 0.714844 0.076292 0.305710
O O12 0.084859 0.346748 0.809635
O O13 0.000000 0.500000 0.848444
O O14 0.009187 0.379476 0.000000
O O15 0.000000 0.000000 0.823478
#
# Coordination Sequence:
#
# PCOD9425880 Si02
#       6
#     8   8   8   8   8   8
#     4  10  19  33  55  81 109 145 187 228 279 331
#     4  10  21  37  56  82 112 143 186 233 277 332
#     4   9  19  33  52  80 113 145 181 228 278 332
#     4  10  22  40  60  81 112 152 188 230 285 344
#     4   9  17  33  55  80 107 141 178 225 282 333
#     4  11  21  35  60  81 112 148 192 231 278 332
#
# _framework density 18.179911000000001
#
# number of rings (size 3 to 8) (size 9 to 14) (size 15 to 20)
#    0.000    2.167    1.667    1.500    2.333    2.333 
#    0.000    0.000    0.000    2.000    0.000    0.000 
#    0.000    0.000    0.000    0.000    0.000    0.000 
#
# Total GULP energy -267556.329300 kJ/mol
# GULP energy per Si atom -5574.090194 kJ/mol
# Density = 1.813853 g / cm^3
# Si number density = 18.179911 Si / 1000 Ang^3
#
#
#
# Elastic Constant Matrix: (Units=GPa)
#
#
# Indices 1 2 3 4 5 6 
#
# 1 47.2717 13.6627 11.8617 0.0000 0.0000 0.0000
# 2 13.6627 76.7762 11.3859 0.0000 0.0000 0.0000
# 3 11.8617 11.3859 32.3622 0.0000 0.0000 0.0000
# 4 0.0000 0.0000 0.0000 26.5582 0.0000 0.0000
# 5 0.0000 0.0000 0.0000 0.0000 13.8133 0.0000
# 6 0.0000 0.0000 0.0000 0.0000 0.0000 22.8054
#
#
#
# Elastic Compliance Matrix: (Units=1/GPa)
#
#
# Indices 1 2 3 4 5 6 
#
# 1 0.023989 -0.003128 -0.007692 0.000000 0.000000 0.000000
# 2 -0.003128 0.014150 -0.003832 0.000000 0.000000 0.000000
# 3 -0.007692 -0.003832 0.035068 0.000000 0.000000 0.000000
# 4 0.000000 0.000000 0.000000 0.037653 0.000000 0.000000
# 5 0.000000 0.000000 0.000000 0.000000 0.072394 0.000000
# 6 0.000000 0.000000 0.000000 0.000000 0.000000 0.043849
#
#
# Mechanical properties :
#
#
# Convention : Reuss Voigt Hill
#
# Bulk Modulus (GPa) = 22.77782 25.58119 24.17951
# Shear Modulus (GPa) = 18.44743 20.60201 19.52472
#
# Velocity S-wave (km/s) = 3.18891 3.37000 3.28071
# Velocity P-wave (km/s) = 5.11031 5.40779 5.26115
#
# Compressibility (1/GPa) = 0.04390236
#
# Stress axis : x y z
#
# Youngs Moduli (GPa) = 41.68655 70.67239 28.51628
#
# Poissons Ratio (x) = 0.22107 0.21935
# Poissons Ratio (y) = 0.13040 0.10927
# Poissons Ratio (z) = 0.32065 0.27080
#
# Static dielectric constant tensor:
#      x y z
#    x 1.612220 0.000000 0.000000 
#    y 0.000000 1.641510 0.000000 
#    z 0.000000 0.000000 1.586740 
# 
# From -- ./inp_files/14132.got.cif
#   From: 2010.05.17/outbox.cif.g08.bks.cpg/sg55_8_cif.got.tgz:14132.got - 2010.06.03 13:27:54.
