data_PCOD9425503
_publ_section_title
;
Structure prediction by ZEFSAII (Michael W. Deem and Ramdas Pophale) SiO2 
 PCOD9425503
Probable space group: P B A M
;
_chemical_formula_sum "Si O2"
_cell_formula_units_Z 56
_cell_length_a 19.948488
_cell_length_b 19.753659
_cell_length_c 8.570639
_cell_angle_alpha 90.000000
_cell_angle_beta 90.000000
_cell_angle_gamma 90.000000
_cell_volume 3377.308547
_symmetry_space_group_name_H-M "P B A M"
_symmetry_group_IT_number 55
_symmetry_cell_setting 'orthorhombic'
loop_
_space_group_symop_operation_xyz
x,y,z
-x,-y,z
1/2+x,1/2-y,-z
1/2-x,1/2+y,-z
-x,-y,-z
x,y,-z
1/2-x,1/2+y,z
1/2+x,1/2-y,z
loop_
_atom_site_type_symbol
_atom_site_label
_atom_site_fract_x
_atom_site_fract_y
_atom_site_fract_z
Si Si1 0.298417 0.981132 0.686384
Si Si2 0.478592 0.791307 0.809583
Si Si3 0.767570 0.366953 0.686756
Si Si4 0.627582 0.758189 0.188806
Si Si5 0.233704 0.850037 0.187494
Si Si6 0.945279 0.555431 0.188698
Si Si7 0.339325 0.732446 0.812000
O O1 0.302375 0.981806 0.500000
O O2 0.247991 0.922274 0.738901
O O3 0.371691 0.963442 0.752607
O O4 0.276090 0.055761 0.740032
O O5 0.551132 0.765244 0.757961
O O6 0.466172 0.869028 0.760989
O O7 0.415149 0.746313 0.760204
O O8 0.478603 0.791178 0.000000
O O9 0.770429 0.365092 0.500000
O O10 0.827803 0.320882 0.752839
O O11 0.699068 0.331509 0.741954
O O12 0.666514 0.689787 0.236230
O O13 0.628597 0.760081 0.000000
O O14 0.294737 0.798780 0.227462
O O15 0.233407 0.857105 0.000000
O O16 0.000000 0.500000 0.239381
O O17 0.943640 0.555370 0.000000
O O18 0.337975 0.726527 0.000000
#
# Coordination Sequence:
#
# PCOD9425503 Si02
#       7
#     8   8   8   8   8   8   8
#     4  11  22  33  47  69 101 137 167 203 245 287
#     4   9  16  30  51  76 101 124 158 203 249 296
#     4  10  21  34  47  69 101 132 168 207 241 289
#     4   9  18  33  54  76  98 127 162 204 251 296
#     4   9  17  31  51  74  97 124 166 207 242 294
#     4  10  19  31  50  74 102 134 163 195 242 303
#     4   9  17  32  53  74  96 125 164 209 250 293
#
# _framework density 16.581251000000002
#
# number of rings (size 3 to 8) (size 9 to 14) (size 15 to 20)
#    0.000    2.429    1.429    2.571    0.000    6.000 
#    0.000    1.429    0.000    0.857    0.000    6.000 
#    0.000    0.000    0.000    0.000    0.000    0.000 
#
# Total GULP energy -312329.517580 kJ/mol
# GULP energy per Si atom -5577.312814 kJ/mol
# Density = 1.654351 g / cm^3
# Si number density = 16.581251 Si / 1000 Ang^3
#
#
#
# Elastic Constant Matrix: (Units=GPa)
#
#
# Indices 1 2 3 4 5 6 
#
# 1 162.4645 91.8426 21.4002 0.0000 0.0000 0.0000
# 2 91.8426 101.0167 13.0304 0.0000 0.0000 0.0000
# 3 21.4002 13.0304 4.6409 0.0000 0.0000 0.0000
# 4 0.0000 0.0000 0.0000 19.6305 0.0000 0.0000
# 5 0.0000 0.0000 0.0000 0.0000 6.1906 0.0000
# 6 0.0000 0.0000 0.0000 0.0000 0.0000 23.6187
#
#
#
# Elastic Compliance Matrix: (Units=1/GPa)
#
#
# Indices 1 2 3 4 5 6 
#
# 1 0.020776 -0.010240 -0.067052 0.000000 0.000000 0.000000
# 2 -0.010240 0.020568 -0.010528 0.000000 0.000000 0.000000
# 3 -0.067052 -0.010528 0.554224 0.000000 0.000000 0.000000
# 4 0.000000 0.000000 0.000000 0.050941 0.000000 0.000000
# 5 0.000000 0.000000 0.000000 0.000000 0.161535 0.000000
# 6 0.000000 0.000000 0.000000 0.000000 0.000000 0.042339
#
#
# Mechanical properties :
#
#
# Convention : Reuss Voigt Hill
#
# Bulk Modulus (GPa) = 2.38137 57.85207 30.11672
# Shear Modulus (GPa) = 4.28816 19.34455 11.81636
#
# Velocity S-wave (km/s) = 1.60990 3.41933 2.67242
# Velocity P-wave (km/s) = 2.21246 7.11020 5.26545
#
# Compressibility (1/GPa) = 0.41992712
#
# Stress axis : x y z
#
# Youngs Moduli (GPa) = 48.13167 48.61982 1.80432
#
# Poissons Ratio (x) = 0.49788 0.12098
# Poissons Ratio (y) = 0.49288 0.01900
# Poissons Ratio (z) = 3.22732 0.51189
#
# Static dielectric constant tensor:
#      x y z
#    x 1.554000 0.000000 0.000000 
#    y 0.000000 1.547420 0.000000 
#    z 0.000000 0.000000 1.562330 
# 
# From -- ./inp_files/7852.got.cif
#   From: 2010.05.17/outbox.cif.g08.bks.cpg/sg55_4_cif.got.tgz:7852.got - 2010.06.03 13:27:54.
