data_PCOD9425142
_publ_section_title
;
Structure prediction by ZEFSAII (Michael W. Deem and Ramdas Pophale) SiO2 
 PCOD9425142
Probable space group: P B A M
;
_chemical_formula_sum "Si O2"
_cell_formula_units_Z 48
_cell_length_a 13.801353
_cell_length_b 5.416435
_cell_length_c 27.935187
_cell_angle_alpha 90.000000
_cell_angle_beta 90.000000
_cell_angle_gamma 90.000000
_cell_volume 2088.270641
_symmetry_space_group_name_H-M "P B A M"
_symmetry_group_IT_number 55
_symmetry_cell_setting 'orthorhombic'
loop_
_space_group_symop_operation_xyz
x,y,z
-x,-y,z
1/2+x,1/2-y,-z
1/2-x,1/2+y,-z
-x,-y,-z
x,y,-z
1/2-x,1/2+y,z
1/2+x,1/2-y,z
loop_
_atom_site_type_symbol
_atom_site_label
_atom_site_fract_x
_atom_site_fract_y
_atom_site_fract_z
Si Si1 0.607440 0.772522 0.244347
Si Si2 0.646249 0.878927 0.056100
Si Si3 0.866437 0.880297 0.905365
Si Si4 0.814389 0.327315 0.551666
Si Si5 0.388260 0.729347 0.794180
Si Si6 0.185831 0.614660 0.655553
O O1 0.651022 0.501365 0.236203
O O2 0.498656 0.750967 0.224444
O O3 0.615994 0.848214 0.299456
O O4 0.652502 0.997275 0.214206
O O5 0.594427 0.646526 0.079885
O O6 0.751906 0.899724 0.081148
O O7 0.599161 0.143525 0.064995
O O8 0.659937 0.831713 0.000000
O O9 0.881708 0.835384 0.849605
O O10 0.866827 0.342662 0.500000
O O11 0.739759 0.560968 0.551919
O O12 0.864101 0.355242 0.603360
O O13 0.237258 0.344898 0.658287
#
# Coordination Sequence:
#
# PCOD9425142 Si02
#       6
#     8   8   8   8   8   8
#     4  10  21  38  52  73 100 146 183 216 253 313
#     4  10  19  33  53  82 112 131 159 203 265 317
#     4  10  18  32  50  78 103 136 169 205 246 304
#     4   8  14  25  44  69 102 136 167 206 265 326
#     4  10  21  37  55  71 102 146 187 208 248 301
#     4  10  19  33  50  79 109 137 173 226 275 307
#
# _framework density 22.985527000000001
#
# number of rings (size 3 to 8) (size 9 to 14) (size 15 to 20)
#    0.000    2.333    0.000    4.500    0.000    0.000 
#   18.000    0.000    0.000    0.000    0.000   84.000 
#    0.000    0.000    0.000    0.000    0.000    0.000 
#
# Total GULP energy -267844.198989 kJ/mol
# GULP energy per Si atom -5580.087479 kJ/mol
# Density = 2.293321 g / cm^3
# Si number density = 22.985527 Si / 1000 Ang^3
#
#
#
# Elastic Constant Matrix: (Units=GPa)
#
#
# Indices 1 2 3 4 5 6 
#
# 1 72.5377 4.7084 15.1564 0.0000 0.0000 0.0000
# 2 4.7084 186.5315 -5.7821 0.0000 0.0000 0.0000
# 3 15.1564 -5.7821 196.5259 0.0000 0.0000 0.0000
# 4 0.0000 0.0000 0.0000 41.2580 0.0000 0.0000
# 5 0.0000 0.0000 0.0000 0.0000 -27.5282 0.0000
# 6 0.0000 0.0000 0.0000 0.0000 0.0000 4.4973
#
#
#
# Elastic Compliance Matrix: (Units=1/GPa)
#
#
# Indices 1 2 3 4 5 6 
#
# 1 0.014040 -0.000388 -0.001094 0.000000 0.000000 0.000000
# 2 -0.000388 0.005377 0.000188 0.000000 0.000000 0.000000
# 3 -0.001094 0.000188 0.005178 0.000000 0.000000 0.000000
# 4 0.000000 0.000000 0.000000 0.024238 0.000000 0.000000
# 5 0.000000 0.000000 0.000000 0.000000 -0.036326 0.000000
# 6 0.000000 0.000000 0.000000 0.000000 0.000000 0.222358
#
#
# Mechanical properties :
#
#
# Convention : Reuss Voigt Hill
#
# Bulk Modulus (GPa) = 45.44215 53.75117 49.59666
# Shear Modulus (GPa) = 20.42585 33.07959 26.75272
#
# Velocity S-wave (km/s) = 2.98424 3.79773 3.41529
# Velocity P-wave (km/s) = 5.62913 6.53191 6.09725
#
# Compressibility (1/GPa) = 0.02200600
#
# Stress axis : x y z
#
# Youngs Moduli (GPa) = 71.22629 185.98910 193.11327
#
# Poissons Ratio (x) = 0.07222 0.21130
# Poissons Ratio (y) = 0.02766 -0.03633
# Poissons Ratio (z) = 0.07794 -0.03499
#
# Static dielectric constant tensor:
#      x y z
#    x 1.794380 0.000000 0.000000 
#    y 0.000000 1.975770 0.000000 
#    z 0.000000 0.000000 1.834350 
# 
# From -- ./inp_files/23112.got.cif
#   From: 2010.05.17/outbox.cif.g08.bks.cpg/sg55_12_cif.got.tgz:23112.got - 2010.06.03 13:27:54.
