data_PCOD9425717
_publ_section_title
;
Structure prediction by ZEFSAII (Michael W. Deem and Ramdas Pophale) SiO2 
 PCOD9425717
Probable space group: P B A M
;
_chemical_formula_sum "Si O2"
_cell_formula_units_Z 56
_cell_length_a 25.286175
_cell_length_b 14.250771
_cell_length_c 8.911262
_cell_angle_alpha 90.000000
_cell_angle_beta 90.000000
_cell_angle_gamma 90.000000
_cell_volume 3211.150889
_symmetry_space_group_name_H-M "P B A M"
_symmetry_group_IT_number 55
_symmetry_cell_setting 'orthorhombic'
loop_
_space_group_symop_operation_xyz
x,y,z
-x,-y,z
1/2+x,1/2-y,-z
1/2-x,1/2+y,-z
-x,-y,-z
x,y,-z
1/2-x,1/2+y,z
1/2+x,1/2-y,z
loop_
_atom_site_type_symbol
_atom_site_label
_atom_site_fract_x
_atom_site_fract_y
_atom_site_fract_z
Si Si1 0.749349 0.157176 0.322524
Si Si2 0.935991 0.489858 0.671493
Si Si3 0.856977 0.154328 0.820229
Si Si4 0.935593 0.699031 0.319447
Si Si5 0.336357 0.714439 0.178448
Si Si6 0.687787 0.480897 0.322452
Si Si7 0.448922 0.200995 0.178264
O O1 0.745869 0.176004 0.500000
O O2 0.803875 0.198111 0.253032
O O3 0.700315 0.201493 0.238596
O O4 0.759574 0.045332 0.302529
O O5 0.918325 0.474011 0.500000
O O6 0.917851 0.592526 0.723505
O O7 0.924949 0.399153 0.770626
O O8 0.000000 0.500000 0.668207
O O9 0.907894 0.216414 0.785278
O O10 0.856545 0.050196 0.748620
O O11 0.851041 0.148399 0.000000
O O12 0.935028 0.703468 0.500000
O O13 0.894353 0.770371 0.247934
O O14 0.995041 0.713383 0.260739
O O15 0.312337 0.617512 0.240309
O O16 0.338471 0.713948 0.000000
O O17 0.679402 0.468855 0.500000
O O18 0.457816 0.199570 0.000000
#
# Coordination Sequence:
#
# PCOD9425717 Si02
#       7
#     8   8   8   8   8   8   8
#     4   9  20  38  60  82 107 142 184 224 268 328
#     4   8  16  31  50  73 104 144 182 221 266 313
#     4   9  18  35  56  82 112 142 181 227 274 323
#     4  10  21  36  54  78 112 150 190 229 271 329
#     4  12  23  37  60  84 113 145 179 228 282 331
#     4   9  20  38  60  81 108 143 179 225 276 326
#     4  10  19  32  54  82 114 147 182 229 278 325
#
# _framework density 17.439229999999998
#
# number of rings (size 3 to 8) (size 9 to 14) (size 15 to 20)
#    0.857    1.571    0.000    3.857    0.000    5.429 
#    2.571    0.714    0.000    4.286    0.000    0.000 
#    0.000    0.000    0.000    0.000    0.000    0.000 
#
# Total GULP energy -311822.075088 kJ/mol
# GULP energy per Si atom -5568.251341 kJ/mol
# Density = 1.739954 g / cm^3
# Si number density = 17.439230 Si / 1000 Ang^3
#
#
#
# Elastic Constant Matrix: (Units=GPa)
#
#
# Indices 1 2 3 4 5 6 
#
# 1 40.3652 3.7102 15.3979 0.0000 0.0000 0.0000
# 2 3.7102 41.8616 16.2930 0.0000 0.0000 0.0000
# 3 15.3979 16.2930 68.5970 0.0000 0.0000 0.0000
# 4 0.0000 0.0000 0.0000 25.0604 0.0000 0.0000
# 5 0.0000 0.0000 0.0000 0.0000 4.2993 0.0000
# 6 0.0000 0.0000 0.0000 0.0000 0.0000 24.9383
#
#
#
# Elastic Compliance Matrix: (Units=1/GPa)
#
#
# Indices 1 2 3 4 5 6 
#
# 1 0.027094 -0.000038 -0.006073 0.000000 0.000000 0.000000
# 2 -0.000038 0.026322 -0.006243 0.000000 0.000000 0.000000
# 3 -0.006073 -0.006243 0.017424 0.000000 0.000000 0.000000
# 4 0.000000 0.000000 0.000000 0.039904 0.000000 0.000000
# 5 0.000000 0.000000 0.000000 0.000000 0.232594 0.000000
# 6 0.000000 0.000000 0.000000 0.000000 0.000000 0.040099
#
#
# Mechanical properties :
#
#
# Convention : Reuss Voigt Hill
#
# Bulk Modulus (GPa) = 21.67709 24.62511 23.15110
# Shear Modulus (GPa) = 11.80580 18.55444 15.18012
#
# Velocity S-wave (km/s) = 2.60468 3.26536 2.95355
# Velocity P-wave (km/s) = 4.63712 5.32616 4.99354
#
# Compressibility (1/GPa) = 0.04613165
#
# Stress axis : x y z
#
# Youngs Moduli (GPa) = 36.90872 37.99162 57.39224
#
# Poissons Ratio (x) = 0.00143 0.34853
# Poissons Ratio (y) = 0.00139 0.35832
# Poissons Ratio (z) = 0.22414 0.23720
#
# Static dielectric constant tensor:
#      x y z
#    x 1.591450 0.000000 0.000000 
#    y 0.000000 1.608500 0.000000 
#    z 0.000000 0.000000 1.576390 
# 
# From -- ./inp_files/10872.got.cif
#   From: 2010.05.17/outbox.cif.g08.bks.cpg/sg55_6_cif.got.tgz:10872.got - 2010.06.03 13:27:54.
