data_PCOD9425090
_publ_section_title
;
Structure prediction by ZEFSAII (Michael W. Deem and Ramdas Pophale) SiO2 
 PCOD9425090
Probable space group: P B A M
;
_chemical_formula_sum "Si O2"
_cell_formula_units_Z 64
_cell_length_a 21.124955
_cell_length_b 19.909624
_cell_length_c 8.322170
_cell_angle_alpha 90.000000
_cell_angle_beta 90.000000
_cell_angle_gamma 90.000000
_cell_volume 3500.220740
_symmetry_space_group_name_H-M "P B A M"
_symmetry_group_IT_number 55
_symmetry_cell_setting 'orthorhombic'
loop_
_space_group_symop_operation_xyz
x,y,z
-x,-y,z
1/2+x,1/2-y,-z
1/2-x,1/2+y,-z
-x,-y,-z
x,y,-z
1/2-x,1/2+y,z
1/2+x,1/2-y,z
loop_
_atom_site_type_symbol
_atom_site_label
_atom_site_fract_x
_atom_site_fract_y
_atom_site_fract_z
Si Si1 0.130883 0.173926 0.189038
Si Si2 0.435703 0.039143 0.193249
Si Si3 0.312245 0.962288 0.692636
Si Si4 0.139868 0.320663 0.309272
Si Si5 0.502304 0.826392 0.810172
Si Si6 0.010999 0.818779 0.690530
Si Si7 0.061772 0.958811 0.304025
Si Si8 0.186831 0.038901 0.305004
O O1 0.154574 0.248858 0.230389
O O2 0.176969 0.114293 0.242322
O O3 0.063169 0.165163 0.277660
O O4 0.118799 0.169918 0.000000
O O5 0.448603 0.116245 0.240023
O O6 0.500000 0.000000 0.237229
O O7 0.374820 0.004537 0.267751
O O8 0.429140 0.035322 0.000000
O O9 0.306747 0.957297 0.500000
O O10 0.322171 0.885804 0.752035
O O11 0.250315 0.001636 0.751207
O O12 0.149088 0.313894 0.500000
O O13 0.065361 0.334280 0.276439
O O14 0.525193 0.751292 0.775908
O O15 0.490211 0.834873 0.000000
O O16 0.019123 0.809902 0.500000
O O17 0.052427 0.881839 0.746257
O O18 0.061246 0.958907 0.500000
O O19 0.125661 0.995542 0.253450
O O20 0.000000 0.000000 0.250892
O O21 0.187234 0.041468 0.500000
#
# Coordination Sequence:
#
# PCOD9425090 Si02
#       8
#     8   8   8   8   8   8   8   8
#     4  11  21  33  52  80 108 141 180 219 265 321
#     4  10  20  35  55  77 107 146 179 216 269 324
#     4  10  22  36  56  83 109 140 179 229 273 315
#     4  10  19  33  53  79 107 139 178 222 271 320
#     4  10  19  32  51  78 108 141 178 221 270 317
#     4  10  18  31  53  80 107 140 178 224 274 319
#     4   9  16  30  55  80 102 136 175 213 264 323
#     4  10  20  38  57  78 109 141 179 223 271 323
#
# _framework density 18.284561
#
# number of rings (size 3 to 8) (size 9 to 14) (size 15 to 20)
#    0.000    2.000    2.500    3.750    0.000    2.250 
#    0.000    3.125    0.000    3.000    0.000    0.000 
#    0.000    0.000    0.000    0.000    0.000    0.000 
#
# Total GULP energy -357149.233949 kJ/mol
# GULP energy per Si atom -5580.456780 kJ/mol
# Density = 1.824294 g / cm^3
# Si number density = 18.284561 Si / 1000 Ang^3
#
#
#
# Elastic Constant Matrix: (Units=GPa)
#
#
# Indices 1 2 3 4 5 6 
#
# 1 95.5484 65.0367 -1.3225 0.0000 0.0000 0.0000
# 2 65.0367 153.6175 0.4855 0.0000 0.0000 0.0000
# 3 -1.3225 0.4855 13.6020 0.0000 0.0000 0.0000
# 4 0.0000 0.0000 0.0000 -2.3407 0.0000 0.0000
# 5 0.0000 0.0000 0.0000 0.0000 -20.0772 0.0000
# 6 0.0000 0.0000 0.0000 0.0000 0.0000 28.0645
#
#
#
# Elastic Compliance Matrix: (Units=1/GPa)
#
#
# Indices 1 2 3 4 5 6 
#
# 1 0.014740 -0.006246 0.001656 0.000000 0.000000 0.000000
# 2 -0.006246 0.009157 -0.000934 0.000000 0.000000 0.000000
# 3 0.001656 -0.000934 0.073713 0.000000 0.000000 0.000000
# 4 0.000000 0.000000 0.000000 -0.427226 0.000000 0.000000
# 5 0.000000 0.000000 0.000000 0.000000 -0.049808 0.000000
# 6 0.000000 0.000000 0.000000 0.000000 0.000000 0.035632
#
#
# Mechanical properties :
#
#
# Convention : Reuss Voigt Hill
#
# Bulk Modulus (GPa) = 11.55233 43.46303 27.50768
# Shear Modulus (GPa) = -16.45331 14.36721 -1.04305
#
# Velocity S-wave (km/s) = -3.00300 2.80618 -0.75610
# Velocity P-wave (km/s) = 2.38583 5.85845 3.78347
#
# Compressibility (1/GPa) = 0.08656260
#
# Stress axis : x y z
#
# Youngs Moduli (GPa) = 67.84233 109.20783 13.56610
#
# Poissons Ratio (x) = 0.68208 -0.02247
# Poissons Ratio (y) = 0.42372 0.01267
# Poissons Ratio (z) = -0.11235 0.10201
#
# Static dielectric constant tensor:
#      x y z
#    x 1.597880 0.000000 0.000000 
#    y 0.000000 1.653200 0.000000 
#    z 0.000000 0.000000 1.627780 
# 
# From -- ./inp_files/9167.got.cif
#   From: 2010.05.17/outbox.cif.g08.bks.cpg/sg55_5_cif.got.tgz:9167.got - 2010.06.03 13:27:54.
