data_PCOD9425016
_publ_section_title
;
Structure prediction by ZEFSAII (Michael W. Deem and Ramdas Pophale) SiO2 
 PCOD9425016
Probable space group: P B A M
;
_chemical_formula_sum "Si O2"
_cell_formula_units_Z 64
_cell_length_a 23.769855
_cell_length_b 16.865550
_cell_length_c 7.487005
_cell_angle_alpha 90.000000
_cell_angle_beta 90.000000
_cell_angle_gamma 90.000000
_cell_volume 3001.477998
_symmetry_space_group_name_H-M "P B A M"
_symmetry_group_IT_number 55
_symmetry_cell_setting 'orthorhombic'
loop_
_space_group_symop_operation_xyz
x,y,z
-x,-y,z
1/2+x,1/2-y,-z
1/2-x,1/2+y,-z
-x,-y,-z
x,y,-z
1/2-x,1/2+y,z
1/2+x,1/2-y,z
loop_
_atom_site_type_symbol
_atom_site_label
_atom_site_fract_x
_atom_site_fract_y
_atom_site_fract_z
Si Si1 0.551481 0.445255 0.282837
Si Si2 0.155797 0.616480 0.788714
Si Si3 0.129349 0.345767 0.300494
Si Si4 0.029601 0.235598 0.281701
Si Si5 0.352833 0.438051 0.719002
Si Si6 0.935744 0.501996 0.215438
Si Si7 0.597199 0.728926 0.290876
Si Si8 0.774870 0.542646 0.286108
O O1 0.500000 0.500000 0.223810
O O2 0.551051 0.445219 0.500000
O O3 0.541368 0.355128 0.230937
O O4 0.608853 0.487657 0.226692
O O5 0.097082 0.576380 0.732086
O O6 0.147180 0.706156 0.723216
O O7 0.200577 0.546589 0.744323
O O8 0.158437 0.623644 0.000000
O O9 0.143833 0.315332 0.500000
O O10 0.083774 0.285872 0.216506
O O11 0.092827 0.425261 0.310482
O O12 0.185525 0.385105 0.215723
O O13 0.030729 0.244215 0.500000
O O14 0.965187 0.254577 0.220934
O O15 0.352136 0.436520 0.500000
O O16 0.381389 0.355807 0.780250
O O17 0.288664 0.448129 0.778038
O O18 0.000000 0.500000 0.260269
O O19 0.929541 0.511820 0.000000
O O20 0.587044 0.715474 0.500000
O O21 0.775694 0.552258 0.500000
#
# Coordination Sequence:
#
# PCOD9425016 Si02
#       8
#     8   8   8   8   8   8   8   8
#     4   9  14  25  45  71 103 131 158 200 253 304
#     4  10  20  33  49  71  98 131 170 205 242 295
#     4   9  17  28  43  66  97 127 156 196 242 289
#     4   9  16  26  44  73 104 130 159 201 253 303
#     4   9  17  30  49  73 100 132 166 207 256 300
#     4   9  17  29  45  65  91 124 161 197 235 284
#     4  10  18  30  50  76 104 127 159 207 256 301
#     4   9  18  34  50  69 100 133 169 208 250 296
#
# _framework density 21.322828999999999
#
# number of rings (size 3 to 8) (size 9 to 14) (size 15 to 20)
#    0.000    2.750    1.250    1.125    0.000    0.750 
#    2.250    0.625    0.000    0.000    0.000    3.500 
#    0.000    0.000    0.000    0.000    0.000    0.000 
#
# Total GULP energy -356420.171031 kJ/mol
# GULP energy per Si atom -5569.065172 kJ/mol
# Density = 2.127430 g / cm^3
# Si number density = 21.322829 Si / 1000 Ang^3
#
#
#
# Elastic Constant Matrix: (Units=GPa)
#
#
# Indices 1 2 3 4 5 6 
#
# 1 156.7924 46.0062 3.8816 0.0000 0.0000 0.0000
# 2 46.0062 107.8793 -5.4095 0.0000 0.0000 0.0000
# 3 3.8816 -5.4095 50.1326 0.0000 0.0000 0.0000
# 4 0.0000 0.0000 0.0000 114.3727 0.0000 0.0000
# 5 0.0000 0.0000 0.0000 0.0000-2894.2968 0.0000
# 6 0.0000 0.0000 0.0000 0.0000 0.0000 28.5072
#
#
#
# Elastic Compliance Matrix: (Units=1/GPa)
#
#
# Indices 1 2 3 4 5 6 
#
# 1 0.007331 -0.003172 -0.000910 0.000000 0.000000 0.000000
# 2 -0.003172 0.010693 0.001399 0.000000 0.000000 0.000000
# 3 -0.000910 0.001399 0.020169 0.000000 0.000000 0.000000
# 4 0.000000 0.000000 0.000000 0.008743 0.000000 0.000000
# 5 0.000000 0.000000 0.000000 0.000000 -0.000346 0.000000
# 6 0.000000 0.000000 0.000000 0.000000 0.000000 0.035079
#
#
# Mechanical properties :
#
#
# Convention : Reuss Voigt Hill
#
# Bulk Modulus (GPa) = 30.46271 44.86233 37.66252
# Shear Modulus (GPa) = 51.03268 -532.26166 -240.61449
#
# Velocity S-wave (km/s) = 4.89748 -15.81653 -10.63431
# Velocity P-wave (km/s) = 6.80425 17.67667 11.53618
#
# Compressibility (1/GPa) = 0.03282702
#
# Stress axis : x y z
#
# Youngs Moduli (GPa) = 136.40449 93.52305 49.58218
#
# Poissons Ratio (x) = 0.29666 0.04511
# Poissons Ratio (y) = 0.43268 -0.06938
# Poissons Ratio (z) = 0.12411 -0.13087
#
# Static dielectric constant tensor:
#      x y z
#    x 1.726540 0.000000 0.000000 
#    y 0.000000 1.760100 0.000000 
#    z 0.000000 0.000000 1.815660 
# 
# From -- ./inp_files/9796.got.cif
#   From: 2010.05.17/outbox.cif.g08.bks.cpg/sg55_5_cif.got.tgz:9796.got - 2010.06.03 13:27:54.
