data_PCOD9425916
_publ_section_title
;
Structure prediction by ZEFSAII (Michael W. Deem and Ramdas Pophale) SiO2 
 PCOD9425916
Probable space group: P B A M
;
_chemical_formula_sum "Si O2"
_cell_formula_units_Z 64
_cell_length_a 16.516138
_cell_length_b 23.123293
_cell_length_c 9.301910
_cell_angle_alpha 90.000000
_cell_angle_beta 90.000000
_cell_angle_gamma 90.000000
_cell_volume 3552.469177
_symmetry_space_group_name_H-M "P B A M"
_symmetry_group_IT_number 55
_symmetry_cell_setting 'orthorhombic'
loop_
_space_group_symop_operation_xyz
x,y,z
-x,-y,z
1/2+x,1/2-y,-z
1/2-x,1/2+y,-z
-x,-y,-z
x,y,-z
1/2-x,1/2+y,z
1/2+x,1/2-y,z
loop_
_atom_site_type_symbol
_atom_site_label
_atom_site_fract_x
_atom_site_fract_y
_atom_site_fract_z
Si Si1 0.456958 0.722862 0.159533
Si Si2 0.319225 0.250185 0.335070
Si Si3 0.878861 0.149288 0.163152
Si Si4 0.086124 0.968895 0.673496
Si Si5 0.551717 0.830075 0.174091
Si Si6 0.245826 0.042961 0.326150
Si Si7 0.176144 0.163563 0.337453
Si Si8 0.069514 0.547462 0.326522
O O1 0.543314 0.691151 0.153531
O O2 0.474756 0.788497 0.207566
O O3 0.402219 0.682219 0.254083
O O4 0.421537 0.725396 0.000000
O O5 0.349076 0.256361 0.500000
O O6 0.317802 0.311790 0.256448
O O7 0.374997 0.205068 0.247867
O O8 0.233218 0.219247 0.339252
O O9 0.905072 0.091605 0.244814
O O10 0.851125 0.137632 0.000000
O O11 0.086960 0.961055 0.500000
O O12 0.167330 0.005000 0.714761
O O13 0.000000 0.000000 0.708418
O O14 0.549334 0.893233 0.243498
O O15 0.560166 0.831813 0.000000
O O16 0.247930 0.041386 0.500000
O O17 0.224793 0.108390 0.279001
O O18 0.338466 0.028507 0.282813
O O19 0.153149 0.147868 0.500000
O O20 0.070522 0.558152 0.500000
O O21 0.000000 0.500000 0.298267
#
# Coordination Sequence:
#
# PCOD9425916 Si02
#       8
#     8   8   8   8   8   8   8   8
#     4   9  20  35  52  78 111 145 178 221 276 337
#     4  10  19  34  58  82 107 140 183 230 278 335
#     4  10  21  37  54  77 113 150 183 224 279 337
#     4  10  20  35  58  83 113 154 192 234 287 336
#     4  10  20  36  56  80 112 146 180 227 286 342
#     4   9  18  35  56  83 114 141 189 245 279 330
#     4  10  19  33  56  83 108 137 180 234 283 329
#     4  10  20  37  60  81 107 149 195 244 293 331
#
# _framework density 18.015637999999999
#
# number of rings (size 3 to 8) (size 9 to 14) (size 15 to 20)
#    0.000    2.250    1.250    2.625    0.000    5.500 
#    2.250    1.250    0.000    0.000    0.000    0.000 
#    0.000    0.000    0.000    0.000    0.000    0.000 
#
# Total GULP energy -356386.414523 kJ/mol
# GULP energy per Si atom -5568.537727 kJ/mol
# Density = 1.797463 g / cm^3
# Si number density = 18.015638 Si / 1000 Ang^3
#
#
#
# Elastic Constant Matrix: (Units=GPa)
#
#
# Indices 1 2 3 4 5 6 
#
# 1 80.2836 37.6479 20.1773 0.0000 0.0000 0.0000
# 2 37.6479 118.8402 35.7387 0.0000 0.0000 0.0000
# 3 20.1773 35.7387 46.2019 0.0000 0.0000 0.0000
# 4 0.0000 0.0000 0.0000 23.4190 0.0000 0.0000
# 5 0.0000 0.0000 0.0000 0.0000 71.8180 0.0000
# 6 0.0000 0.0000 0.0000 0.0000 0.0000 24.2269
#
#
#
# Elastic Compliance Matrix: (Units=1/GPa)
#
#
# Indices 1 2 3 4 5 6 
#
# 1 0.015118 -0.003654 -0.003776 0.000000 0.000000 0.000000
# 2 -0.003654 0.011849 -0.007570 0.000000 0.000000 0.000000
# 3 -0.003776 -0.007570 0.029149 0.000000 0.000000 0.000000
# 4 0.000000 0.000000 0.000000 0.042700 0.000000 0.000000
# 5 0.000000 0.000000 0.000000 0.000000 0.013924 0.000000
# 6 0.000000 0.000000 0.000000 0.000000 0.000000 0.041276
#
#
# Mechanical properties :
#
#
# Convention : Reuss Voigt Hill
#
# Bulk Modulus (GPa) = 38.29010 48.05040 43.17025
# Shear Modulus (GPa) = 25.94429 34.01025 29.97727
#
# Velocity S-wave (km/s) = 3.79898 4.34962 4.08359
# Velocity P-wave (km/s) = 6.36733 7.20798 6.80066
#
# Compressibility (1/GPa) = 0.02611641
#
# Stress axis : x y z
#
# Youngs Moduli (GPa) = 66.14515 84.39855 34.30699
#
# Poissons Ratio (x) = 0.30837 0.12955
# Poissons Ratio (y) = 0.24168 0.25969
# Poissons Ratio (z) = 0.24977 0.63886
#
# Static dielectric constant tensor:
#      x y z
#    x 1.633280 0.000000 0.000000 
#    y 0.000000 1.615950 0.000000 
#    z 0.000000 0.000000 1.635400 
# 
# From -- ./inp_files/6602.got.cif
#   From: 2010.05.17/outbox.cif.g08.bks.cpg/sg55_4_cif.got.tgz:6602.got - 2010.06.03 13:27:54.
