data_PCOD9425517
_publ_section_title
;
Structure prediction by ZEFSAII (Michael W. Deem and Ramdas Pophale) SiO2 
 PCOD9425517
Probable space group: P B A M
;
_chemical_formula_sum "Si O2"
_cell_formula_units_Z 64
_cell_length_a 27.289020
_cell_length_b 8.606539
_cell_length_c 14.003321
_cell_angle_alpha 90.000000
_cell_angle_beta 90.000000
_cell_angle_gamma 90.000000
_cell_volume 3288.876192
_symmetry_space_group_name_H-M "P B A M"
_symmetry_group_IT_number 55
_symmetry_cell_setting 'orthorhombic'
loop_
_space_group_symop_operation_xyz
x,y,z
-x,-y,z
1/2+x,1/2-y,-z
1/2-x,1/2+y,-z
-x,-y,-z
x,y,-z
1/2-x,1/2+y,z
1/2+x,1/2-y,z
loop_
_atom_site_type_symbol
_atom_site_label
_atom_site_fract_x
_atom_site_fract_y
_atom_site_fract_z
Si Si1 0.962985 0.810171 0.105240
Si Si2 0.681682 0.164530 0.244209
Si Si3 0.814474 0.092898 0.110136
Si Si4 0.953175 0.115245 0.389856
Si Si5 0.887095 0.525542 0.104672
Si Si6 0.268640 0.114078 0.197162
Si Si7 0.038159 0.643142 0.777202
Si Si8 0.110311 0.070319 0.744368
O O1 0.929143 0.656843 0.098432
O O2 0.937772 0.903976 0.190439
O O3 0.015728 0.752305 0.139602
O O4 0.962136 0.881704 0.000000
O O5 0.728324 0.276190 0.246415
O O6 0.636315 0.265780 0.283275
O O7 0.660918 0.118369 0.138650
O O8 0.701692 0.994390 0.271487
O O9 0.803246 0.270984 0.137537
O O10 0.764144 0.997371 0.129677
O O11 0.852698 0.020395 0.185345
O O12 0.829362 0.074686 0.000000
O O13 0.947031 0.159394 0.500000
O O14 0.960412 0.260747 0.319875
O O15 0.906556 0.023547 0.347484
O O16 0.000000 0.000000 0.383706
O O17 0.909047 0.414121 0.185942
O O18 0.881774 0.454685 0.000000
O O19 0.000000 0.500000 0.766835
#
# Coordination Sequence:
#
# PCOD9425517 Si02
#       8
#     8   8   8   8   8   8   8   8
#     4   9  16  31  52  78 115 155 191 228 273 333
#     4   9  19  34  54  77 113 153 191 231 274 329
#     4  10  19  31  50  80 118 156 194 230 271 336
#     4  11  24  43  62  81 110 146 192 256 320 360
#     4   9  18  30  50  80 117 158 192 229 272 323
#     4   9  19  33  49  78 117 160 192 227 271 330
#     4  10  20  36  58  82 113 151 197 238 282 345
#     4  10  20  36  55  80 110 151 196 245 293 344
#
# _framework density 19.459534999999999
#
# number of rings (size 3 to 8) (size 9 to 14) (size 15 to 20)
#    0.000    2.375    1.250    1.125    1.750    7.250 
#    0.000    2.500    0.000    0.000    0.000   14.000 
#    0.000    0.000    0.000    0.000    0.000    0.000 
#
# Total GULP energy -356646.553384 kJ/mol
# GULP energy per Si atom -5572.602397 kJ/mol
# Density = 1.941524 g / cm^3
# Si number density = 19.459535 Si / 1000 Ang^3
#
#
#
# Elastic Constant Matrix: (Units=GPa)
#
#
# Indices 1 2 3 4 5 6 
#
# 1 69.1463 21.9307 13.7088 0.0000 0.0000 0.0000
# 2 21.9307 74.1491 9.1461 0.0000 0.0000 0.0000
# 3 13.7088 9.1461 68.3969 0.0000 0.0000 0.0000
# 4 0.0000 0.0000 0.0000 21.3836 0.0000 0.0000
# 5 0.0000 0.0000 0.0000 0.0000 -33.0326 0.0000
# 6 0.0000 0.0000 0.0000 0.0000 0.0000 35.9455
#
#
#
# Elastic Compliance Matrix: (Units=1/GPa)
#
#
# Indices 1 2 3 4 5 6 
#
# 1 0.016431 -0.004528 -0.002688 0.000000 0.000000 0.000000
# 2 -0.004528 0.014960 -0.001093 0.000000 0.000000 0.000000
# 3 -0.002688 -0.001093 0.015305 0.000000 0.000000 0.000000
# 4 0.000000 0.000000 0.000000 0.046765 0.000000 0.000000
# 5 0.000000 0.000000 0.000000 0.000000 -0.030273 0.000000
# 6 0.000000 0.000000 0.000000 0.000000 0.000000 0.027820
#
#
# Mechanical properties :
#
#
# Convention : Reuss Voigt Hill
#
# Bulk Modulus (GPa) = 33.24565 33.47372 33.35969
# Shear Modulus (GPa) = 42.49795 15.98643 29.24219
#
# Velocity S-wave (km/s) = 4.67831 2.86933 3.88070
# Velocity P-wave (km/s) = 6.80468 5.31192 6.10410
#
# Compressibility (1/GPa) = 0.03007912
#
# Stress axis : x y z
#
# Youngs Moduli (GPa) = 60.86005 66.84302 65.33643
#
# Poissons Ratio (x) = 0.30268 0.17561
# Poissons Ratio (y) = 0.27559 0.07141
# Poissons Ratio (z) = 0.16358 0.07305
#
# Static dielectric constant tensor:
#      x y z
#    x 1.748870 0.000000 0.000000 
#    y 0.000000 1.767530 0.000000 
#    z 0.000000 0.000000 1.624410 
# 
# From -- ./inp_files/16249.got.cif
#   From: 2010.05.17/outbox.cif.g08.bks.cpg/sg55_9_cif.got.tgz:16249.got - 2010.06.03 13:27:54.
