data_PCOD9425833
_publ_section_title
;
Structure prediction by ZEFSAII (Michael W. Deem and Ramdas Pophale) SiO2 
 PCOD9425833
Probable space group: P B A M
;
_chemical_formula_sum "Si O2"
_cell_formula_units_Z 64
_cell_length_a 16.941518
_cell_length_b 20.961664
_cell_length_c 9.265862
_cell_angle_alpha 90.000000
_cell_angle_beta 90.000000
_cell_angle_gamma 90.000000
_cell_volume 3290.515225
_symmetry_space_group_name_H-M "P B A M"
_symmetry_group_IT_number 55
_symmetry_cell_setting 'orthorhombic'
loop_
_space_group_symop_operation_xyz
x,y,z
-x,-y,z
1/2+x,1/2-y,-z
1/2-x,1/2+y,-z
-x,-y,-z
x,y,-z
1/2-x,1/2+y,z
1/2+x,1/2-y,z
loop_
_atom_site_type_symbol
_atom_site_label
_atom_site_fract_x
_atom_site_fract_y
_atom_site_fract_z
Si Si1 0.213188 0.620844 0.172485
Si Si2 0.955922 0.341990 0.173825
Si Si3 0.319883 0.713669 0.336114
Si Si4 0.461427 0.610270 0.335099
Si Si5 0.770377 0.112387 0.828878
Si Si6 0.588406 0.695409 0.826592
Si Si7 0.381426 0.853788 0.327493
Si Si8 0.151180 0.021513 0.828852
O O1 0.253101 0.684023 0.236284
O O2 0.270683 0.562590 0.212086
O O3 0.121932 0.617994 0.215984
O O4 0.213827 0.625832 0.000000
O O5 0.034361 0.364470 0.253806
O O6 0.936046 0.267752 0.210327
O O7 0.966693 0.345350 0.000000
O O8 0.290037 0.719981 0.500000
O O9 0.390844 0.662517 0.336282
O O10 0.356118 0.780920 0.291168
O O11 0.484308 0.596689 0.500000
O O12 0.530587 0.644979 0.248531
O O13 0.422686 0.549261 0.257896
O O14 0.822448 0.174312 0.788471
O O15 0.690356 0.106261 0.739388
O O16 0.826661 0.051585 0.805017
O O17 0.751842 0.115154 0.000000
O O18 0.581654 0.689096 0.000000
O O19 0.386234 0.860219 0.500000
O O20 0.137117 0.031274 0.000000
#
# Coordination Sequence:
#
# PCOD9425833 Si02
#       8
#     8   8   8   8   8   8   8   8
#     4   9  18  33  56  82 104 136 182 226 267 316
#     4  10  20  34  54  81 109 136 174 223 272 325
#     4   9  18  32  50  76 107 138 170 212 268 324
#     4  10  19  33  54  80 112 145 179 219 267 324
#     4  10  22  39  57  79 108 145 186 229 274 321
#     4  10  20  34  54  81 111 141 178 223 273 328
#     4  11  22  36  54  78 109 142 178 220 273 332
#     4   9  19  37  58  79 108 145 188 230 270 319
#
# _framework density 19.449842
#
# number of rings (size 3 to 8) (size 9 to 14) (size 15 to 20)
#    0.000    2.250    1.250    1.500    0.000    4.500 
#    0.000    3.125    0.000    3.750    0.000    0.000 
#    0.000    0.000    0.000    0.000    0.000    0.000 
#
# Total GULP energy -357223.752540 kJ/mol
# GULP energy per Si atom -5581.621133 kJ/mol
# Density = 1.940557 g / cm^3
# Si number density = 19.449842 Si / 1000 Ang^3
#
#
#
# Elastic Constant Matrix: (Units=GPa)
#
#
# Indices 1 2 3 4 5 6 
#
# 1 78.7536 -3.6499 27.0174 0.0000 0.0000 0.0000
# 2 -3.6499 32.5512 10.0290 0.0000 0.0000 0.0000
# 3 27.0174 10.0290 16.9305 0.0000 0.0000 0.0000
# 4 0.0000 0.0000 0.0000 16.9876 0.0000 0.0000
# 5 0.0000 0.0000 0.0000 0.0000 7.0733 0.0000
# 6 0.0000 0.0000 0.0000 0.0000 0.0000 23.7960
#
#
#
# Elastic Compliance Matrix: (Units=1/GPa)
#
#
# Indices 1 2 3 4 5 6 
#
# 1 0.047341 0.034965 -0.096257 0.000000 0.000000 0.000000
# 2 0.034965 0.063404 -0.093355 0.000000 0.000000 0.000000
# 3 -0.096257 -0.093355 0.267971 0.000000 0.000000 0.000000
# 4 0.000000 0.000000 0.000000 0.058867 0.000000 0.000000
# 5 0.000000 0.000000 0.000000 0.000000 0.141377 0.000000
# 6 0.000000 0.000000 0.000000 0.000000 0.000000 0.042024
#
#
# Mechanical properties :
#
#
# Convention : Reuss Voigt Hill
#
# Bulk Modulus (GPa) = 14.40480 21.66982 18.03731
# Shear Modulus (GPa) = 5.24429 15.89396 10.56913
#
# Velocity S-wave (km/s) = 1.64383 2.86173 2.33363
# Velocity P-wave (km/s) = 3.32041 4.69946 4.06878
#
# Compressibility (1/GPa) = 0.06942129
#
# Stress axis : x y z
#
# Youngs Moduli (GPa) = 21.12349 15.77194 3.73175
#
# Poissons Ratio (x) = -0.55147 0.35921
# Poissons Ratio (y) = -0.73858 0.34838
# Poissons Ratio (z) = 2.03329 1.47238
#
# Static dielectric constant tensor:
#      x y z
#    x 1.678710 0.000000 0.000000 
#    y 0.000000 1.691040 0.000000 
#    z 0.000000 0.000000 1.654930 
# 
# From -- ./inp_files/6501.got.cif
#   From: 2010.05.17/outbox.cif.g08.bks.cpg/sg55_4_cif.got.tgz:6501.got - 2010.06.03 13:27:54.
