data_PCOD9425009
_publ_section_title
;
Structure prediction by ZEFSAII (Michael W. Deem and Ramdas Pophale) SiO2 
 PCOD9425009
Probable space group: P B A M
;
_chemical_formula_sum "Si O2"
_cell_formula_units_Z 56
_cell_length_a 22.615094
_cell_length_b 11.138290
_cell_length_c 10.358427
_cell_angle_alpha 90.000000
_cell_angle_beta 90.000000
_cell_angle_gamma 90.000000
_cell_volume 2609.220176
_symmetry_space_group_name_H-M "P B A M"
_symmetry_group_IT_number 55
_symmetry_cell_setting 'orthorhombic'
loop_
_space_group_symop_operation_xyz
x,y,z
-x,-y,z
1/2+x,1/2-y,-z
1/2-x,1/2+y,-z
-x,-y,-z
x,y,-z
1/2-x,1/2+y,z
1/2+x,1/2-y,z
loop_
_atom_site_type_symbol
_atom_site_label
_atom_site_fract_x
_atom_site_fract_y
_atom_site_fract_z
Si Si1 0.397005 0.063205 0.853172
Si Si2 0.515591 0.825525 0.652425
Si Si3 0.726832 0.370516 0.354855
Si Si4 0.720595 0.047324 0.856898
Si Si5 0.812364 0.219659 0.223616
Si Si6 0.087791 0.922550 0.348169
Si Si7 0.906604 0.809915 0.344705
O O1 0.446189 0.087620 0.744078
O O2 0.349750 0.955753 0.831925
O O3 0.353081 0.179409 0.841569
O O4 0.420442 0.056471 0.000000
O O5 0.517794 0.860986 0.500000
O O6 0.545206 0.692411 0.660971
O O7 0.449212 0.796962 0.700948
O O8 0.721371 0.418327 0.500000
O O9 0.748775 0.467884 0.252778
O O10 0.780163 0.275128 0.348449
O O11 0.663408 0.313717 0.317923
O O12 0.756641 0.170905 0.855299
O O13 0.728288 0.994422 0.000000
O O14 0.855927 0.114176 0.264527
O O15 0.102387 0.931887 0.500000
O O16 0.069399 0.056814 0.307984
O O17 0.912069 0.801201 0.500000
#
# Coordination Sequence:
#
# PCOD9425009 Si02
#       7
#     8   8   8   8   8   8   8
#     4   9  19  33  49  71  98 127 163 207 250 291
#     4   9  17  29  48  70  95 129 167 200 242 298
#     4  10  20  32  50  78 105 132 167 209 255 300
#     4  10  20  34  52  72 100 137 169 204 252 306
#     4  10  18  30  50  72 101 132 165 201 249 300
#     4   9  15  25  44  70  96 126 161 197 241 292
#     4   9  16  28  46  70 101 130 159 202 249 293
#
# _framework density 21.462350000000001
#
# number of rings (size 3 to 8) (size 9 to 14) (size 15 to 20)
#    0.000    2.571    1.429    1.286    0.000    6.286 
#    0.000    0.714    0.000    2.571    0.000    5.000 
#    0.000    0.000    0.000    0.000    0.000    0.000 
#
# Total GULP energy -311967.325262 kJ/mol
# GULP energy per Si atom -5570.845094 kJ/mol
# Density = 2.141350 g / cm^3
# Si number density = 21.462350 Si / 1000 Ang^3
#
#
#
# Elastic Constant Matrix: (Units=GPa)
#
#
# Indices 1 2 3 4 5 6 
#
# 1 87.0212 22.0404 44.3790 0.0000 0.0000 0.0000
# 2 22.0404 46.6980 11.0809 0.0000 0.0000 0.0000
# 3 44.3790 11.0809 93.5818 0.0000 0.0000 0.0000
# 4 0.0000 0.0000 0.0000 5.6961 0.0000 0.0000
# 5 0.0000 0.0000 0.0000 0.0000 -1.9098 0.0000
# 6 0.0000 0.0000 0.0000 0.0000 0.0000 48.3639
#
#
#
# Elastic Compliance Matrix: (Units=1/GPa)
#
#
# Indices 1 2 3 4 5 6 
#
# 1 0.016732 -0.006188 -0.007202 0.000000 0.000000 0.000000
# 2 -0.006188 0.024322 0.000055 0.000000 0.000000 0.000000
# 3 -0.007202 0.000055 0.014095 0.000000 0.000000 0.000000
# 4 0.000000 0.000000 0.000000 0.175560 0.000000 0.000000
# 5 0.000000 0.000000 0.000000 0.000000 -0.523618 0.000000
# 6 0.000000 0.000000 0.000000 0.000000 0.000000 0.020677
#
#
# Mechanical properties :
#
#
# Convention : Reuss Voigt Hill
#
# Bulk Modulus (GPa) = 35.11535 42.47796 38.79666
# Shear Modulus (GPa) = -21.18010 20.41675 -0.38167
#
# Velocity S-wave (km/s) = -3.14482 3.08763 -0.42216
# Velocity P-wave (km/s) = 1.79174 5.70492 4.22827
#
# Compressibility (1/GPa) = 0.02847757
#
# Stress axis : x y z
#
# Youngs Moduli (GPa) = 59.76749 41.11536 70.94877
#
# Poissons Ratio (x) = 0.25442 0.51096
# Poissons Ratio (y) = 0.36984 -0.00387
# Poissons Ratio (z) = 0.43043 -0.00224
#
# Static dielectric constant tensor:
#      x y z
#    x 1.838490 0.000000 0.000000 
#    y 0.000000 1.857740 0.000000 
#    z 0.000000 0.000000 1.743600 
# 
# From -- ./inp_files/15708.got.cif
#   From: 2010.05.17/outbox.cif.g08.bks.cpg/sg55_8_cif.got.tgz:15708.got - 2010.06.03 13:27:54.
