data_PCOD9425899
_publ_section_title
;
Structure prediction by ZEFSAII (Michael W. Deem and Ramdas Pophale) SiO2 
 PCOD9425899
Probable space group: P B A M
;
_chemical_formula_sum "Si O2"
_cell_formula_units_Z 40
_cell_length_a 22.873400
_cell_length_b 9.095013
_cell_length_c 10.468745
_cell_angle_alpha 90.000000
_cell_angle_beta 90.000000
_cell_angle_gamma 90.000000
_cell_volume 2177.853540
_symmetry_space_group_name_H-M "P B A M"
_symmetry_group_IT_number 55
_symmetry_cell_setting 'orthorhombic'
loop_
_space_group_symop_operation_xyz
x,y,z
-x,-y,z
1/2+x,1/2-y,-z
1/2-x,1/2+y,-z
-x,-y,-z
x,y,-z
1/2-x,1/2+y,z
1/2+x,1/2-y,z
loop_
_atom_site_type_symbol
_atom_site_label
_atom_site_fract_x
_atom_site_fract_y
_atom_site_fract_z
Si Si1 0.751824 0.790316 0.275816
Si Si2 0.564141 0.071056 0.847758
Si Si3 0.163415 0.463794 0.359224
Si Si4 0.557039 0.417311 0.845171
Si Si5 0.678448 0.536119 0.851452
O O1 0.801940 0.691284 0.342193
O O2 0.712610 0.908088 0.351821
O O3 0.783279 0.889760 0.169157
O O4 0.708410 0.670773 0.217947
O O5 0.558360 0.244600 0.819323
O O6 0.500000 0.000000 0.827260
O O7 0.616049 0.016326 0.754526
O O8 0.578543 0.051736 0.000000
O O9 0.135806 0.467067 0.500000
O O10 0.500000 0.500000 0.797146
O O11 0.614924 0.497742 0.797738
O O12 0.557629 0.428996 0.000000
O O13 0.674057 0.570664 0.000000
#
# Coordination Sequence:
#
# PCOD9425899 Si02
#       5
#     8   8   8   8   8
#     4  10  22  36  56  85 116 157 197 240 292 352
#     4  10  22  39  61  89 119 152 196 247 296 349
#     4  11  23  41  62  85 119 160 200 243 294 353
#     4   9  18  33  54  81 114 149 187 233 289 346
#     4  10  19  33  55  86 119 151 190 241 297 352
#
# _framework density 18.366707999999999
#
# number of rings (size 3 to 8) (size 9 to 14) (size 15 to 20)
#    0.000    2.000    2.000    1.200    2.800    4.400 
#    0.000    0.000    0.000    0.600    0.000    0.000 
#    0.000    0.000    0.000    0.000    0.000    0.000 
#
# Total GULP energy -222944.773449 kJ/mol
# GULP energy per Si atom -5573.619336 kJ/mol
# Density = 1.832490 g / cm^3
# Si number density = 18.366708 Si / 1000 Ang^3
#
#
#
# Elastic Constant Matrix: (Units=GPa)
#
#
# Indices 1 2 3 4 5 6 
#
# 1 113.1248 28.2451 35.7991 0.0000 0.0000 0.0000
# 2 28.2451 69.0152 12.7968 0.0000 0.0000 0.0000
# 3 35.7991 12.7968 74.4936 0.0000 0.0000 0.0000
# 4 0.0000 0.0000 0.0000 -0.9803 0.0000 0.0000
# 5 0.0000 0.0000 0.0000 0.0000 7.6897 0.0000
# 6 0.0000 0.0000 0.0000 0.0000 0.0000 33.2176
#
#
#
# Elastic Compliance Matrix: (Units=1/GPa)
#
#
# Indices 1 2 3 4 5 6 
#
# 1 0.011285 -0.003732 -0.004782 0.000000 0.000000 0.000000
# 2 -0.003732 0.016200 -0.000990 0.000000 0.000000 0.000000
# 3 -0.004782 -0.000990 0.015892 0.000000 0.000000 0.000000
# 4 0.000000 0.000000 0.000000 -1.020130 0.000000 0.000000
# 5 0.000000 0.000000 0.000000 0.000000 0.130044 0.000000
# 6 0.000000 0.000000 0.000000 0.000000 0.000000 0.030105
#
#
# Mechanical properties :
#
#
# Convention : Reuss Voigt Hill
#
# Bulk Modulus (GPa) = 41.03337 45.59063 43.31200
# Shear Modulus (GPa) = -6.33333 19.97158 6.81912
#
# Velocity S-wave (km/s) = -1.85897 3.30112 1.92894
# Velocity P-wave (km/s) = 4.21687 6.27743 5.34734
#
# Compressibility (1/GPa) = 0.02437041
#
# Stress axis : x y z
#
# Youngs Moduli (GPa) = 88.61427 61.72723 62.92445
#
# Poissons Ratio (x) = 0.23035 0.30091
# Poissons Ratio (y) = 0.33069 0.06227
# Poissons Ratio (z) = 0.42376 0.06109
#
# Static dielectric constant tensor:
#      x y z
#    x 1.646100 0.000000 0.000000 
#    y 0.000000 1.618960 0.000000 
#    z 0.000000 0.000000 1.629570 
# 
# From -- ./inp_files/2325.got.cif
#   From: 2010.05.17/outbox.cif.g08.bks.cpg/sg55_2_cif.got.tgz:2325.got - 2010.06.03 13:27:54.
