data_PCOD9425201
_publ_section_title
;
Structure prediction by ZEFSAII (Michael W. Deem and Ramdas Pophale) SiO2 
 PCOD9425201
Probable space group: P B A M
;
_chemical_formula_sum "Si O2"
_cell_formula_units_Z 56
_cell_length_a 14.113292
_cell_length_b 24.597929
_cell_length_c 7.658388
_cell_angle_alpha 90.000000
_cell_angle_beta 90.000000
_cell_angle_gamma 90.000000
_cell_volume 2658.668782
_symmetry_space_group_name_H-M "P B A M"
_symmetry_group_IT_number 55
_symmetry_cell_setting 'orthorhombic'
loop_
_space_group_symop_operation_xyz
x,y,z
-x,-y,z
1/2+x,1/2-y,-z
1/2-x,1/2+y,-z
-x,-y,-z
x,y,-z
1/2-x,1/2+y,z
1/2+x,1/2-y,z
loop_
_atom_site_type_symbol
_atom_site_label
_atom_site_fract_x
_atom_site_fract_y
_atom_site_fract_z
Si Si1 0.381460 0.868430 0.298231
Si Si2 0.292801 0.440352 0.208323
Si Si3 0.736188 0.438013 0.292627
Si Si4 0.082120 0.840374 0.214290
Si Si5 0.130031 0.170335 0.204755
Si Si6 0.953403 0.442853 0.713775
Si Si7 0.254412 0.769515 0.798719
O O1 0.394379 0.852976 0.500000
O O2 0.304443 0.917150 0.288759
O O3 0.479236 0.893298 0.229047
O O4 0.333230 0.817252 0.205982
O O5 0.306559 0.502838 0.254204
O O6 0.376106 0.399370 0.263922
O O7 0.282527 0.435475 0.000000
O O8 0.738981 0.430482 0.500000
O O9 0.676074 0.388779 0.217203
O O10 0.845073 0.438044 0.228180
O O11 0.159134 0.796180 0.276917
O O12 0.976246 0.830166 0.277640
O O13 0.081874 0.839674 0.000000
O O14 0.200025 0.215777 0.282356
O O15 0.119678 0.184535 0.000000
O O16 0.954594 0.442829 0.500000
O O17 0.000000 0.500000 0.768992
O O18 0.230736 0.757128 0.000000
#
# Coordination Sequence:
#
# PCOD9425201 Si02
#       7
#     8   8   8   8   8   8   8
#     4  10  18  32  56  81 107 144 183 219 266 321
#     4  10  19  34  55  80 109 142 183 220 265 324
#     4  11  22  36  54  78 111 144 180 226 272 321
#     4   8  17  35  57  78 105 142 175 215 272 324
#     4  10  21  38  57  78 108 144 180 221 271 321
#     4   9  17  32  52  76 110 147 173 207 275 335
#     4   9  19  36  57  80 107 141 183 224 265 319
#
# _framework density 21.063171000000001
#
# number of rings (size 3 to 8) (size 9 to 14) (size 15 to 20)
#    0.000    2.429    1.429    2.143    0.000    2.286 
#    0.000   11.429    0.000    0.000    0.000    0.000 
#    0.000    0.000    0.000    0.000    0.000    0.000 
#
# Total GULP energy -312606.057710 kJ/mol
# GULP energy per Si atom -5582.251031 kJ/mol
# Density = 2.101523 g / cm^3
# Si number density = 21.063171 Si / 1000 Ang^3
#
#
#
# Elastic Constant Matrix: (Units=GPa)
#
#
# Indices 1 2 3 4 5 6 
#
# 1 150.1097 75.6508 -0.3284 0.0000 0.0000 0.0000
# 2 75.6508 132.3264 -16.3301 0.0000 0.0000 0.0000
# 3 -0.3284 -16.3301 36.8211 0.0000 0.0000 0.0000
# 4 0.0000 0.0000 0.0000 97.8873 0.0000 0.0000
# 5 0.0000 0.0000 0.0000 0.0000 12.9539 0.0000
# 6 0.0000 0.0000 0.0000 0.0000 0.0000 18.2236
#
#
#
# Elastic Compliance Matrix: (Units=1/GPa)
#
#
# Indices 1 2 3 4 5 6 
#
# 1 0.009567 -0.005775 -0.002476 0.000000 0.000000 0.000000
# 2 -0.005775 0.011480 0.005040 0.000000 0.000000 0.000000
# 3 -0.002476 0.005040 0.029372 0.000000 0.000000 0.000000
# 4 0.000000 0.000000 0.000000 0.010216 0.000000 0.000000
# 5 0.000000 0.000000 0.000000 0.000000 0.077197 0.000000
# 6 0.000000 0.000000 0.000000 0.000000 0.000000 0.054874
#
#
# Mechanical properties :
#
#
# Convention : Reuss Voigt Hill
#
# Bulk Modulus (GPa) = 22.72845 48.58242 35.65544
# Shear Modulus (GPa) = 23.38717 43.16395 33.27556
#
# Velocity S-wave (km/s) = 3.33578 4.53179 3.97898
# Velocity P-wave (km/s) = 5.06465 7.10619 6.17044
#
# Compressibility (1/GPa) = 0.04399772
#
# Stress axis : x y z
#
# Youngs Moduli (GPa) = 104.52923 87.10427 34.04656
#
# Poissons Ratio (x) = 0.50301 0.08429
# Poissons Ratio (y) = 0.60364 -0.17160
# Poissons Ratio (z) = 0.25879 -0.43901
#
# Static dielectric constant tensor:
#      x y z
#    x 1.750380 0.000000 0.000000 
#    y 0.000000 1.737870 0.000000 
#    z 0.000000 0.000000 1.799130 
# 
# From -- ./inp_files/6163.got.cif
#   From: 2010.05.17/outbox.cif.g08.bks.cpg/sg55_4_cif.got.tgz:6163.got - 2010.06.03 13:27:54.
