data_PCOD9425808
_publ_section_title
;
Structure prediction by ZEFSAII (Michael W. Deem and Ramdas Pophale) SiO2 
 PCOD9425808
Probable space group: P B A M
;
_chemical_formula_sum "Si O2"
_cell_formula_units_Z 36
_cell_length_a 17.354788
_cell_length_b 5.208512
_cell_length_c 23.041727
_cell_angle_alpha 90.000000
_cell_angle_beta 90.000000
_cell_angle_gamma 90.000000
_cell_volume 2082.802109
_symmetry_space_group_name_H-M "P B A M"
_symmetry_group_IT_number 55
_symmetry_cell_setting 'orthorhombic'
loop_
_space_group_symop_operation_xyz
x,y,z
-x,-y,z
1/2+x,1/2-y,-z
1/2-x,1/2+y,-z
-x,-y,-z
x,y,-z
1/2-x,1/2+y,z
1/2+x,1/2-y,z
loop_
_atom_site_type_symbol
_atom_site_label
_atom_site_fract_x
_atom_site_fract_y
_atom_site_fract_z
Si Si1 0.299668 0.690841 0.000000
Si Si2 0.551726 0.250723 0.349058
Si Si3 0.197563 0.250334 0.567500
Si Si4 0.447790 0.749209 0.787518
Si Si5 0.303876 0.775598 0.127303
O O1 0.337994 0.750165 0.061767
O O2 0.271748 0.395165 0.000000
O O3 0.500000 0.500000 0.360856
O O4 0.625833 0.247981 0.389616
O O5 0.573387 0.255342 0.280838
O O6 0.500000 0.000000 0.359142
O O7 0.172031 0.251180 0.500000
O O8 0.250567 0.499022 0.576766
O O9 0.500000 0.500000 0.799574
O O10 0.371679 0.754723 0.826391
O O11 0.500000 0.000000 0.797871
O O12 0.242776 0.542126 0.133042
#
# Coordination Sequence:
#
# PCOD9425808 Si02
#       5
#     4   8   8   8   8
#     4   8  16  30  48  72 100 126 162 210 248 288
#     4  10  21  36  54  75 102 137 171 204 247 301
#     4  10  21  36  54  78 106 132 164 211 256 292
#     4  10  21  36  51  74 107 134 163 210 257 293
#     4  10  19  33  54  76  98 132 173 207 246 300
#
# _framework density 17.284406000000001
#
# number of rings (size 3 to 8) (size 9 to 14) (size 15 to 20)
#    0.000    2.222    0.000    2.667    0.000    2.667 
#    0.000    1.111    0.000    0.000    0.000    0.000 
#    0.000    0.000    0.000    0.000    0.000    0.000 
#
# Total GULP energy -200858.542963 kJ/mol
# GULP energy per Si atom -5579.403971 kJ/mol
# Density = 1.724507 g / cm^3
# Si number density = 17.284406 Si / 1000 Ang^3
#
#
#
# Elastic Constant Matrix: (Units=GPa)
#
#
# Indices 1 2 3 4 5 6 
#
# 1 100.5993 42.6776 101.9421 0.0000 0.0000 0.0000
# 2 42.6776 137.7427 51.6941 0.0000 0.0000 0.0000
# 3 101.9421 51.6941 124.6096 0.0000 0.0000 0.0000
# 4 0.0000 0.0000 0.0000 17.8548 0.0000 0.0000
# 5 0.0000 0.0000 0.0000 0.0000 510.5118 0.0000
# 6 0.0000 0.0000 0.0000 0.0000 0.0000 8.9862
#
#
#
# Elastic Compliance Matrix: (Units=1/GPa)
#
#
# Indices 1 2 3 4 5 6 
#
# 1 0.058139 -0.000193 -0.047483 0.000000 0.000000 0.000000
# 2 -0.000193 0.008599 -0.003409 0.000000 0.000000 0.000000
# 3 -0.047483 -0.003409 0.048285 0.000000 0.000000 0.000000
# 4 0.000000 0.000000 0.000000 0.056007 0.000000 0.000000
# 5 0.000000 0.000000 0.000000 0.000000 0.001959 0.000000
# 6 0.000000 0.000000 0.000000 0.000000 0.000000 0.111282
#
#
# Mechanical properties :
#
#
# Convention : Reuss Voigt Hill
#
# Bulk Modulus (GPa) = 77.80797 83.95325 80.88061
# Shear Modulus (GPa) = 12.79667 118.57976 65.68821
#
# Velocity S-wave (km/s) = 2.72391 8.29180 6.17145
# Velocity P-wave (km/s) = 7.41666 11.84690 9.88322
#
# Compressibility (1/GPa) = 0.01285215
#
# Stress axis : x y z
#
# Youngs Moduli (GPa) = 17.20005 116.28875 20.71044
#
# Poissons Ratio (x) = 0.02250 0.98339
# Poissons Ratio (y) = 0.00333 0.07060
# Poissons Ratio (z) = 0.81671 0.39644
#
# Static dielectric constant tensor:
#      x y z
#    x 1.520820 0.000000 0.000000 
#    y 0.000000 1.585880 0.000000 
#    z 0.000000 0.000000 1.598150 
# 
# From -- ./inp_files/21708.got.cif
#   From: 2010.05.17/outbox.cif.g08.bks.cpg/sg55_11_cif.got.tgz:21708.got - 2010.06.03 13:27:54.
