data_PCOD9425235
_publ_section_title
;
Structure prediction by ZEFSAII (Michael W. Deem and Ramdas Pophale) SiO2 
 PCOD9425235
Probable space group: P B A M
;
_chemical_formula_sum "Si O2"
_cell_formula_units_Z 64
_cell_length_a 15.875858
_cell_length_b 24.561359
_cell_length_c 7.542336
_cell_angle_alpha 90.000000
_cell_angle_beta 90.000000
_cell_angle_gamma 90.000000
_cell_volume 2941.003047
_symmetry_space_group_name_H-M "P B A M"
_symmetry_group_IT_number 55
_symmetry_cell_setting 'orthorhombic'
loop_
_space_group_symop_operation_xyz
x,y,z
-x,-y,z
1/2+x,1/2-y,-z
1/2-x,1/2+y,-z
-x,-y,-z
x,y,-z
1/2-x,1/2+y,z
1/2+x,1/2-y,z
loop_
_atom_site_type_symbol
_atom_site_label
_atom_site_fract_x
_atom_site_fract_y
_atom_site_fract_z
Si Si1 0.650650 0.372253 0.203462
Si Si2 0.138220 0.365525 0.292643
Si Si3 0.596901 0.253910 0.293294
Si Si4 0.515224 0.940633 0.205311
Si Si5 0.010797 0.937475 0.782937
Si Si6 0.100849 0.753880 0.785195
Si Si7 0.835314 0.364008 0.781796
Si Si8 0.172144 0.869544 0.214265
O O1 0.633805 0.307663 0.204722
O O2 0.569152 0.402224 0.280574
O O3 0.743000 0.381599 0.280859
O O4 0.655227 0.391213 0.000000
O O5 0.116564 0.362655 0.500000
O O6 0.129152 0.303888 0.220577
O O7 0.234031 0.384219 0.271853
O O8 0.069974 0.405586 0.210169
O O9 0.619882 0.257396 0.500000
O O10 0.495981 0.254869 0.274579
O O11 0.590813 0.904049 0.279788
O O12 0.500000 0.000000 0.286565
O O13 0.539178 0.949812 0.000000
O O14 0.098162 0.909923 0.725441
O O15 0.011940 0.935495 0.000000
O O16 0.000000 0.000000 0.730666
O O17 0.143747 0.697770 0.727211
O O18 0.148427 0.808370 0.725885
O O19 0.099641 0.754501 0.000000
O O20 0.834861 0.363247 0.000000
O O21 0.171770 0.869458 0.000000
#
# Coordination Sequence:
#
# PCOD9425235 Si02
#       8
#     8   8   8   8   8   8   8   8
#     4  10  19  35  58  82 111 147 185 228 279 336
#     4  11  24  39  56  82 115 155 190 228 285 340
#     4  11  22  35  54  82 113 147 186 229 281 337
#     4  10  21  38  61  88 114 145 190 241 284 329
#     4   9  18  33  56  86 115 144 183 233 282 327
#     4  10  18  33  57  84 111 143 183 229 288 342
#     4   9  18  32  56  86 112 139 179 231 281 330
#     4  10  20  35  58  88 113 144 188 233 282 336
#
# _framework density 21.761285000000001
#
# number of rings (size 3 to 8) (size 9 to 14) (size 15 to 20)
#    0.000    2.000    2.500    1.500    0.000    4.250 
#    0.000    5.000    0.000    3.000    0.000    0.000 
#    0.000    0.000    0.000    0.000    0.000    0.000 
#
# Total GULP energy -357656.672885 kJ/mol
# GULP energy per Si atom -5588.385514 kJ/mol
# Density = 2.171176 g / cm^3
# Si number density = 21.761285 Si / 1000 Ang^3
#
#
#
# Elastic Constant Matrix: (Units=GPa)
#
#
# Indices 1 2 3 4 5 6 
#
# 1 170.6650 61.7875 -14.8083 0.0000 0.0000 0.0000
# 2 61.7875 134.8332 -4.4793 0.0000 0.0000 0.0000
# 3 -14.8083 -4.4793 53.2692 0.0000 0.0000 0.0000
# 4 0.0000 0.0000 0.0000 -0.0291 0.0000 0.0000
# 5 0.0000 0.0000 0.0000 0.0000 -18.4759 0.0000
# 6 0.0000 0.0000 0.0000 0.0000 0.0000 -0.1992
#
#
#
# Elastic Compliance Matrix: (Units=1/GPa)
#
#
# Indices 1 2 3 4 5 6 
#
# 1 0.007179 -0.003233 0.001724 0.000000 0.000000 0.000000
# 2 -0.003233 0.008893 -0.000151 0.000000 0.000000 0.000000
# 3 0.001724 -0.000151 0.019239 0.000000 0.000000 0.000000
# 4 0.000000 0.000000 0.000000-34.334194 0.000000 0.000000
# 5 0.000000 0.000000 0.000000 0.000000 -0.054124 0.000000
# 6 0.000000 0.000000 0.000000 0.000000 0.000000 -5.020890
#
#
# Mechanical properties :
#
#
# Convention : Reuss Voigt Hill
#
# Bulk Modulus (GPa) = 31.25755 49.30747 40.28251
# Shear Modulus (GPa) = -0.12703 17.34366 8.60832
#
# Velocity S-wave (km/s) = -0.24187 2.82617 1.99108
# Velocity P-wave (km/s) = 3.78378 5.77557 4.88233
#
# Compressibility (1/GPa) = 0.03199227
#
# Stress axis : x y z
#
# Youngs Moduli (GPa) = 139.28781 112.44873 51.97744
#
# Poissons Ratio (x) = 0.36351 -0.08961
# Poissons Ratio (y) = 0.45027 0.00784
# Poissons Ratio (z) = -0.24013 0.01696
#
# Static dielectric constant tensor:
#      x y z
#    x 1.951440 0.000000 0.000000 
#    y 0.000000 1.765950 0.000000 
#    z 0.000000 0.000000 1.839840 
# 
# From -- ./inp_files/6517.got.cif
#   From: 2010.05.17/outbox.cif.g08.bks.cpg/sg55_4_cif.got.tgz:6517.got - 2010.06.03 13:27:54.
