data_PCOD9425891
_publ_section_title
;
Structure prediction by ZEFSAII (Michael W. Deem and Ramdas Pophale) SiO2 
 PCOD9425891
Probable space group: P B A M
;
_chemical_formula_sum "Si O2"
_cell_formula_units_Z 40
_cell_length_a 10.780629
_cell_length_b 20.864723
_cell_length_c 7.622955
_cell_angle_alpha 90.000000
_cell_angle_beta 90.000000
_cell_angle_gamma 90.000000
_cell_volume 1714.668147
_symmetry_space_group_name_H-M "P B A M"
_symmetry_group_IT_number 55
_symmetry_cell_setting 'orthorhombic'
loop_
_space_group_symop_operation_xyz
x,y,z
-x,-y,z
1/2+x,1/2-y,-z
1/2-x,1/2+y,-z
-x,-y,-z
x,y,-z
1/2-x,1/2+y,z
1/2+x,1/2-y,z
loop_
_atom_site_type_symbol
_atom_site_label
_atom_site_fract_x
_atom_site_fract_y
_atom_site_fract_z
Si Si1 0.023528 0.202699 0.290368
Si Si2 0.662199 0.061559 0.800013
Si Si3 0.062212 0.934488 0.211059
Si Si4 0.291557 0.217805 0.715282
Si Si5 0.611230 0.919223 0.701758
O O1 0.022268 0.211329 0.500000
O O2 0.152353 0.232357 0.225267
O O3 0.019035 0.127242 0.253691
O O4 0.898708 0.235076 0.220980
O O5 0.797183 0.076316 0.722244
O O6 0.538330 0.086766 0.707863
O O7 0.648956 0.984104 0.798824
O O8 0.656923 0.084600 0.000000
O O9 0.072988 0.940229 0.000000
O O10 0.000000 0.000000 0.276428
O O11 0.292068 0.218755 0.500000
O O12 0.327825 0.145673 0.768281
O O13 0.648673 0.928609 0.500000
#
# Coordination Sequence:
#
# PCOD9425891 Si02
#       5
#     8   8   8   8   8
#     4  10  21  38  60  85 113 148 188 229 280 335
#     4  10  20  34  54  81 112 147 186 229 282 331
#     4  10  22  39  57  80 113 149 188 235 285 334
#     4   9  20  36  57  84 114 145 182 230 280 332
#     4  10  19  33  55  83 113 146 187 229 277 334
#
# _framework density 23.328129000000001
#
# number of rings (size 3 to 8) (size 9 to 14) (size 15 to 20)
#    0.000    2.200    0.000    3.600    2.800    2.000 
#    0.000    4.000    0.000    0.000    0.000    0.000 
#    0.000    0.000    0.000    0.000    0.000    0.000 
#
# Total GULP energy -223633.099309 kJ/mol
# GULP energy per Si atom -5590.827483 kJ/mol
# Density = 2.327503 g / cm^3
# Si number density = 23.328129 Si / 1000 Ang^3
#
#
#
# Elastic Constant Matrix: (Units=GPa)
#
#
# Indices 1 2 3 4 5 6 
#
# 1 161.7298 52.4424 -2.4805 0.0000 0.0000 0.0000
# 2 52.4424 61.1633 -9.0103 0.0000 0.0000 0.0000
# 3 -2.4805 -9.0103 51.0291 0.0000 0.0000 0.0000
# 4 0.0000 0.0000 0.0000 18.7017 0.0000 0.0000
# 5 0.0000 0.0000 0.0000 0.0000 4.7226 0.0000
# 6 0.0000 0.0000 0.0000 0.0000 0.0000 32.9816
#
#
#
# Elastic Compliance Matrix: (Units=1/GPa)
#
#
# Indices 1 2 3 4 5 6 
#
# 1 0.008605 -0.007512 -0.000908 0.000000 0.000000 0.000000
# 2 -0.007512 0.023344 0.003757 0.000000 0.000000 0.000000
# 3 -0.000908 0.003757 0.020216 0.000000 0.000000 0.000000
# 4 0.000000 0.000000 0.000000 0.053471 0.000000 0.000000
# 5 0.000000 0.000000 0.000000 0.000000 0.211749 0.000000
# 6 0.000000 0.000000 0.000000 0.000000 0.000000 0.030320
#
#
# Mechanical properties :
#
#
# Convention : Reuss Voigt Hill
#
# Bulk Modulus (GPa) = 23.34359 39.53615 31.43987
# Shear Modulus (GPa) = 13.46582 26.81255 20.13918
#
# Velocity S-wave (km/s) = 2.40518 3.39391 2.94139
# Velocity P-wave (km/s) = 4.21207 5.68707 5.00421
#
# Compressibility (1/GPa) = 0.04283831
#
# Stress axis : x y z
#
# Youngs Moduli (GPa) = 116.21141 42.83782 49.46609
#
# Poissons Ratio (x) = 0.32179 0.04492
# Poissons Ratio (y) = 0.87296 -0.18583
# Poissons Ratio (z) = 0.10553 -0.16093
#
# Static dielectric constant tensor:
#      x y z
#    x 1.909490 0.000000 0.000000 
#    y 0.000000 1.830860 0.000000 
#    z 0.000000 0.000000 1.849560 
# 
# From -- ./inp_files/3842.got.cif
#   From: 2010.05.17/outbox.cif.g08.bks.cpg/sg55_2_cif.got.tgz:3842.got - 2010.06.03 13:27:54.
