data_PCOD9425980
_publ_section_title
;
Structure prediction by ZEFSAII (Michael W. Deem and Ramdas Pophale) SiO2 
 PCOD9425980
Probable space group: P B A M
;
_chemical_formula_sum "Si O2"
_cell_formula_units_Z 40
_cell_length_a 24.914414
_cell_length_b 5.353421
_cell_length_c 16.754067
_cell_angle_alpha 90.000000
_cell_angle_beta 90.000000
_cell_angle_gamma 90.000000
_cell_volume 2234.613010
_symmetry_space_group_name_H-M "P B A M"
_symmetry_group_IT_number 55
_symmetry_cell_setting 'orthorhombic'
loop_
_space_group_symop_operation_xyz
x,y,z
-x,-y,z
1/2+x,1/2-y,-z
1/2-x,1/2+y,-z
-x,-y,-z
x,y,-z
1/2-x,1/2+y,z
1/2+x,1/2-y,z
loop_
_atom_site_type_symbol
_atom_site_label
_atom_site_fract_x
_atom_site_fract_y
_atom_site_fract_z
Si Si1 0.715252 0.507030 0.092817
Si Si2 0.565995 0.734470 0.340983
Si Si3 0.603788 0.618890 0.162981
Si Si4 0.054614 0.263891 0.406747
Si Si5 0.557137 0.108105 0.905338
O O1 0.745189 0.243003 0.103057
O O2 0.665309 0.538415 0.151724
O O3 0.695601 0.513779 0.000000
O O4 0.583139 0.685880 0.250973
O O5 0.501545 0.749506 0.357544
O O6 0.583877 0.495937 0.391719
O O7 0.585980 0.998426 0.373810
O O8 0.571108 0.374539 0.133139
O O9 0.596408 0.876215 0.113281
O O10 0.041824 0.290990 0.500000
O O11 0.500000 0.000000 0.876763
O O12 0.554679 0.148640 0.000000
#
# Coordination Sequence:
#
# PCOD9425980 Si02
#       5
#     8   8   8   8   8
#     4  10  21  38  59  78 100 138 187 241 295 330
#     4  10  20  30  50  78 104 141 175 217 272 303
#     4  12  23  36  57  80 111 138 189 239 279 328
#     4  10  19  34  52  75 111 147 182 213 249 322
#     4  11  24  37  51  73 109 155 189 216 262 326
#
# _framework density 17.900192000000001
#
# number of rings (size 3 to 8) (size 9 to 14) (size 15 to 20)
#    0.000    1.400    0.000    7.800    8.400    3.200 
#    0.000    0.000    0.000    0.000    0.000    0.000 
#    0.000   27.200    0.000    0.000    0.000    0.000 
#
# Total GULP energy -223113.042631 kJ/mol
# GULP energy per Si atom -5577.826066 kJ/mol
# Density = 1.785945 g / cm^3
# Si number density = 17.900192 Si / 1000 Ang^3
#
#
#
# Elastic Constant Matrix: (Units=GPa)
#
#
# Indices 1 2 3 4 5 6 
#
# 1 38.0082 8.3102 38.9240 0.0000 0.0000 0.0000
# 2 8.3102 162.5665 41.1925 0.0000 0.0000 0.0000
# 3 38.9240 41.1925 104.0729 0.0000 0.0000 0.0000
# 4 0.0000 0.0000 0.0000 19.9328 0.0000 0.0000
# 5 0.0000 0.0000 0.0000 0.0000 39.6732 0.0000
# 6 0.0000 0.0000 0.0000 0.0000 0.0000 19.6126
#
#
#
# Elastic Compliance Matrix: (Units=1/GPa)
#
#
# Indices 1 2 3 4 5 6 
#
# 1 0.043279 0.002100 -0.017018 0.000000 0.000000 0.000000
# 2 0.002100 0.006939 -0.003532 0.000000 0.000000 0.000000
# 3 -0.017018 -0.003532 0.017371 0.000000 0.000000 0.000000
# 4 0.000000 0.000000 0.000000 0.050169 0.000000 0.000000
# 5 0.000000 0.000000 0.000000 0.000000 0.025206 0.000000
# 6 0.000000 0.000000 0.000000 0.000000 0.000000 0.050988
#
#
# Mechanical properties :
#
#
# Convention : Reuss Voigt Hill
#
# Bulk Modulus (GPa) = 32.58444 53.50010 43.04227
# Shear Modulus (GPa) = 20.74000 30.25845 25.49922
#
# Velocity S-wave (km/s) = 3.40758 4.11591 3.77838
# Velocity P-wave (km/s) = 5.80733 7.24848 6.56755
#
# Compressibility (1/GPa) = 0.03068949
#
# Stress axis : x y z
#
# Youngs Moduli (GPa) = 23.10608 144.11506 57.56639
#
# Poissons Ratio (x) = -0.30260 0.97964
# Poissons Ratio (y) = -0.04852 0.20331
# Poissons Ratio (z) = 0.39321 0.50898
#
# Static dielectric constant tensor:
#      x y z
#    x 1.661530 0.000000 0.000000 
#    y 0.000000 1.712630 0.000000 
#    z 0.000000 0.000000 1.611440 
# 
# From -- ./inp_files/19842.got.cif
#   From: 2010.05.17/outbox.cif.g08.bks.cpg/sg55_10_cif.got.tgz:19842.got - 2010.06.03 13:27:54.
