data_PCOD9425812
_publ_section_title
;
Structure prediction by ZEFSAII (Michael W. Deem and Ramdas Pophale) SiO2 
 PCOD9425812
Probable space group: P B A M
;
_chemical_formula_sum "Si O2"
_cell_formula_units_Z 48
_cell_length_a 24.656163
_cell_length_b 10.939791
_cell_length_c 7.348420
_cell_angle_alpha 90.000000
_cell_angle_beta 90.000000
_cell_angle_gamma 90.000000
_cell_volume 1982.113357
_symmetry_space_group_name_H-M "P B A M"
_symmetry_group_IT_number 55
_symmetry_cell_setting 'orthorhombic'
loop_
_space_group_symop_operation_xyz
x,y,z
-x,-y,z
1/2+x,1/2-y,-z
1/2-x,1/2+y,-z
-x,-y,-z
x,y,-z
1/2-x,1/2+y,z
1/2+x,1/2-y,z
loop_
_atom_site_type_symbol
_atom_site_label
_atom_site_fract_x
_atom_site_fract_y
_atom_site_fract_z
Si Si1 0.268309 0.379152 0.222166
Si Si2 0.563100 0.993845 0.778592
Si Si3 0.474832 0.379362 0.707311
Si Si4 0.585078 0.260906 0.781399
Si Si5 0.697801 0.352780 0.778355
Si Si6 0.373282 0.236664 0.202766
O O1 0.223429 0.278278 0.276141
O O2 0.271662 0.522097 0.280405
O O3 0.323625 0.311467 0.282030
O O4 0.266656 0.384880 0.000000
O O5 0.593892 0.119120 0.737661
O O6 0.500000 0.000000 0.718651
O O7 0.598967 0.881404 0.709045
O O8 0.560171 0.980121 0.000000
O O9 0.500000 0.500000 0.790839
O O10 0.457843 0.404775 0.500000
O O11 0.525851 0.289765 0.706840
O O12 0.423625 0.328092 0.808257
O O13 0.634519 0.346796 0.722056
O O14 0.581168 0.270516 0.000000
O O15 0.698612 0.354235 0.000000
O O16 0.354545 0.198854 0.000000
#
# Coordination Sequence:
#
# PCOD9425812 Si02
#       6
#     8   8   8   8   8   8
#     4   9  18  30  47  75 106 136 172 216 264 310
#     4   9  16  28  48  78 104 132 172 211 254 307
#     4  11  23  36  51  74 104 137 174 219 270 315
#     4  10  19  33  54  77 106 138 174 213 258 317
#     4   9  18  30  47  75 106 136 172 216 264 310
#     4  10  19  33  54  77 106 138 174 213 258 317
#
# _framework density 24.216578999999999
#
# number of rings (size 3 to 8) (size 9 to 14) (size 15 to 20)
#    0.000    2.333    1.667    1.500    2.333    2.667 
#    0.000    1.667    0.000    1.000    0.000    0.000 
#    0.000    0.000    0.000    0.000    0.000    0.000 
#
# Total GULP energy -267926.959279 kJ/mol
# GULP energy per Si atom -5581.811652 kJ/mol
# Density = 2.416146 g / cm^3
# Si number density = 24.216579 Si / 1000 Ang^3
#
#
#
# Elastic Constant Matrix: (Units=GPa)
#
#
# Indices 1 2 3 4 5 6 
#
# 1 79.7011 0.0508 -4.4934 0.0000 0.0000 0.0000
# 2 0.0508 83.7736 1.5232 0.0000 0.0000 0.0000
# 3 -4.4934 1.5232 88.9332 0.0000 0.0000 0.0000
# 4 0.0000 0.0000 0.0000 -10.8104 0.0000 0.0000
# 5 0.0000 0.0000 0.0000 0.0000 -37.6059 0.0000
# 6 0.0000 0.0000 0.0000 0.0000 0.0000 40.8940
#
#
#
# Elastic Compliance Matrix: (Units=1/GPa)
#
#
# Indices 1 2 3 4 5 6 
#
# 1 0.012583 -0.000019 0.000636 0.000000 0.000000 0.000000
# 2 -0.000019 0.011941 -0.000205 0.000000 0.000000 0.000000
# 3 0.000636 -0.000205 0.011280 0.000000 0.000000 0.000000
# 4 0.000000 0.000000 0.000000 -0.092504 0.000000 0.000000
# 5 0.000000 0.000000 0.000000 0.000000 -0.026592 0.000000
# 6 0.000000 0.000000 0.000000 0.000000 0.000000 0.024453
#
#
# Mechanical properties :
#
#
# Convention : Reuss Voigt Hill
#
# Bulk Modulus (GPa) = 27.30280 27.39657 27.34968
# Shear Modulus (GPa) = -105.36920 15.51735 -44.92592
#
# Velocity S-wave (km/s) = -6.60346 2.53410 -4.31184
# Velocity P-wave (km/s) = 6.84412 4.46093 3.67029
#
# Compressibility (1/GPa) = 0.03662628
#
# Stress axis : x y z
#
# Youngs Moduli (GPa) = 79.47387 83.74729 88.65207
#
# Poissons Ratio (x) = 0.00161 -0.05639
# Poissons Ratio (y) = 0.00153 0.01822
# Poissons Ratio (z) = -0.05055 0.01721
#
# Static dielectric constant tensor:
#      x y z
#    x 1.915260 0.000000 0.000000 
#    y 0.000000 1.984840 0.000000 
#    z 0.000000 0.000000 0.086570 
# 
# From -- ./inp_files/9436.got.cif
#   From: 2010.05.17/outbox.cif.g08.bks.cpg/sg55_5_cif.got.tgz:9436.got - 2010.06.03 13:27:54.
