data_PCOD9425231
_publ_section_title
;
Structure prediction by ZEFSAII (Michael W. Deem and Ramdas Pophale) SiO2 
 PCOD9425231
Probable space group: P B A M
;
_chemical_formula_sum "Si O2"
_cell_formula_units_Z 64
_cell_length_a 31.531410
_cell_length_b 12.368643
_cell_length_c 7.360037
_cell_angle_alpha 90.000000
_cell_angle_beta 90.000000
_cell_angle_gamma 90.000000
_cell_volume 2870.419976
_symmetry_space_group_name_H-M "P B A M"
_symmetry_group_IT_number 55
_symmetry_cell_setting 'orthorhombic'
loop_
_space_group_symop_operation_xyz
x,y,z
-x,-y,z
1/2+x,1/2-y,-z
1/2-x,1/2+y,-z
-x,-y,-z
x,y,-z
1/2-x,1/2+y,z
1/2+x,1/2-y,z
loop_
_atom_site_type_symbol
_atom_site_label
_atom_site_fract_x
_atom_site_fract_y
_atom_site_fract_z
Si Si1 0.957060 0.557545 0.721851
Si Si2 0.623848 0.672558 0.288643
Si Si3 0.330707 0.731880 0.279843
Si Si4 0.046221 0.980630 0.794574
Si Si5 0.208979 0.451256 0.278435
Si Si6 0.694992 0.506080 0.277283
Si Si7 0.625115 0.918992 0.277765
Si Si8 0.073733 0.218685 0.718916
O O1 0.956393 0.557764 0.500000
O O2 0.915016 0.492079 0.779074
O O3 0.956152 0.683274 0.777052
O O4 0.000000 0.500000 0.780335
O O5 0.634313 0.687175 0.500000
O O6 0.580104 0.604509 0.280922
O O7 0.661772 0.597313 0.213915
O O8 0.620729 0.794488 0.215954
O O9 0.328202 0.730041 0.500000
O O10 0.301587 0.829631 0.218891
O O11 0.319624 0.612359 0.217670
O O12 0.379088 0.756310 0.233819
O O13 0.066197 0.099920 0.793671
O O14 0.038440 0.942917 0.000000
O O15 0.000000 0.000000 0.707021
O O16 0.208868 0.453631 0.500000
O O17 0.256414 0.479305 0.221423
O O18 0.170212 0.529037 0.222496
O O19 0.693763 0.507398 0.500000
O O20 0.624375 0.920858 0.500000
O O21 0.071202 0.207712 0.500000
#
# Coordination Sequence:
#
# PCOD9425231 Si02
#       8
#     8   8   8   8   8   8   8   8
#     4   9  17  28  45  75 108 137 170 211 262 311
#     4  10  20  34  53  79 107 134 174 218 255 305
#     4   9  15  26  43  67 102 138 172 209 253 302
#     4  11  25  41  55  74 103 137 173 213 263 318
#     4   9  16  25  40  68 110 147 166 201 264 311
#     4   9  17  26  41  70 105 140 175 209 251 306
#     4   9  17  28  43  72 111 142 168 207 259 311
#     4  10  18  33  57  79 104 136 174 219 257 300
#
# _framework density 22.296389000000001
#
# number of rings (size 3 to 8) (size 9 to 14) (size 15 to 20)
#    0.000    2.500    2.500    0.375    3.500    1.000 
#    0.000    0.000    0.000    1.125    0.000    3.500 
#    0.000    0.000    0.000    0.000    0.000    0.000 
#
# Total GULP energy -357356.329356 kJ/mol
# GULP energy per Si atom -5583.692646 kJ/mol
# Density = 2.224564 g / cm^3
# Si number density = 22.296389 Si / 1000 Ang^3
#
#
#
# Elastic Constant Matrix: (Units=GPa)
#
#
# Indices 1 2 3 4 5 6 
#
# 1 100.6236 26.1179 -0.6377 0.0000 0.0000 0.0000
# 2 26.1179 129.1735 -2.0890 0.0000 0.0000 0.0000
# 3 -0.6377 -2.0890 76.0828 0.0000 0.0000 0.0000
# 4 0.0000 0.0000 0.0000 -25.4103 0.0000 0.0000
# 5 0.0000 0.0000 0.0000 0.0000 10.8054 0.0000
# 6 0.0000 0.0000 0.0000 0.0000 0.0000 40.1739
#
#
#
# Elastic Compliance Matrix: (Units=1/GPa)
#
#
# Indices 1 2 3 4 5 6 
#
# 1 0.010489 -0.002120 0.000030 0.000000 0.000000 0.000000
# 2 -0.002120 0.008174 0.000207 0.000000 0.000000 0.000000
# 3 0.000030 0.000207 0.013150 0.000000 0.000000 0.000000
# 4 0.000000 0.000000 0.000000 -0.039354 0.000000 0.000000
# 5 0.000000 0.000000 0.000000 0.000000 0.092546 0.000000
# 6 0.000000 0.000000 0.000000 0.000000 0.000000 0.024892
#
#
# Mechanical properties :
#
#
# Convention : Reuss Voigt Hill
#
# Bulk Modulus (GPa) = 35.65844 39.18469 37.42156
# Shear Modulus (GPa) = 40.64672 23.94637 32.29655
#
# Velocity S-wave (km/s) = 4.27431 3.28075 3.81006
# Velocity P-wave (km/s) = 6.35510 5.65365 6.01461
#
# Compressibility (1/GPa) = 0.02804385
#
# Stress axis : x y z
#
# Youngs Moduli (GPa) = 95.34219 122.34568 76.04852
#
# Poissons Ratio (x) = 0.25940 -0.00226
# Poissons Ratio (y) = 0.20215 -0.01572
# Poissons Ratio (z) = -0.00283 -0.02528
#
# Static dielectric constant tensor:
#      x y z
#    x 1.797930 0.000000 0.000000 
#    y 0.000000 1.783420 0.000000 
#    z 0.000000 0.000000 1.897750 
# 
# From -- ./inp_files/10815.got.cif
#   From: 2010.05.17/outbox.cif.g08.bks.cpg/sg55_6_cif.got.tgz:10815.got - 2010.06.03 13:27:54.
