data_PCOD9425935
_publ_section_title
;
Structure prediction by ZEFSAII (Michael W. Deem and Ramdas Pophale) SiO2 
 PCOD9425935
Probable space group: P B A M
;
_chemical_formula_sum "Si O2"
_cell_formula_units_Z 64
_cell_length_a 9.229425
_cell_length_b 19.393689
_cell_length_c 16.660785
_cell_angle_alpha 90.000000
_cell_angle_beta 90.000000
_cell_angle_gamma 90.000000
_cell_volume 2982.157194
_symmetry_space_group_name_H-M "P B A M"
_symmetry_group_IT_number 55
_symmetry_cell_setting 'orthorhombic'
loop_
_space_group_symop_operation_xyz
x,y,z
-x,-y,z
1/2+x,1/2-y,-z
1/2-x,1/2+y,-z
-x,-y,-z
x,y,-z
1/2-x,1/2+y,z
1/2+x,1/2-y,z
loop_
_atom_site_type_symbol
_atom_site_label
_atom_site_fract_x
_atom_site_fract_y
_atom_site_fract_z
Si Si1 0.310719 0.268602 0.590745
Si Si2 0.445304 0.292437 0.135495
Si Si3 0.125477 0.331510 0.912118
Si Si4 0.609727 0.435062 0.908834
Si Si5 0.929360 0.575521 0.766536
Si Si6 0.327819 0.507968 0.740208
Si Si7 0.812588 0.371677 0.332360
Si Si8 0.425936 0.725419 0.695428
O O1 0.283723 0.289835 0.500000
O O2 0.324581 0.184025 0.596280
O O3 0.460058 0.296968 0.626980
O O4 0.177909 0.280988 0.651845
O O5 0.512716 0.230845 0.084514
O O6 0.275563 0.301745 0.122427
O O7 0.523208 0.364667 0.112525
O O8 0.480072 0.266452 0.225557
O O9 0.069118 0.388858 0.852139
O O10 0.155020 0.360204 0.000000
O O11 0.500000 0.500000 0.914044
O O12 0.699895 0.455954 0.828335
O O13 0.673917 0.427740 0.000000
O O14 0.762134 0.562943 0.742308
O O15 0.000000 0.500000 0.768460
O O16 0.032425 0.618174 0.707491
O O17 0.500000 0.500000 0.732010
O O18 0.260574 0.553266 0.667653
O O19 0.692880 0.331211 0.279668
#
# Coordination Sequence:
#
# PCOD9425935 Si02
#       8
#     8   8   8   8   8   8   8   8
#     4  10  20  37  63  95 128 158 193 248 312 380
#     4  12  24  42  60  87 128 169 218 266 323 398
#     4  12  26  40  58  88 125 171 219 277 339 380
#     4  10  19  33  56  85 116 157 212 271 323 363
#     4  10  23  41  64  86 124 167 221 277 324 389
#     4  10  19  37  63  88 117 163 223 274 310 374
#     4   9  21  39  56  93 120 160 202 257 317 381
#     4  10  21  37  61  88 126 161 204 245 310 387
#
# _framework density 21.460975000000001
#
# number of rings (size 3 to 8) (size 9 to 14) (size 15 to 20)
#    0.750    0.875    1.250    4.500    1.750    1.750 
#    0.000    3.125    0.000    3.750    0.000    0.000 
#    0.000    0.000    0.000    0.000    0.000    0.000 
#
# Total GULP energy -356478.291178 kJ/mol
# GULP energy per Si atom -5569.973300 kJ/mol
# Density = 2.141213 g / cm^3
# Si number density = 21.460975 Si / 1000 Ang^3
#
#
#
# Elastic Constant Matrix: (Units=GPa)
#
#
# Indices 1 2 3 4 5 6 
#
# 1 101.6612 11.0610 27.0532 0.0000 0.0000 0.0000
# 2 11.0610 70.8784 14.4616 0.0000 0.0000 0.0000
# 3 27.0532 14.4616 72.0025 0.0000 0.0000 0.0000
# 4 0.0000 0.0000 0.0000 18.6492 0.0000 0.0000
# 5 0.0000 0.0000 0.0000 0.0000 7.0019 0.0000
# 6 0.0000 0.0000 0.0000 0.0000 0.0000 32.9226
#
#
#
# Elastic Compliance Matrix: (Units=1/GPa)
#
#
# Indices 1 2 3 4 5 6 
#
# 1 0.010985 -0.000909 -0.003945 0.000000 0.000000 0.000000
# 2 -0.000909 0.014787 -0.002628 0.000000 0.000000 0.000000
# 3 -0.003945 -0.002628 0.015898 0.000000 0.000000 0.000000
# 4 0.000000 0.000000 0.000000 0.053622 0.000000 0.000000
# 5 0.000000 0.000000 0.000000 0.000000 0.142818 0.000000
# 6 0.000000 0.000000 0.000000 0.000000 0.000000 0.030374
#
#
# Mechanical properties :
#
#
# Convention : Reuss Voigt Hill
#
# Bulk Modulus (GPa) = 37.44524 38.85485 38.15005
# Shear Modulus (GPa) = 17.10274 24.51251 20.80762
#
# Velocity S-wave (km/s) = 2.82604 3.38330 3.11715
# Velocity P-wave (km/s) = 5.30421 5.77983 5.54712
#
# Compressibility (1/GPa) = 0.02670567
#
# Stress axis : x y z
#
# Youngs Moduli (GPa) = 91.03079 67.62770 62.89924
#
# Poissons Ratio (x) = 0.06150 0.24812
# Poissons Ratio (y) = 0.08279 0.16531
# Poissons Ratio (z) = 0.35910 0.17774
#
# Static dielectric constant tensor:
#      x y z
#    x 1.806540 0.000000 0.000000 
#    y 0.000000 1.856780 0.000000 
#    z 0.000000 0.000000 1.799790 
# 
# From -- ./inp_files/21112.got.cif
#   From: 2010.05.17/outbox.cif.g08.bks.cpg/sg55_11_cif.got.tgz:21112.got - 2010.06.03 13:27:54.
