data_PCOD9425057
_publ_section_title
;
Structure prediction by ZEFSAII (Michael W. Deem and Ramdas Pophale) SiO2 
 PCOD9425057
Probable space group: P B A M
;
_chemical_formula_sum "Si O2"
_cell_formula_units_Z 52
_cell_length_a 32.484302
_cell_length_b 4.915929
_cell_length_c 18.599212
_cell_angle_alpha 90.000000
_cell_angle_beta 90.000000
_cell_angle_gamma 90.000000
_cell_volume 2970.117878
_symmetry_space_group_name_H-M "P B A M"
_symmetry_group_IT_number 55
_symmetry_cell_setting 'orthorhombic'
loop_
_space_group_symop_operation_xyz
x,y,z
-x,-y,z
1/2+x,1/2-y,-z
1/2-x,1/2+y,-z
-x,-y,-z
x,y,-z
1/2-x,1/2+y,z
1/2+x,1/2-y,z
loop_
_atom_site_type_symbol
_atom_site_label
_atom_site_fract_x
_atom_site_fract_y
_atom_site_fract_z
Si Si1 0.221498 0.045394 0.420885
Si Si2 0.720241 0.333265 0.843146
Si Si3 0.527109 0.729599 0.353420
Si Si4 0.883044 0.474269 0.336750
Si Si5 0.777645 0.951776 0.000000
Si Si6 0.437408 0.384397 0.500000
Si Si7 0.161917 0.039263 0.288585
Si Si8 0.113540 0.393107 0.500000
O O1 0.202148 0.091009 0.500000
O O2 0.238990 0.741520 0.416999
O O3 0.192079 0.102751 0.355215
O O4 0.758996 0.539042 0.835526
O O5 0.686582 0.396963 0.783427
O O6 0.702672 0.378039 0.923713
O O7 0.500000 0.500000 0.311947
O O8 0.540187 0.566965 0.425758
O O9 0.500000 0.000000 0.365270
O O10 0.571512 0.847139 0.328353
O O11 0.851666 0.270211 0.298348
O O12 0.870750 0.507955 0.421885
O O13 0.877343 0.767447 0.301040
O O14 0.736136 0.765144 0.000000
O O15 0.396813 0.573753 0.500000
O O16 0.429578 0.060418 0.500000
#
# Coordination Sequence:
#
# PCOD9425057 Si02
#       8
#     8   8   8   8   4   4   8   4
#     4  10  21  35  49  64  84 119 169 210 240 272
#     4  10  19  34  55  78 103 134 166 198 243 294
#     4  11  20  34  51  67  91 122 160 208 256 310
#     4  11  24  34  48  71  94 127 167 205 258 297
#     4   8  16  30  52  80 104 126 160 196 232 296
#     4  10  18  31  50  68  82 109 155 208 257 301
#     4  12  22  34  51  70 100 129 162 209 251 292
#     4  10  20  35  46  62  92 121 159 208 251 301
#
# _framework density 17.507721
#
# number of rings (size 3 to 8) (size 9 to 14) (size 15 to 20)
#    0.000    1.538    0.000    7.846    2.154    0.000 
#    0.000    0.000    0.000    0.000    0.000    0.000 
#    0.000    0.000    0.000   13.846    0.000    0.000 
#
# Total GULP energy -289957.658990 kJ/mol
# GULP energy per Si atom -5576.108827 kJ/mol
# Density = 1.746787 g / cm^3
# Si number density = 17.507721 Si / 1000 Ang^3
#
#
#
# Elastic Constant Matrix: (Units=GPa)
#
#
# Indices 1 2 3 4 5 6 
#
# 1 46.1352 -1.8941 26.7166 0.0000 0.0000 0.0000
# 2 -1.8941 63.6182 -1.4845 0.0000 0.0000 0.0000
# 3 26.7166 -1.4845 79.3701 0.0000 0.0000 0.0000
# 4 0.0000 0.0000 0.0000 9.6478 0.0000 0.0000
# 5 0.0000 0.0000 0.0000 0.0000 10.0006 0.0000
# 6 0.0000 0.0000 0.0000 0.0000 0.0000 34.0407
#
#
#
# Elastic Compliance Matrix: (Units=1/GPa)
#
#
# Indices 1 2 3 4 5 6 
#
# 1 0.026946 0.000591 -0.009059 0.000000 0.000000 0.000000
# 2 0.000591 0.015739 0.000095 0.000000 0.000000 0.000000
# 3 -0.009059 0.000095 0.015650 0.000000 0.000000 0.000000
# 4 0.000000 0.000000 0.000000 0.103651 0.000000 0.000000
# 5 0.000000 0.000000 0.000000 0.000000 0.099994 0.000000
# 6 0.000000 0.000000 0.000000 0.000000 0.000000 0.029377
#
#
# Mechanical properties :
#
#
# Convention : Reuss Voigt Hill
#
# Bulk Modulus (GPa) = 24.04473 26.19994 25.12234
# Shear Modulus (GPa) = 15.52965 21.79019 18.65992
#
# Velocity S-wave (km/s) = 2.98151 3.53172 3.26822
# Velocity P-wave (km/s) = 5.06124 5.62388 5.34996
#
# Compressibility (1/GPa) = 0.04158915
#
# Stress axis : x y z
#
# Youngs Moduli (GPa) = 37.11168 63.53813 63.89637
#
# Poissons Ratio (x) = -0.03754 0.57884
# Poissons Ratio (y) = -0.02193 -0.00610
# Poissons Ratio (z) = 0.33620 -0.00607
#
# Static dielectric constant tensor:
#      x y z
#    x 1.633100 0.000000 0.000000 
#    y 0.000000 1.627060 0.000000 
#    z 0.000000 0.000000 1.598470 
# 
# From -- ./inp_files/22089.got.cif
#   From: 2010.05.17/outbox.cif.g08.bks.cpg/sg55_12_cif.got.tgz:22089.got - 2010.06.03 13:27:54.
