data_PCOD9425006
_publ_section_title
;
Structure prediction by ZEFSAII (Michael W. Deem and Ramdas Pophale) SiO2 
 PCOD9425006
Probable space group: P B A M
;
_chemical_formula_sum "Si O2"
_cell_formula_units_Z 58
_cell_length_a 15.444487
_cell_length_b 19.388878
_cell_length_c 7.734997
_cell_angle_alpha 90.000000
_cell_angle_beta 90.000000
_cell_angle_gamma 90.000000
_cell_volume 2316.254708
_symmetry_space_group_name_H-M "P B A M"
_symmetry_group_IT_number 55
_symmetry_cell_setting 'orthorhombic'
loop_
_space_group_symop_operation_xyz
x,y,z
-x,-y,z
1/2+x,1/2-y,-z
1/2-x,1/2+y,-z
-x,-y,-z
x,y,-z
1/2-x,1/2+y,z
1/2+x,1/2-y,z
loop_
_atom_site_type_symbol
_atom_site_label
_atom_site_fract_x
_atom_site_fract_y
_atom_site_fract_z
Si Si1 0.000000 0.500000 0.000000
Si Si2 0.778216 0.215300 0.800575
Si Si3 0.534621 0.356540 0.200629
Si Si4 0.808157 0.930613 0.294362
Si Si5 0.621206 0.977294 0.303148
Si Si6 0.611901 0.135156 0.786161
Si Si7 0.373417 0.423489 0.699175
Si Si8 0.053807 0.714212 0.788858
O O1 0.055978 0.537108 0.151288
O O2 0.683508 0.192389 0.734216
O O3 0.830398 0.142249 0.791702
O O4 0.847428 0.271066 0.726384
O O5 0.764319 0.234465 0.000000
O O6 0.635846 0.368472 0.222811
O O7 0.476505 0.413463 0.294822
O O8 0.498675 0.283610 0.259032
O O9 0.513886 0.363239 0.000000
O O10 0.821332 0.930004 0.500000
O O11 0.706981 0.934195 0.264354
O O12 0.845673 0.003293 0.225644
O O13 0.594036 0.964354 0.500000
O O14 0.638456 0.060044 0.283917
O O15 0.515855 0.157648 0.729118
O O16 0.611176 0.127907 0.000000
O O17 0.343970 0.420299 0.500000
O O18 0.057568 0.710515 0.000000
#
# Coordination Sequence:
#
# PCOD9425006 Si02
#       8
#     2   8   8   8   8   8   8   8
#     4  12  26  48  68  94 118 164 198 252 334 376
#     4   9  17  30  53  82 112 152 204 261 310 374
#     4  10  20  32  50  80 124 163 198 242 300 375
#     4  10  21  35  54  83 119 156 198 252 308 368
#     4  11  24  43  68  97 126 159 213 275 317 377
#     4  10  18  35  63  87 118 161 212 258 320 385
#     4  10  18  30  49  77 115 154 191 238 304 367
#     4   8  17  33  51  81 123 160 206 259 317 379
#
# _framework density 25.040424999999999
#
# number of rings (size 3 to 8) (size 9 to 14) (size 15 to 20)
#    0.000    2.207    2.069    2.276    0.966    2.759 
#    0.000    4.828    3.034    0.000    0.000    0.000 
#    0.000    0.000    0.000    0.000    0.000    0.000 
#
# Total GULP energy -323588.986420 kJ/mol
# GULP energy per Si atom -5579.120456 kJ/mol
# Density = 2.498343 g / cm^3
# Si number density = 25.040425 Si / 1000 Ang^3
#
#
#
# Elastic Constant Matrix: (Units=GPa)
#
#
# Indices 1 2 3 4 5 6 
#
# 1 117.8511 51.3016 39.6155 0.0000 0.0000 0.0000
# 2 51.3016 83.1289 7.2651 0.0000 0.0000 0.0000
# 3 39.6155 7.2651 82.2575 0.0000 0.0000 0.0000
# 4 0.0000 0.0000 0.0000 13.6589 0.0000 0.0000
# 5 0.0000 0.0000 0.0000 0.0000 27.1690 0.0000
# 6 0.0000 0.0000 0.0000 0.0000 0.0000 32.9726
#
#
#
# Elastic Compliance Matrix: (Units=1/GPa)
#
#
# Indices 1 2 3 4 5 6 
#
# 1 0.014071 -0.008154 -0.006056 0.000000 0.000000 0.000000
# 2 -0.008154 0.016849 0.002439 0.000000 0.000000 0.000000
# 3 -0.006056 0.002439 0.014858 0.000000 0.000000 0.000000
# 4 0.000000 0.000000 0.000000 0.073212 0.000000 0.000000
# 5 0.000000 0.000000 0.000000 0.000000 0.036807 0.000000
# 6 0.000000 0.000000 0.000000 0.000000 0.000000 0.030328
#
#
# Mechanical properties :
#
#
# Convention : Reuss Voigt Hill
#
# Bulk Modulus (GPa) = 44.97506 53.28910 49.13208
# Shear Modulus (GPa) = 23.03307 27.09712 25.06510
#
# Velocity S-wave (km/s) = 3.03617 3.29315 3.16727
# Velocity P-wave (km/s) = 5.50373 5.98224 5.74797
#
# Compressibility (1/GPa) = 0.02223455
#
# Stress axis : x y z
#
# Youngs Moduli (GPa) = 71.06967 59.35214 67.30256
#
# Poissons Ratio (x) = 0.48397 0.40761
# Poissons Ratio (y) = 0.57952 -0.16415
# Poissons Ratio (z) = 0.43042 -0.14476
#
# Static dielectric constant tensor:
#      x y z
#    x -0.772760 0.000000 0.000000 
#    y 0.000000 2.289980 0.000000 
#    z 0.000000 0.000000 1.899320 
# 
# From -- ./inp_files/6438.got.cif
#   From: 2010.05.17/outbox.cif.g08.bks.cpg/sg55_4_cif.got.tgz:6438.got - 2010.06.03 13:27:54.
