data_PCOD9425942
_publ_section_title
;
Structure prediction by ZEFSAII (Michael W. Deem and Ramdas Pophale) SiO2 
 PCOD9425942
Probable space group: P B A M
;
_chemical_formula_sum "Si O2"
_cell_formula_units_Z 64
_cell_length_a 22.428950
_cell_length_b 16.480973
_cell_length_c 7.635060
_cell_angle_alpha 90.000000
_cell_angle_beta 90.000000
_cell_angle_gamma 90.000000
_cell_volume 2822.306948
_symmetry_space_group_name_H-M "P B A M"
_symmetry_group_IT_number 55
_symmetry_cell_setting 'orthorhombic'
loop_
_space_group_symop_operation_xyz
x,y,z
-x,-y,z
1/2+x,1/2-y,-z
1/2-x,1/2+y,-z
-x,-y,-z
x,y,-z
1/2-x,1/2+y,z
1/2+x,1/2-y,z
loop_
_atom_site_type_symbol
_atom_site_label
_atom_site_fract_x
_atom_site_fract_y
_atom_site_fract_z
Si Si1 0.065758 0.033034 0.801833
Si Si2 0.104070 0.866969 0.206369
Si Si3 0.597188 0.300100 0.303055
Si Si4 0.059864 0.542315 0.203172
Si Si5 0.270537 0.669338 0.796713
Si Si6 0.243981 0.844363 0.792366
Si Si7 0.695621 0.987908 0.784620
Si Si8 0.481506 0.218152 0.706132
O O1 0.099045 0.957328 0.717430
O O2 0.063178 0.114588 0.694484
O O3 0.088631 0.049711 0.000000
O O4 0.000000 0.000000 0.818826
O O5 0.173213 0.848603 0.219422
O O6 0.061776 0.795732 0.274000
O O7 0.088288 0.874498 0.000000
O O8 0.611475 0.273048 0.500000
O O9 0.657999 0.327442 0.211728
O O10 0.548294 0.238626 0.223796
O O11 0.126458 0.522860 0.272837
O O12 0.048042 0.638658 0.212267
O O13 0.000000 0.500000 0.280317
O O14 0.062281 0.516249 0.000000
O O15 0.257040 0.756495 0.712267
O O16 0.237285 0.588704 0.727602
O O17 0.251246 0.672742 0.000000
O O18 0.276621 0.925693 0.726318
O O19 0.260620 0.841149 0.000000
O O20 0.696825 0.987757 0.000000
O O21 0.488421 0.202500 0.500000
#
# Coordination Sequence:
#
# PCOD9425942 Si02
#       8
#     8   8   8   8   8   8   8   8
#     4  10  19  33  56  87 115 147 188 233 282 336
#     4  10  19  35  60  88 117 149 193 240 285 342
#     4  11  24  38  54  80 119 160 195 235 287 343
#     4  10  22  39  65  94 116 145 192 248 298 350
#     4  10  20  35  59  83 110 152 195 239 290 341
#     4   9  18  32  57  87 114 148 186 237 297 343
#     4   9  18  36  58  88 123 147 185 243 300 351
#     4  11  24  39  56  82 119 161 195 237 295 349
#
# _framework density 22.676485
#
# number of rings (size 3 to 8) (size 9 to 14) (size 15 to 20)
#    0.000    2.000    1.250    2.250    1.750    6.500 
#    0.000    2.500    0.000    1.500    0.000    0.000 
#    0.000    0.000    0.000    0.000    0.000    0.000 
#
# Total GULP energy -356749.064573 kJ/mol
# GULP energy per Si atom -5574.204134 kJ/mol
# Density = 2.262487 g / cm^3
# Si number density = 22.676485 Si / 1000 Ang^3
#
#
#
# Elastic Constant Matrix: (Units=GPa)
#
#
# Indices 1 2 3 4 5 6 
#
# 1 62.9762 48.7352 4.4365 0.0000 0.0000 0.0000
# 2 48.7352 88.8744 1.5729 0.0000 0.0000 0.0000
# 3 4.4365 1.5729 47.2769 0.0000 0.0000 0.0000
# 4 0.0000 0.0000 0.0000 27.3590 0.0000 0.0000
# 5 0.0000 0.0000 0.0000 0.0000 3.6717 0.0000
# 6 0.0000 0.0000 0.0000 0.0000 0.0000 25.7438
#
#
#
# Elastic Compliance Matrix: (Units=1/GPa)
#
#
# Indices 1 2 3 4 5 6 
#
# 1 0.027792 -0.015203 -0.002102 0.000000 0.000000 0.000000
# 2 -0.015203 0.019575 0.000775 0.000000 0.000000 0.000000
# 3 -0.002102 0.000775 0.021323 0.000000 0.000000 0.000000
# 4 0.000000 0.000000 0.000000 0.036551 0.000000 0.000000
# 5 0.000000 0.000000 0.000000 0.000000 0.272353 0.000000
# 6 0.000000 0.000000 0.000000 0.000000 0.000000 0.038844
#
#
# Mechanical properties :
#
#
# Convention : Reuss Voigt Hill
#
# Bulk Modulus (GPa) = 28.06555 34.29076 31.17816
# Shear Modulus (GPa) = 10.83717 20.98042 15.90880
#
# Velocity S-wave (km/s) = 2.18847 3.04502 2.65156
# Velocity P-wave (km/s) = 4.33466 5.24570 4.81179
#
# Compressibility (1/GPa) = 0.03563087
#
# Stress axis : x y z
#
# Youngs Moduli (GPa) = 35.98145 51.08619 46.89673
#
# Poissons Ratio (x) = 0.77666 0.09859
# Poissons Ratio (y) = 0.54702 -0.03636
# Poissons Ratio (z) = 0.07564 -0.03961
#
# Static dielectric constant tensor:
#      x y z
#    x 2.689100 0.000000 0.000000 
#    y 0.000000 1.871350 0.000000 
#    z 0.000000 0.000000 1.894760 
# 
# From -- ./inp_files/9686.got.cif
#   From: 2010.05.17/outbox.cif.g08.bks.cpg/sg55_5_cif.got.tgz:9686.got - 2010.06.03 13:27:54.
