data_PCOD9425152
_publ_section_title
;
Structure prediction by ZEFSAII (Michael W. Deem and Ramdas Pophale) SiO2 
 PCOD9425152
Probable space group: P B A M
;
_chemical_formula_sum "Si O2"
_cell_formula_units_Z 64
_cell_length_a 18.908902
_cell_length_b 18.908946
_cell_length_c 10.281804
_cell_angle_alpha 90.000000
_cell_angle_beta 90.000000
_cell_angle_gamma 90.000000
_cell_volume 3676.232358
_symmetry_space_group_name_H-M "P B A M"
_symmetry_group_IT_number 55
_symmetry_cell_setting 'orthorhombic'
loop_
_space_group_symop_operation_xyz
x,y,z
-x,-y,z
1/2+x,1/2-y,-z
1/2-x,1/2+y,-z
-x,-y,-z
x,y,-z
1/2-x,1/2+y,z
1/2+x,1/2-y,z
loop_
_atom_site_type_symbol
_atom_site_label
_atom_site_fract_x
_atom_site_fract_y
_atom_site_fract_z
Si Si1 0.793768 0.452725 0.343360
Si Si2 0.333700 0.333701 0.654175
Si Si3 0.168713 0.052698 0.142611
Si Si4 0.947301 0.831288 0.857389
Si Si5 0.452726 0.793767 0.656640
Si Si6 0.681065 0.111873 0.657173
Si Si7 0.888125 0.318933 0.342827
Si Si8 0.556148 0.556149 0.240413
O O1 0.781543 0.449692 0.500000
O O2 0.721844 0.450682 0.262198
O O3 0.827474 0.529084 0.312727
O O4 0.841561 0.386064 0.303520
O O5 0.324896 0.324897 0.500000
O O6 0.257199 0.359381 0.706184
O O7 0.359379 0.257201 0.706184
O O8 0.393457 0.393457 0.674352
O O9 0.125853 0.125853 0.147593
O O10 0.110015 0.991625 0.158452
O O11 0.202944 0.045950 0.000000
O O12 0.950680 0.778157 0.737803
O O13 0.008375 0.889984 0.841547
O O14 0.954048 0.797057 0.000000
O O15 0.449692 0.781543 0.500000
O O16 0.386066 0.841562 0.696480
O O17 0.529085 0.827471 0.687273
O O18 0.683588 0.116122 0.500000
O O19 0.883876 0.316411 0.500000
O O20 0.500000 0.500000 0.303141
#
# Coordination Sequence:
#
# PCOD9425152 Si02
#       8
#     8   8   8   8   8   8   8   8
#     4  10  20  36  57  80 106 144 186 225 270 318
#     4  10  18  32  51  82 120 141 169 227 281 320
#     4  10  21  36  54  79 113 145 179 222 268 324
#     4  10  21  36  54  79 113 145 179 222 268 324
#     4  10  20  36  57  80 106 144 186 225 270 318
#     4   9  19  33  53  80 111 142 179 228 274 316
#     4   9  19  33  53  80 111 142 179 228 274 316
#     4  10  19  33  56  79 106 148 183 214 272 339
#
# _framework density 17.409127999999999
#
# number of rings (size 3 to 8) (size 9 to 14) (size 15 to 20)
#    0.000    2.250    2.500    0.375    1.750    2.750 
#    0.000    6.250    0.000    0.000    0.000    1.750 
#    0.000    0.000    0.000    0.000    0.000    0.000 
#
# Total GULP energy -356367.238983 kJ/mol
# GULP energy per Si atom -5568.238109 kJ/mol
# Density = 1.736950 g / cm^3
# Si number density = 17.409128 Si / 1000 Ang^3
#
#
#
# Elastic Constant Matrix: (Units=GPa)
#
#
# Indices 1 2 3 4 5 6 
#
# 1 103.2875 86.0226 29.1307 0.0000 0.0000 0.0000
# 2 86.0226 103.2973 29.1322 0.0000 0.0000 0.0000
# 3 29.1307 29.1322 41.8098 0.0000 0.0000 0.0000
# 4 0.0000 0.0000 0.0000 4.6757 0.0000 0.0000
# 5 0.0000 0.0000 0.0000 0.0000 4.6758 0.0000
# 6 0.0000 0.0000 0.0000 0.0000 0.0000 26.9334
#
#
#
# Elastic Compliance Matrix: (Units=1/GPa)
#
#
# Indices 1 2 3 4 5 6 
#
# 1 0.032316 -0.025590 -0.004685 0.000000 0.000000 0.000000
# 2 -0.025590 0.032313 -0.004685 0.000000 0.000000 0.000000
# 3 -0.004685 -0.004685 0.030447 0.000000 0.000000 0.000000
# 4 0.000000 0.000000 0.000000 0.213871 0.000000 0.000000
# 5 0.000000 0.000000 0.000000 0.000000 0.213869 0.000000
# 6 0.000000 0.000000 0.000000 0.000000 0.000000 0.037129
#
#
# Mechanical properties :
#
#
# Convention : Reuss Voigt Hill
#
# Bulk Modulus (GPa) = 39.75443 59.66287 49.70865
# Shear Modulus (GPa) = 7.83393 14.19757 11.01575
#
# Velocity S-wave (km/s) = 2.12360 2.85884 2.51820
# Velocity P-wave (km/s) = 5.37567 6.72627 6.08854
#
# Compressibility (1/GPa) = 0.02515443
#
# Stress axis : x y z
#
# Youngs Moduli (GPa) = 30.94460 30.94749 32.84440
#
# Poissons Ratio (x) = 0.79195 0.15388
# Poissons Ratio (y) = 0.79188 0.15388
# Poissons Ratio (z) = 0.14498 0.14499
#
# Static dielectric constant tensor:
#      x y z
#    x 1.600520 0.000000 0.000000 
#    y 0.000000 1.600520 0.000000 
#    z 0.000000 0.000000 1.578400 
# 
# From -- ./inp_files/15048.got.cif
#   From: 2010.05.17/outbox.cif.g08.bks.cpg/sg55_8_cif.got.tgz:15048.got - 2010.06.03 13:27:54.
