data_PCOD9425181
_publ_section_title
;
Structure prediction by ZEFSAII (Michael W. Deem and Ramdas Pophale) SiO2 
 PCOD9425181
Probable space group: P B A M
;
_chemical_formula_sum "Si O2"
_cell_formula_units_Z 64
_cell_length_a 18.093347
_cell_length_b 21.223037
_cell_length_c 8.821840
_cell_angle_alpha 90.000000
_cell_angle_beta 90.000000
_cell_angle_gamma 90.000000
_cell_volume 3387.549269
_symmetry_space_group_name_H-M "P B A M"
_symmetry_group_IT_number 55
_symmetry_cell_setting 'orthorhombic'
loop_
_space_group_symop_operation_xyz
x,y,z
-x,-y,z
1/2+x,1/2-y,-z
1/2-x,1/2+y,-z
-x,-y,-z
x,y,-z
1/2-x,1/2+y,z
1/2+x,1/2-y,z
loop_
_atom_site_type_symbol
_atom_site_label
_atom_site_fract_x
_atom_site_fract_y
_atom_site_fract_z
Si Si1 0.801148 0.498602 0.675057
Si Si2 0.204122 0.631824 0.818355
Si Si3 0.629070 0.632992 0.181567
Si Si4 0.580818 0.769069 0.184143
Si Si5 0.302756 0.870088 0.182422
Si Si6 0.878879 0.002692 0.674675
Si Si7 0.631965 0.365219 0.317490
Si Si8 0.417895 0.763972 0.817208
O O1 0.822290 0.491379 0.500000
O O2 0.823278 0.437509 0.770616
O O3 0.827857 0.564497 0.743259
O O4 0.711144 0.501241 0.680470
O O5 0.146080 0.684720 0.766316
O O6 0.283973 0.640641 0.742286
O O7 0.212668 0.635473 0.000000
O O8 0.591725 0.697214 0.237153
O O9 0.716340 0.638954 0.220478
O O10 0.598901 0.566869 0.243400
O O11 0.623724 0.630868 0.000000
O O12 0.498455 0.790872 0.223096
O O13 0.585322 0.767695 0.000000
O O14 0.352688 0.811150 0.230083
O O15 0.307617 0.875662 0.000000
O O16 0.901844 0.007261 0.500000
O O17 0.899869 0.933329 0.734813
O O18 0.632639 0.366364 0.500000
O O19 0.590491 0.304620 0.254942
O O20 0.413839 0.757264 0.000000
#
# Coordination Sequence:
#
# PCOD9425181 Si02
#       8
#     8   8   8   8   8   8   8   8
#     4   9  17  30  49  75 104 129 160 207 255 299
#     4  10  18  32  55  78 101 132 169 209 254 303
#     4   9  16  29  50  74  97 122 160 206 247 291
#     4   9  19  34  51  74 103 133 168 212 255 296
#     4   9  17  30  51  76  98 127 168 208 249 301
#     4   8  16  30  47  70  98 125 157 200 248 296
#     4  10  20  34  52  76 104 132 167 210 255 305
#     4  10  20  35  53  73 101 136 173 211 251 298
#
# _framework density 18.892713000000001
#
# number of rings (size 3 to 8) (size 9 to 14) (size 15 to 20)
#    0.000    2.750    0.000    2.625    0.000    6.000 
#    0.000    6.875    0.000    7.500    0.000    0.000 
#    0.000    0.000    0.000    0.000    0.000    0.000 
#
# Total GULP energy -356842.088068 kJ/mol
# GULP energy per Si atom -5575.657626 kJ/mol
# Density = 1.884971 g / cm^3
# Si number density = 18.892713 Si / 1000 Ang^3
#
#
#
# Elastic Constant Matrix: (Units=GPa)
#
#
# Indices 1 2 3 4 5 6 
#
# 1 41.8935 20.2291 11.2923 0.0000 0.0000 0.0000
# 2 20.2291 95.6693 12.9310 0.0000 0.0000 0.0000
# 3 11.2923 12.9310 15.0425 0.0000 0.0000 0.0000
# 4 0.0000 0.0000 0.0000 -3.9648 0.0000 0.0000
# 5 0.0000 0.0000 0.0000 0.0000 4.7885 0.0000
# 6 0.0000 0.0000 0.0000 0.0000 0.0000 -12.8245
#
#
#
# Elastic Compliance Matrix: (Units=1/GPa)
#
#
# Indices 1 2 3 4 5 6 
#
# 1 0.031146 -0.003876 -0.020049 0.000000 0.000000 0.000000
# 2 -0.003876 0.012309 -0.007672 0.000000 0.000000 0.000000
# 3 -0.020049 -0.007672 0.088124 0.000000 0.000000 0.000000
# 4 0.000000 0.000000 0.000000 -0.252221 0.000000 0.000000
# 5 0.000000 0.000000 0.000000 0.000000 0.208833 0.000000
# 6 0.000000 0.000000 0.000000 0.000000 0.000000 -0.077976
#
#
# Mechanical properties :
#
#
# Convention : Reuss Voigt Hill
#
# Bulk Modulus (GPa) = 14.62302 26.83446 20.72874
# Shear Modulus (GPa) = 51.97364 4.81005 28.39185
#
# Velocity S-wave (km/s) = 5.25068 1.59734 3.88079
# Velocity P-wave (km/s) = 6.67205 4.19958 5.57462
#
# Compressibility (1/GPa) = 0.06838533
#
# Stress axis : x y z
#
# Youngs Moduli (GPa) = 32.10714 81.24034 11.34770
#
# Poissons Ratio (x) = 0.31487 0.22751
# Poissons Ratio (y) = 0.12444 0.08706
# Poissons Ratio (z) = 0.64372 0.62326
#
# Static dielectric constant tensor:
#      x y z
#    x 1.650730 0.000000 0.000000 
#    y 0.000000 1.665210 0.000000 
#    z 0.000000 0.000000 1.639170 
# 
# From -- ./inp_files/8006.got.cif
#   From: 2010.05.17/outbox.cif.g08.bks.cpg/sg55_5_cif.got.tgz:8006.got - 2010.06.03 13:27:54.
