data_PCOD9425733
_publ_section_title
;
Structure prediction by ZEFSAII (Michael W. Deem and Ramdas Pophale) SiO2 
 PCOD9425733
Probable space group: P B A M
;
_chemical_formula_sum "Si O2"
_cell_formula_units_Z 58
_cell_length_a 24.227761
_cell_length_b 13.861302
_cell_length_c 9.654301
_cell_angle_alpha 90.000000
_cell_angle_beta 90.000000
_cell_angle_gamma 90.000000
_cell_volume 3242.187608
_symmetry_space_group_name_H-M "P B A M"
_symmetry_group_IT_number 55
_symmetry_cell_setting 'orthorhombic'
loop_
_space_group_symop_operation_xyz
x,y,z
-x,-y,z
1/2+x,1/2-y,-z
1/2-x,1/2+y,-z
-x,-y,-z
x,y,-z
1/2-x,1/2+y,z
1/2+x,1/2-y,z
loop_
_atom_site_type_symbol
_atom_site_label
_atom_site_fract_x
_atom_site_fract_y
_atom_site_fract_z
Si Si1 0.000000 0.000000 0.000000
Si Si2 0.609256 0.377955 0.840415
Si Si3 0.004824 0.894811 0.724448
Si Si4 0.606908 0.733609 0.653775
Si Si5 0.715787 0.240995 0.841264
Si Si6 0.708420 0.049795 0.660425
Si Si7 0.337260 0.468294 0.652606
Si Si8 0.325738 0.129913 0.164795
O O1 0.975901 0.071012 0.876533
O O2 0.555957 0.351437 0.750149
O O3 0.659410 0.303182 0.839225
O O4 0.633282 0.474431 0.773596
O O5 0.589715 0.395576 0.000000
O O6 0.047844 0.818879 0.666033
O O7 0.000000 0.000000 0.650766
O O8 0.612465 0.777364 0.500000
O O9 0.649481 0.644271 0.663082
O O10 0.624318 0.807981 0.771419
O O11 0.709095 0.153475 0.735061
O O12 0.768606 0.309399 0.810969
O O13 0.723386 0.204833 0.000000
O O14 0.689909 0.054990 0.500000
O O15 0.772274 0.016677 0.659069
O O16 0.677495 0.970473 0.752552
O O17 0.357274 0.500921 0.500000
O O18 0.330386 0.115472 0.000000
#
# Coordination Sequence:
#
# PCOD9425733 Si02
#       8
#     2   8   8   8   8   8   8   8
#     4   8  16  32  50  84 112 150 186 224 284 342
#     4  11  20  35  55  82 116 151 189 233 278 336
#     4  10  19  32  55  80 114 150 186 232 283 334
#     4  11  23  37  54  82 119 155 192 231 282 343
#     4  10  22  36  55  83 113 148 188 231 279 333
#     4  11  22  38  57  80 116 152 189 233 279 336
#     4  10  20  32  52  80 114 152 185 226 274 333
#     4  11  23  37  59  85 113 149 192 237 283 336
#
# _framework density 17.889154999999999
#
# number of rings (size 3 to 8) (size 9 to 14) (size 15 to 20)
#    0.414    1.103    4.828    0.828    0.966    3.034 
#    0.000    0.000    0.000    0.828    0.000    4.828 
#    0.000    0.000    0.000    0.000    0.000    0.000 
#
# Total GULP energy -322887.665803 kJ/mol
# GULP energy per Si atom -5567.028721 kJ/mol
# Density = 1.784844 g / cm^3
# Si number density = 17.889155 Si / 1000 Ang^3
#
#
#
# Elastic Constant Matrix: (Units=GPa)
#
#
# Indices 1 2 3 4 5 6 
#
# 1 49.2539 -2.2955 8.1721 0.0000 0.0000 0.0000
# 2 -2.2955 48.8799 47.3534 0.0000 0.0000 0.0000
# 3 8.1721 47.3534 113.6606 0.0000 0.0000 0.0000
# 4 0.0000 0.0000 0.0000 8.3286 0.0000 0.0000
# 5 0.0000 0.0000 0.0000 0.0000 14.1996 0.0000
# 6 0.0000 0.0000 0.0000 0.0000 0.0000 24.3862
#
#
#
# Elastic Compliance Matrix: (Units=1/GPa)
#
#
# Indices 1 2 3 4 5 6 
#
# 1 0.021030 0.004112 -0.003225 0.000000 0.000000 0.000000
# 2 0.004112 0.035108 -0.014922 0.000000 0.000000 0.000000
# 3 -0.003225 -0.014922 0.015247 0.000000 0.000000 0.000000
# 4 0.000000 0.000000 0.000000 0.120068 0.000000 0.000000
# 5 0.000000 0.000000 0.000000 0.000000 0.070424 0.000000
# 6 0.000000 0.000000 0.000000 0.000000 0.000000 0.041007
#
#
# Mechanical properties :
#
#
# Convention : Reuss Voigt Hill
#
# Bulk Modulus (GPa) = 23.08746 35.36161 29.22453
# Shear Modulus (GPa) = 14.47628 19.95384 17.21506
#
# Velocity S-wave (km/s) = 2.84777 3.34341 3.10549
# Velocity P-wave (km/s) = 4.87308 5.89190 5.40654
#
# Compressibility (1/GPa) = 0.04331355
#
# Stress axis : x y z
#
# Youngs Moduli (GPa) = 47.55173 28.48382 65.58696
#
# Poissons Ratio (x) = -0.11713 0.21153
# Poissons Ratio (y) = -0.19553 0.97870
# Poissons Ratio (z) = 0.15336 0.42504
#
# Static dielectric constant tensor:
#      x y z
#    x 1.495920 0.000000 0.000000 
#    y 0.000000 1.571890 0.000000 
#    z 0.000000 0.000000 1.556660 
# 
# From -- ./inp_files/9567.got.cif
#   From: 2010.05.17/outbox.cif.g08.bks.cpg/sg55_5_cif.got.tgz:9567.got - 2010.06.03 13:27:54.
