data_PCOD9425226
_publ_section_title
;
Structure prediction by ZEFSAII (Michael W. Deem and Ramdas Pophale) SiO2 
 PCOD9425226
Probable space group: P B A M
;
_chemical_formula_sum "Si O2"
_cell_formula_units_Z 56
_cell_length_a 13.758749
_cell_length_b 14.195823
_cell_length_c 14.142427
_cell_angle_alpha 90.000000
_cell_angle_beta 90.000000
_cell_angle_gamma 90.000000
_cell_volume 2762.253098
_symmetry_space_group_name_H-M "P B A M"
_symmetry_group_IT_number 55
_symmetry_cell_setting 'orthorhombic'
loop_
_space_group_symop_operation_xyz
x,y,z
-x,-y,z
1/2+x,1/2-y,-z
1/2-x,1/2+y,-z
-x,-y,-z
x,y,-z
1/2-x,1/2+y,z
1/2+x,1/2-y,z
loop_
_atom_site_type_symbol
_atom_site_label
_atom_site_fract_x
_atom_site_fract_y
_atom_site_fract_z
Si Si1 0.105786 0.460209 0.690436
Si Si2 0.150265 0.257294 0.894626
Si Si3 0.631463 0.375400 0.387856
Si Si4 0.983119 0.740511 0.732579
Si Si5 0.884066 0.518672 0.101595
Si Si6 0.794911 0.264581 0.727421
Si Si7 0.700149 0.575655 0.392895
O O1 0.083493 0.349473 0.707529
O O2 0.144769 0.504710 0.790187
O O3 0.190338 0.466341 0.614467
O O4 0.000000 0.500000 0.665183
O O5 0.056727 0.224751 0.833945
O O6 0.137694 0.370131 0.903165
O O7 0.243366 0.237135 0.829467
O O8 0.155922 0.217828 0.000000
O O9 0.635646 0.361083 0.500000
O O10 0.540193 0.321008 0.343164
O O11 0.725816 0.327915 0.338669
O O12 0.632123 0.487010 0.369815
O O13 0.093107 0.707087 0.734360
O O14 0.000000 0.500000 0.102688
O O15 0.847984 0.477692 0.000000
O O16 0.801313 0.160543 0.680888
O O17 0.681183 0.608301 0.500000
#
# Coordination Sequence:
#
# PCOD9425226 Si02
#       7
#     8   8   8   8   8   8   8
#     4  10  18  33  55  83 112 146 188 245 294 340
#     4   9  18  35  57  85 116 151 192 237 294 353
#     4  10  22  39  58  84 117 156 199 243 291 347
#     4  10  21  36  57  84 118 154 193 239 291 346
#     4   8  13  24  47  77 107 137 172 221 282 340
#     4  11  21  38  59  86 117 157 192 244 295 345
#     4  11  22  37  57  82 115 154 199 243 290 348
#
# _framework density 20.273306000000002
#
# number of rings (size 3 to 8) (size 9 to 14) (size 15 to 20)
#    0.000    2.143    4.286    1.286    0.000    2.571 
#    0.000    1.429    0.000   12.000    0.000    5.000 
#    0.000    0.000    0.000    0.000    0.000    0.000 
#
# Total GULP energy -312140.171779 kJ/mol
# GULP energy per Si atom -5573.931639 kJ/mol
# Density = 2.022716 g / cm^3
# Si number density = 20.273306 Si / 1000 Ang^3
#
#
#
# Elastic Constant Matrix: (Units=GPa)
#
#
# Indices 1 2 3 4 5 6 
#
# 1 55.8315 -3.6222 4.6613 0.0000 0.0000 0.0000
# 2 -3.6222 52.4074 27.3633 0.0000 0.0000 0.0000
# 3 4.6613 27.3633 103.1699 0.0000 0.0000 0.0000
# 4 0.0000 0.0000 0.0000 20.7855 0.0000 0.0000
# 5 0.0000 0.0000 0.0000 0.0000 15.0601 0.0000
# 6 0.0000 0.0000 0.0000 0.0000 0.0000 28.1617
#
#
#
# Elastic Compliance Matrix: (Units=1/GPa)
#
#
# Indices 1 2 3 4 5 6 
#
# 1 0.018149 0.001953 -0.001338 0.000000 0.000000 0.000000
# 2 0.001953 0.022359 -0.006018 0.000000 0.000000 0.000000
# 3 -0.001338 -0.006018 0.011349 0.000000 0.000000 0.000000
# 4 0.000000 0.000000 0.000000 0.048110 0.000000 0.000000
# 5 0.000000 0.000000 0.000000 0.000000 0.066401 0.000000
# 6 0.000000 0.000000 0.000000 0.000000 0.000000 0.035509
#
#
# Mechanical properties :
#
#
# Convention : Reuss Voigt Hill
#
# Bulk Modulus (GPa) = 24.36000 29.80150 27.08075
# Shear Modulus (GPa) = 22.08791 25.00187 23.54489
#
# Velocity S-wave (km/s) = 3.30435 3.51556 3.41159
# Velocity P-wave (km/s) = 5.15754 5.58665 5.37638
#
# Compressibility (1/GPa) = 0.04105090
#
# Stress axis : x y z
#
# Youngs Moduli (GPa) = 55.09807 44.72553 88.11024
#
# Poissons Ratio (x) = -0.08735 0.11789
# Poissons Ratio (y) = -0.10761 0.53028
# Poissons Ratio (z) = 0.07372 0.26917
#
# Static dielectric constant tensor:
#      x y z
#    x 1.731940 0.000000 0.000000 
#    y 0.000000 1.748460 0.000000 
#    z 0.000000 0.000000 1.760380 
# 
# From -- ./inp_files/19022.got.cif
#   From: 2010.05.17/outbox.cif.g08.bks.cpg/sg55_10_cif.got.tgz:19022.got - 2010.06.03 13:27:54.
