data_PCOD9425416
_publ_section_title
;
Structure prediction by ZEFSAII (Michael W. Deem and Ramdas Pophale) SiO2 
 PCOD9425416
Probable space group: P B A M
;
_chemical_formula_sum "Si O2"
_cell_formula_units_Z 56
_cell_length_a 5.068067
_cell_length_b 16.840908
_cell_length_c 35.218976
_cell_angle_alpha 90.000000
_cell_angle_beta 90.000000
_cell_angle_gamma 90.000000
_cell_volume 3005.969541
_symmetry_space_group_name_H-M "P B A M"
_symmetry_group_IT_number 55
_symmetry_cell_setting 'orthorhombic'
loop_
_space_group_symop_operation_xyz
x,y,z
-x,-y,z
1/2+x,1/2-y,-z
1/2-x,1/2+y,-z
-x,-y,-z
x,y,-z
1/2-x,1/2+y,z
1/2+x,1/2-y,z
loop_
_atom_site_type_symbol
_atom_site_label
_atom_site_fract_x
_atom_site_fract_y
_atom_site_fract_z
Si Si1 0.822927 0.697917 0.813668
Si Si2 0.242462 0.945140 0.043576
Si Si3 0.118331 0.302802 0.900826
Si Si4 0.980707 0.805243 0.458842
Si Si5 0.006359 0.595120 0.256255
Si Si6 0.492826 0.404600 0.696050
Si Si7 0.629208 0.305296 0.622240
O O1 0.524231 0.727934 0.809150
O O2 0.855394 0.669552 0.857070
O O3 0.913485 0.635557 0.782363
O O4 0.299992 0.871161 0.070389
O O5 0.500000 0.000000 0.043169
O O6 0.186089 0.919586 0.000000
O O7 0.000000 0.000000 0.056615
O O8 0.323399 0.230071 0.906063
O O9 0.942569 0.845666 0.500000
O O10 0.273507 0.768430 0.458188
O O11 0.920856 0.846579 0.418802
O O12 0.294556 0.617524 0.271490
O O13 0.000000 0.500000 0.251886
O O14 0.795566 0.617727 0.288812
O O15 0.500000 0.500000 0.691364
O O16 0.570904 0.361946 0.657352
O O17 0.919560 0.267400 0.623844
#
# Coordination Sequence:
#
# PCOD9425416 Si02
#       7
#     8   8   8   8   8   8   8
#     4  10  21  36  54  77 104 132 166 212 256 294
#     4  10  21  37  57  83 113 144 181 223 263 306
#     4  10  21  37  56  81 111 142 177 216 265 320
#     4   8  14  25  41  63  91 118 147 190 237 278
#     4  10  21  36  52  71  96 131 169 201 244 302
#     4  10  21  35  49  69 100 130 158 200 250 294
#     4  10  19  30  48  73  94 120 162 200 235 288
#
# _framework density 18.629598000000001
#
# number of rings (size 3 to 8) (size 9 to 14) (size 15 to 20)
#    0.000    2.286    0.000    2.571    0.000    4.571 
#    0.000    2.143    0.000    0.429    0.000    0.000 
#    0.000   14.857    0.000    0.000    0.000    2.286 
#
# Total GULP energy -312359.103630 kJ/mol
# GULP energy per Si atom -5577.841136 kJ/mol
# Density = 1.858720 g / cm^3
# Si number density = 18.629598 Si / 1000 Ang^3
#
#
#
# Elastic Constant Matrix: (Units=GPa)
#
#
# Indices 1 2 3 4 5 6 
#
# 1 68.3309 -2.4369 -5.0746 0.0000 0.0000 0.0000
# 2 -2.4369 22.0310 47.5531 0.0000 0.0000 0.0000
# 3 -5.0746 47.5531 126.0432 0.0000 0.0000 0.0000
# 4 0.0000 0.0000 0.0000 -91.3822 0.0000 0.0000
# 5 0.0000 0.0000 0.0000 0.0000 24.8684 0.0000
# 6 0.0000 0.0000 0.0000 0.0000 0.0000 18.5552
#
#
#
# Elastic Compliance Matrix: (Units=1/GPa)
#
#
# Indices 1 2 3 4 5 6 
#
# 1 0.014693 0.001877 -0.000116 0.000000 0.000000 0.000000
# 2 0.001877 0.244719 -0.092251 0.000000 0.000000 0.000000
# 3 -0.000116 -0.092251 0.042733 0.000000 0.000000 0.000000
# 4 0.000000 0.000000 0.000000 -0.010943 0.000000 0.000000
# 5 0.000000 0.000000 0.000000 0.000000 0.040212 0.000000
# 6 0.000000 0.000000 0.000000 0.000000 0.000000 0.053893
#
#
# Mechanical properties :
#
#
# Convention : Reuss Voigt Hill
#
# Bulk Modulus (GPa) = 8.25334 32.94316 20.59825
# Shear Modulus (GPa) = 8.24162 2.16584 5.20373
#
# Velocity S-wave (km/s) = 2.10560 1.07940 1.67312
# Velocity P-wave (km/s) = 3.21733 4.39034 3.84879
#
# Compressibility (1/GPa) = 0.12116310
#
# Stress axis : x y z
#
# Youngs Moduli (GPa) = 68.05985 4.08632 23.40098
#
# Poissons Ratio (x) = -0.00767 0.00272
# Poissons Ratio (y) = -0.12772 2.15877
# Poissons Ratio (z) = 0.00792 0.37697
#
# Static dielectric constant tensor:
#      x y z
#    x 1.635750 0.000000 0.000000 
#    y 0.000000 1.599730 0.000000 
#    z 0.000000 0.000000 1.669610 
# 
# From -- ./inp_files/24075.got.cif
#   From: 2010.05.17/outbox.cif.g08.bks.cpg/sg55_13_cif.got.tgz:24075.got - 2010.06.03 13:27:54.
