data_PCOD9425953
_publ_section_title
;
Structure prediction by ZEFSAII (Michael W. Deem and Ramdas Pophale) SiO2 
 PCOD9425953
Probable space group: P B A M
;
_chemical_formula_sum "Si O2"
_cell_formula_units_Z 64
_cell_length_a 14.171980
_cell_length_b 17.781909
_cell_length_c 13.073481
_cell_angle_alpha 90.000000
_cell_angle_beta 90.000000
_cell_angle_gamma 90.000000
_cell_volume 3294.580732
_symmetry_space_group_name_H-M "P B A M"
_symmetry_group_IT_number 55
_symmetry_cell_setting 'orthorhombic'
loop_
_space_group_symop_operation_xyz
x,y,z
-x,-y,z
1/2+x,1/2-y,-z
1/2-x,1/2+y,-z
-x,-y,-z
x,y,-z
1/2-x,1/2+y,z
1/2+x,1/2-y,z
loop_
_atom_site_type_symbol
_atom_site_label
_atom_site_fract_x
_atom_site_fract_y
_atom_site_fract_z
Si Si1 0.029623 0.333611 0.618289
Si Si2 0.543159 0.668125 0.884345
Si Si3 0.412152 0.086457 0.118301
Si Si4 0.164072 0.190079 0.380460
Si Si5 0.393253 0.921659 0.797968
Si Si6 0.704312 0.545875 0.114184
Si Si7 0.350758 0.208019 0.251472
Si Si8 0.415624 0.562700 0.755234
O O1 0.024099 0.354001 0.500000
O O2 0.083520 0.253930 0.627896
O O3 0.088682 0.393743 0.684129
O O4 0.926523 0.325331 0.667930
O O5 0.615825 0.599945 0.895394
O O6 0.595128 0.723880 0.805168
O O7 0.453938 0.627428 0.832399
O O8 0.526047 0.698909 0.000000
O O9 0.519808 0.113375 0.138342
O O10 0.340823 0.147491 0.160658
O O11 0.400367 0.010991 0.184014
O O12 0.403278 0.069536 0.000000
O O13 0.191737 0.185270 0.500000
O O14 0.252442 0.216533 0.310524
O O15 0.122364 0.110501 0.340879
O O16 0.290862 0.905501 0.842394
O O17 0.670089 0.481513 0.191102
O O18 0.727230 0.517459 0.000000
O O19 0.500000 0.500000 0.736106
#
# Coordination Sequence:
#
# PCOD9425953 Si02
#       8
#     8   8   8   8   8   8   8   8
#     4  10  22  40  60  83 114 157 201 254 314 356
#     4  10  20  36  58  88 123 159 199 244 300 365
#     4  10  20  34  55  82 118 156 190 237 302 359
#     4  11  23  40  62  88 118 158 209 258 306 362
#     4  10  19  34  54  80 112 153 197 245 291 355
#     4  10  19  33  57  85 120 160 198 240 299 365
#     4  11  21  38  62  86 120 158 202 252 302 363
#     4  10  21  39  62  90 125 163 201 253 308 364
#
# _framework density 19.425840999999998
#
# number of rings (size 3 to 8) (size 9 to 14) (size 15 to 20)
#    0.000    1.750    1.250    4.125    0.000    1.750 
#    0.000    9.375    0.000    0.000    0.000    0.000 
#    0.000    0.000    0.000    0.000    0.000    0.000 
#
# Total GULP energy -356749.759692 kJ/mol
# GULP energy per Si atom -5574.214995 kJ/mol
# Density = 1.938163 g / cm^3
# Si number density = 19.425841 Si / 1000 Ang^3
#
#
#
# Elastic Constant Matrix: (Units=GPa)
#
#
# Indices 1 2 3 4 5 6 
#
# 1 56.0495 -7.8485 16.1214 0.0000 0.0000 0.0000
# 2 -7.8485 52.8880 48.0290 0.0000 0.0000 0.0000
# 3 16.1214 48.0290 107.8727 0.0000 0.0000 0.0000
# 4 0.0000 0.0000 0.0000 43.1824 0.0000 0.0000
# 5 0.0000 0.0000 0.0000 0.0000 38.8221 0.0000
# 6 0.0000 0.0000 0.0000 0.0000 0.0000 21.5210
#
#
#
# Elastic Compliance Matrix: (Units=1/GPa)
#
#
# Indices 1 2 3 4 5 6 
#
# 1 0.021518 0.010263 -0.007785 0.000000 0.000000 0.000000
# 2 0.010263 0.036638 -0.017846 0.000000 0.000000 0.000000
# 3 -0.007785 -0.017846 0.018380 0.000000 0.000000 0.000000
# 4 0.000000 0.000000 0.000000 0.023158 0.000000 0.000000
# 5 0.000000 0.000000 0.000000 0.000000 0.025758 0.000000
# 6 0.000000 0.000000 0.000000 0.000000 0.000000 0.046466
#
#
# Mechanical properties :
#
#
# Convention : Reuss Voigt Hill
#
# Bulk Modulus (GPa) = 21.83488 36.60154 29.21821
# Shear Modulus (GPa) = 22.94418 31.40565 27.17491
#
# Velocity S-wave (km/s) = 3.44047 4.02518 3.74425
# Velocity P-wave (km/s) = 5.20067 6.36281 5.81086
#
# Compressibility (1/GPa) = 0.04579827
#
# Stress axis : x y z
#
# Youngs Moduli (GPa) = 46.47309 27.29436 54.40835
#
# Poissons Ratio (x) = -0.28013 0.42359
# Poissons Ratio (y) = -0.47697 0.97099
# Poissons Ratio (z) = 0.36181 0.48710
#
# Static dielectric constant tensor:
#      x y z
#    x 1.761520 0.000000 0.000000 
#    y 0.000000 1.707280 0.000000 
#    z 0.000000 0.000000 1.690260 
# 
# From -- ./inp_files/14421.got.cif
#   From: 2010.05.17/outbox.cif.g08.bks.cpg/sg55_8_cif.got.tgz:14421.got - 2010.06.03 13:27:54.
