data_PCOD9425945
_publ_section_title
;
Structure prediction by ZEFSAII (Michael W. Deem and Ramdas Pophale) SiO2 
 PCOD9425945
Probable space group: P B A M
;
_chemical_formula_sum "Si O2"
_cell_formula_units_Z 34
_cell_length_a 5.171276
_cell_length_b 10.285991
_cell_length_c 24.687501
_cell_angle_alpha 90.000000
_cell_angle_beta 90.000000
_cell_angle_gamma 90.000000
_cell_volume 1313.170107
_symmetry_space_group_name_H-M "P B A M"
_symmetry_group_IT_number 55
_symmetry_cell_setting 'orthorhombic'
loop_
_space_group_symop_operation_xyz
x,y,z
-x,-y,z
1/2+x,1/2-y,-z
1/2-x,1/2+y,-z
-x,-y,-z
x,y,-z
1/2-x,1/2+y,z
1/2+x,1/2-y,z
loop_
_atom_site_type_symbol
_atom_site_label
_atom_site_fract_x
_atom_site_fract_y
_atom_site_fract_z
Si Si1 0.236337 0.341615 0.593830
Si Si2 0.000000 0.000000 0.500000
Si Si3 0.749492 0.089073 0.943051
Si Si4 0.824978 0.677015 0.179054
Si Si5 0.182932 0.838109 0.288958
O O1 0.458955 0.229103 0.588906
O O2 0.306240 0.441373 0.547253
O O3 0.263994 0.404306 0.653627
O O4 0.732236 0.146197 0.883279
O O5 0.500000 0.000000 0.946109
O O6 0.756924 0.168748 0.000000
O O7 0.000000 0.000000 0.943155
O O8 0.628703 0.798956 0.185000
O O9 0.737383 0.593682 0.231301
O O10 0.396266 0.721483 0.289549
#
# Coordination Sequence:
#
# PCOD9425945 Si02
#       5
#     8   2   8   8   8
#     4  10  22  40  60  85 121 157 188 243 297 337
#     4  12  24  38  64  92 116 154 210 234 280 376
#     4  10  21  36  51  74 112 149 178 223 287 341
#     4  10  19  33  57  81 103 139 187 233 274 330
#     4   8  16  33  55  76 107 143 175 220 285 332
#
# _framework density 25.891539999999999
#
# number of rings (size 3 to 8) (size 9 to 14) (size 15 to 20)
#    0.000    2.353    0.000    2.118    0.000    2.824 
#    2.118    0.000    0.000    0.000    0.000    0.000 
#    0.000    0.000    0.000    0.000    0.000    0.000 
#
# Total GULP energy -189289.597625 kJ/mol
# GULP energy per Si atom -5567.341107 kJ/mol
# Density = 2.583261 g / cm^3
# Si number density = 25.891540 Si / 1000 Ang^3
#
#
#
# Elastic Constant Matrix: (Units=GPa)
#
#
# Indices 1 2 3 4 5 6 
#
# 1 159.4979 36.5047 8.8932 0.0000 0.0000 0.0000
# 2 36.5047 35.1531 33.6986 0.0000 0.0000 0.0000
# 3 8.8932 33.6986 324.1124 0.0000 0.0000 0.0000
# 4 0.0000 0.0000 0.0000 32.4852 0.0000 0.0000
# 5 0.0000 0.0000 0.0000 0.0000 112.1439 0.0000
# 6 0.0000 0.0000 0.0000 0.0000 0.0000 44.5170
#
#
#
# Elastic Compliance Matrix: (Units=1/GPa)
#
#
# Indices 1 2 3 4 5 6 
#
# 1 0.008385 -0.009427 0.000750 0.000000 0.000000 0.000000
# 2 -0.009427 0.042194 -0.004128 0.000000 0.000000 0.000000
# 3 0.000750 -0.004128 0.003494 0.000000 0.000000 0.000000
# 4 0.000000 0.000000 0.000000 0.030783 0.000000 0.000000
# 5 0.000000 0.000000 0.000000 0.000000 0.008917 0.000000
# 6 0.000000 0.000000 0.000000 0.000000 0.000000 0.022463
#
#
# Mechanical properties :
#
#
# Convention : Reuss Voigt Hill
#
# Bulk Modulus (GPa) = 35.13336 75.21737 55.17537
# Shear Modulus (GPa) = 33.03938 67.14035 50.08986
#
# Velocity S-wave (km/s) = 3.57609 5.09781 4.40318
# Velocity P-wave (km/s) = 5.53625 7.98525 6.87075
#
# Compressibility (1/GPa) = 0.02846297
#
# Stress axis : x y z
#
# Youngs Moduli (GPa) = 119.25502 23.70021 286.20512
#
# Poissons Ratio (x) = 0.22342 -0.21466
# Poissons Ratio (y) = 1.12419 1.18154
# Poissons Ratio (z) = -0.08945 0.09784
#
# Static dielectric constant tensor:
#      x y z
#    x 1.957690 0.000000 0.000000 
#    y 0.000000 2.141130 0.000000 
#    z 0.000000 0.000000 2.147730 
# 
# From -- ./inp_files/22267.got.cif
#   From: 2010.05.17/outbox.cif.g08.bks.cpg/sg55_12_cif.got.tgz:22267.got - 2010.06.03 13:27:54.
