data_PCOD9425327
_publ_section_title
;
Structure prediction by ZEFSAII (Michael W. Deem and Ramdas Pophale) SiO2 
 PCOD9425327
Probable space group: P B A M
;
_chemical_formula_sum "Si O2"
_cell_formula_units_Z 40
_cell_length_a 14.753764
_cell_length_b 11.021251
_cell_length_c 11.703758
_cell_angle_alpha 90.000000
_cell_angle_beta 90.000000
_cell_angle_gamma 90.000000
_cell_volume 1903.088823
_symmetry_space_group_name_H-M "P B A M"
_symmetry_group_IT_number 55
_symmetry_cell_setting 'orthorhombic'
loop_
_space_group_symop_operation_xyz
x,y,z
-x,-y,z
1/2+x,1/2-y,-z
1/2-x,1/2+y,-z
-x,-y,-z
x,y,-z
1/2-x,1/2+y,z
1/2+x,1/2-y,z
loop_
_atom_site_type_symbol
_atom_site_label
_atom_site_fract_x
_atom_site_fract_y
_atom_site_fract_z
Si Si1 0.951617 0.130640 0.245811
Si Si2 0.972005 0.143887 0.500000
Si Si3 0.111791 0.264981 0.871799
Si Si4 0.317873 0.211547 0.131736
Si Si5 0.391956 0.991186 0.261922
Si Si6 0.581612 0.101038 0.500000
O O1 0.924116 0.153320 0.377388
O O2 0.866638 0.161303 0.165052
O O3 0.034182 0.219930 0.212665
O O4 0.000000 0.000000 0.232658
O O5 0.042897 0.259993 0.500000
O O6 0.000000 0.000000 0.500000
O O7 0.209654 0.204880 0.861093
O O8 0.132045 0.403416 0.841942
O O9 0.077539 0.248572 0.000000
O O10 0.353921 0.120461 0.227956
O O11 0.343401 0.182923 0.000000
O O12 0.365322 0.930993 0.383103
O O13 0.500000 0.000000 0.263365
O O14 0.500000 0.000000 0.500000
#
# Coordination Sequence:
#
# PCOD9425327 Si02
#       6
#     8   4   8   8   8   4
#     4  11  23  42  65  90 128 167 213 258 321 386
#     4  10  20  40  66  93 126 171 210 267 322 379
#     4  11  24  40  62  91 127 166 209 261 318 381
#     4  11  25  41  62  94 130 168 211 264 324 384
#     4  11  21  40  66  91 124 162 218 264 322 379
#     4  10  18  36  66  95 124 166 210 270 317 379
#
# _framework density 21.018460999999999
#
# number of rings (size 3 to 8) (size 9 to 14) (size 15 to 20)
#    0.000    1.200    4.000    2.400    2.800    2.400 
#    0.000    4.000    0.000    0.000    0.000    0.000 
#    0.000    0.000    0.000    0.000    0.000    0.000 
#
# Total GULP energy -222885.671922 kJ/mol
# GULP energy per Si atom -5572.141798 kJ/mol
# Density = 2.097062 g / cm^3
# Si number density = 21.018461 Si / 1000 Ang^3
#
#
#
# Elastic Constant Matrix: (Units=GPa)
#
#
# Indices 1 2 3 4 5 6 
#
# 1 44.4132 -5.3969 17.5593 0.0000 0.0000 0.0000
# 2 -5.3969 81.0422 15.2902 0.0000 0.0000 0.0000
# 3 17.5593 15.2902 96.7005 0.0000 0.0000 0.0000
# 4 0.0000 0.0000 0.0000 25.6921 0.0000 0.0000
# 5 0.0000 0.0000 0.0000 0.0000 110.6775 0.0000
# 6 0.0000 0.0000 0.0000 0.0000 0.0000 16.9176
#
#
#
# Elastic Compliance Matrix: (Units=1/GPa)
#
#
# Indices 1 2 3 4 5 6 
#
# 1 0.024768 0.002575 -0.004905 0.000000 0.000000 0.000000
# 2 0.002575 0.012986 -0.002521 0.000000 0.000000 0.000000
# 3 -0.004905 -0.002521 0.011630 0.000000 0.000000 0.000000
# 4 0.000000 0.000000 0.000000 0.038922 0.000000 0.000000
# 5 0.000000 0.000000 0.000000 0.000000 0.009035 0.000000
# 6 0.000000 0.000000 0.000000 0.000000 0.000000 0.059110
#
#
# Mechanical properties :
#
#
# Convention : Reuss Voigt Hill
#
# Bulk Modulus (GPa) = 25.19969 30.78457 27.99213
# Shear Modulus (GPa) = 27.87355 43.63765 35.75560
#
# Velocity S-wave (km/s) = 3.64558 4.56143 4.12898
# Velocity P-wave (km/s) = 5.45304 6.51310 6.00650
#
# Compressibility (1/GPa) = 0.03968303
#
# Stress axis : x y z
#
# Youngs Moduli (GPa) = 40.37499 77.00399 85.98153
#
# Poissons Ratio (x) = -0.19826 0.42170
# Poissons Ratio (y) = -0.10395 0.21675
# Poissons Ratio (z) = 0.19802 0.19412
#
# Static dielectric constant tensor:
#      x y z
#    x 1.768030 0.000000 0.000000 
#    y 0.000000 1.924910 0.000000 
#    z 0.000000 0.000000 1.780650 
# 
# From -- ./inp_files/13973.got.cif
#   From: 2010.05.17/outbox.cif.g08.bks.cpg/sg55_7_cif.got.tgz:13973.got - 2010.06.03 13:27:54.
