data_PCOD9425203
_publ_section_title
;
Structure prediction by ZEFSAII (Michael W. Deem and Ramdas Pophale) SiO2 
 PCOD9425203
Probable space group: P B A M
;
_chemical_formula_sum "Si O2"
_cell_formula_units_Z 54
_cell_length_a 30.752459
_cell_length_b 5.725272
_cell_length_c 14.799487
_cell_angle_alpha 90.000000
_cell_angle_beta 90.000000
_cell_angle_gamma 90.000000
_cell_volume 2605.689326
_symmetry_space_group_name_H-M "P B A M"
_symmetry_group_IT_number 55
_symmetry_cell_setting 'orthorhombic'
loop_
_space_group_symop_operation_xyz
x,y,z
-x,-y,z
1/2+x,1/2-y,-z
1/2-x,1/2+y,-z
-x,-y,-z
x,y,-z
1/2-x,1/2+y,z
1/2+x,1/2-y,z
loop_
_atom_site_type_symbol
_atom_site_label
_atom_site_fract_x
_atom_site_fract_y
_atom_site_fract_z
Si Si1 0.237123 0.406476 0.342532
Si Si2 0.500000 0.000000 0.200944
Si Si3 0.641004 0.096150 0.729074
Si Si4 0.444093 0.660722 0.671597
Si Si5 0.230845 0.861630 0.136535
Si Si6 0.000000 0.000000 0.500000
Si Si7 0.577509 0.718098 0.186734
Si Si8 0.855491 0.918078 0.901108
O O1 0.255064 0.648380 0.385048
O O2 0.185783 0.442814 0.323400
O O3 0.261555 0.375361 0.244980
O O4 0.527990 0.165689 0.266351
O O5 0.462675 0.136799 0.147548
O O6 0.604785 0.233075 0.669896
O O7 0.653053 0.247490 0.817577
O O8 0.615774 0.875612 0.770681
O O9 0.468191 0.612989 0.578884
O O10 0.440704 0.422771 0.727765
O O11 0.248665 0.610413 0.105079
O O12 0.181195 0.884448 0.107572
O O13 0.598337 0.536847 0.117640
O O14 0.853355 0.808141 0.000000
#
# Coordination Sequence:
#
# PCOD9425203 Si02
#       8
#     8   4   8   8   8   2   8   8
#     4  10  18  32  56  82 115 161 214 264 300 364
#     4  10  18  39  61  88 112 162 192 234 305 375
#     4  10  21  37  56  82 122 163 210 250 313 366
#     4  10  22  36  63  92 127 156 183 241 308 395
#     4  10  19  34  51  79 112 158 202 265 320 368
#     4  12  20  42  64 104 132 144 180 238 324 388
#     4  10  20  38  57  82 114 161 200 245 303 374
#     4  11  23  35  52  78 116 160 212 266 313 353
#
# _framework density 20.723883000000001
#
# number of rings (size 3 to 8) (size 9 to 14) (size 15 to 20)
#    0.000    1.778    4.444    1.778    2.074    1.481 
#    0.000    0.370    0.000   11.556    0.000    1.037 
#    0.000    0.000    0.000    0.000    0.000    0.000 
#
# Total GULP energy -300628.180995 kJ/mol
# GULP energy per Si atom -5567.188537 kJ/mol
# Density = 2.067671 g / cm^3
# Si number density = 20.723883 Si / 1000 Ang^3
#
#
#
# Elastic Constant Matrix: (Units=GPa)
#
#
# Indices 1 2 3 4 5 6 
#
# 1 90.9985 20.8436 -3.1341 0.0000 0.0000 0.0000
# 2 20.8436 105.6771 -4.1373 0.0000 0.0000 0.0000
# 3 -3.1341 -4.1373 45.9584 0.0000 0.0000 0.0000
# 4 0.0000 0.0000 0.0000 -3.8954 0.0000 0.0000
# 5 0.0000 0.0000 0.0000 0.0000 13.2789 0.0000
# 6 0.0000 0.0000 0.0000 0.0000 0.0000 46.5547
#
#
#
# Elastic Compliance Matrix: (Units=1/GPa)
#
#
# Indices 1 2 3 4 5 6 
#
# 1 0.011525 -0.002250 0.000583 0.000000 0.000000 0.000000
# 2 -0.002250 0.009936 0.000741 0.000000 0.000000 0.000000
# 3 0.000583 0.000741 0.021865 0.000000 0.000000 0.000000
# 4 0.000000 0.000000 0.000000 -0.256712 0.000000 0.000000
# 5 0.000000 0.000000 0.000000 0.000000 0.075308 0.000000
# 6 0.000000 0.000000 0.000000 0.000000 0.000000 0.021480
#
#
# Mechanical properties :
#
#
# Convention : Reuss Voigt Hill
#
# Bulk Modulus (GPa) = 24.11164 29.97538 27.04351
# Shear Modulus (GPa) = -49.54305 26.45840 -11.54233
#
# Velocity S-wave (km/s) = -4.89471 3.57699 -2.36256
# Velocity P-wave (km/s) = 4.50380 5.61741 2.37393
#
# Compressibility (1/GPa) = 0.04147374
#
# Stress axis : x y z
#
# Youngs Moduli (GPa) = 86.76999 100.64771 45.73455
#
# Poissons Ratio (x) = 0.22649 -0.02668
# Poissons Ratio (y) = 0.19526 -0.03389
# Poissons Ratio (z) = -0.05062 -0.07458
#
# Static dielectric constant tensor:
#      x y z
#    x 2.462260 0.000000 0.000000 
#    y 0.000000 1.973010 0.000000 
#    z 0.000000 0.000000 1.702920 
# 
# From -- ./inp_files/20167.got.cif
#   From: 2010.05.17/outbox.cif.g08.bks.cpg/sg55_11_cif.got.tgz:20167.got - 2010.06.03 13:27:54.
