data_PCOD9425151
_publ_section_title
;
Structure prediction by ZEFSAII (Michael W. Deem and Ramdas Pophale) SiO2 
 PCOD9425151
Probable space group: P B A M
;
_chemical_formula_sum "Si O2"
_cell_formula_units_Z 56
_cell_length_a 18.873408
_cell_length_b 7.949679
_cell_length_c 18.479626
_cell_angle_alpha 90.000000
_cell_angle_beta 90.000000
_cell_angle_gamma 90.000000
_cell_volume 2772.637537
_symmetry_space_group_name_H-M "P B A M"
_symmetry_group_IT_number 55
_symmetry_cell_setting 'orthorhombic'
loop_
_space_group_symop_operation_xyz
x,y,z
-x,-y,z
1/2+x,1/2-y,-z
1/2-x,1/2+y,-z
-x,-y,-z
x,y,-z
1/2-x,1/2+y,z
1/2+x,1/2-y,z
loop_
_atom_site_type_symbol
_atom_site_label
_atom_site_fract_x
_atom_site_fract_y
_atom_site_fract_z
Si Si1 0.439573 0.873352 0.693611
Si Si2 0.311553 0.826196 0.231958
Si Si3 0.966425 0.173703 0.804940
Si Si4 0.799462 0.834725 0.915276
Si Si5 0.837681 0.047687 0.290225
Si Si6 0.644373 0.717150 0.916357
Si Si7 0.579654 0.426397 0.415087
O O1 0.367667 0.948099 0.728332
O O2 0.474930 0.775517 0.761537
O O3 0.422227 0.750135 0.627494
O O4 0.500000 0.000000 0.669351
O O5 0.322770 0.797761 0.146181
O O6 0.328916 0.642969 0.263639
O O7 0.232793 0.866088 0.259426
O O8 0.922366 0.262640 0.867719
O O9 0.906624 0.123622 0.747324
O O10 0.000000 0.000000 0.833696
O O11 0.714197 0.830220 0.905228
O O12 0.831188 0.021413 0.902055
O O13 0.812918 0.789964 0.000000
O O14 0.860171 0.037141 0.374387
O O15 0.625244 0.725696 0.000000
O O16 0.500000 0.500000 0.405012
O O17 0.593175 0.411037 0.500000
#
# Coordination Sequence:
#
# PCOD9425151 Si02
#       7
#     8   8   8   8   8   8   8
#     4  11  24  38  60  90 121 154 201 250 298 356
#     4  11  21  36  57  87 113 157 198 248 296 349
#     4  12  19  38  58  80 122 154 200 249 296 362
#     4  10  18  32  51  81 115 153 203 250 299 353
#     4  11  21  36  60  88 116 150 200 241 295 351
#     4  10  21  33  54  83 117 157 199 254 305 353
#     4  10  20  40  66  90 120 158 190 229 299 367
#
# _framework density 20.197374
#
# number of rings (size 3 to 8) (size 9 to 14) (size 15 to 20)
#    0.000    1.286    7.143    0.000    2.000    1.714 
#    0.000    3.571    0.000    0.857    0.000    0.000 
#    0.000    0.000    0.000    0.000    0.000    0.000 
#
# Total GULP energy -312410.669355 kJ/mol
# GULP energy per Si atom -5578.761953 kJ/mol
# Density = 2.015140 g / cm^3
# Si number density = 20.197374 Si / 1000 Ang^3
#
#
#
# Elastic Constant Matrix: (Units=GPa)
#
#
# Indices 1 2 3 4 5 6 
#
# 1 92.1358 4.1837 38.6545 0.0000 0.0000 0.0000
# 2 4.1837 26.1139 13.7274 0.0000 0.0000 0.0000
# 3 38.6545 13.7274 118.1553 0.0000 0.0000 0.0000
# 4 0.0000 0.0000 0.0000 12.5887 0.0000 0.0000
# 5 0.0000 0.0000 0.0000 0.0000 23.4689 0.0000
# 6 0.0000 0.0000 0.0000 0.0000 0.0000 25.9578
#
#
#
# Elastic Compliance Matrix: (Units=1/GPa)
#
#
# Indices 1 2 3 4 5 6 
#
# 1 0.012581 0.000158 -0.004134 0.000000 0.000000 0.000000
# 2 0.000158 0.040787 -0.004790 0.000000 0.000000 0.000000
# 3 -0.004134 -0.004790 0.010372 0.000000 0.000000 0.000000
# 4 0.000000 0.000000 0.000000 0.079437 0.000000 0.000000
# 5 0.000000 0.000000 0.000000 0.000000 0.042610 0.000000
# 6 0.000000 0.000000 0.000000 0.000000 0.000000 0.038524
#
#
# Mechanical properties :
#
#
# Convention : Reuss Voigt Hill
#
# Bulk Modulus (GPa) = 21.64197 38.83736 30.23967
# Shear Modulus (GPa) = 19.43667 24.39236 21.91451
#
# Velocity S-wave (km/s) = 3.10552 3.47897 3.29753
# Velocity P-wave (km/s) = 4.85773 5.95049 5.43166
#
# Compressibility (1/GPa) = 0.04620652
#
# Stress axis : x y z
#
# Youngs Moduli (GPa) = 79.48617 24.51781 96.40928
#
# Poissons Ratio (x) = -0.00386 0.39857
# Poissons Ratio (y) = -0.01253 0.46182
# Poissons Ratio (z) = 0.32861 0.11745
#
# Static dielectric constant tensor:
#      x y z
#    x 1.847230 0.000000 0.000000 
#    y 0.000000 1.766930 0.000000 
#    z 0.000000 0.000000 1.726830 
# 
# From -- ./inp_files/23058.got.cif
#   From: 2010.05.17/outbox.cif.g08.bks.cpg/sg55_12_cif.got.tgz:23058.got - 2010.06.03 13:27:54.
