data_PCOD9425303
_publ_section_title
;
Structure prediction by ZEFSAII (Michael W. Deem and Ramdas Pophale) SiO2 
 PCOD9425303
Probable space group: P B A M
;
_chemical_formula_sum "Si O2"
_cell_formula_units_Z 48
_cell_length_a 5.246237
_cell_length_b 22.184641
_cell_length_c 19.860353
_cell_angle_alpha 90.000000
_cell_angle_beta 90.000000
_cell_angle_gamma 90.000000
_cell_volume 2311.464749
_symmetry_space_group_name_H-M "P B A M"
_symmetry_group_IT_number 55
_symmetry_cell_setting 'orthorhombic'
loop_
_space_group_symop_operation_xyz
x,y,z
-x,-y,z
1/2+x,1/2-y,-z
1/2-x,1/2+y,-z
-x,-y,-z
x,y,-z
1/2-x,1/2+y,z
1/2+x,1/2-y,z
loop_
_atom_site_type_symbol
_atom_site_label
_atom_site_fract_x
_atom_site_fract_y
_atom_site_fract_z
Si Si1 0.618787 0.788113 0.500000
Si Si2 0.749145 0.042113 0.000000
Si Si3 0.364662 0.935976 0.858585
Si Si4 0.500000 0.500000 0.757600
Si Si5 0.466158 0.708942 0.151178
Si Si6 0.030825 0.708702 0.647921
Si Si7 0.737306 0.882251 0.755834
Si Si8 0.001504 0.788527 0.000000
O O1 0.413855 0.732619 0.500000
O O2 0.559411 0.817484 0.428105
O O3 0.733211 0.080603 0.067972
O O4 0.500000 0.000000 0.000000
O O5 0.000000 0.000000 0.000000
O O6 0.559253 0.893316 0.821035
O O7 0.151293 0.955405 0.806462
O O8 0.500000 0.000000 0.868550
O O9 0.682070 0.448323 0.725823
O O10 0.724438 0.746867 0.158224
O O11 0.452225 0.660644 0.211225
O O12 0.449314 0.683924 0.074153
O O13 0.257549 0.758619 0.654724
O O14 0.086499 0.656809 0.701327
O O15 0.794368 0.733643 0.000000
#
# Coordination Sequence:
#
# PCOD9425303 Si02
#       8
#     4   4   8   4   8   8   8   4
#     4   8  16  34  58  89 127 155 187 232 292 360
#     4  10  18  35  57  74 100 142 192 249 298 345
#     4   9  20  36  53  76 104 148 194 245 297 346
#     4  10  22  39  54  77 114 160 198 252 294 351
#     4  10  21  36  56  79 108 142 183 239 296 359
#     4  10  21  37  62  95 125 157 192 240 300 360
#     4  11  23  35  58  83 119 150 202 244 302 358
#     4   8  16  33  51  71 101 137 175 219 286 354
#
# _framework density 20.766054
#
# number of rings (size 3 to 8) (size 9 to 14) (size 15 to 20)
#    0.000    2.333    0.833    1.000    4.667    0.667 
#    0.000    1.667    0.000    0.500    0.000    5.250 
#    0.000    0.000    0.000    0.000    0.000    0.000 
#
# Total GULP energy -267526.325607 kJ/mol
# GULP energy per Si atom -5573.465117 kJ/mol
# Density = 2.071879 g / cm^3
# Si number density = 20.766054 Si / 1000 Ang^3
#
#
#
# Elastic Constant Matrix: (Units=GPa)
#
#
# Indices 1 2 3 4 5 6 
#
# 1 101.9716 29.7544 -3.9773 0.0000 0.0000 0.0000
# 2 29.7544 62.7430 42.6131 0.0000 0.0000 0.0000
# 3 -3.9773 42.6131 98.9437 0.0000 0.0000 0.0000
# 4 0.0000 0.0000 0.0000 32.8320 0.0000 0.0000
# 5 0.0000 0.0000 0.0000 0.0000 23.8984 0.0000
# 6 0.0000 0.0000 0.0000 0.0000 0.0000 29.3784
#
#
#
# Elastic Compliance Matrix: (Units=1/GPa)
#
#
# Indices 1 2 3 4 5 6 
#
# 1 0.012578 -0.008916 0.004346 0.000000 0.000000 0.000000
# 2 -0.008916 0.028848 -0.012783 0.000000 0.000000 0.000000
# 3 0.004346 -0.012783 0.015787 0.000000 0.000000 0.000000
# 4 0.000000 0.000000 0.000000 0.030458 0.000000 0.000000
# 5 0.000000 0.000000 0.000000 0.000000 0.041844 0.000000
# 6 0.000000 0.000000 0.000000 0.000000 0.000000 0.034039
#
#
# Mechanical properties :
#
#
# Convention : Reuss Voigt Hill
#
# Bulk Modulus (GPa) = 44.43254 44.49320 44.46287
# Shear Modulus (GPa) = 24.30004 30.23962 27.26983
#
# Velocity S-wave (km/s) = 3.42450 3.82016 3.62773
# Velocity P-wave (km/s) = 6.08929 6.39771 6.24540
#
# Compressibility (1/GPa) = 0.02250603
#
# Stress axis : x y z
#
# Youngs Moduli (GPa) = 79.50526 34.66468 63.34474
#
# Poissons Ratio (x) = 0.30907 -0.27527
# Poissons Ratio (y) = 0.70888 0.80971
# Poissons Ratio (z) = -0.34550 0.44310
#
# Static dielectric constant tensor:
#      x y z
#    x 1.742220 0.000000 0.000000 
#    y 0.000000 1.830900 0.000000 
#    z 0.000000 0.000000 1.857830 
# 
# From -- ./inp_files/22349.got.cif
#   From: 2010.05.17/outbox.cif.g08.bks.cpg/sg55_12_cif.got.tgz:22349.got - 2010.06.03 13:27:54.
