data_PCOD9425313
_publ_section_title
;
Structure prediction by ZEFSAII (Michael W. Deem and Ramdas Pophale) SiO2 
 PCOD9425313
Probable space group: P B A M
;
_chemical_formula_sum "Si O2"
_cell_formula_units_Z 44
_cell_length_a 15.277869
_cell_length_b 14.628831
_cell_length_c 10.709283
_cell_angle_alpha 90.000000
_cell_angle_beta 90.000000
_cell_angle_gamma 90.000000
_cell_volume 2393.496517
_symmetry_space_group_name_H-M "P B A M"
_symmetry_group_IT_number 55
_symmetry_cell_setting 'orthorhombic'
loop_
_space_group_symop_operation_xyz
x,y,z
-x,-y,z
1/2+x,1/2-y,-z
1/2-x,1/2+y,-z
-x,-y,-z
x,y,-z
1/2-x,1/2+y,z
1/2+x,1/2-y,z
loop_
_atom_site_type_symbol
_atom_site_label
_atom_site_fract_x
_atom_site_fract_y
_atom_site_fract_z
Si Si1 0.314141 0.165429 0.500000
Si Si2 0.138390 0.045692 0.500000
Si Si3 0.373428 0.923450 0.000000
Si Si4 0.921959 0.374253 0.000000
Si Si5 0.191849 0.328166 0.750646
Si Si6 0.121260 0.731324 0.747653
Si Si7 0.550078 0.310960 0.643996
Si Si8 0.752563 0.122320 0.500000
O O1 0.232348 0.097269 0.500000
O O2 0.366947 0.162509 0.370576
O O3 0.276344 0.269897 0.500000
O O4 0.085866 0.086591 0.381396
O O5 0.160629 0.939662 0.500000
O O6 0.475892 0.898885 0.000000
O O7 0.333119 0.880962 0.875035
O O8 0.366842 0.032494 0.000000
O O9 0.902193 0.318967 0.125337
O O10 0.286987 0.282650 0.765762
O O11 0.120820 0.250042 0.717191
O O12 0.199869 0.392180 0.627703
O O13 0.043165 0.799347 0.708150
O O14 0.544503 0.275288 0.500000
#
# Coordination Sequence:
#
# PCOD9425313 Si02
#       8
#     4   4   4   4   8   8   8   4
#     4  10  19  36  58  88 118 151 206 244 301 363
#     4  10  19  35  60  97 121 159 196 261 305 367
#     4  11  25  40  54  87 129 152 201 273 303 365
#     4  11  25  38  60  89 114 163 216 238 323 373
#     4  11  21  40  58  85 125 163 198 260 307 357
#     4  11  20  38  62  86 114 166 203 245 301 378
#     4  10  18  35  60  90 120 152 203 252 299 357
#     4  10  20  35  63  90 119 158 204 240 312 370
#
# _framework density 18.383147999999998
#
# number of rings (size 3 to 8) (size 9 to 14) (size 15 to 20)
#    0.545    0.909    7.273    0.545    2.545    0.000 
#    0.000    7.273    0.000    4.364    0.000    7.636 
#    0.000    0.000    0.000    0.000    0.000    0.000 
#
# Total GULP energy -245348.202875 kJ/mol
# GULP energy per Si atom -5576.095520 kJ/mol
# Density = 1.834131 g / cm^3
# Si number density = 18.383148 Si / 1000 Ang^3
#
#
#
# Elastic Constant Matrix: (Units=GPa)
#
#
# Indices 1 2 3 4 5 6 
#
# 1 91.8000 18.6436 23.9255 0.0000 0.0000 0.0000
# 2 18.6436 42.1172 25.1872 0.0000 0.0000 0.0000
# 3 23.9255 25.1872 146.0565 0.0000 0.0000 0.0000
# 4 0.0000 0.0000 0.0000 14.5229 0.0000 0.0000
# 5 0.0000 0.0000 0.0000 0.0000 -13.4854 0.0000
# 6 0.0000 0.0000 0.0000 0.0000 0.0000 21.0981
#
#
#
# Elastic Compliance Matrix: (Units=1/GPa)
#
#
# Indices 1 2 3 4 5 6 
#
# 1 0.012150 -0.004670 -0.001185 0.000000 0.000000 0.000000
# 2 -0.004670 0.028268 -0.004110 0.000000 0.000000 0.000000
# 3 -0.001185 -0.004110 0.007750 0.000000 0.000000 0.000000
# 4 0.000000 0.000000 0.000000 0.068857 0.000000 0.000000
# 5 0.000000 0.000000 0.000000 0.000000 -0.074154 0.000000
# 6 0.000000 0.000000 0.000000 0.000000 0.000000 0.047398
#
#
# Mechanical properties :
#
#
# Convention : Reuss Voigt Hill
#
# Bulk Modulus (GPa) = 35.41232 46.16516 40.78874
# Shear Modulus (GPa) = 41.80229 18.57495 30.18862
#
# Velocity S-wave (km/s) = 4.77376 3.18218 4.05679
# Velocity P-wave (km/s) = 7.04914 6.21844 6.64678
#
# Compressibility (1/GPa) = 0.02823876
#
# Stress axis : x y z
#
# Youngs Moduli (GPa) = 82.30118 35.37541 129.04016
#
# Poissons Ratio (x) = 0.16520 0.15292
# Poissons Ratio (y) = 0.38433 0.53033
# Poissons Ratio (z) = 0.09753 0.14539
#
# Static dielectric constant tensor:
#      x y z
#    x 1.649150 0.000000 0.000000 
#    y 0.000000 1.640450 0.000000 
#    z 0.000000 0.000000 1.640650 
# 
# From -- ./inp_files/14101.got.cif
#   From: 2010.05.17/outbox.cif.g08.bks.cpg/sg55_8_cif.got.tgz:14101.got - 2010.06.03 13:27:54.
