data_PCOD9425236
_publ_section_title
;
Structure prediction by ZEFSAII (Michael W. Deem and Ramdas Pophale) SiO2 
 PCOD9425236
Probable space group: P B A M
;
_chemical_formula_sum "Si O2"
_cell_formula_units_Z 64
_cell_length_a 15.813927
_cell_length_b 24.545976
_cell_length_c 7.548574
_cell_angle_alpha 90.000000
_cell_angle_beta 90.000000
_cell_angle_gamma 90.000000
_cell_volume 2930.116930
_symmetry_space_group_name_H-M "P B A M"
_symmetry_group_IT_number 55
_symmetry_cell_setting 'orthorhombic'
loop_
_space_group_symop_operation_xyz
x,y,z
-x,-y,z
1/2+x,1/2-y,-z
1/2-x,1/2+y,-z
-x,-y,-z
x,y,-z
1/2-x,1/2+y,z
1/2+x,1/2-y,z
loop_
_atom_site_type_symbol
_atom_site_label
_atom_site_fract_x
_atom_site_fract_y
_atom_site_fract_z
Si Si1 0.592156 0.628580 0.281750
Si Si2 0.761099 0.050041 0.295084
Si Si3 0.762932 0.427952 0.282166
Si Si4 0.927219 0.360946 0.285730
Si Si5 0.405380 0.631027 0.703846
Si Si6 0.883370 0.632195 0.206150
Si Si7 0.846329 0.752692 0.792887
Si Si8 0.850472 0.248784 0.285750
O O1 0.592472 0.629174 0.500000
O O2 0.660822 0.584685 0.219919
O O3 0.496959 0.617189 0.219992
O O4 0.619919 0.689294 0.226267
O O5 0.783493 0.040455 0.500000
O O6 0.678726 0.088151 0.288951
O O7 0.742580 0.990351 0.221303
O O8 0.764876 0.426040 0.500000
O O9 0.848441 0.397641 0.226094
O O10 0.679077 0.396094 0.220329
O O11 0.928555 0.361209 0.500000
O O12 0.909261 0.298773 0.227127
O O13 0.018173 0.381076 0.223854
O O14 0.408208 0.612798 0.500000
O O15 0.392847 0.696135 0.707452
O O16 0.869422 0.693139 0.280780
O O17 0.859511 0.634436 0.000000
O O18 0.745684 0.759479 0.771549
O O19 0.868444 0.753870 0.000000
O O20 0.850480 0.248814 0.500000
#
# Coordination Sequence:
#
# PCOD9425236 Si02
#       8
#     8   8   8   8   8   8   8   8
#     4   9  18  31  56  88 111 140 182 223 271 326
#     4  10  20  37  59  83 112 147 188 232 277 328
#     4   9  19  35  58  86 113 143 184 233 280 324
#     4  10  20  36  58  84 112 145 183 229 282 334
#     4  10  19  36  59  84 115 146 181 226 273 334
#     4  11  24  39  55  81 113 149 189 231 279 330
#     4  11  22  35  54  82 113 146 183 226 280 332
#     4  10  18  33  57  84 111 144 184 223 276 337
#
# _framework density 21.842133
#
# number of rings (size 3 to 8) (size 9 to 14) (size 15 to 20)
#    0.000    2.000    2.500    1.500    0.000    4.000 
#    0.000    7.500    0.000    0.000    0.000    1.750 
#    0.000    0.000    0.000    0.000    0.000    0.000 
#
# Total GULP energy -357652.321006 kJ/mol
# GULP energy per Si atom -5588.317516 kJ/mol
# Density = 2.179242 g / cm^3
# Si number density = 21.842133 Si / 1000 Ang^3
#
#
#
# Elastic Constant Matrix: (Units=GPa)
#
#
# Indices 1 2 3 4 5 6 
#
# 1 107.7461 27.5834 -9.4831 0.0000 0.0000 0.0000
# 2 27.5834 118.0931 -2.2048 0.0000 0.0000 0.0000
# 3 -9.4831 -2.2048 50.8426 0.0000 0.0000 0.0000
# 4 0.0000 0.0000 0.0000 2.4632 0.0000 0.0000
# 5 0.0000 0.0000 0.0000 0.0000 -141.5999 0.0000
# 6 0.0000 0.0000 0.0000 0.0000 0.0000 3.0345
#
#
#
# Elastic Compliance Matrix: (Units=1/GPa)
#
#
# Indices 1 2 3 4 5 6 
#
# 1 0.010028 -0.002309 0.001770 0.000000 0.000000 0.000000
# 2 -0.002309 0.009007 -0.000040 0.000000 0.000000 0.000000
# 3 0.001770 -0.000040 0.019997 0.000000 0.000000 0.000000
# 4 0.000000 0.000000 0.000000 0.405973 0.000000 0.000000
# 5 0.000000 0.000000 0.000000 0.000000 -0.007062 0.000000
# 6 0.000000 0.000000 0.000000 0.000000 0.000000 0.329543
#
#
# Mechanical properties :
#
#
# Convention : Reuss Voigt Hill
#
# Bulk Modulus (GPa) = 26.40378 34.27477 30.33927
# Shear Modulus (GPa) = 6.39985 -9.83469 -1.71742
#
# Velocity S-wave (km/s) = 1.71360 -2.12424 -0.88769
# Velocity P-wave (km/s) = 4.00374 3.11602 3.58744
#
# Compressibility (1/GPa) = 0.03787336
#
# Stress axis : x y z
#
# Youngs Moduli (GPa) = 99.72023 111.03072 50.00750
#
# Poissons Ratio (x) = 0.25640 -0.08853
# Poissons Ratio (y) = 0.23028 0.00201
# Poissons Ratio (z) = -0.17653 0.00446
#
# Static dielectric constant tensor:
#      x y z
#    x 1.764460 0.000000 0.000000 
#    y 0.000000 1.771830 0.000000 
#    z 0.000000 0.000000 1.845430 
# 
# From -- ./inp_files/6645.got.cif
#   From: 2010.05.17/outbox.cif.g08.bks.cpg/sg55_4_cif.got.tgz:6645.got - 2010.06.03 13:27:54.
