data_PCOD9425857
_publ_section_title
;
Structure prediction by ZEFSAII (Michael W. Deem and Ramdas Pophale) SiO2 
 PCOD9425857
Probable space group: P B A M
;
_chemical_formula_sum "Si O2"
_cell_formula_units_Z 34
_cell_length_a 18.990314
_cell_length_b 7.434547
_cell_length_c 10.034093
_cell_angle_alpha 90.000000
_cell_angle_beta 90.000000
_cell_angle_gamma 90.000000
_cell_volume 1416.657219
_symmetry_space_group_name_H-M "P B A M"
_symmetry_group_IT_number 55
_symmetry_cell_setting 'orthorhombic'
loop_
_space_group_symop_operation_xyz
x,y,z
-x,-y,z
1/2+x,1/2-y,-z
1/2-x,1/2+y,-z
-x,-y,-z
x,y,-z
1/2-x,1/2+y,z
1/2+x,1/2-y,z
loop_
_atom_site_type_symbol
_atom_site_label
_atom_site_fract_x
_atom_site_fract_y
_atom_site_fract_z
Si Si1 0.157622 0.490603 0.000000
Si Si2 0.000000 0.500000 0.500000
Si Si3 0.178226 0.918993 0.000000
Si Si4 0.113215 0.540587 0.717429
Si Si5 0.714192 0.832921 0.500000
Si Si6 0.135565 0.054124 0.500000
Si Si7 0.922933 0.044111 0.771650
O O1 0.238498 0.432081 0.000000
O O2 0.122432 0.443188 0.141174
O O3 0.159508 0.708129 0.000000
O O4 0.941248 0.542987 0.615558
O O5 0.140507 0.001617 0.871276
O O6 0.185979 0.570448 0.634871
O O7 0.083807 0.742615 0.743753
O O8 0.675071 0.641031 0.500000
O O9 0.797841 0.815161 0.500000
O O10 0.088995 0.054628 0.631665
O O11 0.000000 0.000000 0.826107
#
# Coordination Sequence:
#
# PCOD9425857 Si02
#       7
#     4   2   4   8   4   4   8
#     4  10  20  39  60  88 113 155 191 236 296 337
#     4  10  20  40  54  82 112 158 184 222 306 340
#     4  10  21  38  62  84 121 149 189 244 286 346
#     4   9  20  37  58  77 122 149 183 243 288 342
#     4   9  18  35  51  79 108 149 186 234 294 325
#     4  10  19  33  55  78 112 145 191 242 278 340
#     4  10  20  37  57  82 114 153 192 234 288 341
#
# _framework density 24.000159
#
# number of rings (size 3 to 8) (size 9 to 14) (size 15 to 20)
#    0.000    2.353    0.000    2.824    0.000    0.471 
#   12.706    0.000    0.000    0.000    0.000    0.000 
#    0.000    0.000    0.000    0.000    0.000    0.000 
#
# Total GULP energy -189692.831634 kJ/mol
# GULP energy per Si atom -5579.200930 kJ/mol
# Density = 2.394553 g / cm^3
# Si number density = 24.000159 Si / 1000 Ang^3
#
#
#
# Elastic Constant Matrix: (Units=GPa)
#
#
# Indices 1 2 3 4 5 6 
#
# 1 109.9683 -12.6351 53.1421 0.0000 0.0000 0.0000
# 2 -12.6351 53.7769 15.9815 0.0000 0.0000 0.0000
# 3 53.1421 15.9815 197.8474 0.0000 0.0000 0.0000
# 4 0.0000 0.0000 0.0000 -36.3409 0.0000 0.0000
# 5 0.0000 0.0000 0.0000 0.0000 38.2678 0.0000
# 6 0.0000 0.0000 0.0000 0.0000 0.0000 20.6574
#
#
#
# Elastic Compliance Matrix: (Units=1/GPa)
#
#
# Indices 1 2 3 4 5 6 
#
# 1 0.011082 0.003574 -0.003265 0.000000 0.000000 0.000000
# 2 0.003574 0.020205 -0.002592 0.000000 0.000000 0.000000
# 3 -0.003265 -0.002592 0.006141 0.000000 0.000000 0.000000
# 4 0.000000 0.000000 0.000000 -0.027517 0.000000 0.000000
# 5 0.000000 0.000000 0.000000 0.000000 0.026132 0.000000
# 6 0.000000 0.000000 0.000000 0.000000 0.000000 0.048409
#
#
# Mechanical properties :
#
#
# Convention : Reuss Voigt Hill
#
# Bulk Modulus (GPa) = 30.43043 52.72996 41.58020
# Shear Modulus (GPa) = 50.01374 24.85712 37.43543
#
# Velocity S-wave (km/s) = 4.56992 3.22173 3.95371
# Velocity P-wave (km/s) = 6.36807 5.98814 6.18102
#
# Compressibility (1/GPa) = 0.03286184
#
# Stress axis : x y z
#
# Youngs Moduli (GPa) = 90.23474 49.49153 162.84306
#
# Poissons Ratio (x) = -0.17689 0.53175
# Poissons Ratio (y) = -0.32252 0.42212
# Poissons Ratio (z) = 0.29465 0.12829
#
# Static dielectric constant tensor:
#      x y z
#    x 1.839300 0.000000 0.000000 
#    y 0.000000 1.993520 0.000000 
#    z 0.000000 0.000000 1.907760 
# 
# From -- ./inp_files/2210.got.cif
#   From: 2010.05.17/outbox.cif.g08.bks.cpg/sg55_2_cif.got.tgz:2210.got - 2010.06.03 13:27:54.
