data_PCOD9425478
_publ_section_title
;
Structure prediction by ZEFSAII (Michael W. Deem and Ramdas Pophale) SiO2 
 PCOD9425478
Probable space group: P B A M
;
_chemical_formula_sum "Si O2"
_cell_formula_units_Z 64
_cell_length_a 8.240286
_cell_length_b 28.419825
_cell_length_c 12.703041
_cell_angle_alpha 90.000000
_cell_angle_beta 90.000000
_cell_angle_gamma 90.000000
_cell_volume 2974.893237
_symmetry_space_group_name_H-M "P B A M"
_symmetry_group_IT_number 55
_symmetry_cell_setting 'orthorhombic'
loop_
_space_group_symop_operation_xyz
x,y,z
-x,-y,z
1/2+x,1/2-y,-z
1/2-x,1/2+y,-z
-x,-y,-z
x,y,-z
1/2-x,1/2+y,z
1/2+x,1/2-y,z
loop_
_atom_site_type_symbol
_atom_site_label
_atom_site_fract_x
_atom_site_fract_y
_atom_site_fract_z
Si Si1 0.130690 0.792128 0.376917
Si Si2 0.535240 0.611585 0.382461
Si Si3 0.628908 0.534415 0.781222
Si Si4 0.348533 0.736588 0.228350
Si Si5 0.548055 0.821612 0.823624
Si Si6 0.366046 0.033691 0.679070
Si Si7 0.542987 0.073485 0.118150
Si Si8 0.168462 0.638025 0.611701
O O1 0.085264 0.782510 0.500000
O O2 0.265999 0.756555 0.335561
O O3 0.171122 0.847820 0.375499
O O4 0.007468 0.786952 0.277642
O O5 0.543053 0.589926 0.500000
O O6 0.547960 0.575727 0.287124
O O7 0.363633 0.639445 0.377724
O O8 0.500000 0.500000 0.838761
O O9 0.710937 0.498574 0.697468
O O10 0.774242 0.558394 0.847669
O O11 0.225366 0.703475 0.162595
O O12 0.412454 0.781719 0.163880
O O13 0.497346 0.870553 0.877236
O O14 0.569959 0.836835 0.702053
O O15 0.427072 0.049252 0.795747
O O16 0.355126 0.082032 0.618348
O O17 0.500000 0.000000 0.630887
O O18 0.511865 0.057281 0.000000
O O19 0.119516 0.657635 0.500000
#
# Coordination Sequence:
#
# PCOD9425478 Si02
#       8
#     8   8   8   8   8   8   8   8
#     4  10  19  31  48  77 114 156 197 235 274 326
#     4  10  20  33  52  81 122 165 196 232 280 328
#     4  11  21  36  61  88 118 150 198 248 283 341
#     4  10  20  33  55  81 112 149 193 237 287 335
#     4  10  21  39  59  85 114 153 190 237 290 345
#     4   9  20  37  57  82 112 152 193 239 290 344
#     4  10  23  44  65  83 112 149 185 240 313 366
#     4  10  19  33  53  80 119 160 196 230 273 331
#
# _framework density 21.513377999999999
#
# number of rings (size 3 to 8) (size 9 to 14) (size 15 to 20)
#    0.000    2.000    2.500    1.125    0.000    6.000 
#    0.000    8.125    0.000    0.000    0.000    0.000 
#    0.000    0.000    0.000    0.000    0.000    0.000 
#
# Total GULP energy -356489.124214 kJ/mol
# GULP energy per Si atom -5570.142566 kJ/mol
# Density = 2.146441 g / cm^3
# Si number density = 21.513378 Si / 1000 Ang^3
#
#
#
# Elastic Constant Matrix: (Units=GPa)
#
#
# Indices 1 2 3 4 5 6 
#
# 1 35.5434 -5.5869 0.2700 0.0000 0.0000 0.0000
# 2 -5.5869 70.3118 -2.4178 0.0000 0.0000 0.0000
# 3 0.2700 -2.4178 68.7081 0.0000 0.0000 0.0000
# 4 0.0000 0.0000 0.0000 -6.8630 0.0000 0.0000
# 5 0.0000 0.0000 0.0000 0.0000 -18.5722 0.0000
# 6 0.0000 0.0000 0.0000 0.0000 0.0000 34.0079
#
#
#
# Elastic Compliance Matrix: (Units=1/GPa)
#
#
# Indices 1 2 3 4 5 6 
#
# 1 0.028491 0.002263 -0.000032 0.000000 0.000000 0.000000
# 2 0.002263 0.014419 0.000499 0.000000 0.000000 0.000000
# 3 -0.000032 0.000499 0.014572 0.000000 0.000000 0.000000
# 4 0.000000 0.000000 0.000000 -0.145709 0.000000 0.000000
# 5 0.000000 0.000000 0.000000 0.000000 -0.053844 0.000000
# 6 0.000000 0.000000 0.000000 0.000000 0.000000 0.029405
#
#
# Mechanical properties :
#
#
# Convention : Reuss Voigt Hill
#
# Bulk Modulus (GPa) = 15.88823 17.67709 16.78266
# Shear Modulus (GPa) = -51.47006 13.86774 -18.80116
#
# Velocity S-wave (km/s) = -4.89659 2.54167 -2.95944
# Velocity P-wave (km/s) = 4.95656 4.10464 1.96461
#
# Compressibility (1/GPa) = 0.06293966
#
# Stress axis : x y z
#
# Youngs Moduli (GPa) = 35.09936 69.35151 68.62481
#
# Poissons Ratio (x) = -0.15692 0.00222
# Poissons Ratio (y) = -0.07942 -0.03421
# Poissons Ratio (z) = 0.00113 -0.03457
#
# Static dielectric constant tensor:
#      x y z
#    x 1.890950 0.000000 0.000000 
#    y 0.000000 1.854540 0.000000 
#    z 0.000000 0.000000 1.731750 
# 
# From -- ./inp_files/12600.got.cif
#   From: 2010.05.17/outbox.cif.g08.bks.cpg/sg55_7_cif.got.tgz:12600.got - 2010.06.03 13:27:54.
