data_PCOD9425266
_publ_section_title
;
Structure prediction by ZEFSAII (Michael W. Deem and Ramdas Pophale) SiO2 
 PCOD9425266
Probable space group: P B A M
;
_chemical_formula_sum "Si O2"
_cell_formula_units_Z 64
_cell_length_a 17.249529
_cell_length_b 22.780631
_cell_length_c 7.472029
_cell_angle_alpha 90.000000
_cell_angle_beta 90.000000
_cell_angle_gamma 90.000000
_cell_volume 2936.172314
_symmetry_space_group_name_H-M "P B A M"
_symmetry_group_IT_number 55
_symmetry_cell_setting 'orthorhombic'
loop_
_space_group_symop_operation_xyz
x,y,z
-x,-y,z
1/2+x,1/2-y,-z
1/2-x,1/2+y,-z
-x,-y,-z
x,y,-z
1/2-x,1/2+y,z
1/2+x,1/2-y,z
loop_
_atom_site_type_symbol
_atom_site_label
_atom_site_fract_x
_atom_site_fract_y
_atom_site_fract_z
Si Si1 0.645519 0.354957 0.219201
Si Si2 0.174726 0.384212 0.219196
Si Si3 0.580492 0.230123 0.783539
Si Si4 0.589043 0.996606 0.219005
Si Si5 0.001224 0.932272 0.781083
Si Si6 0.101714 0.734811 0.707536
Si Si7 0.815246 0.385365 0.792098
Si Si8 0.152231 0.864306 0.792755
O O1 0.625091 0.288754 0.275313
O O2 0.575598 0.397371 0.274457
O O3 0.729336 0.376059 0.283856
O O4 0.647049 0.354360 0.000000
O O5 0.123409 0.328707 0.277317
O O6 0.135670 0.445258 0.271917
O O7 0.263107 0.377801 0.283025
O O8 0.175379 0.382636 0.000000
O O9 0.490916 0.232903 0.728969
O O10 0.580912 0.229967 0.000000
O O11 0.632795 0.938049 0.282682
O O12 0.500000 0.000000 0.278045
O O13 0.587122 0.995399 0.000000
O O14 0.078381 0.898856 0.716661
O O15 0.001412 0.930656 0.000000
O O16 0.000000 0.000000 0.727081
O O17 0.121666 0.736045 0.500000
O O18 0.139350 0.676038 0.784747
O O19 0.134273 0.795093 0.787604
O O20 0.803251 0.400797 0.000000
O O21 0.156339 0.882683 0.000000
#
# Coordination Sequence:
#
# PCOD9425266 Si02
#       8
#     8   8   8   8   8   8   8   8
#     4   9  17  30  51  82 110 139 178 217 264 320
#     4   9  18  30  54  87 112 137 178 226 269 317
#     4  10  18  34  56  78 106 139 179 224 271 323
#     4   9  17  30  50  83 117 141 171 219 272 319
#     4   9  17  28  50  85 120 143 168 216 271 320
#     4  12  24  37  54  78 109 143 186 229 273 323
#     4  10  20  34  57  81 109 144 181 224 271 321
#     4  10  19  35  58  83 112 144 179 221 271 322
#
# _framework density 21.797084000000002
#
# number of rings (size 3 to 8) (size 9 to 14) (size 15 to 20)
#    0.000    2.250    1.250    2.625    1.750    4.000 
#    0.000    2.500    0.000    4.500    0.000    0.000 
#    0.000    0.000    0.000    0.000    0.000    0.000 
#
# Total GULP energy -357708.491603 kJ/mol
# GULP energy per Si atom -5589.195181 kJ/mol
# Density = 2.174747 g / cm^3
# Si number density = 21.797084 Si / 1000 Ang^3
#
#
#
# Elastic Constant Matrix: (Units=GPa)
#
#
# Indices 1 2 3 4 5 6 
#
# 1 226.8961 121.0451 -5.6309 0.0000 0.0000 0.0000
# 2 121.0451 199.4540 -11.6403 0.0000 0.0000 0.0000
# 3 -5.6309 -11.6403 60.0837 0.0000 0.0000 0.0000
# 4 0.0000 0.0000 0.0000 -25.8662 0.0000 0.0000
# 5 0.0000 0.0000 0.0000 0.0000 -24.5223 0.0000
# 6 0.0000 0.0000 0.0000 0.0000 0.0000 12.3192
#
#
#
# Elastic Compliance Matrix: (Units=1/GPa)
#
#
# Indices 1 2 3 4 5 6 
#
# 1 0.006519 -0.003965 -0.000157 0.000000 0.000000 0.000000
# 2 -0.003965 0.007483 0.001078 0.000000 0.000000 0.000000
# 3 -0.000157 0.001078 0.016838 0.000000 0.000000 0.000000
# 4 0.000000 0.000000 0.000000 -0.038661 0.000000 0.000000
# 5 0.000000 0.000000 0.000000 0.000000 -0.040779 0.000000
# 6 0.000000 0.000000 0.000000 0.000000 0.000000 0.081174
#
#
# Mechanical properties :
#
#
# Convention : Reuss Voigt Hill
#
# Bulk Modulus (GPa) = 40.40328 77.10906 58.75617
# Shear Modulus (GPa) = 106.58001 17.89679 62.23840
#
# Velocity S-wave (km/s) = 7.00019 2.86853 5.34935
# Velocity P-wave (km/s) = 9.16041 6.81351 8.07270
#
# Compressibility (1/GPa) = 0.02475047
#
# Stress axis : x y z
#
# Youngs Moduli (GPa) = 153.40131 133.63424 59.39097
#
# Poissons Ratio (x) = 0.52991 0.00934
# Poissons Ratio (y) = 0.60829 -0.06403
# Poissons Ratio (z) = 0.02413 -0.14407
#
# Static dielectric constant tensor:
#      x y z
#    x 1.752750 0.000000 0.000000 
#    y 0.000000 1.742810 0.000000 
#    z 0.000000 0.000000 1.817700 
# 
# From -- ./inp_files/6708.got.cif
#   From: 2010.05.17/outbox.cif.g08.bks.cpg/sg55_4_cif.got.tgz:6708.got - 2010.06.03 13:27:54.
