data_PCOD9425082
_publ_section_title
;
Structure prediction by ZEFSAII (Michael W. Deem and Ramdas Pophale) SiO2 
 PCOD9425082
Probable space group: P B A M
;
_chemical_formula_sum "Si O2"
_cell_formula_units_Z 48
_cell_length_a 19.319849
_cell_length_b 14.354977
_cell_length_c 7.349891
_cell_angle_alpha 90.000000
_cell_angle_beta 90.000000
_cell_angle_gamma 90.000000
_cell_volume 2038.389282
_symmetry_space_group_name_H-M "P B A M"
_symmetry_group_IT_number 55
_symmetry_cell_setting 'orthorhombic'
loop_
_space_group_symop_operation_xyz
x,y,z
-x,-y,z
1/2+x,1/2-y,-z
1/2-x,1/2+y,-z
-x,-y,-z
x,y,-z
1/2-x,1/2+y,z
1/2+x,1/2-y,z
loop_
_atom_site_type_symbol
_atom_site_label
_atom_site_fract_x
_atom_site_fract_y
_atom_site_fract_z
Si Si1 0.037673 0.358732 0.219518
Si Si2 0.854427 0.150692 0.277779
Si Si3 0.855687 0.942545 0.722799
Si Si4 0.768071 0.323105 0.290956
Si Si5 0.106812 0.543653 0.780345
Si Si6 0.510719 0.347754 0.708367
O O1 0.092992 0.437027 0.276812
O O2 0.045083 0.254514 0.288771
O O3 0.961929 0.398297 0.273296
O O4 0.038793 0.355165 0.000000
O O5 0.855056 0.158060 0.500000
O O6 0.804528 0.232142 0.210119
O O7 0.933852 0.162523 0.213743
O O8 0.833150 0.046418 0.227625
O O9 0.856395 0.939746 0.500000
O O10 0.801468 0.865910 0.789241
O O11 0.933125 0.918695 0.785974
O O12 0.751696 0.299990 0.500000
O O13 0.825594 0.404730 0.288721
O O14 0.109430 0.544859 0.000000
O O15 0.499725 0.377559 0.500000
#
# Coordination Sequence:
#
# PCOD9425082 Si02
#       6
#     8   8   8   8   8   8
#     4   9  18  32  51  75 103 134 166 206 257 305
#     4   9  17  31  50  73 102 134 169 207 251 307
#     4   9  19  32  49  75 107 137 165 208 266 308
#     4  10  19  32  52  77 101 131 173 217 255 296
#     4   9  18  33  51  72 102 138 168 199 255 316
#     4  10  18  31  53  78 101 133 177 215 247 298
#
# _framework density 23.548003999999999
#
# number of rings (size 3 to 8) (size 9 to 14) (size 15 to 20)
#    0.000    2.667    1.667    1.500    0.000    4.000 
#    0.000    5.833    0.000    5.000    0.000    0.000 
#    0.000    0.000    0.000    0.000    0.000    0.000 
#
# Total GULP energy -268182.500217 kJ/mol
# GULP energy per Si atom -5587.135421 kJ/mol
# Density = 2.349441 g / cm^3
# Si number density = 23.548004 Si / 1000 Ang^3
#
#
#
# Elastic Constant Matrix: (Units=GPa)
#
#
# Indices 1 2 3 4 5 6 
#
# 1 104.1447 63.9087 4.1759 0.0000 0.0000 0.0000
# 2 63.9087 131.0987 -0.4367 0.0000 0.0000 0.0000
# 3 4.1759 -0.4367 90.0378 0.0000 0.0000 0.0000
# 4 0.0000 0.0000 0.0000 29.0320 0.0000 0.0000
# 5 0.0000 0.0000 0.0000 0.0000 -413.5690 0.0000
# 6 0.0000 0.0000 0.0000 0.0000 0.0000 26.3280
#
#
#
# Elastic Compliance Matrix: (Units=1/GPa)
#
#
# Indices 1 2 3 4 5 6 
#
# 1 0.013741 -0.006701 -0.000670 0.000000 0.000000 0.000000
# 2 -0.006701 0.010896 0.000364 0.000000 0.000000 0.000000
# 3 -0.000670 0.000364 0.011139 0.000000 0.000000 0.000000
# 4 0.000000 0.000000 0.000000 0.034445 0.000000 0.000000
# 5 0.000000 0.000000 0.000000 0.000000 -0.002418 0.000000
# 6 0.000000 0.000000 0.000000 0.000000 0.000000 0.037982
#
#
# Mechanical properties :
#
#
# Convention : Reuss Voigt Hill
#
# Bulk Modulus (GPa) = 45.95187 51.17524 48.56356
# Shear Modulus (GPa) = 39.35384 -54.46627 -7.55621
#
# Velocity S-wave (km/s) = 4.09249 -4.81457 -1.79327
# Velocity P-wave (km/s) = 6.47208 3.02114 4.04725
#
# Compressibility (1/GPa) = 0.02176190
#
# Stress axis : x y z
#
# Youngs Moduli (GPa) = 72.77622 91.78082 89.77250
#
# Poissons Ratio (x) = 0.61499 0.06013
# Poissons Ratio (y) = 0.48765 -0.03264
# Poissons Ratio (z) = 0.04874 -0.03337
#
# Static dielectric constant tensor:
#      x y z
#    x 1.862650 0.000000 0.000000 
#    y 0.000000 1.869310 0.000000 
#    z 0.000000 0.000000 1.888560 
# 
# From -- ./inp_files/5805.got.cif
#   From: 2010.05.17/outbox.cif.g08.bks.cpg/sg55_3_cif.got.tgz:5805.got - 2010.06.03 13:27:54.
