data_PCOD9425786
_publ_section_title
;
Structure prediction by ZEFSAII (Michael W. Deem and Ramdas Pophale) SiO2 
 PCOD9425786
Probable space group: P B A M
;
_chemical_formula_sum "Si O2"
_cell_formula_units_Z 64
_cell_length_a 22.795216
_cell_length_b 9.693237
_cell_length_c 14.084279
_cell_angle_alpha 90.000000
_cell_angle_beta 90.000000
_cell_angle_gamma 90.000000
_cell_volume 3112.054276
_symmetry_space_group_name_H-M "P B A M"
_symmetry_group_IT_number 55
_symmetry_cell_setting 'orthorhombic'
loop_
_space_group_symop_operation_xyz
x,y,z
-x,-y,z
1/2+x,1/2-y,-z
1/2-x,1/2+y,-z
-x,-y,-z
x,y,-z
1/2-x,1/2+y,z
1/2+x,1/2-y,z
loop_
_atom_site_type_symbol
_atom_site_label
_atom_site_fract_x
_atom_site_fract_y
_atom_site_fract_z
Si Si1 0.180449 0.356805 0.614200
Si Si2 0.430422 0.529555 0.397774
Si Si3 0.404768 0.022757 0.752611
Si Si4 0.100787 0.752911 0.890474
Si Si5 0.388727 0.219049 0.607781
Si Si6 0.037967 0.317047 0.895703
Si Si7 0.431029 0.542969 0.188453
Si Si8 0.741434 0.876183 0.612601
O O1 0.166307 0.361872 0.500000
O O2 0.131970 0.423710 0.681946
O O3 0.203347 0.208735 0.648289
O O4 0.235927 0.461362 0.627601
O O5 0.500000 0.500000 0.401264
O O6 0.414134 0.595696 0.500000
O O7 0.400559 0.380048 0.392827
O O8 0.418363 0.593877 0.295665
O O9 0.444211 0.923254 0.814996
O O10 0.373143 0.126628 0.828519
O O11 0.430746 0.136408 0.679281
O O12 0.104045 0.905337 0.842738
O O13 0.030933 0.718209 0.891489
O O14 0.120608 0.756932 0.000000
O O15 0.396092 0.168396 0.500000
O O16 0.322016 0.186920 0.638546
O O17 0.072624 0.173736 0.880230
O O18 0.051021 0.375261 0.000000
O O19 0.500000 0.500000 0.187559
O O20 0.745023 0.854789 0.500000
#
# Coordination Sequence:
#
# PCOD9425786 Si02
#       8
#     8   8   8   8   8   8   8   8
#     4   9  18  34  54  76 102 133 166 210 259 311
#     4   9  16  28  47  73 106 140 169 200 242 297
#     4  11  19  31  49  76 104 134 164 208 263 317
#     4  10  19  33  53  74  98 136 184 220 256 305
#     4   9  17  31  52  74 102 141 174 203 245 306
#     4  10  21  35  51  73 105 137 173 224 268 297
#     4   9  17  32  51  72  97 136 179 219 251 289
#     4   8  15  30  51  72  97 128 166 206 249 297
#
# _framework density 20.565194000000002
#
# number of rings (size 3 to 8) (size 9 to 14) (size 15 to 20)
#    0.000    2.625    1.250    2.250    0.000    2.500 
#    2.250    1.250    0.000    7.500    0.000   14.000 
#    0.000    0.000    0.000    0.000    0.000    0.000 
#
# Total GULP energy -356423.011993 kJ/mol
# GULP energy per Si atom -5569.109562 kJ/mol
# Density = 2.051839 g / cm^3
# Si number density = 20.565194 Si / 1000 Ang^3
#
#
#
# Elastic Constant Matrix: (Units=GPa)
#
#
# Indices 1 2 3 4 5 6 
#
# 1 25.7685 17.4799 17.5218 0.0000 0.0000 0.0000
# 2 17.4799 58.4548 18.5744 0.0000 0.0000 0.0000
# 3 17.5218 18.5744 140.2938 0.0000 0.0000 0.0000
# 4 0.0000 0.0000 0.0000 29.1372 0.0000 0.0000
# 5 0.0000 0.0000 0.0000 0.0000 13.7592 0.0000
# 6 0.0000 0.0000 0.0000 0.0000 0.0000 33.2569
#
#
#
# Elastic Compliance Matrix: (Units=1/GPa)
#
#
# Indices 1 2 3 4 5 6 
#
# 1 0.051346 -0.013901 -0.004572 0.000000 0.000000 0.000000
# 2 -0.013901 0.021622 -0.001127 0.000000 0.000000 0.000000
# 3 -0.004572 -0.001127 0.007848 0.000000 0.000000 0.000000
# 4 0.000000 0.000000 0.000000 0.034320 0.000000 0.000000
# 5 0.000000 0.000000 0.000000 0.000000 0.072679 0.000000
# 6 0.000000 0.000000 0.000000 0.000000 0.000000 0.030069
#
#
# Mechanical properties :
#
#
# Convention : Reuss Voigt Hill
#
# Bulk Modulus (GPa) = 24.02919 36.85216 30.44067
# Shear Modulus (GPa) = 18.45316 26.62673 22.53994
#
# Velocity S-wave (km/s) = 2.99875 3.60216 3.31422
# Velocity P-wave (km/s) = 4.86824 5.93796 5.42951
#
# Compressibility (1/GPa) = 0.04161605
#
# Stress axis : x y z
#
# Youngs Moduli (GPa) = 19.47571 46.24893 127.41945
#
# Poissons Ratio (x) = 0.64292 0.58260
# Poissons Ratio (y) = 0.27074 0.14354
# Poissons Ratio (z) = 0.08905 0.05210
#
# Static dielectric constant tensor:
#      x y z
#    x 1.764150 0.000000 0.000000 
#    y 0.000000 1.787120 0.000000 
#    z 0.000000 0.000000 1.779510 
# 
# From -- ./inp_files/20191.got.cif
#   From: 2010.05.17/outbox.cif.g08.bks.cpg/sg55_11_cif.got.tgz:20191.got - 2010.06.03 13:27:54.
