data_PCOD9425228
_publ_section_title
;
Structure prediction by ZEFSAII (Michael W. Deem and Ramdas Pophale) SiO2 
 PCOD9425228
Probable space group: P B A M
;
_chemical_formula_sum "Si O2"
_cell_formula_units_Z 56
_cell_length_a 15.185560
_cell_length_b 21.636010
_cell_length_c 8.708357
_cell_angle_alpha 90.000000
_cell_angle_beta 90.000000
_cell_angle_gamma 90.000000
_cell_volume 2861.173607
_symmetry_space_group_name_H-M "P B A M"
_symmetry_group_IT_number 55
_symmetry_cell_setting 'orthorhombic'
loop_
_space_group_symop_operation_xyz
x,y,z
-x,-y,z
1/2+x,1/2-y,-z
1/2-x,1/2+y,-z
-x,-y,-z
x,y,-z
1/2-x,1/2+y,z
1/2+x,1/2-y,z
loop_
_atom_site_type_symbol
_atom_site_label
_atom_site_fract_x
_atom_site_fract_y
_atom_site_fract_z
Si Si1 0.756338 0.601707 0.312857
Si Si2 0.183278 0.764420 0.314044
Si Si3 0.682500 0.337882 0.819161
Si Si4 0.948933 0.631071 0.677354
Si Si5 0.765198 0.967548 0.319286
Si Si6 0.479644 0.727856 0.322897
Si Si7 0.578946 0.951276 0.822329
O O1 0.757075 0.601739 0.500000
O O2 0.716605 0.667367 0.265220
O O3 0.858488 0.601588 0.263666
O O4 0.711137 0.537325 0.264942
O O5 0.187657 0.760693 0.500000
O O6 0.244712 0.709104 0.252651
O O7 0.080194 0.762759 0.270404
O O8 0.694644 0.407956 0.761937
O O9 0.585356 0.314892 0.772248
O O10 0.694021 0.335546 0.000000
O O11 0.964681 0.611454 0.500000
O O12 0.936655 0.704259 0.676406
O O13 0.031911 0.612595 0.778585
O O14 0.783371 0.963354 0.500000
O O15 0.660790 0.962345 0.287349
O O16 0.482665 0.705540 0.500000
O O17 0.500000 0.000000 0.799169
O O18 0.607106 0.953147 0.000000
#
# Coordination Sequence:
#
# PCOD9425228 Si02
#       7
#     8   8   8   8   8   8   8
#     4   9  18  34  59  87 115 147 198 252 289 343
#     4  10  20  40  67  94 120 154 204 252 298 355
#     4  12  25  40  60  89 126 160 196 248 304 365
#     4  10  18  33  56  83 114 152 198 241 288 356
#     4  11  22  38  59  81 114 161 205 250 299 350
#     4  10  21  38  64  90 116 152 196 248 299 355
#     4  11  22  33  49  81 122 154 188 237 298 367
#
# _framework density 19.572388
#
# number of rings (size 3 to 8) (size 9 to 14) (size 15 to 20)
#    0.000    1.571    2.857    3.000    0.000    2.857 
#    0.000    2.143    0.000    4.286    0.000    0.000 
#    0.000    0.000    0.000    0.000    0.000    0.000 
#
# Total GULP energy -312533.088389 kJ/mol
# GULP energy per Si atom -5580.948007 kJ/mol
# Density = 1.952784 g / cm^3
# Si number density = 19.572388 Si / 1000 Ang^3
#
#
#
# Elastic Constant Matrix: (Units=GPa)
#
#
# Indices 1 2 3 4 5 6 
#
# 1 53.4702 19.3337 11.6857 0.0000 0.0000 0.0000
# 2 19.3337 105.3530 16.9123 0.0000 0.0000 0.0000
# 3 11.6857 16.9123 35.2167 0.0000 0.0000 0.0000
# 4 0.0000 0.0000 0.0000 4.8393 0.0000 0.0000
# 5 0.0000 0.0000 0.0000 0.0000 2.0377 0.0000
# 6 0.0000 0.0000 0.0000 0.0000 0.0000 30.0266
#
#
#
# Elastic Compliance Matrix: (Units=1/GPa)
#
#
# Indices 1 2 3 4 5 6 
#
# 1 0.020984 -0.002961 -0.005541 0.000000 0.000000 0.000000
# 2 -0.002961 0.010703 -0.004157 0.000000 0.000000 0.000000
# 3 -0.005541 -0.004157 0.032231 0.000000 0.000000 0.000000
# 4 0.000000 0.000000 0.000000 0.206642 0.000000 0.000000
# 5 0.000000 0.000000 0.000000 0.000000 0.490739 0.000000
# 6 0.000000 0.000000 0.000000 0.000000 0.000000 0.033304
#
#
# Mechanical properties :
#
#
# Convention : Reuss Voigt Hill
#
# Bulk Modulus (GPa) = 25.90776 32.21148 29.05962
# Shear Modulus (GPa) = 6.00394 17.12126 11.56260
#
# Velocity S-wave (km/s) = 1.75334 2.96085 2.43319
# Velocity P-wave (km/s) = 4.16708 5.30869 4.77215
#
# Compressibility (1/GPa) = 0.03859847
#
# Stress axis : x y z
#
# Youngs Moduli (GPa) = 47.65604 93.43438 31.02642
#
# Poissons Ratio (x) = 0.27669 0.17191
# Poissons Ratio (y) = 0.14113 0.12898
# Poissons Ratio (z) = 0.26405 0.38842
#
# Static dielectric constant tensor:
#      x y z
#    x 1.681400 0.000000 0.000000 
#    y 0.000000 1.736840 0.000000 
#    z 0.000000 0.000000 1.668890 
# 
# From -- ./inp_files/6073.got.cif
#   From: 2010.05.17/outbox.cif.g08.bks.cpg/sg55_4_cif.got.tgz:6073.got - 2010.06.03 13:27:54.
