data_PCOD9425335
_publ_section_title
;
Structure prediction by ZEFSAII (Michael W. Deem and Ramdas Pophale) SiO2 
 PCOD9425335
Probable space group: P B A M
;
_chemical_formula_sum "Si O2"
_cell_formula_units_Z 18
_cell_length_a 18.022402
_cell_length_b 5.063313
_cell_length_c 7.158846
_cell_angle_alpha 90.000000
_cell_angle_beta 90.000000
_cell_angle_gamma 90.000000
_cell_volume 653.266620
_symmetry_space_group_name_H-M "P B A M"
_symmetry_group_IT_number 55
_symmetry_cell_setting 'orthorhombic'
loop_
_space_group_symop_operation_xyz
x,y,z
-x,-y,z
1/2+x,1/2-y,-z
1/2-x,1/2+y,-z
-x,-y,-z
x,y,-z
1/2-x,1/2+y,z
1/2+x,1/2-y,z
loop_
_atom_site_type_symbol
_atom_site_label
_atom_site_fract_x
_atom_site_fract_y
_atom_site_fract_z
Si Si1 0.303184 0.415581 0.000000
Si Si2 0.199355 0.511337 0.500000
Si Si3 0.407086 0.674520 0.288690
Si Si4 0.000000 0.500000 0.000000
O O1 0.358157 0.468341 0.826951
O O2 0.241024 0.644599 0.000000
O O3 0.266407 0.298617 0.500000
O O4 0.148601 0.422754 0.673209
O O5 0.424796 0.585742 0.500000
O O6 0.472202 0.790458 0.163832
#
# Coordination Sequence:
#
# PCOD9425335 Si02
#       4
#     4   4   8   2
#     4  11  22  37  62  97 130 163 208 264 326 383
#     4  10  20  37  64  95 122 158 204 258 324 372
#     4   9  21  36  63  94 128 174 210 272 311 390
#     4  10  18  40  64  96 128 176 230 252 324 378
#
# _framework density 27.553836
#
# number of rings (size 3 to 8) (size 9 to 14) (size 15 to 20)
#    1.333    0.889    0.000    3.333    0.000    0.000 
#    0.000    0.000    0.000   50.667    0.000    0.000 
#    0.000    0.000    0.000    0.000    0.000    0.000 
#
# Total GULP energy -100386.860873 kJ/mol
# GULP energy per Si atom -5577.047826 kJ/mol
# Density = 2.749112 g / cm^3
# Si number density = 27.553836 Si / 1000 Ang^3
#
#
#
# Elastic Constant Matrix: (Units=GPa)
#
#
# Indices 1 2 3 4 5 6 
#
# 1 110.5628 47.5168 49.3267 0.0000 0.0000 0.0000
# 2 47.5168 107.6710 30.7962 0.0000 0.0000 0.0000
# 3 49.3267 30.7962 235.8469 0.0000 0.0000 0.0000
# 4 0.0000 0.0000 0.0000 14.6442 0.0000 0.0000
# 5 0.0000 0.0000 0.0000 0.0000 30.3667 0.0000
# 6 0.0000 0.0000 0.0000 0.0000 0.0000 31.4660
#
#
#
# Elastic Compliance Matrix: (Units=1/GPa)
#
#
# Indices 1 2 3 4 5 6 
#
# 1 0.011909 -0.004720 -0.001875 0.000000 0.000000 0.000000
# 2 -0.004720 0.011518 -0.000517 0.000000 0.000000 0.000000
# 3 -0.001875 -0.000517 0.004700 0.000000 0.000000 0.000000
# 4 0.000000 0.000000 0.000000 0.068287 0.000000 0.000000
# 5 0.000000 0.000000 0.000000 0.000000 0.032931 0.000000
# 6 0.000000 0.000000 0.000000 0.000000 0.000000 0.031780
#
#
# Mechanical properties :
#
#
# Convention : Reuss Voigt Hill
#
# Bulk Modulus (GPa) = 71.91647 78.81780 75.36714
# Shear Modulus (GPa) = 27.78056 37.05809 32.41933
#
# Velocity S-wave (km/s) = 3.17871 3.67131 3.43385
# Velocity P-wave (km/s) = 6.29518 6.82924 6.56764
#
# Compressibility (1/GPa) = 0.01390502
#
# Stress axis : x y z
#
# Youngs Moduli (GPa) = 83.96811 86.81894 212.78449
#
# Poissons Ratio (x) = 0.40975 0.39887
# Poissons Ratio (y) = 0.39629 0.10999
# Poissons Ratio (z) = 0.15740 0.04488
#
# Static dielectric constant tensor:
#      x y z
#    x 2.191680 0.000000 0.000000 
#    y 0.000000 2.084920 0.000000 
#    z 0.000000 0.000000 2.194360 
# 
# From -- ./inp_files/1077.got.cif
#   From: 2010.05.17/outbox.cif.g08.bks.cpg/sg55_1_cif.got.tgz:1077.got - 2010.06.03 13:27:54.
