data_PCOD9425430
_publ_section_title
;
Structure prediction by ZEFSAII (Michael W. Deem and Ramdas Pophale) SiO2 
 PCOD9425430
Probable space group: P B A M
;
_chemical_formula_sum "Si O2"
_cell_formula_units_Z 58
_cell_length_a 23.396635
_cell_length_b 15.832729
_cell_length_c 7.629260
_cell_angle_alpha 90.000000
_cell_angle_beta 90.000000
_cell_angle_gamma 90.000000
_cell_volume 2826.126476
_symmetry_space_group_name_H-M "P B A M"
_symmetry_group_IT_number 55
_symmetry_cell_setting 'orthorhombic'
loop_
_space_group_symop_operation_xyz
x,y,z
-x,-y,z
1/2+x,1/2-y,-z
1/2-x,1/2+y,-z
-x,-y,-z
x,y,-z
1/2-x,1/2+y,z
1/2+x,1/2-y,z
loop_
_atom_site_type_symbol
_atom_site_label
_atom_site_fract_x
_atom_site_fract_y
_atom_site_fract_z
Si Si1 0.391108 0.402049 0.707460
Si Si2 0.500000 0.000000 0.500000
Si Si3 0.321814 0.828988 0.213052
Si Si4 0.202595 0.148290 0.200202
Si Si5 0.486747 0.289207 0.200663
Si Si6 0.951362 0.622899 0.211896
Si Si7 0.417720 0.584412 0.297728
Si Si8 0.265656 0.467509 0.788858
O O1 0.397593 0.393491 0.500000
O O2 0.421939 0.320660 0.786148
O O3 0.423447 0.488182 0.766679
O O4 0.325192 0.419955 0.749375
O O5 0.462086 0.953407 0.656838
O O6 0.294708 0.741396 0.281023
O O7 0.388901 0.837557 0.248868
O O8 0.286420 0.910233 0.274152
O O9 0.317303 0.826195 0.000000
O O10 0.134861 0.127147 0.198312
O O11 0.230678 0.063837 0.279560
O O12 0.223576 0.154799 0.000000
O O13 0.501665 0.194941 0.259193
O O14 0.526289 0.358949 0.292074
O O15 0.505577 0.291904 0.000000
O O16 0.954475 0.603974 0.000000
O O17 0.398957 0.578210 0.500000
O O18 0.262125 0.473913 0.000000
#
# Coordination Sequence:
#
# PCOD9425430 Si02
#       8
#     8   2   8   8   8   8   8   8
#     4  10  21  34  49  78 124 162 188 239 301 366
#     4  12  26  44  68  90 118 160 186 260 326 368
#     4   9  17  35  60  85 117 152 200 259 306 362
#     4   9  16  30  53  80 110 146 194 245 294 358
#     4  11  21  34  56  84 114 153 199 247 294 363
#     4  10  23  42  65  94 121 157 212 265 312 370
#     4  10  19  30  49  80 117 151 187 235 296 355
#     4   9  18  33  55  82 114 158 202 247 307 371
#
# _framework density 20.522790000000001
#
# number of rings (size 3 to 8) (size 9 to 14) (size 15 to 20)
#    0.000    2.207    1.379    1.862    1.931    3.310 
#    1.241    1.379    0.000    4.966    0.000    0.000 
#    0.000    0.000    0.000    0.000    0.000    0.000 
#
# Total GULP energy -322877.276796 kJ/mol
# GULP energy per Si atom -5566.849600 kJ/mol
# Density = 2.047608 g / cm^3
# Si number density = 20.522790 Si / 1000 Ang^3
#
#
#
# Elastic Constant Matrix: (Units=GPa)
#
#
# Indices 1 2 3 4 5 6 
#
# 1 26.7879 40.3082 5.6534 0.0000 0.0000 0.0000
# 2 40.3082 87.1732 11.4410 0.0000 0.0000 0.0000
# 3 5.6534 11.4410 60.7210 0.0000 0.0000 0.0000
# 4 0.0000 0.0000 0.0000 -12.3741 0.0000 0.0000
# 5 0.0000 0.0000 0.0000 0.0000 -0.8655 0.0000
# 6 0.0000 0.0000 0.0000 0.0000 0.0000 34.4067
#
#
#
# Elastic Compliance Matrix: (Units=1/GPa)
#
#
# Indices 1 2 3 4 5 6 
#
# 1 0.122737 -0.056654 -0.000753 0.000000 0.000000 0.000000
# 2 -0.056654 0.037913 -0.001869 0.000000 0.000000 0.000000
# 3 -0.000753 -0.001869 0.016891 0.000000 0.000000 0.000000
# 4 0.000000 0.000000 0.000000 -0.080814 0.000000 0.000000
# 5 0.000000 0.000000 0.000000 0.000000 -1.155380 0.000000
# 6 0.000000 0.000000 0.000000 0.000000 0.000000 0.029064
#
#
# Mechanical properties :
#
#
# Convention : Reuss Voigt Hill
#
# Bulk Modulus (GPa) = 16.95199 32.16525 24.55862
# Shear Modulus (GPa) = -5.60931 12.05205 3.22137
#
# Velocity S-wave (km/s) = -1.65504 2.42596 1.25422
# Velocity P-wave (km/s) = 2.15077 4.85325 3.75365
#
# Compressibility (1/GPa) = 0.05899012
#
# Stress axis : x y z
#
# Youngs Moduli (GPa) = 8.14753 26.37629 59.20330
#
# Poissons Ratio (x) = 1.49431 0.04456
# Poissons Ratio (y) = 0.46159 0.11064
# Poissons Ratio (z) = 0.00613 0.04929
#
# Static dielectric constant tensor:
#      x y z
#    x 1.697810 0.000000 0.000000 
#    y 0.000000 1.786290 0.000000 
#    z 0.000000 0.000000 1.751400 
# 
# From -- ./inp_files/6396.got.cif
#   From: 2010.05.17/outbox.cif.g08.bks.cpg/sg55_4_cif.got.tgz:6396.got - 2010.06.03 13:27:54.
