data_PCOD9425738
_publ_section_title
;
Structure prediction by ZEFSAII (Michael W. Deem and Ramdas Pophale) SiO2 
 PCOD9425738
Probable space group: P B A M
;
_chemical_formula_sum "Si O2"
_cell_formula_units_Z 64
_cell_length_a 20.807931
_cell_length_b 19.720638
_cell_length_c 9.016846
_cell_angle_alpha 90.000000
_cell_angle_beta 90.000000
_cell_angle_gamma 90.000000
_cell_volume 3700.023756
_symmetry_space_group_name_H-M "P B A M"
_symmetry_group_IT_number 55
_symmetry_cell_setting 'orthorhombic'
loop_
_space_group_symop_operation_xyz
x,y,z
-x,-y,z
1/2+x,1/2-y,-z
1/2-x,1/2+y,-z
-x,-y,-z
x,y,-z
1/2-x,1/2+y,z
1/2+x,1/2-y,z
loop_
_atom_site_type_symbol
_atom_site_label
_atom_site_fract_x
_atom_site_fract_y
_atom_site_fract_z
Si Si1 0.810485 0.538661 0.177299
Si Si2 0.487495 0.178249 0.676743
Si Si3 0.132121 0.174442 0.678317
Si Si4 0.139472 0.327916 0.677052
Si Si5 0.688289 0.467761 0.323106
Si Si6 0.432755 0.461610 0.823985
Si Si7 0.992754 0.179862 0.822825
Si Si8 0.561811 0.954198 0.822385
O O1 0.821466 0.614084 0.240114
O O2 0.748820 0.502129 0.245393
O O3 0.873891 0.494893 0.216254
O O4 0.805383 0.541370 0.000000
O O5 0.481887 0.183322 0.500000
O O6 0.563189 0.164800 0.711373
O O7 0.470797 0.249682 0.751521
O O8 0.446099 0.116848 0.740123
O O9 0.121283 0.174008 0.500000
O O10 0.156415 0.250035 0.716540
O O11 0.063417 0.164554 0.756825
O O12 0.178151 0.111763 0.715484
O O13 0.147226 0.336152 0.500000
O O14 0.694792 0.472868 0.500000
O O15 0.624104 0.505877 0.269309
O O16 0.500000 0.500000 0.796604
O O17 0.446044 0.382908 0.789981
O O18 0.418485 0.468569 0.000000
O O19 0.998082 0.186182 0.000000
O O20 0.500000 0.000000 0.784133
O O21 0.560873 0.943184 0.000000
#
# Coordination Sequence:
#
# PCOD9425738 Si02
#       8
#     8   8   8   8   8   8   8   8
#     4  11  23  38  57  82 114 149 188 235 280 333
#     4  10  20  33  54  84 116 147 184 232 282 336
#     4   9  19  35  55  82 112 144 184 229 276 332
#     4   9  18  34  55  80 110 143 184 228 275 331
#     4  11  23  38  58  83 115 152 189 231 280 337
#     4  10  20  36  57  84 114 145 186 231 277 328
#     4  10  19  32  55  83 114 148 183 231 281 329
#     4  10  20  36  57  82 111 144 189 234 278 332
#
# _framework density 17.297186
#
# number of rings (size 3 to 8) (size 9 to 14) (size 15 to 20)
#    0.000    2.000    2.500    2.250    0.000    5.000 
#    0.000    1.250    0.000    3.000    0.000    0.000 
#    0.000    0.000    0.000    0.000    0.000    0.000 
#
# Total GULP energy -357238.423671 kJ/mol
# GULP energy per Si atom -5581.850370 kJ/mol
# Density = 1.725782 g / cm^3
# Si number density = 17.297186 Si / 1000 Ang^3
#
#
#
# Elastic Constant Matrix: (Units=GPa)
#
#
# Indices 1 2 3 4 5 6 
#
# 1 82.4536 67.8416 40.2305 0.0000 0.0000 0.0000
# 2 67.8416 168.0599 62.3265 0.0000 0.0000 0.0000
# 3 40.2305 62.3265 40.6302 0.0000 0.0000 0.0000
# 4 0.0000 0.0000 0.0000 30.1264 0.0000 0.0000
# 5 0.0000 0.0000 0.0000 0.0000 25.4188 0.0000
# 6 0.0000 0.0000 0.0000 0.0000 0.0000 24.7794
#
#
#
# Elastic Compliance Matrix: (Units=1/GPa)
#
#
# Indices 1 2 3 4 5 6 
#
# 1 0.023753 -0.002009 -0.020437 0.000000 0.000000 0.000000
# 2 -0.002009 0.013972 -0.019444 0.000000 0.000000 0.000000
# 3 -0.020437 -0.019444 0.074675 0.000000 0.000000 0.000000
# 4 0.000000 0.000000 0.000000 0.033193 0.000000 0.000000
# 5 0.000000 0.000000 0.000000 0.000000 0.039341 0.000000
# 6 0.000000 0.000000 0.000000 0.000000 0.000000 0.040356
#
#
# Mechanical properties :
#
#
# Convention : Reuss Voigt Hill
#
# Bulk Modulus (GPa) = 34.94084 70.21566 52.57825
# Shear Modulus (GPa) = 15.69313 24.11459 19.90386
#
# Velocity S-wave (km/s) = 3.01535 3.73786 3.39588
# Velocity P-wave (km/s) = 5.68922 7.70134 6.77045
#
# Compressibility (1/GPa) = 0.02861980
#
# Stress axis : x y z
#
# Youngs Moduli (GPa) = 42.10055 71.57031 13.39134
#
# Poissons Ratio (x) = 0.14379 0.27368
# Poissons Ratio (y) = 0.08459 0.26038
# Poissons Ratio (z) = 0.86041 1.39161
#
# Static dielectric constant tensor:
#      x y z
#    x 1.554160 0.000000 0.000000 
#    y 0.000000 1.594370 0.000000 
#    z 0.000000 0.000000 1.572390 
# 
# From -- ./inp_files/8936.got.cif
#   From: 2010.05.17/outbox.cif.g08.bks.cpg/sg55_5_cif.got.tgz:8936.got - 2010.06.03 13:27:54.
