data_PCOD9425164
_publ_section_title
;
Structure prediction by ZEFSAII (Michael W. Deem and Ramdas Pophale) SiO2 
 PCOD9425164
Probable space group: P B A M
;
_chemical_formula_sum "Si O2"
_cell_formula_units_Z 52
_cell_length_a 14.009219
_cell_length_b 5.301115
_cell_length_c 30.469729
_cell_angle_alpha 90.000000
_cell_angle_beta 90.000000
_cell_angle_gamma 90.000000
_cell_volume 2262.818610
_symmetry_space_group_name_H-M "P B A M"
_symmetry_group_IT_number 55
_symmetry_cell_setting 'orthorhombic'
loop_
_space_group_symop_operation_xyz
x,y,z
-x,-y,z
1/2+x,1/2-y,-z
1/2-x,1/2+y,-z
-x,-y,-z
x,y,-z
1/2-x,1/2+y,z
1/2+x,1/2-y,z
loop_
_atom_site_type_symbol
_atom_site_label
_atom_site_fract_x
_atom_site_fract_y
_atom_site_fract_z
Si Si1 0.385656 0.219882 0.779295
Si Si2 0.686614 0.333647 0.451470
Si Si3 0.315166 0.587419 0.000000
Si Si4 0.315960 0.589666 0.903974
Si Si5 0.396639 0.718726 0.185704
Si Si6 0.388982 0.525695 0.359904
Si Si7 0.114175 0.526016 0.318977
O O1 0.497456 0.251101 0.793757
O O2 0.347490 0.500831 0.785573
O O3 0.373173 0.123535 0.730192
O O4 0.351626 0.995365 0.810672
O O5 0.641035 0.354645 0.500000
O O6 0.764509 0.559248 0.448967
O O7 0.621105 0.380052 0.409549
O O8 0.364035 0.601097 0.952354
O O9 0.257104 0.324976 0.000000
O O10 0.258508 0.325153 0.900884
O O11 0.388918 0.624062 0.863956
O O12 0.500000 0.500000 0.348517
O O13 0.350361 0.244350 0.351901
O O14 0.348419 0.746176 0.328812
O O15 0.000000 0.500000 0.325358
#
# Coordination Sequence:
#
# PCOD9425164 Si02
#       7
#     8   8   4   8   8   8   8
#     4  10  19  32  52  77  96 138 176 213 251 306
#     4  10  21  39  61  82 113 152 180 211 273 343
#     4   8  16  30  50  70  94 130 176 212 250 312
#     4  10  19  33  51  75 102 134 170 215 267 312
#     4  10  19  30  52  75 101 132 171 220 248 313
#     4  10  21  33  57  89 108 138 184 237 264 302
#     4  10  18  32  53  80 103 132 179 223 262 297
#
# _framework density 22.980191000000001
#
# number of rings (size 3 to 8) (size 9 to 14) (size 15 to 20)
#    0.000    2.154    1.538    2.769    4.308    0.308 
#    0.000    0.000    0.000   27.692    0.000    0.000 
#    0.000    0.000    0.000    0.000    0.000    0.000 
#
# Total GULP energy -290155.673190 kJ/mol
# GULP energy per Si atom -5579.916792 kJ/mol
# Density = 2.292789 g / cm^3
# Si number density = 22.980191 Si / 1000 Ang^3
#
#
#
# Elastic Constant Matrix: (Units=GPa)
#
#
# Indices 1 2 3 4 5 6 
#
# 1 60.6699 -6.0853 -1.0217 0.0000 0.0000 0.0000
# 2 -6.0853 167.0801 45.5436 0.0000 0.0000 0.0000
# 3 -1.0217 45.5436 142.0288 0.0000 0.0000 0.0000
# 4 0.0000 0.0000 0.0000 38.8504 0.0000 0.0000
# 5 0.0000 0.0000 0.0000 0.0000 42.3772 0.0000
# 6 0.0000 0.0000 0.0000 0.0000 0.0000 -5.5882
#
#
#
# Elastic Compliance Matrix: (Units=1/GPa)
#
#
# Indices 1 2 3 4 5 6 
#
# 1 0.016544 0.000625 -0.000081 0.000000 0.000000 0.000000
# 2 0.000625 0.006582 -0.002106 0.000000 0.000000 0.000000
# 3 -0.000081 -0.002106 0.007716 0.000000 0.000000 0.000000
# 4 0.000000 0.000000 0.000000 0.025740 0.000000 0.000000
# 5 0.000000 0.000000 0.000000 0.000000 0.023598 0.000000
# 6 0.000000 0.000000 0.000000 0.000000 0.000000 -0.178949
#
#
# Mechanical properties :
#
#
# Convention : Reuss Voigt Hill
#
# Bulk Modulus (GPa) = 36.08012 49.62801 42.85406
# Shear Modulus (GPa) = -57.86646 37.21737 -10.32455
#
# Velocity S-wave (km/s) = -5.02351 4.02872 -2.12192
# Velocity P-wave (km/s) = 4.23237 6.57903 3.56165
#
# Compressibility (1/GPa) = 0.02771610
#
# Stress axis : x y z
#
# Youngs Moduli (GPa) = 60.44517 151.92941 129.60756
#
# Poissons Ratio (x) = -0.09491 0.01054
# Poissons Ratio (y) = -0.03776 0.27297
# Poissons Ratio (z) = 0.00491 0.31998
#
# Static dielectric constant tensor:
#      x y z
#    x 1.645150 0.000000 0.000000 
#    y 0.000000 1.932960 0.000000 
#    z 0.000000 0.000000 1.872610 
# 
# From -- ./inp_files/23998.got.cif
#   From: 2010.05.17/outbox.cif.g08.bks.cpg/sg55_12_cif.got.tgz:23998.got - 2010.06.03 13:27:54.
