data_PCOD9425046
_publ_section_title
;
Structure prediction by ZEFSAII (Michael W. Deem and Ramdas Pophale) SiO2 
 PCOD9425046
Probable space group: P B A M
;
_chemical_formula_sum "Si O2"
_cell_formula_units_Z 48
_cell_length_a 14.527166
_cell_length_b 20.852549
_cell_length_c 7.405645
_cell_angle_alpha 90.000000
_cell_angle_beta 90.000000
_cell_angle_gamma 90.000000
_cell_volume 2243.380493
_symmetry_space_group_name_H-M "P B A M"
_symmetry_group_IT_number 55
_symmetry_cell_setting 'orthorhombic'
loop_
_space_group_symop_operation_xyz
x,y,z
-x,-y,z
1/2+x,1/2-y,-z
1/2-x,1/2+y,-z
-x,-y,-z
x,y,-z
1/2-x,1/2+y,z
1/2+x,1/2-y,z
loop_
_atom_site_type_symbol
_atom_site_label
_atom_site_fract_x
_atom_site_fract_y
_atom_site_fract_z
Si Si1 0.439854 0.939114 0.780117
Si Si2 0.947279 0.807025 0.794045
Si Si3 0.454643 0.435601 0.291097
Si Si4 0.742596 0.513888 0.781601
Si Si5 0.056043 0.684057 0.220782
Si Si6 0.756542 0.864243 0.221094
O O1 0.335927 0.951686 0.721391
O O2 0.489909 0.874335 0.723906
O O3 0.500000 0.000000 0.724303
O O4 0.439391 0.938465 0.000000
O O5 0.847838 0.826738 0.716167
O O6 0.007772 0.871442 0.796363
O O7 0.009018 0.749873 0.715686
O O8 0.927354 0.786919 0.000000
O O9 0.500000 0.500000 0.212681
O O10 0.483129 0.431146 0.500000
O O11 0.346441 0.447283 0.278902
O O12 0.739875 0.439204 0.723321
O O13 0.742280 0.512902 0.000000
O O14 0.160600 0.668408 0.277441
O O15 0.059893 0.685165 0.000000
O O16 0.758219 0.865074 0.000000
#
# Coordination Sequence:
#
# PCOD9425046 Si02
#       6
#     8   8   8   8   8   8
#     4   9  15  26  48  81 111 137 170 216 264 304
#     4  10  20  33  53  78 107 139 174 217 262 313
#     4  11  23  37  53  74 102 136 177 221 264 314
#     4  10  18  30  55  83 107 136 176 218 259 310
#     4   9  17  29  48  79 115 141 170 215 265 313
#     4   9  16  28  48  77 110 140 170 212 263 309
#
# _framework density 21.396280999999998
#
# number of rings (size 3 to 8) (size 9 to 14) (size 15 to 20)
#    0.000    2.333    3.333    0.500    0.000    2.000 
#    0.000    5.000    0.000    5.500    0.000    0.000 
#    0.000    0.000    0.000    0.000    0.000    0.000 
#
# Total GULP energy -268071.649067 kJ/mol
# GULP energy per Si atom -5584.826022 kJ/mol
# Density = 2.134758 g / cm^3
# Si number density = 21.396281 Si / 1000 Ang^3
#
#
#
# Elastic Constant Matrix: (Units=GPa)
#
#
# Indices 1 2 3 4 5 6 
#
# 1 212.8929 97.8554 -6.3445 0.0000 0.0000 0.0000
# 2 97.8554 162.5151 -1.3685 0.0000 0.0000 0.0000
# 3 -6.3445 -1.3685 70.5960 0.0000 0.0000 0.0000
# 4 0.0000 0.0000 0.0000 -65.5831 0.0000 0.0000
# 5 0.0000 0.0000 0.0000 0.0000 11.3522 0.0000
# 6 0.0000 0.0000 0.0000 0.0000 0.0000 32.6135
#
#
#
# Elastic Compliance Matrix: (Units=1/GPa)
#
#
# Indices 1 2 3 4 5 6 
#
# 1 0.006513 -0.003917 0.000509 0.000000 0.000000 0.000000
# 2 -0.003917 0.008510 -0.000187 0.000000 0.000000 0.000000
# 3 0.000509 -0.000187 0.014207 0.000000 0.000000 0.000000
# 4 0.000000 0.000000 0.000000 -0.015248 0.000000 0.000000
# 5 0.000000 0.000000 0.000000 0.000000 0.088089 0.000000
# 6 0.000000 0.000000 0.000000 0.000000 0.000000 0.030662
#
#
# Mechanical properties :
#
#
# Convention : Reuss Voigt Hill
#
# Bulk Modulus (GPa) = 45.37088 69.58763 57.47926
# Shear Modulus (GPa) = 33.95110 19.40064 26.67587
#
# Velocity S-wave (km/s) = 3.98776 3.01446 3.53477
# Velocity P-wave (km/s) = 6.51567 6.68654 6.60166
#
# Compressibility (1/GPa) = 0.02204057
#
# Stress axis : x y z
#
# Youngs Moduli (GPa) = 153.53928 117.50216 70.38658
#
# Poissons Ratio (x) = 0.46030 -0.03585
# Poissons Ratio (y) = 0.60147 0.01317
# Poissons Ratio (z) = -0.07821 0.02198
#
# Static dielectric constant tensor:
#      x y z
#    x 1.767070 0.000000 0.000000 
#    y 0.000000 1.725270 0.000000 
#    z 0.000000 0.000000 1.825580 
# 
# From -- ./inp_files/5639.got.cif
#   From: 2010.05.17/outbox.cif.g08.bks.cpg/sg55_3_cif.got.tgz:5639.got - 2010.06.03 13:27:54.
