data_PCOD9425296
_publ_section_title
;
Structure prediction by ZEFSAII (Michael W. Deem and Ramdas Pophale) SiO2 
 PCOD9425296
Probable space group: P B A M
;
_chemical_formula_sum "Si O2"
_cell_formula_units_Z 64
_cell_length_a 24.414682
_cell_length_b 15.948696
_cell_length_c 8.545856
_cell_angle_alpha 90.000000
_cell_angle_beta 90.000000
_cell_angle_gamma 90.000000
_cell_volume 3327.605416
_symmetry_space_group_name_H-M "P B A M"
_symmetry_group_IT_number 55
_symmetry_cell_setting 'orthorhombic'
loop_
_space_group_symop_operation_xyz
x,y,z
-x,-y,z
1/2+x,1/2-y,-z
1/2-x,1/2+y,-z
-x,-y,-z
x,y,-z
1/2-x,1/2+y,z
1/2+x,1/2-y,z
loop_
_atom_site_type_symbol
_atom_site_label
_atom_site_fract_x
_atom_site_fract_y
_atom_site_fract_z
Si Si1 0.559920 0.249234 0.812819
Si Si2 0.747854 0.346494 0.812232
Si Si3 0.937262 0.245105 0.312720
Si Si4 0.369598 0.097641 0.811032
Si Si5 0.749879 0.648027 0.187875
Si Si6 0.132207 0.098919 0.313598
Si Si7 0.134651 0.912234 0.688468
Si Si8 0.630002 0.089706 0.190947
O O1 0.499223 0.256137 0.746000
O O2 0.596509 0.328593 0.764720
O O3 0.590234 0.164238 0.756884
O O4 0.557060 0.245421 0.000000
O O5 0.806004 0.386668 0.768716
O O6 0.750238 0.247271 0.777513
O O7 0.695723 0.385843 0.728187
O O8 0.740557 0.356015 0.000000
O O9 0.936964 0.243063 0.500000
O O10 0.906503 0.328726 0.256897
O O11 0.903615 0.163601 0.254306
O O12 0.386138 0.004015 0.760956
O O13 0.372814 0.102241 0.000000
O O14 0.696741 0.605676 0.260597
O O15 0.807728 0.609705 0.240282
O O16 0.746550 0.638634 0.000000
O O17 0.124739 0.104184 0.500000
O O18 0.117125 0.005034 0.259339
O O19 0.132843 0.912093 0.500000
O O20 0.630251 0.090983 0.000000
#
# Coordination Sequence:
#
# PCOD9425296 Si02
#       8
#     8   8   8   8   8   8   8   8
#     4  11  23  42  63  84 113 151 199 247 292 346
#     4  10  19  34  60  91 121 151 190 237 285 342
#     4  11  24  42  60  82 115 153 195 245 296 345
#     4  10  20  37  61  88 116 153 194 233 284 344
#     4  10  18  34  61  90 118 150 190 236 285 340
#     4  11  23  39  60  87 119 156 193 234 291 351
#     4  10  23  40  58  84 120 157 191 233 291 351
#     4   9  19  36  59  86 118 151 186 234 291 343
#
# _framework density 19.233049999999999
#
# number of rings (size 3 to 8) (size 9 to 14) (size 15 to 20)
#    0.000    1.750    2.500    1.875    0.000    4.500 
#    0.000    6.875    0.000    0.000    0.000    0.000 
#    0.000    0.000    0.000    0.000    0.000    0.000 
#
# Total GULP energy -357580.376541 kJ/mol
# GULP energy per Si atom -5587.193383 kJ/mol
# Density = 1.918927 g / cm^3
# Si number density = 19.233050 Si / 1000 Ang^3
#
#
#
# Elastic Constant Matrix: (Units=GPa)
#
#
# Indices 1 2 3 4 5 6 
#
# 1 352.2271 345.8282 235.4191 0.0000 0.0000 0.0000
# 2 345.8282 506.8452 292.6040 0.0000 0.0000 0.0000
# 3 235.4191 292.6040 220.1856 0.0000 0.0000 0.0000
# 4 0.0000 0.0000 0.0000 24.4696 0.0000 0.0000
# 5 0.0000 0.0000 0.0000 0.0000 61.9265 0.0000
# 6 0.0000 0.0000 0.0000 0.0000 0.0000 -1.2993
#
#
#
# Elastic Compliance Matrix: (Units=1/GPa)
#
#
# Indices 1 2 3 4 5 6 
#
# 1 0.010953 -0.003061 -0.007642 0.000000 0.000000 0.000000
# 2 -0.003061 0.009330 -0.009125 0.000000 0.000000 0.000000
# 3 -0.007642 -0.009125 0.024840 0.000000 0.000000 0.000000
# 4 0.000000 0.000000 0.000000 0.040867 0.000000 0.000000
# 5 0.000000 0.000000 0.000000 0.000000 0.016148 0.000000
# 6 0.000000 0.000000 0.000000 0.000000 0.000000 -0.769660
#
#
# Mechanical properties :
#
#
# Convention : Reuss Voigt Hill
#
# Bulk Modulus (GPa) = 183.01701 314.10673 248.56187
# Shear Modulus (GPa) = -7.98666 30.71312 11.36323
#
# Velocity S-wave (km/s) = -2.04000 4.00045 2.43331
# Velocity P-wave (km/s) = 9.47710 13.60179 11.72229
#
# Compressibility (1/GPa) = 0.00546397
#
# Stress axis : x y z
#
# Youngs Moduli (GPa) = 91.30294 107.18384 40.25827
#
# Poissons Ratio (x) = 0.32810 0.30767
# Poissons Ratio (y) = 0.27948 0.36737
# Poissons Ratio (z) = 0.69778 0.97810
#
# Static dielectric constant tensor:
#      x y z
#    x 1.629150 0.000000 0.000000 
#    y 0.000000 1.680920 0.000000 
#    z 0.000000 0.000000 1.660460 
# 
# From -- ./inp_files/6643.got.cif
#   From: 2010.05.17/outbox.cif.g08.bks.cpg/sg55_4_cif.got.tgz:6643.got - 2010.06.03 13:27:54.
