data_PCOD9425298
_publ_section_title
;
Structure prediction by ZEFSAII (Michael W. Deem and Ramdas Pophale) SiO2 
 PCOD9425298
Probable space group: P B A M
;
_chemical_formula_sum "Si O2"
_cell_formula_units_Z 64
_cell_length_a 10.222505
_cell_length_b 19.283443
_cell_length_c 17.851204
_cell_angle_alpha 90.000000
_cell_angle_beta 90.000000
_cell_angle_gamma 90.000000
_cell_volume 3518.920239
_symmetry_space_group_name_H-M "P B A M"
_symmetry_group_IT_number 55
_symmetry_cell_setting 'orthorhombic'
loop_
_space_group_symop_operation_xyz
x,y,z
-x,-y,z
1/2+x,1/2-y,-z
1/2-x,1/2+y,-z
-x,-y,-z
x,y,-z
1/2-x,1/2+y,z
1/2+x,1/2-y,z
loop_
_atom_site_type_symbol
_atom_site_label
_atom_site_fract_x
_atom_site_fract_y
_atom_site_fract_z
Si Si1 0.638178 0.522622 0.187280
Si Si2 0.410963 0.786592 0.087750
Si Si3 0.236771 0.111157 0.276039
Si Si4 0.392807 0.444110 0.413910
Si Si5 0.637187 0.961961 0.586949
Si Si6 0.163928 0.732273 0.181928
Si Si7 0.115023 0.451350 0.087142
Si Si8 0.943136 0.153482 0.287499
O O1 0.500000 0.500000 0.152731
O O2 0.690484 0.462280 0.241922
O O3 0.749999 0.535756 0.128214
O O4 0.605691 0.591751 0.233118
O O5 0.294100 0.758238 0.139744
O O6 0.546841 0.760839 0.122470
O O7 0.415729 0.870045 0.092415
O O8 0.394374 0.767441 0.000000
O O9 0.319505 0.094576 0.351046
O O10 0.315022 0.155093 0.214114
O O11 0.101239 0.153188 0.289496
O O12 0.500000 0.500000 0.383831
O O13 0.428209 0.431379 0.500000
O O14 0.252881 0.481001 0.410491
O O15 0.397338 0.373566 0.367984
O O16 0.631108 0.936631 0.500000
O O17 0.500000 0.000000 0.604428
O O18 0.121663 0.778396 0.253439
O O19 0.000000 0.500000 0.118850
O O20 0.129578 0.469566 0.000000
#
# Coordination Sequence:
#
# PCOD9425298 Si02
#       8
#     8   8   8   8   8   8   8   8
#     4  10  20  36  60  86 115 150 200 249 305 360
#     4  11  24  43  63  85 119 163 207 254 309 374
#     4  11  22  38  61  90 125 161 198 255 309 354
#     4  10  18  34  63  90 116 160 205 243 293 357
#     4  10  21  37  61  96 128 155 199 252 303 358
#     4  12  24  40  61  90 122 162 209 255 306 371
#     4  10  21  38  58  84 117 151 197 256 312 368
#     4  11  20  38  59  89 121 154 209 255 295 362
#
# _framework density 18.187397000000001
#
# number of rings (size 3 to 8) (size 9 to 14) (size 15 to 20)
#    0.000    1.375    5.000    1.500    0.000    2.750 
#    0.000    1.250    0.000    0.000    0.000    0.000 
#    0.000    0.000    0.000    0.000    0.000    0.000 
#
# Total GULP energy -357118.442405 kJ/mol
# GULP energy per Si atom -5579.975663 kJ/mol
# Density = 1.814600 g / cm^3
# Si number density = 18.187397 Si / 1000 Ang^3
#
#
#
# Elastic Constant Matrix: (Units=GPa)
#
#
# Indices 1 2 3 4 5 6 
#
# 1 118.6148 22.1500 42.8319 0.0000 0.0000 0.0000
# 2 22.1500 34.0878 22.8240 0.0000 0.0000 0.0000
# 3 42.8319 22.8240 88.3082 0.0000 0.0000 0.0000
# 4 0.0000 0.0000 0.0000 27.0888 0.0000 0.0000
# 5 0.0000 0.0000 0.0000 0.0000 32.8076 0.0000
# 6 0.0000 0.0000 0.0000 0.0000 0.0000 21.9683
#
#
#
# Elastic Compliance Matrix: (Units=1/GPa)
#
#
# Indices 1 2 3 4 5 6 
#
# 1 0.010697 -0.004204 -0.004102 0.000000 0.000000 0.000000
# 2 -0.004204 0.037128 -0.007557 0.000000 0.000000 0.000000
# 3 -0.004102 -0.007557 0.015266 0.000000 0.000000 0.000000
# 4 0.000000 0.000000 0.000000 0.036916 0.000000 0.000000
# 5 0.000000 0.000000 0.000000 0.000000 0.030481 0.000000
# 6 0.000000 0.000000 0.000000 0.000000 0.000000 0.045520
#
#
# Mechanical properties :
#
#
# Convention : Reuss Voigt Hill
#
# Bulk Modulus (GPa) = 31.88214 46.29141 39.08677
# Shear Modulus (GPa) = 22.91599 26.58660 24.75130
#
# Velocity S-wave (km/s) = 3.55349 3.82752 3.69305
# Velocity P-wave (km/s) = 5.86551 6.71125 6.30258
#
# Compressibility (1/GPa) = 0.03136552
#
# Stress axis : x y z
#
# Youngs Moduli (GPa) = 93.48517 26.93406 65.50310
#
# Poissons Ratio (x) = 0.11324 0.26867
# Poissons Ratio (y) = 0.39306 0.49499
# Poissons Ratio (z) = 0.38344 0.20353
#
# Static dielectric constant tensor:
#      x y z
#    x 1.626110 0.000000 0.000000 
#    y 0.000000 1.611460 0.000000 
#    z 0.000000 0.000000 1.637740 
# 
# From -- ./inp_files/21094.got.cif
#   From: 2010.05.17/outbox.cif.g08.bks.cpg/sg55_11_cif.got.tgz:21094.got - 2010.06.03 13:27:54.
