data_PCOD9425948
_publ_section_title
;
Structure prediction by ZEFSAII (Michael W. Deem and Ramdas Pophale) SiO2 
 PCOD9425948
Probable space group: P B A M
;
_chemical_formula_sum "Si O2"
_cell_formula_units_Z 64
_cell_length_a 18.399549
_cell_length_b 8.926645
_cell_length_c 20.847882
_cell_angle_alpha 90.000000
_cell_angle_beta 90.000000
_cell_angle_gamma 90.000000
_cell_volume 3424.186274
_symmetry_space_group_name_H-M "P B A M"
_symmetry_group_IT_number 55
_symmetry_cell_setting 'orthorhombic'
loop_
_space_group_symop_operation_xyz
x,y,z
-x,-y,z
1/2+x,1/2-y,-z
1/2-x,1/2+y,-z
-x,-y,-z
x,y,-z
1/2-x,1/2+y,z
1/2+x,1/2-y,z
loop_
_atom_site_type_symbol
_atom_site_label
_atom_site_fract_x
_atom_site_fract_y
_atom_site_fract_z
Si Si1 0.580005 0.436425 0.927753
Si Si2 0.917908 0.466369 0.692149
Si Si3 0.657260 0.824596 0.570336
Si Si4 0.184954 0.255132 0.298766
Si Si5 0.786856 0.026093 0.619348
Si Si6 0.670458 0.735768 0.072824
Si Si7 0.680620 0.231372 0.153024
Si Si8 0.416828 0.058957 0.164560
O O1 0.500000 0.500000 0.911702
O O2 0.639027 0.568751 0.930515
O O3 0.614167 0.324657 0.876848
O O4 0.574180 0.370172 0.000000
O O5 0.885777 0.374783 0.633368
O O6 0.881536 0.629724 0.699289
O O7 0.911478 0.387100 0.761479
O O8 0.000000 0.500000 0.678209
O O9 0.625403 0.856780 0.500000
O O10 0.729770 0.927609 0.578045
O O11 0.671064 0.646526 0.576485
O O12 0.246818 0.359555 0.331111
O O13 0.174130 0.103351 0.339154
O O14 0.201018 0.217408 0.224896
O O15 0.747823 0.739661 0.108922
O O16 0.608290 0.822238 0.112305
O O17 0.678334 0.794056 0.000000
O O18 0.645567 0.067250 0.158059
O O19 0.500000 0.000000 0.155586
#
# Coordination Sequence:
#
# PCOD9425948 Si02
#       8
#     8   8   8   8   8   8   8   8
#     4  10  22  39  54  73 108 149 184 225 284 350
#     4   9  20  38  56  82 114 147 192 234 277 337
#     4  10  19  33  57  83 113 150 183 229 281 333
#     4   9  20  33  56  82 108 150 179 229 286 333
#     4   9  19  34  53  83 115 140 186 227 276 338
#     4  11  24  37  56  85 113 143 186 242 292 336
#     4  11  22  34  58  84 109 141 188 237 292 338
#     4  10  22  40  60  82 112 153 195 236 284 348
#
# _framework density 18.690572
#
# number of rings (size 3 to 8) (size 9 to 14) (size 15 to 20)
#    0.000    2.125    0.000    2.250    8.750    2.500 
#    0.000    1.250    0.000    0.750    0.000    0.000 
#    0.000    0.000    0.000    0.000    0.000    0.000 
#
# Total GULP energy -356583.107603 kJ/mol
# GULP energy per Si atom -5571.611056 kJ/mol
# Density = 1.864803 g / cm^3
# Si number density = 18.690572 Si / 1000 Ang^3
#
#
#
# Elastic Constant Matrix: (Units=GPa)
#
#
# Indices 1 2 3 4 5 6 
#
# 1 72.3815 -8.3207 27.8862 0.0000 0.0000 0.0000
# 2 -8.3207 50.6822 21.5775 0.0000 0.0000 0.0000
# 3 27.8862 21.5775 104.0388 0.0000 0.0000 0.0000
# 4 0.0000 0.0000 0.0000 20.2794 0.0000 0.0000
# 5 0.0000 0.0000 0.0000 0.0000 11.6982 0.0000
# 6 0.0000 0.0000 0.0000 0.0000 0.0000 16.2881
#
#
#
# Elastic Compliance Matrix: (Units=1/GPa)
#
#
# Indices 1 2 3 4 5 6 
#
# 1 0.016501 0.005037 -0.005468 0.000000 0.000000 0.000000
# 2 0.005037 0.023179 -0.006157 0.000000 0.000000 0.000000
# 3 -0.005468 -0.006157 0.012354 0.000000 0.000000 0.000000
# 4 0.000000 0.000000 0.000000 0.049311 0.000000 0.000000
# 5 0.000000 0.000000 0.000000 0.000000 0.085483 0.000000
# 6 0.000000 0.000000 0.000000 0.000000 0.000000 0.061394
#
#
# Mechanical properties :
#
#
# Convention : Reuss Voigt Hill
#
# Bulk Modulus (GPa) = 25.73443 34.37651 30.05547
# Shear Modulus (GPa) = 18.22475 22.05046 20.13760
#
# Velocity S-wave (km/s) = 3.12601 3.43849 3.28597
# Velocity P-wave (km/s) = 5.17956 5.84779 5.52379
#
# Compressibility (1/GPa) = 0.03885844
#
# Stress axis : x y z
#
# Youngs Moduli (GPa) = 60.60177 43.14221 80.94322
#
# Poissons Ratio (x) = -0.21730 0.44256
# Poissons Ratio (y) = -0.30524 0.49840
# Poissons Ratio (z) = 0.33134 0.26564
#
# Static dielectric constant tensor:
#      x y z
#    x 1.715740 0.000000 0.000000 
#    y 0.000000 1.672320 0.000000 
#    z 0.000000 0.000000 1.691300 
# 
# From -- ./inp_files/21984.got.cif
#   From: 2010.05.17/outbox.cif.g08.bks.cpg/sg55_11_cif.got.tgz:21984.got - 2010.06.03 13:27:54.
