data_PCOD9425253
_publ_section_title
;
Structure prediction by ZEFSAII (Michael W. Deem and Ramdas Pophale) SiO2 
 PCOD9425253
Probable space group: P B A M
;
_chemical_formula_sum "Si O2"
_cell_formula_units_Z 64
_cell_length_a 24.148353
_cell_length_b 15.761168
_cell_length_c 7.645937
_cell_angle_alpha 90.000000
_cell_angle_beta 90.000000
_cell_angle_gamma 90.000000
_cell_volume 2910.091398
_symmetry_space_group_name_H-M "P B A M"
_symmetry_group_IT_number 55
_symmetry_cell_setting 'orthorhombic'
loop_
_space_group_symop_operation_xyz
x,y,z
-x,-y,z
1/2+x,1/2-y,-z
1/2-x,1/2+y,-z
-x,-y,-z
x,y,-z
1/2-x,1/2+y,z
1/2+x,1/2-y,z
loop_
_atom_site_type_symbol
_atom_site_label
_atom_site_fract_x
_atom_site_fract_y
_atom_site_fract_z
Si Si1 0.874196 0.394655 0.287781
Si Si2 0.331682 0.750003 0.702450
Si Si3 0.378495 0.575512 0.700882
Si Si4 0.381580 0.389001 0.202581
Si Si5 0.994993 0.330760 0.711615
Si Si6 0.894154 0.583549 0.286418
Si Si7 0.495738 0.637281 0.796109
Si Si8 0.206051 0.754302 0.204782
O O1 0.873192 0.393331 0.500000
O O2 0.872710 0.492140 0.228169
O O3 0.824867 0.335313 0.224117
O O4 0.933349 0.355460 0.231529
O O5 0.350906 0.746611 0.500000
O O6 0.351894 0.660680 0.780786
O O7 0.358857 0.835581 0.775735
O O8 0.265805 0.755001 0.708545
O O9 0.360286 0.567516 0.500000
O O10 0.364281 0.486651 0.788941
O O11 0.444470 0.590538 0.708409
O O12 0.443299 0.381150 0.279585
O O13 0.336206 0.325214 0.278389
O O14 0.387930 0.362570 0.000000
O O15 0.994704 0.326172 0.500000
O O16 0.042038 0.398318 0.761306
O O17 0.011751 0.238372 0.779922
O O18 0.891867 0.581585 0.500000
O O19 0.494416 0.611748 0.000000
O O20 0.215542 0.772017 0.000000
#
# Coordination Sequence:
#
# PCOD9425253 Si02
#       8
#     8   8   8   8   8   8   8   8
#     4  10  20  35  62  92 118 152 191 234 290 348
#     4  10  22  41  61  83 115 151 195 246 292 340
#     4  11  23  39  62  91 118 149 195 247 292 345
#     4  10  23  41  59  84 120 159 193 234 293 351
#     4  10  18  33  59  90 121 152 190 234 285 346
#     4   9  18  36  60  88 121 151 185 236 291 341
#     4  11  21  36  59  86 122 160 190 231 293 354
#     4  11  24  42  60  81 116 156 198 243 288 344
#
# _framework density 21.992436999999999
#
# number of rings (size 3 to 8) (size 9 to 14) (size 15 to 20)
#    0.000    1.750    2.500    1.875    0.000    7.000 
#    0.000    5.000    0.000    1.500    0.000    0.000 
#    0.000    0.000    0.000    0.000    0.000    0.000 
#
# Total GULP energy -357721.574119 kJ/mol
# GULP energy per Si atom -5589.399596 kJ/mol
# Density = 2.194238 g / cm^3
# Si number density = 21.992437 Si / 1000 Ang^3
#
#
#
# Elastic Constant Matrix: (Units=GPa)
#
#
# Indices 1 2 3 4 5 6 
#
# 1 86.7014 17.6257 -8.1825 0.0000 0.0000 0.0000
# 2 17.6257 105.5989 -7.9162 0.0000 0.0000 0.0000
# 3 -8.1825 -7.9162 43.5171 0.0000 0.0000 0.0000
# 4 0.0000 0.0000 0.0000 20.6462 0.0000 0.0000
# 5 0.0000 0.0000 0.0000 0.0000 4.8820 0.0000
# 6 0.0000 0.0000 0.0000 0.0000 0.0000 9.9937
#
#
#
# Elastic Compliance Matrix: (Units=1/GPa)
#
#
# Indices 1 2 3 4 5 6 
#
# 1 0.012097 -0.001874 0.001934 0.000000 0.000000 0.000000
# 2 -0.001874 0.009891 0.001447 0.000000 0.000000 0.000000
# 3 0.001934 0.001447 0.023606 0.000000 0.000000 0.000000
# 4 0.000000 0.000000 0.000000 0.048435 0.000000 0.000000
# 5 0.000000 0.000000 0.000000 0.000000 0.204835 0.000000
# 6 0.000000 0.000000 0.000000 0.000000 0.000000 0.100063
#
#
# Mechanical properties :
#
#
# Convention : Reuss Voigt Hill
#
# Bulk Modulus (GPa) = 20.57296 26.54124 23.55710
# Shear Modulus (GPa) = 12.13247 22.72374 17.42810
#
# Velocity S-wave (km/s) = 2.35130 3.21791 2.81812
# Velocity P-wave (km/s) = 4.09223 5.08932 4.61777
#
# Compressibility (1/GPa) = 0.04860750
#
# Stress axis : x y z
#
# Youngs Moduli (GPa) = 82.66272 101.10103 42.36159
#
# Poissons Ratio (x) = 0.18949 -0.08192
# Poissons Ratio (y) = 0.15493 -0.06129
# Poissons Ratio (z) = -0.15985 -0.14628
#
# Static dielectric constant tensor:
#      x y z
#    x 1.773900 0.000000 0.000000 
#    y 0.000000 1.797490 0.000000 
#    z 0.000000 0.000000 1.824030 
# 
# From -- ./inp_files/9706.got.cif
#   From: 2010.05.17/outbox.cif.g08.bks.cpg/sg55_5_cif.got.tgz:9706.got - 2010.06.03 13:27:54.
