data_PCOD9425673
_publ_section_title
;
Structure prediction by ZEFSAII (Michael W. Deem and Ramdas Pophale) SiO2 
 PCOD9425673
Probable space group: P B A M
;
_chemical_formula_sum "Si O2"
_cell_formula_units_Z 56
_cell_length_a 18.224534
_cell_length_b 19.499689
_cell_length_c 9.102982
_cell_angle_alpha 90.000000
_cell_angle_beta 90.000000
_cell_angle_gamma 90.000000
_cell_volume 3234.951703
_symmetry_space_group_name_H-M "P B A M"
_symmetry_group_IT_number 55
_symmetry_cell_setting 'orthorhombic'
loop_
_space_group_symop_operation_xyz
x,y,z
-x,-y,z
1/2+x,1/2-y,-z
1/2-x,1/2+y,-z
-x,-y,-z
x,y,-z
1/2-x,1/2+y,z
1/2+x,1/2-y,z
loop_
_atom_site_type_symbol
_atom_site_label
_atom_site_fract_x
_atom_site_fract_y
_atom_site_fract_z
Si Si1 0.023900 0.924508 0.324301
Si Si2 0.459869 0.859263 0.823431
Si Si3 0.829369 0.535827 0.824965
Si Si4 0.113661 0.600674 0.325925
Si Si5 0.008723 0.210606 0.825947
Si Si6 0.195185 0.893261 0.673294
Si Si7 0.642475 0.749220 0.326680
O O1 0.014403 0.920592 0.500000
O O2 0.979020 0.861923 0.252615
O O3 0.110615 0.913279 0.294561
O O4 0.000000 0.000000 0.274461
O O5 0.392418 0.908560 0.787559
O O6 0.533112 0.884909 0.741708
O O7 0.445566 0.779092 0.786360
O O8 0.472859 0.862448 0.000000
O O9 0.850360 0.464207 0.750772
O O10 0.752628 0.564497 0.766720
O O11 0.828238 0.527965 0.000000
O O12 0.106934 0.589145 0.500000
O O13 0.159811 0.671143 0.303813
O O14 0.927061 0.232461 0.774646
O O15 0.012118 0.200942 0.000000
O O16 0.207884 0.905561 0.500000
O O17 0.200362 0.811138 0.700559
O O18 0.620585 0.741757 0.500000
#
# Coordination Sequence:
#
# PCOD9425673 Si02
#       7
#     8   8   8   8   8   8   8
#     4   9  18  34  55  76  99 128 162 206 259 305
#     4   9  19  34  49  69 101 137 168 202 248 297
#     4  11  22  34  48  70 105 141 167 199 248 299
#     4  10  19  32  53  78 100 127 169 213 248 289
#     4   9  16  28  49  74  97 122 157 200 241 287
#     4   9  18  34  53  72  96 127 165 205 247 298
#     4   8  16  32  52  71  93 122 157 200 246 292
#
# _framework density 17.310922999999999
#
# number of rings (size 3 to 8) (size 9 to 14) (size 15 to 20)
#    0.000    2.714    0.000    2.571    0.000    6.571 
#    0.000    1.429    0.000    5.143    0.000    0.000 
#    0.000    0.000    0.000    0.000    0.000    0.000 
#
# Total GULP energy -311945.714013 kJ/mol
# GULP energy per Si atom -5570.459179 kJ/mol
# Density = 1.727152 g / cm^3
# Si number density = 17.310923 Si / 1000 Ang^3
#
#
#
# Elastic Constant Matrix: (Units=GPa)
#
#
# Indices 1 2 3 4 5 6 
#
# 1 34.0261 46.5386 25.7533 0.0000 0.0000 0.0000
# 2 46.5386 179.4260 60.1441 0.0000 0.0000 0.0000
# 3 25.7533 60.1441 38.5975 0.0000 0.0000 0.0000
# 4 0.0000 0.0000 0.0000 31.9501 0.0000 0.0000
# 5 0.0000 0.0000 0.0000 0.0000 23.5554 0.0000
# 6 0.0000 0.0000 0.0000 0.0000 0.0000 15.3137
#
#
#
# Elastic Compliance Matrix: (Units=1/GPa)
#
#
# Indices 1 2 3 4 5 6 
#
# 1 0.061111 -0.004570 -0.033655 0.000000 0.000000 0.000000
# 2 -0.004570 0.012009 -0.015664 0.000000 0.000000 0.000000
# 3 -0.033655 -0.015664 0.072773 0.000000 0.000000 0.000000
# 4 0.000000 0.000000 0.000000 0.031299 0.000000 0.000000
# 5 0.000000 0.000000 0.000000 0.000000 0.042453 0.000000
# 6 0.000000 0.000000 0.000000 0.000000 0.000000 0.065301
#
#
# Mechanical properties :
#
#
# Convention : Reuss Voigt Hill
#
# Bulk Modulus (GPa) = 26.23572 57.43573 41.83573
# Shear Modulus (GPa) = 12.33263 22.13809 17.23536
#
# Velocity S-wave (km/s) = 2.67201 3.57998 3.15879
# Velocity P-wave (km/s) = 4.97072 7.09502 6.12566
#
# Compressibility (1/GPa) = 0.03811598
#
# Stress axis : x y z
#
# Youngs Moduli (GPa) = 16.36358 83.26852 13.74144
#
# Poissons Ratio (x) = 0.38051 0.46246
# Poissons Ratio (y) = 0.07478 0.21525
# Poissons Ratio (z) = 0.55071 1.30435
#
# Static dielectric constant tensor:
#      x y z
#    x 1.551610 0.000000 0.000000 
#    y 0.000000 1.630140 0.000000 
#    z 0.000000 0.000000 1.578110 
# 
# From -- ./inp_files/8892.got.cif
#   From: 2010.05.17/outbox.cif.g08.bks.cpg/sg55_5_cif.got.tgz:8892.got - 2010.06.03 13:27:54.
