data_PCOD9425694
_publ_section_title
;
Structure prediction by ZEFSAII (Michael W. Deem and Ramdas Pophale) SiO2 
 PCOD9425694
Probable space group: P B A M
;
_chemical_formula_sum "Si O2"
_cell_formula_units_Z 48
_cell_length_a 15.473915
_cell_length_b 20.244644
_cell_length_c 8.608633
_cell_angle_alpha 90.000000
_cell_angle_beta 90.000000
_cell_angle_gamma 90.000000
_cell_volume 2696.773951
_symmetry_space_group_name_H-M "P B A M"
_symmetry_group_IT_number 55
_symmetry_cell_setting 'orthorhombic'
loop_
_space_group_symop_operation_xyz
x,y,z
-x,-y,z
1/2+x,1/2-y,-z
1/2-x,1/2+y,-z
-x,-y,-z
x,y,-z
1/2-x,1/2+y,z
1/2+x,1/2-y,z
loop_
_atom_site_type_symbol
_atom_site_label
_atom_site_fract_x
_atom_site_fract_y
_atom_site_fract_z
Si Si1 0.381714 0.189527 0.814152
Si Si2 0.083055 0.539686 0.810977
Si Si3 0.007058 0.198943 0.685125
Si Si4 0.062838 0.937956 0.186191
Si Si5 0.697027 0.334352 0.686173
Si Si6 0.725158 0.480981 0.812258
O O1 0.413378 0.116423 0.763276
O O2 0.447942 0.244960 0.759921
O O3 0.284888 0.198154 0.748741
O O4 0.376182 0.189291 0.000000
O O5 0.175335 0.508465 0.765953
O O6 0.000000 0.500000 0.753522
O O7 0.080109 0.539098 0.000000
O O8 0.005035 0.206638 0.500000
O O9 0.969421 0.127413 0.730298
O O10 0.107514 0.199668 0.736744
O O11 0.158233 0.962319 0.233577
O O12 0.061556 0.926241 0.000000
O O13 0.000000 0.000000 0.217129
O O14 0.699416 0.335156 0.500000
O O15 0.696821 0.409951 0.746409
O O16 0.721614 0.475766 0.000000
#
# Coordination Sequence:
#
# PCOD9425694 Si02
#       6
#     8   8   8   8   8   8
#     4  10  21  37  58  81 107 144 188 231 276 332
#     4   8  15  31  55  80 105 133 172 221 273 322
#     4  11  23  37  55  79 113 149 183 229 282 340
#     4  10  19  32  53  81 111 141 182 230 273 326
#     4  10  20  35  56  78 106 146 184 222 277 335
#     4   9  17  31  53  79 107 139 179 226 271 323
#
# _framework density 17.799043999999999
#
# number of rings (size 3 to 8) (size 9 to 14) (size 15 to 20)
#    0.000    2.333    1.667    2.500    0.000    3.000 
#    3.000    0.000    0.000   12.500    0.000    0.000 
#    0.000    0.000    0.000    0.000    0.000    0.000 
#
# Total GULP energy -267756.012388 kJ/mol
# GULP energy per Si atom -5578.250258 kJ/mol
# Density = 1.775853 g / cm^3
# Si number density = 17.799044 Si / 1000 Ang^3
#
#
#
# Elastic Constant Matrix: (Units=GPa)
#
#
# Indices 1 2 3 4 5 6 
#
# 1 185.1635 77.8337 35.7163 0.0000 0.0000 0.0000
# 2 77.8337 63.7468 16.9399 0.0000 0.0000 0.0000
# 3 35.7163 16.9399 25.2033 0.0000 0.0000 0.0000
# 4 0.0000 0.0000 0.0000 8.4663 0.0000 0.0000
# 5 0.0000 0.0000 0.0000 0.0000 21.7082 0.0000
# 6 0.0000 0.0000 0.0000 0.0000 0.0000 34.7059
#
#
#
# Elastic Compliance Matrix: (Units=1/GPa)
#
#
# Indices 1 2 3 4 5 6 
#
# 1 0.012624 -0.012978 -0.009167 0.000000 0.000000 0.000000
# 2 -0.012978 0.032439 -0.003412 0.000000 0.000000 0.000000
# 3 -0.009167 -0.003412 0.054962 0.000000 0.000000 0.000000
# 4 0.000000 0.000000 0.000000 0.118116 0.000000 0.000000
# 5 0.000000 0.000000 0.000000 0.000000 0.046065 0.000000
# 6 0.000000 0.000000 0.000000 0.000000 0.000000 0.028814
#
#
# Mechanical properties :
#
#
# Convention : Reuss Voigt Hill
#
# Bulk Modulus (GPa) = 20.44533 59.45481 39.95007
# Shear Modulus (GPa) = 13.87196 22.55099 18.21148
#
# Velocity S-wave (km/s) = 2.79474 3.56332 3.20218
# Velocity P-wave (km/s) = 4.68250 7.09969 6.01379
#
# Compressibility (1/GPa) = 0.04891093
#
# Stress axis : x y z
#
# Youngs Moduli (GPa) = 79.21338 30.82662 18.19432
#
# Poissons Ratio (x) = 0.40006 0.16679
# Poissons Ratio (y) = 1.02801 0.06209
# Poissons Ratio (z) = 0.72617 0.10519
#
# Static dielectric constant tensor:
#      x y z
#    x 1.631520 0.000000 0.000000 
#    y 0.000000 1.570840 0.000000 
#    z 0.000000 0.000000 1.599780 
# 
# From -- ./inp_files/5686.got.cif
#   From: 2010.05.17/outbox.cif.g08.bks.cpg/sg55_3_cif.got.tgz:5686.got - 2010.06.03 13:27:54.
