data_PCOD9425898
_publ_section_title
;
Structure prediction by ZEFSAII (Michael W. Deem and Ramdas Pophale) SiO2 
 PCOD9425898
Probable space group: P B A M
;
_chemical_formula_sum "Si O2"
_cell_formula_units_Z 40
_cell_length_a 20.413107
_cell_length_b 9.229469
_cell_length_c 10.682026
_cell_angle_alpha 90.000000
_cell_angle_beta 90.000000
_cell_angle_gamma 90.000000
_cell_volume 2012.516539
_symmetry_space_group_name_H-M "P B A M"
_symmetry_group_IT_number 55
_symmetry_cell_setting 'orthorhombic'
loop_
_space_group_symop_operation_xyz
x,y,z
-x,-y,z
1/2+x,1/2-y,-z
1/2-x,1/2+y,-z
-x,-y,-z
x,y,-z
1/2-x,1/2+y,z
1/2+x,1/2-y,z
loop_
_atom_site_type_symbol
_atom_site_label
_atom_site_fract_x
_atom_site_fract_y
_atom_site_fract_z
Si Si1 0.934412 0.094412 0.642803
Si Si2 0.267612 0.159075 0.774715
Si Si3 0.668914 0.118562 0.350555
Si Si4 0.661299 0.559180 0.864102
Si Si5 0.023839 0.336961 0.645363
O O1 0.907614 0.107328 0.500000
O O2 0.883182 0.034951 0.741878
O O3 0.963861 0.243673 0.696547
O O4 0.000000 0.000000 0.637218
O O5 0.222657 0.261191 0.685868
O O6 0.309463 0.278620 0.848817
O O7 0.310891 0.039155 0.702206
O O8 0.219124 0.059030 0.855653
O O9 0.664446 0.106500 0.500000
O O10 0.597156 0.168168 0.301769
O O11 0.628412 0.546048 0.000000
O O12 0.028959 0.287077 0.500000
O O13 0.000000 0.500000 0.645876
#
# Coordination Sequence:
#
# PCOD9425898 Si02
#       5
#     8   8   8   8   8
#     4  10  21  37  58  84 113 145 185 235 286 336
#     4  10  22  36  55  82 113 151 193 236 284 337
#     4  10  19  33  55  85 117 147 185 235 289 343
#     4  11  23  40  60  82 114 155 195 235 283 339
#     4   9  17  30  50  76 108 144 179 220 275 333
#
# _framework density 19.875610999999999
#
# number of rings (size 3 to 8) (size 9 to 14) (size 15 to 20)
#    0.000    2.000    0.000    3.600    0.000    8.400 
#    0.000    0.000    0.000    6.600    0.000    0.000 
#    0.000    0.000    0.000    0.000    0.000    0.000 
#
# Total GULP energy -222996.945251 kJ/mol
# GULP energy per Si atom -5574.923631 kJ/mol
# Density = 1.983037 g / cm^3
# Si number density = 19.875611 Si / 1000 Ang^3
#
#
#
# Elastic Constant Matrix: (Units=GPa)
#
#
# Indices 1 2 3 4 5 6 
#
# 1 61.4320 1.7763 35.6619 0.0000 0.0000 0.0000
# 2 1.7763 100.4644 14.1624 0.0000 0.0000 0.0000
# 3 35.6619 14.1624 93.0395 0.0000 0.0000 0.0000
# 4 0.0000 0.0000 0.0000 1.9041 0.0000 0.0000
# 5 0.0000 0.0000 0.0000 0.0000 -1.8469 0.0000
# 6 0.0000 0.0000 0.0000 0.0000 0.0000 26.8746
#
#
#
# Elastic Compliance Matrix: (Units=1/GPa)
#
#
# Indices 1 2 3 4 5 6 
#
# 1 0.020996 0.000780 -0.008167 0.000000 0.000000 0.000000
# 2 0.000780 0.010201 -0.001852 0.000000 0.000000 0.000000
# 3 -0.008167 -0.001852 0.014160 0.000000 0.000000 0.000000
# 4 0.000000 0.000000 0.000000 0.525183 0.000000 0.000000
# 5 0.000000 0.000000 0.000000 0.000000 -0.541443 0.000000
# 6 0.000000 0.000000 0.000000 0.000000 0.000000 0.037210
#
#
# Mechanical properties :
#
#
# Convention : Reuss Voigt Hill
#
# Bulk Modulus (GPa) = 37.20111 39.79302 38.49707
# Shear Modulus (GPa) = 53.33611 18.94204 36.13908
#
# Velocity S-wave (km/s) = 5.18587 3.09047 4.26873
# Velocity P-wave (km/s) = 7.39021 5.72705 6.61114
#
# Compressibility (1/GPa) = 0.02688092
#
# Stress axis : x y z
#
# Youngs Moduli (GPa) = 47.62714 98.02939 70.62015
#
# Poissons Ratio (x) = -0.07646 0.57673
# Poissons Ratio (y) = -0.03715 0.13077
# Poissons Ratio (z) = 0.38895 0.18153
#
# Static dielectric constant tensor:
#      x y z
#    x 1.740080 0.000000 0.000000 
#    y 0.000000 1.975200 0.000000 
#    z 0.000000 0.000000 1.697280 
# 
# From -- ./inp_files/9304.got.cif
#   From: 2010.05.17/outbox.cif.g08.bks.cpg/sg55_5_cif.got.tgz:9304.got - 2010.06.03 13:27:54.
