data_PCOD9425480
_publ_section_title
;
Structure prediction by ZEFSAII (Michael W. Deem and Ramdas Pophale) SiO2 
 PCOD9425480
Probable space group: P B A M
;
_chemical_formula_sum "Si O2"
_cell_formula_units_Z 48
_cell_length_a 7.080267
_cell_length_b 14.988411
_cell_length_c 19.880620
_cell_angle_alpha 90.000000
_cell_angle_beta 90.000000
_cell_angle_gamma 90.000000
_cell_volume 2109.770197
_symmetry_space_group_name_H-M "P B A M"
_symmetry_group_IT_number 55
_symmetry_cell_setting 'orthorhombic'
loop_
_space_group_symop_operation_xyz
x,y,z
-x,-y,z
1/2+x,1/2-y,-z
1/2-x,1/2+y,-z
-x,-y,-z
x,y,-z
1/2-x,1/2+y,z
1/2+x,1/2-y,z
loop_
_atom_site_type_symbol
_atom_site_label
_atom_site_fract_x
_atom_site_fract_y
_atom_site_fract_z
Si Si1 0.850919 0.828800 0.000000
Si Si2 0.775636 0.973223 0.895299
Si Si3 0.345707 0.631713 0.500000
Si Si4 0.276603 0.527826 0.741600
Si Si5 0.121320 0.179645 0.354890
Si Si6 0.779709 0.572698 0.500000
Si Si7 0.211533 0.380543 0.000000
Si Si8 0.313461 0.875314 0.354355
O O1 0.065136 0.861918 0.000000
O O2 0.758648 0.880047 0.936213
O O3 0.862650 0.721249 0.000000
O O4 0.677827 0.055059 0.935664
O O5 0.715497 0.962494 0.818436
O O6 0.000000 0.000000 0.894975
O O7 0.294477 0.679479 0.569566
O O8 0.573104 0.619085 0.500000
O O9 0.261642 0.532523 0.500000
O O10 0.500000 0.500000 0.743915
O O11 0.268357 0.616584 0.696366
O O12 0.169797 0.450584 0.701315
O O13 0.106185 0.280865 0.332369
O O14 0.912949 0.138744 0.359950
O O15 0.876870 0.598144 0.570363
#
# Coordination Sequence:
#
# PCOD9425480 Si02
#       8
#     4   8   4   8   8   4   4   8
#     4   9  17  31  52  74  96 123 155 191 228 270
#     4   8  16  31  49  70  96 126 158 188 223 274
#     4   9  15  28  49  68  87 118 161 197 226 272
#     4   9  17  31  50  69  92 126 162 189 222 278
#     4  10  19  31  49  70  92 121 157 196 235 276
#     4   9  15  28  49  68  87 118 161 197 226 272
#     4   9  17  31  52  74  96 123 155 191 228 270
#     4  10  19  31  49  70  92 121 157 196 235 276
#
# _framework density 22.751294999999999
#
# number of rings (size 3 to 8) (size 9 to 14) (size 15 to 20)
#    0.000    2.833    1.667    1.500    0.000    1.333 
#    0.000    2.500    0.000    3.000    0.000    0.000 
#    0.000    0.000    0.000    0.000    0.000    0.000 
#
# Total GULP energy -268260.471022 kJ/mol
# GULP energy per Si atom -5588.759813 kJ/mol
# Density = 2.269951 g / cm^3
# Si number density = 22.751295 Si / 1000 Ang^3
#
#
#
# Elastic Constant Matrix: (Units=GPa)
#
#
# Indices 1 2 3 4 5 6 
#
# 1 58.5427 18.5905 22.4793 0.0000 0.0000 0.0000
# 2 18.5905 165.8208 110.9184 0.0000 0.0000 0.0000
# 3 22.4793 110.9184 212.6866 0.0000 0.0000 0.0000
# 4 0.0000 0.0000 0.0000 -173.1354 0.0000 0.0000
# 5 0.0000 0.0000 0.0000 0.0000 -6.9398 0.0000
# 6 0.0000 0.0000 0.0000 0.0000 0.0000 20.7675
#
#
#
# Elastic Compliance Matrix: (Units=1/GPa)
#
#
# Indices 1 2 3 4 5 6 
#
# 1 0.017944 -0.001141 -0.001301 0.000000 0.000000 0.000000
# 2 -0.001141 0.009334 -0.004747 0.000000 0.000000 0.000000
# 3 -0.001301 -0.004747 0.007315 0.000000 0.000000 0.000000
# 4 0.000000 0.000000 0.000000 -0.005776 0.000000 0.000000
# 5 0.000000 0.000000 0.000000 0.000000 -0.144096 0.000000
# 6 0.000000 0.000000 0.000000 0.000000 0.000000 0.048152
#
#
# Mechanical properties :
#
#
# Convention : Reuss Voigt Hill
#
# Bulk Modulus (GPa) = 49.47270 82.33629 65.90449
# Shear Modulus (GPa) = -108.67179 -12.85743 -60.76461
#
# Velocity S-wave (km/s) = -6.91873 -2.37982 -5.17360
# Velocity P-wave (km/s) = 6.48327 5.35881 2.58031
#
# Compressibility (1/GPa) = 0.02021317
#
# Stress axis : x y z
#
# Youngs Moduli (GPa) = 55.73002 107.13604 136.70583
#
# Poissons Ratio (x) = 0.12227 0.17790
# Poissons Ratio (y) = 0.06360 0.64896
# Poissons Ratio (z) = 0.07252 0.50859
#
# Static dielectric constant tensor:
#      x y z
#    x 1.948710 0.000000 0.000000 
#    y 0.000000 1.814670 0.000000 
#    z 0.000000 0.000000 1.806500 
# 
# From -- ./inp_files/22818.got.cif
#   From: 2010.05.17/outbox.cif.g08.bks.cpg/sg55_12_cif.got.tgz:22818.got - 2010.06.03 13:27:54.
