data_PCOD9425644
_publ_section_title
;
Structure prediction by ZEFSAII (Michael W. Deem and Ramdas Pophale) SiO2 
 PCOD9425644
Probable space group: P B A M
;
_chemical_formula_sum "Si O2"
_cell_formula_units_Z 56
_cell_length_a 9.340021
_cell_length_b 19.801724
_cell_length_c 15.770360
_cell_angle_alpha 90.000000
_cell_angle_beta 90.000000
_cell_angle_gamma 90.000000
_cell_volume 2916.704710
_symmetry_space_group_name_H-M "P B A M"
_symmetry_group_IT_number 55
_symmetry_cell_setting 'orthorhombic'
loop_
_space_group_symop_operation_xyz
x,y,z
-x,-y,z
1/2+x,1/2-y,-z
1/2-x,1/2+y,-z
-x,-y,-z
x,y,-z
1/2-x,1/2+y,z
1/2+x,1/2-y,z
loop_
_atom_site_type_symbol
_atom_site_label
_atom_site_fract_x
_atom_site_fract_y
_atom_site_fract_z
Si Si1 0.885040 0.940290 0.906026
Si Si2 0.988645 0.168398 0.595276
Si Si3 0.566224 0.926293 0.594157
Si Si4 0.964875 0.204794 0.091998
Si Si5 0.801492 0.735422 0.804210
Si Si6 0.349070 0.808923 0.372299
Si Si7 0.302835 0.614089 0.269509
O O1 0.967242 0.869009 0.910322
O O2 0.808401 0.933446 0.814228
O O3 0.810446 0.947128 0.000000
O O4 0.000000 0.000000 0.901397
O O5 0.004831 0.139574 0.500000
O O6 0.079974 0.238362 0.598224
O O7 0.053724 0.122744 0.671690
O O8 0.820309 0.185724 0.608130
O O9 0.633675 0.925067 0.500000
O O10 0.439548 0.871308 0.594183
O O11 0.679868 0.907587 0.665841
O O12 0.500000 0.000000 0.608216
O O13 0.088510 0.255995 0.119361
O O14 0.845888 0.206711 0.163116
O O15 0.905132 0.222352 0.000000
O O16 0.864513 0.691451 0.729189
O O17 0.776160 0.810265 0.766080
#
# Coordination Sequence:
#
# PCOD9425644 Si02
#       7
#     8   8   8   8   8   8   8
#     4   9  19  36  57  81 108 141 181 223 270 326
#     4  11  21  34  58  86 113 144 182 232 281 330
#     4  11  24  40  56  77 112 154 190 226 273 330
#     4  10  19  32  52  77 107 138 172 219 272 324
#     4  10  19  33  52  79 106 135 175 221 273 327
#     4  11  21  36  55  80 112 146 185 229 278 330
#     4  10  21  37  57  83 111 143 182 229 277 324
#
# _framework density 19.199750000000002
#
# number of rings (size 3 to 8) (size 9 to 14) (size 15 to 20)
#    0.000    1.714    0.000    7.286    0.000    2.857 
#    0.000    0.000    0.000    3.857    0.000    0.000 
#    0.000    0.000    0.000    0.000    0.000    0.000 
#
# Total GULP energy -312235.165599 kJ/mol
# GULP energy per Si atom -5575.627957 kJ/mol
# Density = 1.915605 g / cm^3
# Si number density = 19.199750 Si / 1000 Ang^3
#
#
#
# Elastic Constant Matrix: (Units=GPa)
#
#
# Indices 1 2 3 4 5 6 
#
# 1 75.0030 6.1030 45.4657 0.0000 0.0000 0.0000
# 2 6.1030 20.1730 31.1094 0.0000 0.0000 0.0000
# 3 45.4657 31.1094 151.9305 0.0000 0.0000 0.0000
# 4 0.0000 0.0000 0.0000 -114.9349 0.0000 0.0000
# 5 0.0000 0.0000 0.0000 0.0000 -60.2409 0.0000
# 6 0.0000 0.0000 0.0000 0.0000 0.0000 9.1700
#
#
#
# Elastic Compliance Matrix: (Units=1/GPa)
#
#
# Indices 1 2 3 4 5 6 
#
# 1 0.016487 0.003830 -0.005718 0.000000 0.000000 0.000000
# 2 0.003830 0.073338 -0.016163 0.000000 0.000000 0.000000
# 3 -0.005718 -0.016163 0.011603 0.000000 0.000000 0.000000
# 4 0.000000 0.000000 0.000000 -0.008701 0.000000 0.000000
# 5 0.000000 0.000000 0.000000 0.000000 -0.016600 0.000000
# 6 0.000000 0.000000 0.000000 0.000000 0.000000 0.109051
#
#
# Mechanical properties :
#
#
# Convention : Reuss Voigt Hill
#
# Bulk Modulus (GPa) = 15.30778 45.82920 30.56849
# Shear Modulus (GPa) = 20.57143 -22.23924 -0.83391
#
# Velocity S-wave (km/s) = 3.27684 -3.40709 -0.65975
# Velocity P-wave (km/s) = 4.72304 2.90583 3.92116
#
# Compressibility (1/GPa) = 0.06532625
#
# Stress axis : x y z
#
# Youngs Moduli (GPa) = 60.65232 13.63550 86.18690
#
# Poissons Ratio (x) = -0.05223 0.49283
# Poissons Ratio (y) = -0.23231 1.39304
# Poissons Ratio (z) = 0.34682 0.22039
#
# Static dielectric constant tensor:
#      x y z
#    x -3.864210 0.000000 0.000000 
#    y 0.000000 1.634370 0.000000 
#    z 0.000000 0.000000 1.729410 
# 
# From -- ./inp_files/17674.got.cif
#   From: 2010.05.17/outbox.cif.g08.bks.cpg/sg55_9_cif.got.tgz:17674.got - 2010.06.03 13:27:54.
