data_PCOD9425848
_publ_section_title
;
Structure prediction by ZEFSAII (Michael W. Deem and Ramdas Pophale) SiO2 
 PCOD9425848
Probable space group: P B A M
;
_chemical_formula_sum "Si O2"
_cell_formula_units_Z 64
_cell_length_a 16.650779
_cell_length_b 22.092537
_cell_length_c 7.657355
_cell_angle_alpha 90.000000
_cell_angle_beta 90.000000
_cell_angle_gamma 90.000000
_cell_volume 2816.818921
_symmetry_space_group_name_H-M "P B A M"
_symmetry_group_IT_number 55
_symmetry_cell_setting 'orthorhombic'
loop_
_space_group_symop_operation_xyz
x,y,z
-x,-y,z
1/2+x,1/2-y,-z
1/2-x,1/2+y,-z
-x,-y,-z
x,y,-z
1/2-x,1/2+y,z
1/2+x,1/2-y,z
loop_
_atom_site_type_symbol
_atom_site_label
_atom_site_fract_x
_atom_site_fract_y
_atom_site_fract_z
Si Si1 0.724196 0.517772 0.207145
Si Si2 0.338723 0.753401 0.295645
Si Si3 0.449264 0.440424 0.788401
Si Si4 0.533629 0.933422 0.301619
Si Si5 0.629540 0.105155 0.702720
Si Si6 0.802523 0.400368 0.196188
Si Si7 0.664009 0.766701 0.702569
Si Si8 0.504896 0.697397 0.707424
O O1 0.642360 0.548230 0.272874
O O2 0.799246 0.562868 0.230061
O O3 0.742159 0.449852 0.277915
O O4 0.714041 0.508642 0.000000
O O5 0.331778 0.732761 0.500000
O O6 0.350966 0.824767 0.293674
O O7 0.250450 0.747399 0.213445
O O8 0.417749 0.719477 0.222817
O O9 0.500000 0.500000 0.734613
O O10 0.481005 0.374458 0.731249
O O11 0.450373 0.438923 0.000000
O O12 0.551036 0.911434 0.500000
O O13 0.459320 0.898511 0.217811
O O14 0.613836 0.935898 0.192670
O O15 0.500000 0.000000 0.315720
O O16 0.619873 0.086307 0.500000
O O17 0.830883 0.339227 0.288935
O O18 0.775624 0.384850 0.000000
O O19 0.666545 0.746230 0.500000
O O20 0.582872 0.735500 0.775475
O O21 0.501575 0.710805 0.500000
#
# Coordination Sequence:
#
# PCOD9425848 Si02
#       8
#     8   8   8   8   8   8   8   8
#     4  10  22  38  55  82 118 153 191 242 293 338
#     4   9  19  35  58  86 113 146 188 238 291 341
#     4  10  23  42  63  84 115 156 195 239 296 353
#     4  10  19  33  54  83 115 150 187 225 276 337
#     4  10  19  35  60  86 114 151 193 231 281 347
#     4  11  23  36  55  83 118 155 194 237 285 338
#     4  10  21  38  59  82 115 153 190 239 295 345
#     4  10  21  40  63  88 117 149 193 247 294 344
#
# _framework density 22.720666000000001
#
# number of rings (size 3 to 8) (size 9 to 14) (size 15 to 20)
#    0.000    2.000    1.250    1.875    1.750    5.500 
#    0.000    1.250    0.000    0.000    0.000    0.000 
#    0.000    0.000    0.000    0.000    0.000    0.000 
#
# Total GULP energy -356704.268767 kJ/mol
# GULP energy per Si atom -5573.504199 kJ/mol
# Density = 2.266895 g / cm^3
# Si number density = 22.720666 Si / 1000 Ang^3
#
#
#
# Elastic Constant Matrix: (Units=GPa)
#
#
# Indices 1 2 3 4 5 6 
#
# 1 86.2336 25.7798 5.0279 0.0000 0.0000 0.0000
# 2 25.7798 78.0938 -9.2572 0.0000 0.0000 0.0000
# 3 5.0279 -9.2572 44.8499 0.0000 0.0000 0.0000
# 4 0.0000 0.0000 0.0000 14.7922 0.0000 0.0000
# 5 0.0000 0.0000 0.0000 0.0000 3.6754 0.0000
# 6 0.0000 0.0000 0.0000 0.0000 0.0000 34.8940
#
#
#
# Elastic Compliance Matrix: (Units=1/GPa)
#
#
# Indices 1 2 3 4 5 6 
#
# 1 0.013118 -0.004618 -0.002424 0.000000 0.000000 0.000000
# 2 -0.004618 0.014752 0.003563 0.000000 0.000000 0.000000
# 3 -0.002424 0.003563 0.023304 0.000000 0.000000 0.000000
# 4 0.000000 0.000000 0.000000 0.067603 0.000000 0.000000
# 5 0.000000 0.000000 0.000000 0.000000 0.272078 0.000000
# 6 0.000000 0.000000 0.000000 0.000000 0.000000 0.028658
#
#
# Mechanical properties :
#
#
# Convention : Reuss Voigt Hill
#
# Bulk Modulus (GPa) = 22.61646 28.03092 25.32369
# Shear Modulus (GPa) = 11.33248 23.18078 17.25663
#
# Velocity S-wave (km/s) = 2.23575 3.19760 2.75892
# Velocity P-wave (km/s) = 4.07928 5.09871 4.61722
#
# Compressibility (1/GPa) = 0.04421558
#
# Stress axis : x y z
#
# Youngs Moduli (GPa) = 76.22980 67.78830 42.91177
#
# Poissons Ratio (x) = 0.31303 0.10401
# Poissons Ratio (y) = 0.35201 -0.15287
# Poissons Ratio (z) = 0.18476 -0.24150
#
# Static dielectric constant tensor:
#      x y z
#    x 1.903960 0.000000 0.000000 
#    y 0.000000 2.623090 0.000000 
#    z 0.000000 0.000000 1.885110 
# 
# From -- ./inp_files/6725.got.cif
#   From: 2010.05.17/outbox.cif.g08.bks.cpg/sg55_4_cif.got.tgz:6725.got - 2010.06.03 13:27:54.
