data_PCOD9425726
_publ_section_title
;
Structure prediction by ZEFSAII (Michael W. Deem and Ramdas Pophale) SiO2 
 PCOD9425726
Probable space group: P B A M
;
_chemical_formula_sum "Si O2"
_cell_formula_units_Z 32
_cell_length_a 7.661904
_cell_length_b 14.089872
_cell_length_c 11.344319
_cell_angle_alpha 90.000000
_cell_angle_beta 90.000000
_cell_angle_gamma 90.000000
_cell_volume 1224.678756
_symmetry_space_group_name_H-M "P B A M"
_symmetry_group_IT_number 55
_symmetry_cell_setting 'orthorhombic'
loop_
_space_group_symop_operation_xyz
x,y,z
-x,-y,z
1/2+x,1/2-y,-z
1/2-x,1/2+y,-z
-x,-y,-z
x,y,-z
1/2-x,1/2+y,z
1/2+x,1/2-y,z
loop_
_atom_site_type_symbol
_atom_site_label
_atom_site_fract_x
_atom_site_fract_y
_atom_site_fract_z
Si Si1 0.290882 0.407548 0.000000
Si Si2 0.500000 0.500000 0.191414
Si Si3 0.379220 0.735040 0.000000
Si Si4 0.500000 0.000000 0.693908
Si Si5 0.758225 0.063328 0.500000
Si Si6 0.622444 0.341768 0.500000
Si Si7 0.772051 0.842632 0.252490
O O1 0.336723 0.472166 0.110121
O O2 0.114270 0.349260 0.000000
O O3 0.446722 0.328423 0.000000
O O4 0.555066 0.408696 0.259997
O O5 0.290457 0.710912 0.872459
O O6 0.365138 0.939174 0.614237
O O7 0.609174 0.914653 0.753065
O O8 0.914452 0.138598 0.500000
O O9 0.816139 0.952090 0.500000
O O10 0.706616 0.295423 0.618827
#
# Coordination Sequence:
#
# PCOD9425726 Si02
#       7
#     4   4   4   4   4   4   8
#     4   9  20  38  56  79 114 154 194 237 286 346
#     4   9  18  35  58  80 108 154 202 232 278 352
#     4  10  22  37  56  81 114 150 186 234 292 342
#     4   9  16  25  44  80 118 142 188 242 276 320
#     4   8  14  26  46  74 108 154 192 230 275 325
#     4   9  16  30  52  76 114 151 184 225 281 347
#     4  10  19  32  54  86 116 148 187 232 283 341
#
# _framework density 26.129299
#
# number of rings (size 3 to 8) (size 9 to 14) (size 15 to 20)
#    0.000    2.750    0.000    4.500    0.000    2.500 
#    0.000    0.000    0.000    7.500    0.000    0.000 
#    0.000    0.000    0.000    0.000    0.000    0.250 
#
# Total GULP energy -178465.541555 kJ/mol
# GULP energy per Si atom -5577.048174 kJ/mol
# Density = 2.606983 g / cm^3
# Si number density = 26.129299 Si / 1000 Ang^3
#
#
#
# Elastic Constant Matrix: (Units=GPa)
#
#
# Indices 1 2 3 4 5 6 
#
# 1 85.4960 21.2166 44.2792 0.0000 0.0000 0.0000
# 2 21.2166 57.7903 37.6729 0.0000 0.0000 0.0000
# 3 44.2792 37.6729 193.9726 0.0000 0.0000 0.0000
# 4 0.0000 0.0000 0.0000 9.2805 0.0000 0.0000
# 5 0.0000 0.0000 0.0000 0.0000 -179.7048 0.0000
# 6 0.0000 0.0000 0.0000 0.0000 0.0000 33.1092
#
#
#
# Elastic Compliance Matrix: (Units=1/GPa)
#
#
# Indices 1 2 3 4 5 6 
#
# 1 0.013844 -0.003461 -0.002488 0.000000 0.000000 0.000000
# 2 -0.003461 0.020677 -0.003226 0.000000 0.000000 0.000000
# 3 -0.002488 -0.003226 0.006350 0.000000 0.000000 0.000000
# 4 0.000000 0.000000 0.000000 0.107753 0.000000 0.000000
# 5 0.000000 0.000000 0.000000 0.000000 -0.005565 0.000000
# 6 0.000000 0.000000 0.000000 0.000000 0.000000 0.030203
#
#
# Mechanical properties :
#
#
# Convention : Reuss Voigt Hill
#
# Bulk Modulus (GPa) = 44.40125 60.39959 52.40042
# Shear Modulus (GPa) = 25.11062 -11.85700 6.62681
#
# Velocity S-wave (km/s) = 3.10339 -2.13253 1.59426
# Velocity P-wave (km/s) = 5.46545 4.13549 4.84631
#
# Compressibility (1/GPa) = 0.02252189
#
# Stress axis : x y z
#
# Youngs Moduli (GPa) = 72.23431 48.36207 157.48326
#
# Poissons Ratio (x) = 0.16736 0.39184
# Poissons Ratio (y) = 0.24997 0.50803
# Poissons Ratio (z) = 0.17973 0.15601
#
# Static dielectric constant tensor:
#      x y z
#    x 2.096860 0.000000 0.000000 
#    y 0.000000 1.969700 0.000000 
#    z 0.000000 0.000000 2.170340 
# 
# From -- ./inp_files/11762.got.cif
#   From: 2010.05.17/outbox.cif.g08.bks.cpg/sg55_6_cif.got.tgz:11762.got - 2010.06.03 13:27:54.
