data_PCOD9425597
_publ_section_title
;
Structure prediction by ZEFSAII (Michael W. Deem and Ramdas Pophale) SiO2 
 PCOD9425597
Probable space group: P B A M
;
_chemical_formula_sum "Si O2"
_cell_formula_units_Z 48
_cell_length_a 29.530370
_cell_length_b 10.840348
_cell_length_c 7.450122
_cell_angle_alpha 90.000000
_cell_angle_beta 90.000000
_cell_angle_gamma 90.000000
_cell_volume 2384.929235
_symmetry_space_group_name_H-M "P B A M"
_symmetry_group_IT_number 55
_symmetry_cell_setting 'orthorhombic'
loop_
_space_group_symop_operation_xyz
x,y,z
-x,-y,z
1/2+x,1/2-y,-z
1/2-x,1/2+y,-z
-x,-y,-z
x,y,-z
1/2-x,1/2+y,z
1/2+x,1/2-y,z
loop_
_atom_site_type_symbol
_atom_site_label
_atom_site_fract_x
_atom_site_fract_y
_atom_site_fract_z
Si Si1 0.477352 0.122934 0.709814
Si Si2 0.885293 0.488445 0.216326
Si Si3 0.481821 0.626951 0.290094
Si Si4 0.281857 0.005318 0.781012
Si Si5 0.887956 0.768525 0.783553
Si Si6 0.284520 0.723376 0.780996
O O1 0.490271 0.124321 0.500000
O O2 0.423567 0.105420 0.722378
O O3 0.495919 0.249537 0.789537
O O4 0.500000 0.000000 0.790244
O O5 0.833629 0.466035 0.273441
O O6 0.897927 0.627670 0.275399
O O7 0.885442 0.487983 0.000000
O O8 0.500000 0.500000 0.210576
O O9 0.494827 0.625515 0.500000
O O10 0.427888 0.643082 0.278040
O O11 0.271530 0.863576 0.726123
O O12 0.247954 0.112728 0.720867
O O13 0.281015 0.005008 0.000000
O O14 0.836739 0.798142 0.726527
O O15 0.888166 0.768949 0.000000
O O16 0.283733 0.723508 0.000000
#
# Coordination Sequence:
#
# PCOD9425597 Si02
#       6
#     8   8   8   8   8   8
#     4  10  19  32  51  71  89 119 162 194 223 276
#     4   9  17  29  48  74  98 121 152 194 237 270
#     4  10  21  36  50  66  93 127 158 191 236 284
#     4   8  14  26  43  64  92 122 151 182 223 274
#     4   9  17  30  49  72  97 124 155 191 232 275
#     4   8  14  26  44  65  91 122 151 183 224 272
#
# _framework density 20.126383000000001
#
# number of rings (size 3 to 8) (size 9 to 14) (size 15 to 20)
#    0.000    3.000    1.667    2.000    0.000    1.333 
#    3.000    0.000    0.000    1.000    0.000    0.000 
#    0.000    0.000    0.000    0.000    0.000    0.000 
#
# Total GULP energy -267700.666711 kJ/mol
# GULP energy per Si atom -5577.097223 kJ/mol
# Density = 2.008057 g / cm^3
# Si number density = 20.126383 Si / 1000 Ang^3
#
#
#
# Elastic Constant Matrix: (Units=GPa)
#
#
# Indices 1 2 3 4 5 6 
#
# 1 129.4424 111.2323 -8.5720 0.0000 0.0000 0.0000
# 2 111.2323 177.9058 10.3974 0.0000 0.0000 0.0000
# 3 -8.5720 10.3974 58.3127 0.0000 0.0000 0.0000
# 4 0.0000 0.0000 0.0000 -11.1543 0.0000 0.0000
# 5 0.0000 0.0000 0.0000 0.0000 25.6199 0.0000
# 6 0.0000 0.0000 0.0000 0.0000 0.0000 41.5841
#
#
#
# Elastic Compliance Matrix: (Units=1/GPa)
#
#
# Indices 1 2 3 4 5 6 
#
# 1 0.017870 -0.011446 0.004668 0.000000 0.000000 0.000000
# 2 -0.011446 0.013011 -0.004002 0.000000 0.000000 0.000000
# 3 0.004668 -0.004002 0.018549 0.000000 0.000000 0.000000
# 4 0.000000 0.000000 0.000000 -0.089651 0.000000 0.000000
# 5 0.000000 0.000000 0.000000 0.000000 0.039032 0.000000
# 6 0.000000 0.000000 0.000000 0.000000 0.000000 0.024048
#
#
# Mechanical properties :
#
#
# Convention : Reuss Voigt Hill
#
# Bulk Modulus (GPa) = 35.88217 65.75291 50.81754
# Shear Modulus (GPa) = 93.09388 28.05014 60.57201
#
# Velocity S-wave (km/s) = 6.80846 3.73728 5.49192
# Velocity P-wave (km/s) = 8.92602 7.16686 8.09438
#
# Compressibility (1/GPa) = 0.02786899
#
# Stress axis : x y z
#
# Youngs Moduli (GPa) = 55.95944 76.85746 53.91205
#
# Poissons Ratio (x) = 0.87969 -0.25165
# Poissons Ratio (y) = 0.64050 0.21578
# Poissons Ratio (z) = -0.26120 0.30762
#
# Static dielectric constant tensor:
#      x y z
#    x 1.694860 0.000000 0.000000 
#    y 0.000000 1.718800 0.000000 
#    z 0.000000 0.000000 1.751880 
# 
# From -- ./inp_files/4087.got.cif
#   From: 2010.05.17/outbox.cif.g08.bks.cpg/sg55_3_cif.got.tgz:4087.got - 2010.06.03 13:27:54.
