data_PCOD9425652
_publ_section_title
;
Structure prediction by ZEFSAII (Michael W. Deem and Ramdas Pophale) SiO2 
 PCOD9425652
Probable space group: P B A M
;
_chemical_formula_sum "Si O2"
_cell_formula_units_Z 58
_cell_length_a 12.553273
_cell_length_b 27.429494
_cell_length_c 7.600353
_cell_angle_alpha 90.000000
_cell_angle_beta 90.000000
_cell_angle_gamma 90.000000
_cell_volume 2617.028989
_symmetry_space_group_name_H-M "P B A M"
_symmetry_group_IT_number 55
_symmetry_cell_setting 'orthorhombic'
loop_
_space_group_symop_operation_xyz
x,y,z
-x,-y,z
1/2+x,1/2-y,-z
1/2-x,1/2+y,-z
-x,-y,-z
x,y,-z
1/2-x,1/2+y,z
1/2+x,1/2-y,z
loop_
_atom_site_type_symbol
_atom_site_label
_atom_site_fract_x
_atom_site_fract_y
_atom_site_fract_z
Si Si1 0.867842 0.576858 0.707331
Si Si2 0.000000 0.000000 0.500000
Si Si3 0.881810 0.222235 0.700224
Si Si4 0.603118 0.293286 0.204321
Si Si5 0.696783 0.498794 0.793142
Si Si6 0.674104 0.827608 0.794433
Si Si7 0.102740 0.569271 0.212259
Si Si8 0.838084 0.684116 0.712581
O O1 0.844999 0.579550 0.500000
O O2 0.768166 0.548280 0.787927
O O3 0.878007 0.632256 0.777800
O O4 0.984467 0.553421 0.730548
O O5 0.096753 0.000623 0.342161
O O6 0.856946 0.234275 0.500000
O O7 0.883744 0.275449 0.787209
O O8 0.785566 0.189448 0.765056
O O9 0.991964 0.194385 0.709960
O O10 0.708437 0.317573 0.281514
O O11 0.615050 0.234897 0.220912
O O12 0.595547 0.305543 0.000000
O O13 0.790163 0.459997 0.737132
O O14 0.666839 0.489457 0.000000
O O15 0.617847 0.875022 0.720228
O O16 0.688919 0.838400 0.000000
O O17 0.099518 0.567009 0.000000
O O18 0.851287 0.685087 0.500000
#
# Coordination Sequence:
#
# PCOD9425652 Si02
#       8
#     8   2   8   8   8   8   8   8
#     4  11  22  39  65  98 130 166 213 270 328 389
#     4  12  26  52  74  98 132 176 218 262 320 390
#     4  10  19  33  51  77 114 159 205 257 311 370
#     4  10  19  32  52  78 112 157 206 257 309 370
#     4  11  25  47  73 101 133 172 215 265 325 388
#     4   9  19  36  55  81 117 156 205 256 310 375
#     4  10  22  40  64  96 129 163 209 268 330 390
#     4   9  20  36  54  81 119 158 205 255 311 373
#
# _framework density 22.162537
#
# number of rings (size 3 to 8) (size 9 to 14) (size 15 to 20)
#    0.000    1.931    0.690    2.690    0.966    6.621 
#    2.483    0.000    0.000    0.000    0.000    0.000 
#    0.000    0.000    0.000    0.000    0.000    0.000 
#
# Total GULP energy -322887.076869 kJ/mol
# GULP energy per Si atom -5567.018567 kJ/mol
# Density = 2.211209 g / cm^3
# Si number density = 22.162537 Si / 1000 Ang^3
#
#
#
# Elastic Constant Matrix: (Units=GPa)
#
#
# Indices 1 2 3 4 5 6 
#
# 1 165.8433 3.0242 18.5257 0.0000 0.0000 0.0000
# 2 3.0242 44.1651 -3.0971 0.0000 0.0000 0.0000
# 3 18.5257 -3.0971 86.5768 0.0000 0.0000 0.0000
# 4 0.0000 0.0000 0.0000 22.7693 0.0000 0.0000
# 5 0.0000 0.0000 0.0000 0.0000 33.8748 0.0000
# 6 0.0000 0.0000 0.0000 0.0000 0.0000 107.3817
#
#
#
# Elastic Compliance Matrix: (Units=1/GPa)
#
#
# Indices 1 2 3 4 5 6 
#
# 1 0.006189 -0.000518 -0.001343 0.000000 0.000000 0.000000
# 2 -0.000518 0.022743 0.000924 0.000000 0.000000 0.000000
# 3 -0.001343 0.000924 0.011871 0.000000 0.000000 0.000000
# 4 0.000000 0.000000 0.000000 0.043919 0.000000 0.000000
# 5 0.000000 0.000000 0.000000 0.000000 0.029520 0.000000
# 6 0.000000 0.000000 0.000000 0.000000 0.000000 0.009313
#
#
# Mechanical properties :
#
#
# Convention : Reuss Voigt Hill
#
# Bulk Modulus (GPa) = 25.68729 37.05453 31.37091
# Shear Modulus (GPa) = 36.12611 51.34732 43.73672
#
# Velocity S-wave (km/s) = 4.04177 4.81859 4.44718
# Velocity P-wave (km/s) = 5.77900 6.90754 6.36832
#
# Compressibility (1/GPa) = 0.03892976
#
# Stress axis : x y z
#
# Youngs Moduli (GPa) = 161.57056 43.97034 84.23989
#
# Poissons Ratio (x) = 0.02278 0.11313
# Poissons Ratio (y) = 0.08369 -0.07787
# Poissons Ratio (z) = 0.21697 -0.04065
#
# Static dielectric constant tensor:
#      x y z
#    x 1.824950 0.000000 0.000000 
#    y 0.000000 1.857070 0.000000 
#    z 0.000000 0.000000 1.819590 
# 
# From -- ./inp_files/4339.got.cif
#   From: 2010.05.17/outbox.cif.g08.bks.cpg/sg55_3_cif.got.tgz:4339.got - 2010.06.03 13:27:54.
