data_PCOD9425625
_publ_section_title
;
Structure prediction by ZEFSAII (Michael W. Deem and Ramdas Pophale) SiO2 
 PCOD9425625
Probable space group: P B A M
;
_chemical_formula_sum "Si O2"
_cell_formula_units_Z 48
_cell_length_a 16.736130
_cell_length_b 18.753416
_cell_length_c 8.978171
_cell_angle_alpha 90.000000
_cell_angle_beta 90.000000
_cell_angle_gamma 90.000000
_cell_volume 2817.885232
_symmetry_space_group_name_H-M "P B A M"
_symmetry_group_IT_number 55
_symmetry_cell_setting 'orthorhombic'
loop_
_space_group_symop_operation_xyz
x,y,z
-x,-y,z
1/2+x,1/2-y,-z
1/2-x,1/2+y,-z
-x,-y,-z
x,y,-z
1/2-x,1/2+y,z
1/2+x,1/2-y,z
loop_
_atom_site_type_symbol
_atom_site_label
_atom_site_fract_x
_atom_site_fract_y
_atom_site_fract_z
Si Si1 0.513617 0.083725 0.322596
Si Si2 0.917861 0.797169 0.170007
Si Si3 0.493717 0.419221 0.321508
Si Si4 0.082024 0.704648 0.171680
Si Si5 0.333251 0.842119 0.820105
Si Si6 0.333506 0.332685 0.321453
O O1 0.517272 0.097023 0.500000
O O2 0.442986 0.131587 0.251789
O O3 0.596131 0.109802 0.247420
O O4 0.500000 0.000000 0.297399
O O5 0.852944 0.740151 0.224175
O O6 0.937088 0.867455 0.261867
O O7 0.999735 0.750704 0.170479
O O8 0.899701 0.816681 0.000000
O O9 0.500000 0.500000 0.265756
O O10 0.498518 0.420095 0.500000
O O11 0.408591 0.383558 0.282550
O O12 0.144232 0.754391 0.258506
O O13 0.106048 0.693481 0.000000
O O14 0.247092 0.859901 0.754804
O O15 0.335467 0.845859 0.000000
O O16 0.325691 0.330630 0.500000
#
# Coordination Sequence:
#
# PCOD9425625 Si02
#       6
#     8   8   8   8   8   8
#     4  10  20  34  53  77 104 134 170 210 254 309
#     4   8  16  30  48  70  93 122 160 198 237 287
#     4   9  18  32  50  73 100 130 163 200 244 295
#     4   9  17  31  51  73  98 128 164 204 246 298
#     4  10  20  34  52  74 101 132 169 213 258 303
#     4  10  19  32  52  75 100 132 170 212 257 302
#
# _framework density 17.034051000000002
#
# number of rings (size 3 to 8) (size 9 to 14) (size 15 to 20)
#    0.000    2.667    0.000    3.000    0.000    7.000 
#    0.000    1.667    0.000    6.000    0.000    0.000 
#    0.000    0.000    0.000    0.000    0.000    0.000 
#
# Total GULP energy -267474.562873 kJ/mol
# GULP energy per Si atom -5572.386727 kJ/mol
# Density = 1.699528 g / cm^3
# Si number density = 17.034051 Si / 1000 Ang^3
#
#
#
# Elastic Constant Matrix: (Units=GPa)
#
#
# Indices 1 2 3 4 5 6 
#
# 1 66.4411 35.8574 39.1270 0.0000 0.0000 0.0000
# 2 35.8574 122.0644 59.2182 0.0000 0.0000 0.0000
# 3 39.1270 59.2182 72.3255 0.0000 0.0000 0.0000
# 4 0.0000 0.0000 0.0000 18.4674 0.0000 0.0000
# 5 0.0000 0.0000 0.0000 0.0000 19.8257 0.0000
# 6 0.0000 0.0000 0.0000 0.0000 0.0000 15.1459
#
#
#
# Elastic Compliance Matrix: (Units=1/GPa)
#
#
# Indices 1 2 3 4 5 6 
#
# 1 0.022185 -0.001152 -0.011058 0.000000 0.000000 0.000000
# 2 -0.001152 0.013651 -0.010554 0.000000 0.000000 0.000000
# 3 -0.011058 -0.010554 0.028450 0.000000 0.000000 0.000000
# 4 0.000000 0.000000 0.000000 0.054149 0.000000 0.000000
# 5 0.000000 0.000000 0.000000 0.000000 0.050440 0.000000
# 6 0.000000 0.000000 0.000000 0.000000 0.000000 0.066024
#
#
# Mechanical properties :
#
#
# Convention : Reuss Voigt Hill
#
# Bulk Modulus (GPa) = 53.31257 58.80401 56.05829
# Shear Modulus (GPa) = 17.44104 19.12968 18.28536
#
# Velocity S-wave (km/s) = 3.20330 3.35479 3.27992
# Velocity P-wave (km/s) = 6.71172 7.04291 6.87931
#
# Compressibility (1/GPa) = 0.01875730
#
# Stress axis : x y z
#
# Youngs Moduli (GPa) = 45.07550 73.25550 35.14953
#
# Poissons Ratio (x) = 0.08440 0.38870
# Poissons Ratio (y) = 0.05193 0.37096
# Poissons Ratio (z) = 0.49846 0.77311
#
# Static dielectric constant tensor:
#      x y z
#    x 1.579080 0.000000 0.000000 
#    y 0.000000 1.575460 0.000000 
#    z 0.000000 0.000000 1.574180 
# 
# From -- ./inp_files/7532.got.cif
#   From: 2010.05.17/outbox.cif.g08.bks.cpg/sg55_4_cif.got.tgz:7532.got - 2010.06.03 13:27:54.
