data_PCOD9425015
_publ_section_title
;
Structure prediction by ZEFSAII (Michael W. Deem and Ramdas Pophale) SiO2 
 PCOD9425015
Probable space group: P B A M
;
_chemical_formula_sum "Si O2"
_cell_formula_units_Z 64
_cell_length_a 28.852050
_cell_length_b 5.690370
_cell_length_c 20.705268
_cell_angle_alpha 90.000000
_cell_angle_beta 90.000000
_cell_angle_gamma 90.000000
_cell_volume 3399.366877
_symmetry_space_group_name_H-M "P B A M"
_symmetry_group_IT_number 55
_symmetry_cell_setting 'orthorhombic'
loop_
_space_group_symop_operation_xyz
x,y,z
-x,-y,z
1/2+x,1/2-y,-z
1/2-x,1/2+y,-z
-x,-y,-z
x,y,-z
1/2-x,1/2+y,z
1/2+x,1/2-y,z
loop_
_atom_site_type_symbol
_atom_site_label
_atom_site_fract_x
_atom_site_fract_y
_atom_site_fract_z
Si Si1 0.459293 0.307838 0.930844
Si Si2 0.736053 0.759917 0.747163
Si Si3 0.951184 0.865077 0.291286
Si Si4 0.065164 0.472494 0.173230
Si Si5 0.870288 0.158098 0.235402
Si Si6 0.270990 0.720738 0.898169
Si Si7 0.471803 0.752279 0.429544
Si Si8 0.876007 0.880013 0.895449
O O1 0.500000 0.500000 0.929915
O O2 0.464526 0.166626 0.864291
O O3 0.407882 0.423750 0.928714
O O4 0.462789 0.181765 0.000000
O O5 0.755935 0.518274 0.718011
O O6 0.681326 0.716370 0.745228
O O7 0.758660 0.774362 0.820279
O O8 0.953926 0.691493 0.229819
O O9 0.945674 0.745345 0.361136
O O10 0.907829 0.039654 0.282097
O O11 0.000000 0.000000 0.290951
O O12 0.106685 0.608160 0.208203
O O13 0.088370 0.331319 0.114488
O O14 0.866525 0.978485 0.176026
O O15 0.247515 0.475625 0.920967
O O16 0.325149 0.696686 0.916964
O O17 0.500000 0.500000 0.428621
O O18 0.447411 0.749854 0.500000
O O19 0.500000 0.000000 0.428950
#
# Coordination Sequence:
#
# PCOD9425015 Si02
#       8
#     8   8   8   8   8   8   8   8
#     4  10  24  44  60  78 105 145 200 254 309 372
#     4  10  18  30  50  75 112 153 185 230 291 357
#     4  10  23  35  52  86 125 159 196 250 298 357
#     4  10  22  36  57  80 112 148 193 245 310 361
#     4  10  20  32  50  81 117 149 188 235 296 360
#     4  10  18  30  55  84 113 141 180 226 290 359
#     4   9  19  37  58  81 116 166 212 245 291 354
#     4  10  20  34  56  83 106 142 187 237 296 365
#
# _framework density 18.827036
#
# number of rings (size 3 to 8) (size 9 to 14) (size 15 to 20)
#    0.000    2.125    2.500    1.500    7.000    6.500 
#    0.000    1.250    0.000    1.125    0.000    0.000 
#    0.000    1.000    0.000    0.000    0.000    0.000 
#
# Total GULP energy -356289.521652 kJ/mol
# GULP energy per Si atom -5567.023776 kJ/mol
# Density = 1.878418 g / cm^3
# Si number density = 18.827036 Si / 1000 Ang^3
#
#
#
# Elastic Constant Matrix: (Units=GPa)
#
#
# Indices 1 2 3 4 5 6 
#
# 1 98.6525 24.2974 37.6222 0.0000 0.0000 0.0000
# 2 24.2974 98.6988 16.4381 0.0000 0.0000 0.0000
# 3 37.6222 16.4381 75.5464 0.0000 0.0000 0.0000
# 4 0.0000 0.0000 0.0000 0.4455 0.0000 0.0000
# 5 0.0000 0.0000 0.0000 0.0000 -9.8795 0.0000
# 6 0.0000 0.0000 0.0000 0.0000 0.0000 29.2609
#
#
#
# Elastic Compliance Matrix: (Units=1/GPa)
#
#
# Indices 1 2 3 4 5 6 
#
# 1 0.012955 -0.002194 -0.005974 0.000000 0.000000 0.000000
# 2 -0.002194 0.010884 -0.001276 0.000000 0.000000 0.000000
# 3 -0.005974 -0.001276 0.016490 0.000000 0.000000 0.000000
# 4 0.000000 0.000000 0.000000 2.244815 0.000000 0.000000
# 5 0.000000 0.000000 0.000000 0.000000 -0.101220 0.000000
# 6 0.000000 0.000000 0.000000 0.000000 0.000000 0.034175
#
#
# Mechanical properties :
#
#
# Convention : Reuss Voigt Hill
#
# Bulk Modulus (GPa) = 46.63944 47.73480 47.18712
# Shear Modulus (GPa) = 2.22803 16.93472 9.58137
#
# Velocity S-wave (km/s) = 1.08903 3.00240 2.25836
# Velocity P-wave (km/s) = 5.13884 6.11790 5.64962
#
# Compressibility (1/GPa) = 0.02144108
#
# Stress axis : x y z
#
# Youngs Moduli (GPa) = 77.18774 91.87402 60.64391
#
# Poissons Ratio (x) = 0.20160 0.36231
# Poissons Ratio (y) = 0.16937 0.07736
# Poissons Ratio (z) = 0.46115 0.11719
#
# Static dielectric constant tensor:
#      x y z
#    x 1.695600 0.000000 0.000000 
#    y 0.000000 1.755840 0.000000 
#    z 0.000000 0.000000 1.657020 
# 
# From -- ./inp_files/23190.got.cif
#   From: 2010.05.17/outbox.cif.g08.bks.cpg/sg55_12_cif.got.tgz:23190.got - 2010.06.03 13:27:54.
