data_PCOD9425111
_publ_section_title
;
Structure prediction by ZEFSAII (Michael W. Deem and Ramdas Pophale) SiO2 
 PCOD9425111
Probable space group: P B A M
;
_chemical_formula_sum "Si O2"
_cell_formula_units_Z 56
_cell_length_a 14.512976
_cell_length_b 18.638827
_cell_length_c 9.366306
_cell_angle_alpha 90.000000
_cell_angle_beta 90.000000
_cell_angle_gamma 90.000000
_cell_volume 2533.631189
_symmetry_space_group_name_H-M "P B A M"
_symmetry_group_IT_number 55
_symmetry_cell_setting 'orthorhombic'
loop_
_space_group_symop_operation_xyz
x,y,z
-x,-y,z
1/2+x,1/2-y,-z
1/2-x,1/2+y,-z
-x,-y,-z
x,y,-z
1/2-x,1/2+y,z
1/2+x,1/2-y,z
loop_
_atom_site_type_symbol
_atom_site_label
_atom_site_fract_x
_atom_site_fract_y
_atom_site_fract_z
Si Si1 0.897317 0.651572 0.665083
Si Si2 0.275202 0.557448 0.169365
Si Si3 0.454448 0.631946 0.835119
Si Si4 0.385495 0.434473 0.664623
Si Si5 0.945247 0.286270 0.164273
Si Si6 0.214257 0.778874 0.335089
Si Si7 0.104919 0.511607 0.334512
O O1 0.917754 0.668909 0.500000
O O2 0.990121 0.658596 0.753440
O O3 0.817461 0.704880 0.716198
O O4 0.859350 0.570725 0.667668
O O5 0.346019 0.623066 0.195542
O O6 0.330949 0.490138 0.236502
O O7 0.176052 0.558163 0.244706
O O8 0.262893 0.548912 0.000000
O O9 0.514149 0.582924 0.729203
O O10 0.496626 0.711484 0.826669
O O11 0.468097 0.607686 0.000000
O O12 0.388215 0.459244 0.500000
O O13 0.334863 0.357081 0.665939
O O14 0.848440 0.271466 0.239258
O O15 0.932803 0.305470 0.000000
O O16 0.216721 0.754415 0.500000
O O17 0.101372 0.535967 0.500000
O O18 0.000000 0.500000 0.284620
#
# Coordination Sequence:
#
# PCOD9425111 Si02
#       7
#     8   8   8   8   8   8   8
#     4  10  20  39  63  85 113 148 189 238 288 337
#     4  11  21  34  55  81 115 153 185 227 283 341
#     4   9  20  36  51  78 120 154 182 226 283 337
#     4  10  18  31  54  84 113 144 187 230 273 334
#     4  10  21  37  57  84 117 152 193 237 283 342
#     4   9  18  35  58  81 110 147 189 236 283 337
#     4  10  22  42  64  85 112 146 192 244 287 339
#
# _framework density 22.102664000000001
#
# number of rings (size 3 to 8) (size 9 to 14) (size 15 to 20)
#    0.000    2.143    1.429    1.714    0.000    5.429 
#    2.571    0.000    0.000    0.000    0.000    0.000 
#    0.000    0.000    0.000    0.000    0.000    0.000 
#
# Total GULP energy -312988.965793 kJ/mol
# GULP energy per Si atom -5589.088675 kJ/mol
# Density = 2.205236 g / cm^3
# Si number density = 22.102664 Si / 1000 Ang^3
#
#
#
# Elastic Constant Matrix: (Units=GPa)
#
#
# Indices 1 2 3 4 5 6 
#
# 1 153.1184 12.0273 53.6315 0.0000 0.0000 0.0000
# 2 12.0273 49.1061 20.6825 0.0000 0.0000 0.0000
# 3 53.6315 20.6825 57.3030 0.0000 0.0000 0.0000
# 4 0.0000 0.0000 0.0000 8.2726 0.0000 0.0000
# 5 0.0000 0.0000 0.0000 0.0000 25.8705 0.0000
# 6 0.0000 0.0000 0.0000 0.0000 0.0000 36.9881
#
#
#
# Elastic Compliance Matrix: (Units=1/GPa)
#
#
# Indices 1 2 3 4 5 6 
#
# 1 0.009839 0.001732 -0.009834 0.000000 0.000000 0.000000
# 2 0.001732 0.024320 -0.010399 0.000000 0.000000 0.000000
# 3 -0.009834 -0.010399 0.030408 0.000000 0.000000 0.000000
# 4 0.000000 0.000000 0.000000 0.120881 0.000000 0.000000
# 5 0.000000 0.000000 0.000000 0.000000 0.038654 0.000000
# 6 0.000000 0.000000 0.000000 0.000000 0.000000 0.027036
#
#
# Mechanical properties :
#
#
# Convention : Reuss Voigt Hill
#
# Bulk Modulus (GPa) = 36.27706 48.02334 42.15020
# Shear Modulus (GPa) = 16.81640 25.77199 21.29419
#
# Velocity S-wave (km/s) = 2.76131 3.41840 3.10727
# Velocity P-wave (km/s) = 5.15898 6.11189 5.65554
#
# Compressibility (1/GPa) = 0.02756563
#
# Stress axis : x y z
#
# Youngs Moduli (GPa) = 101.63276 41.11902 32.88569
#
# Poissons Ratio (x) = -0.07122 0.32340
# Poissons Ratio (y) = -0.17603 0.34197
# Poissons Ratio (z) = 0.99946 0.42759
#
# Static dielectric constant tensor:
#      x y z
#    x 1.818020 0.000000 0.000000 
#    y 0.000000 1.849240 0.000000 
#    z 0.000000 0.000000 1.751920 
# 
# From -- ./inp_files/6202.got.cif
#   From: 2010.05.17/outbox.cif.g08.bks.cpg/sg55_4_cif.got.tgz:6202.got - 2010.06.03 13:27:54.
