data_PCOD9425385
_publ_section_title
;
Structure prediction by ZEFSAII (Michael W. Deem and Ramdas Pophale) SiO2 
 PCOD9425385
Probable space group: P B A M
;
_chemical_formula_sum "Si O2"
_cell_formula_units_Z 56
_cell_length_a 13.664049
_cell_length_b 29.747194
_cell_length_c 8.990881
_cell_angle_alpha 90.000000
_cell_angle_beta 90.000000
_cell_angle_gamma 90.000000
_cell_volume 3654.497474
_symmetry_space_group_name_H-M "P B A M"
_symmetry_group_IT_number 55
_symmetry_cell_setting 'orthorhombic'
loop_
_space_group_symop_operation_xyz
x,y,z
-x,-y,z
1/2+x,1/2-y,-z
1/2-x,1/2+y,-z
-x,-y,-z
x,y,-z
1/2-x,1/2+y,z
1/2+x,1/2-y,z
loop_
_atom_site_type_symbol
_atom_site_label
_atom_site_fract_x
_atom_site_fract_y
_atom_site_fract_z
Si Si1 0.881146 0.500231 0.828455
Si Si2 0.881839 0.406821 0.323533
Si Si3 0.286474 0.180082 0.177789
Si Si4 0.106206 0.229210 0.322962
Si Si5 0.803715 0.682980 0.822960
Si Si6 0.616491 0.093601 0.676448
Si Si7 0.597633 0.728772 0.175250
O O1 0.851014 0.454677 0.745421
O O2 0.851860 0.545808 0.744833
O O3 0.000000 0.500000 0.827721
O O4 0.849171 0.500390 0.000000
O O5 0.864293 0.406215 0.500000
O O6 0.827729 0.365759 0.244443
O O7 0.999082 0.402006 0.300068
O O8 0.184954 0.195213 0.252293
O O9 0.362345 0.220976 0.207441
O O10 0.274657 0.177175 0.000000
O O11 0.115371 0.229877 0.500000
O O12 0.133271 0.278155 0.256273
O O13 0.996608 0.218109 0.272144
O O14 0.831487 0.634989 0.756945
O O15 0.690330 0.696347 0.798854
O O16 0.822220 0.684579 0.000000
O O17 0.634086 0.094545 0.500000
O O18 0.572166 0.726850 0.000000
#
# Coordination Sequence:
#
# PCOD9425385 Si02
#       7
#     8   8   8   8   8   8   8
#     4   9  17  29  45  65  91 124 158 189 226 275
#     4  10  19  30  45  68  97 125 155 192 233 274
#     4  10  20  33  49  68  92 124 159 191 227 275
#     4  11  21  32  48  69  94 122 153 193 235 273
#     4  10  20  33  49  68  92 124 159 191 226 274
#     4  10  19  30  46  69  97 125 153 191 234 274
#     4   9  19  34  49  66  91 123 157 192 228 269
#
# _framework density 15.323585
#
# number of rings (size 3 to 8) (size 9 to 14) (size 15 to 20)
#    0.000    2.143    0.000    5.143    0.000    9.143 
#    0.000    0.000    0.000    0.000    0.000    1.000 
#    0.000    8.000    0.000    0.000    0.000    0.000 
#
# Total GULP energy -312521.923794 kJ/mol
# GULP energy per Si atom -5580.748639 kJ/mol
# Density = 1.528871 g / cm^3
# Si number density = 15.323585 Si / 1000 Ang^3
#
#
#
# Elastic Constant Matrix: (Units=GPa)
#
#
# Indices 1 2 3 4 5 6 
#
# 1 53.8726 43.9278 57.8093 0.0000 0.0000 0.0000
# 2 43.9278 144.8734 77.3886 0.0000 0.0000 0.0000
# 3 57.8093 77.3886 117.5752 0.0000 0.0000 0.0000
# 4 0.0000 0.0000 0.0000 30.8560 0.0000 0.0000
# 5 0.0000 0.0000 0.0000 0.0000 21.3867 0.0000
# 6 0.0000 0.0000 0.0000 0.0000 0.0000 19.3023
#
#
#
# Elastic Compliance Matrix: (Units=1/GPa)
#
#
# Indices 1 2 3 4 5 6 
#
# 1 0.039871 -0.002495 -0.017962 0.000000 0.000000 0.000000
# 2 -0.002495 0.010802 -0.005883 0.000000 0.000000 0.000000
# 3 -0.017962 -0.005883 0.021209 0.000000 0.000000 0.000000
# 4 0.000000 0.000000 0.000000 0.032409 0.000000 0.000000
# 5 0.000000 0.000000 0.000000 0.000000 0.046758 0.000000
# 6 0.000000 0.000000 0.000000 0.000000 0.000000 0.051807
#
#
# Mechanical properties :
#
#
# Convention : Reuss Voigt Hill
#
# Bulk Modulus (GPa) = 52.07688 74.95252 63.51470
# Shear Modulus (GPa) = 19.08876 23.45537 21.27206
#
# Velocity S-wave (km/s) = 3.53329 3.91662 3.72989
# Velocity P-wave (km/s) = 7.12068 8.33502 7.75167
#
# Compressibility (1/GPa) = 0.01920238
#
# Stress axis : x y z
#
# Youngs Moduli (GPa) = 25.08120 92.57840 47.15017
#
# Poissons Ratio (x) = 0.23095 0.84689
# Poissons Ratio (y) = 0.06257 0.27739
# Poissons Ratio (z) = 0.45050 0.54465
#
# Static dielectric constant tensor:
#      x y z
#    x 1.490490 0.000000 0.000000 
#    y 0.000000 1.490530 0.000000 
#    z 0.000000 0.000000 1.508260 
# 
# From -- ./inp_files/6889.got.cif
#   From: 2010.05.17/outbox.cif.g08.bks.cpg/sg55_4_cif.got.tgz:6889.got - 2010.06.03 13:27:54.
