data_PCOD9425818
_publ_section_title
;
Structure prediction by ZEFSAII (Michael W. Deem and Ramdas Pophale) SiO2 
 PCOD9425818
Probable space group: P B A M
;
_chemical_formula_sum "Si O2"
_cell_formula_units_Z 48
_cell_length_a 9.128900
_cell_length_b 32.075249
_cell_length_c 7.425708
_cell_angle_alpha 90.000000
_cell_angle_beta 90.000000
_cell_angle_gamma 90.000000
_cell_volume 2174.334485
_symmetry_space_group_name_H-M "P B A M"
_symmetry_group_IT_number 55
_symmetry_cell_setting 'orthorhombic'
loop_
_space_group_symop_operation_xyz
x,y,z
-x,-y,z
1/2+x,1/2-y,-z
1/2-x,1/2+y,-z
-x,-y,-z
x,y,-z
1/2-x,1/2+y,z
1/2+x,1/2-y,z
loop_
_atom_site_type_symbol
_atom_site_label
_atom_site_fract_x
_atom_site_fract_y
_atom_site_fract_z
Si Si1 0.590248 0.125950 0.720313
Si Si2 0.090158 0.205884 0.719924
Si Si3 0.063845 0.542545 0.707598
Si Si4 0.572305 0.790064 0.280036
Si Si5 0.899980 0.962735 0.791006
Si Si6 0.571982 0.621718 0.717904
O O1 0.587470 0.126987 0.500000
O O2 0.499047 0.085691 0.783195
O O3 0.516837 0.169176 0.778524
O O4 0.759057 0.122123 0.775592
O O5 0.089083 0.205753 0.500000
O O6 0.258977 0.207394 0.776459
O O7 0.004064 0.247228 0.777440
O O8 0.010628 0.163549 0.777884
O O9 0.012606 0.542747 0.500000
O O10 0.239109 0.541527 0.709134
O O11 0.000000 0.500000 0.789595
O O12 0.571633 0.789893 0.500000
O O13 0.987618 0.919662 0.776426
O O14 0.873594 0.972691 0.000000
O O15 0.000000 0.000000 0.714531
O O16 0.570974 0.621645 0.500000
#
# Coordination Sequence:
#
# PCOD9425818 Si02
#       6
#     8   8   8   8   8   8
#     4   9  17  29  48  76 107 136 170 214 260 307
#     4   9  16  25  42  70 104 139 171 209 256 304
#     4  10  20  35  56  81 107 136 172 215 260 305
#     4   9  15  24  39  67 107 140 168 207 256 305
#     4  11  24  39  54  75 104 137 172 211 257 310
#     4  10  19  33  54  78 103 134 173 215 259 304
#
# _framework density 22.075721999999999
#
# number of rings (size 3 to 8) (size 9 to 14) (size 15 to 20)
#    0.000    2.333    0.000    3.500    0.000    9.667 
#    0.000    0.833    0.000    0.000    0.000   10.500 
#    0.000    0.000    0.000    0.000    0.000    0.000 
#
# Total GULP energy -268355.573975 kJ/mol
# GULP energy per Si atom -5590.741124 kJ/mol
# Density = 2.202548 g / cm^3
# Si number density = 22.075722 Si / 1000 Ang^3
#
#
#
# Elastic Constant Matrix: (Units=GPa)
#
#
# Indices 1 2 3 4 5 6 
#
# 1 190.6051 120.0812 -13.7254 0.0000 0.0000 0.0000
# 2 120.0812 235.5454 -7.9864 0.0000 0.0000 0.0000
# 3 -13.7254 -7.9864 66.7162 0.0000 0.0000 0.0000
# 4 0.0000 0.0000 0.0000 68.8361 0.0000 0.0000
# 5 0.0000 0.0000 0.0000 0.0000 -100.9306 0.0000
# 6 0.0000 0.0000 0.0000 0.0000 0.0000 51.1530
#
#
#
# Elastic Compliance Matrix: (Units=1/GPa)
#
#
# Indices 1 2 3 4 5 6 
#
# 1 0.007813 -0.003945 0.001135 0.000000 0.000000 0.000000
# 2 -0.003945 0.006254 -0.000063 0.000000 0.000000 0.000000
# 3 0.001135 -0.000063 0.015215 0.000000 0.000000 0.000000
# 4 0.000000 0.000000 0.000000 0.014527 0.000000 0.000000
# 5 0.000000 0.000000 0.000000 0.000000 -0.009908 0.000000
# 6 0.000000 0.000000 0.000000 0.000000 0.000000 0.019549
#
#
# Mechanical properties :
#
#
# Convention : Reuss Voigt Hill
#
# Bulk Modulus (GPa) = 42.48479 76.62282 59.55380
# Shear Modulus (GPa) = 74.57993 30.11152 52.34573
#
# Velocity S-wave (km/s) = 5.81868 3.69726 4.87477
# Velocity P-wave (km/s) = 8.02680 7.28085 7.66291
#
# Compressibility (1/GPa) = 0.02353784
#
# Stress axis : x y z
#
# Youngs Moduli (GPa) = 127.98502 159.88760 65.72509
#
# Poissons Ratio (x) = 0.63072 -0.07461
# Poissons Ratio (y) = 0.50487 0.00413
# Poissons Ratio (z) = -0.14529 0.01005
#
# Static dielectric constant tensor:
#      x y z
#    x 1.733270 0.000000 0.000000 
#    y 0.000000 1.763910 0.000000 
#    z 0.000000 0.000000 1.847380 
# 
# From -- ./inp_files/2893.got.cif
#   From: 2010.05.17/outbox.cif.g08.bks.cpg/sg55_2_cif.got.tgz:2893.got - 2010.06.03 13:27:54.
