data_PCOD9425635
_publ_section_title
;
Structure prediction by ZEFSAII (Michael W. Deem and Ramdas Pophale) SiO2 
 PCOD9425635
Probable space group: P B A M
;
_chemical_formula_sum "Si O2"
_cell_formula_units_Z 48
_cell_length_a 16.631826
_cell_length_b 18.663206
_cell_length_c 9.105978
_cell_angle_alpha 90.000000
_cell_angle_beta 90.000000
_cell_angle_gamma 90.000000
_cell_volume 2826.524663
_symmetry_space_group_name_H-M "P B A M"
_symmetry_group_IT_number 55
_symmetry_cell_setting 'orthorhombic'
loop_
_space_group_symop_operation_xyz
x,y,z
-x,-y,z
1/2+x,1/2-y,-z
1/2-x,1/2+y,-z
-x,-y,-z
x,y,-z
1/2-x,1/2+y,z
1/2+x,1/2-y,z
loop_
_atom_site_type_symbol
_atom_site_label
_atom_site_fract_x
_atom_site_fract_y
_atom_site_fract_z
Si Si1 0.001576 0.833024 0.825371
Si Si2 0.667584 0.089213 0.323379
Si Si3 0.516321 0.165726 0.174906
Si Si4 0.915267 0.956796 0.332332
Si Si5 0.579937 0.949884 0.332026
Si Si6 0.166851 0.915728 0.825262
O O1 0.090293 0.864709 0.793853
O O2 0.996438 0.749199 0.791435
O O3 0.937247 0.880588 0.737610
O O4 0.987999 0.842950 0.000000
O O5 0.665648 0.094584 0.500000
O O6 0.596121 0.136275 0.254677
O O7 0.753243 0.109306 0.257058
O O8 0.648519 0.005687 0.285163
O O9 0.442412 0.117030 0.231650
O O10 0.524888 0.157125 0.000000
O O11 0.886490 0.951055 0.500000
O O12 0.857053 0.005861 0.235463
O O13 0.000000 0.000000 0.334039
O O14 0.594075 0.926660 0.500000
O O15 0.500000 0.000000 0.332940
O O16 0.179137 0.917487 0.000000
#
# Coordination Sequence:
#
# PCOD9425635 Si02
#       6
#     8   8   8   8   8   8
#     4   9  19  34  51  74 103 133 165 203 248 300
#     4  10  20  34  51  73 101 131 167 211 255 300
#     4  10  19  32  52  76 101 131 168 206 247 300
#     4   9  17  30  50  74  97 125 163 202 240 290
#     4   8  16  31  49  69  95 126 159 198 243 292
#     4  10  19  33  53  74  99 132 168 209 255 298
#
# _framework density 16.981985999999999
#
# number of rings (size 3 to 8) (size 9 to 14) (size 15 to 20)
#    0.000    2.667    0.000    3.000    0.000    7.667 
#    0.000    1.667    0.000    6.000    0.000    0.000 
#    0.000    0.000    0.000    0.000    0.000    0.000 
#
# Total GULP energy -267520.964328 kJ/mol
# GULP energy per Si atom -5573.353423 kJ/mol
# Density = 1.694333 g / cm^3
# Si number density = 16.981986 Si / 1000 Ang^3
#
#
#
# Elastic Constant Matrix: (Units=GPa)
#
#
# Indices 1 2 3 4 5 6 
#
# 1 61.4895 35.9907 40.7493 0.0000 0.0000 0.0000
# 2 35.9907 124.0540 68.4566 0.0000 0.0000 0.0000
# 3 40.7493 68.4566 79.8379 0.0000 0.0000 0.0000
# 4 0.0000 0.0000 0.0000 13.5474 0.0000 0.0000
# 5 0.0000 0.0000 0.0000 0.0000 24.4317 0.0000
# 6 0.0000 0.0000 0.0000 0.0000 0.0000 14.8186
#
#
#
# Elastic Compliance Matrix: (Units=1/GPa)
#
#
# Indices 1 2 3 4 5 6 
#
# 1 0.024586 -0.000395 -0.012210 0.000000 0.000000 0.000000
# 2 -0.000395 0.015307 -0.012923 0.000000 0.000000 0.000000
# 3 -0.012210 -0.012923 0.029838 0.000000 0.000000 0.000000
# 4 0.000000 0.000000 0.000000 0.073815 0.000000 0.000000
# 5 0.000000 0.000000 0.000000 0.000000 0.040930 0.000000
# 6 0.000000 0.000000 0.000000 0.000000 0.000000 0.067483
#
#
# Mechanical properties :
#
#
# Convention : Reuss Voigt Hill
#
# Bulk Modulus (GPa) = 53.54852 61.75275 57.65063
# Shear Modulus (GPa) = 16.16867 18.57187 17.37027
#
# Velocity S-wave (km/s) = 3.08897 3.31058 3.20169
# Velocity P-wave (km/s) = 6.65758 7.14534 6.90577
#
# Compressibility (1/GPa) = 0.01867465
#
# Stress axis : x y z
#
# Youngs Moduli (GPa) = 40.67423 65.32917 33.51409
#
# Poissons Ratio (x) = 0.02582 0.40920
# Poissons Ratio (y) = 0.01607 0.43311
# Poissons Ratio (z) = 0.49662 0.84427
#
# Static dielectric constant tensor:
#      x y z
#    x 1.581450 0.000000 0.000000 
#    y 0.000000 1.563480 0.000000 
#    z 0.000000 0.000000 1.568850 
# 
# From -- ./inp_files/7549.got.cif
#   From: 2010.05.17/outbox.cif.g08.bks.cpg/sg55_4_cif.got.tgz:7549.got - 2010.06.03 13:27:54.
