data_PCOD9425896
_publ_section_title
;
Structure prediction by ZEFSAII (Michael W. Deem and Ramdas Pophale) SiO2 
 PCOD9425896
Probable space group: P B A M
;
_chemical_formula_sum "Si O2"
_cell_formula_units_Z 64
_cell_length_a 11.938251
_cell_length_b 30.125620
_cell_length_c 7.700862
_cell_angle_alpha 90.000000
_cell_angle_beta 90.000000
_cell_angle_gamma 90.000000
_cell_volume 2769.593557
_symmetry_space_group_name_H-M "P B A M"
_symmetry_group_IT_number 55
_symmetry_cell_setting 'orthorhombic'
loop_
_space_group_symop_operation_xyz
x,y,z
-x,-y,z
1/2+x,1/2-y,-z
1/2-x,1/2+y,-z
-x,-y,-z
x,y,-z
1/2-x,1/2+y,z
1/2+x,1/2-y,z
loop_
_atom_site_type_symbol
_atom_site_label
_atom_site_fract_x
_atom_site_fract_y
_atom_site_fract_z
Si Si1 0.812839 0.836075 0.300500
Si Si2 0.806951 0.935904 0.712806
Si Si3 0.841092 0.154210 0.208541
Si Si4 0.711048 0.023399 0.709738
Si Si5 0.499765 0.270870 0.295951
Si Si6 0.425336 0.177803 0.200291
Si Si7 0.444981 0.436123 0.704843
Si Si8 0.607125 0.112190 0.793164
O O1 0.849616 0.842789 0.500000
O O2 0.795992 0.885468 0.225707
O O3 0.903699 0.803039 0.221241
O O4 0.690679 0.814771 0.296856
O O5 0.804802 0.935725 0.500000
O O6 0.932824 0.950331 0.767657
O O7 0.715165 0.972201 0.767495
O O8 0.720027 0.136897 0.272914
O O9 0.884834 0.201467 0.272412
O O10 0.929267 0.116531 0.268348
O O11 0.839261 0.154708 0.000000
O O12 0.710881 0.023854 0.500000
O O13 0.619615 0.059723 0.761885
O O14 0.830672 0.042929 0.775616
O O15 0.519759 0.263674 0.500000
O O16 0.495475 0.222982 0.210129
O O17 0.497586 0.137046 0.274855
O O18 0.397431 0.168794 0.000000
O O19 0.444265 0.445906 0.500000
O O20 0.606228 0.119026 0.000000
#
# Coordination Sequence:
#
# PCOD9425896 Si02
#       8
#     8   8   8   8   8   8   8   8
#     4  10  22  41  62  87 120 153 191 241 291 346
#     4   9  16  31  54  83 118 152 190 239 291 340
#     4  10  19  33  55  84 115 150 188 229 284 344
#     4   9  17  29  55  87 113 150 197 239 285 343
#     4  11  23  40  62  89 116 147 188 237 295 351
#     4  11  25  43  62  83 113 154 198 243 291 346
#     4   9  15  28  49  79 117 153 187 230 285 340
#     4   9  21  40  57  79 116 155 192 238 287 338
#
# _framework density 23.108084999999999
#
# number of rings (size 3 to 8) (size 9 to 14) (size 15 to 20)
#    0.000    2.250    1.250    1.500    1.750    4.000 
#    0.000    1.875    0.000    6.750    0.000    0.000 
#    0.000    0.000    0.000    0.000    0.000    0.000 
#
# Total GULP energy -357314.519296 kJ/mol
# GULP energy per Si atom -5583.039364 kJ/mol
# Density = 2.305549 g / cm^3
# Si number density = 23.108085 Si / 1000 Ang^3
#
#
#
# Elastic Constant Matrix: (Units=GPa)
#
#
# Indices 1 2 3 4 5 6 
#
# 1 35.5775 3.5347 3.7869 0.0000 0.0000 0.0000
# 2 3.5347 86.7762 -3.7317 0.0000 0.0000 0.0000
# 3 3.7869 -3.7317 46.8511 0.0000 0.0000 0.0000
# 4 0.0000 0.0000 0.0000 25.1167 0.0000 0.0000
# 5 0.0000 0.0000 0.0000 0.0000 10.0533 0.0000
# 6 0.0000 0.0000 0.0000 0.0000 0.0000 18.9485
#
#
#
# Elastic Compliance Matrix: (Units=1/GPa)
#
#
# Indices 1 2 3 4 5 6 
#
# 1 0.028489 -0.001264 -0.002403 0.000000 0.000000 0.000000
# 2 -0.001264 0.011620 0.001028 0.000000 0.000000 0.000000
# 3 -0.002403 0.001028 0.021620 0.000000 0.000000 0.000000
# 4 0.000000 0.000000 0.000000 0.039814 0.000000 0.000000
# 5 0.000000 0.000000 0.000000 0.000000 0.099470 0.000000
# 6 0.000000 0.000000 0.000000 0.000000 0.000000 0.052775
#
#
# Mechanical properties :
#
#
# Convention : Reuss Voigt Hill
#
# Bulk Modulus (GPa) = 17.71483 19.59828 18.65656
# Shear Modulus (GPa) = 17.99315 21.86469 19.92892
#
# Velocity S-wave (km/s) = 2.79346 3.07936 2.93989
# Velocity P-wave (km/s) = 4.25291 4.59813 4.42889
#
# Compressibility (1/GPa) = 0.05644987
#
# Stress axis : x y z
#
# Youngs Moduli (GPa) = 35.10118 86.06168 46.25279
#
# Poissons Ratio (x) = 0.10877 0.11116
# Poissons Ratio (y) = 0.04436 -0.04753
# Poissons Ratio (z) = 0.08436 -0.08844
#
# Static dielectric constant tensor:
#      x y z
#    x 1.870730 0.000000 0.000000 
#    y 0.000000 1.904980 0.000000 
#    z 0.000000 0.000000 1.845830 
# 
# From -- ./inp_files/4575.got.cif
#   From: 2010.05.17/outbox.cif.g08.bks.cpg/sg55_3_cif.got.tgz:4575.got - 2010.06.03 13:27:54.
