data_PCOD9425020
_publ_section_title
;
Structure prediction by ZEFSAII (Michael W. Deem and Ramdas Pophale) SiO2 
 PCOD9425020
Probable space group: P B A M
;
_chemical_formula_sum "Si O2"
_cell_formula_units_Z 40
_cell_length_a 21.232646
_cell_length_b 12.805943
_cell_length_c 9.099580
_cell_angle_alpha 90.000000
_cell_angle_beta 90.000000
_cell_angle_gamma 90.000000
_cell_volume 2474.212695
_symmetry_space_group_name_H-M "P B A M"
_symmetry_group_IT_number 55
_symmetry_cell_setting 'orthorhombic'
loop_
_space_group_symop_operation_xyz
x,y,z
-x,-y,z
1/2+x,1/2-y,-z
1/2-x,1/2+y,-z
-x,-y,-z
x,y,-z
1/2-x,1/2+y,z
1/2+x,1/2-y,z
loop_
_atom_site_type_symbol
_atom_site_label
_atom_site_fract_x
_atom_site_fract_y
_atom_site_fract_z
Si Si1 0.194661 0.611563 0.674354
Si Si2 0.840729 0.178569 0.825066
Si Si3 0.161949 0.185593 0.325686
Si Si4 0.302985 0.893552 0.174447
Si Si5 0.926189 0.006324 0.676360
O O1 0.183807 0.610297 0.500000
O O2 0.159033 0.708178 0.749372
O O3 0.269243 0.634142 0.699074
O O4 0.179185 0.500637 0.745896
O O5 0.771165 0.130029 0.795951
O O6 0.891976 0.101234 0.757480
O O7 0.847821 0.188385 0.000000
O O8 0.156865 0.207436 0.500000
O O9 0.160513 0.293307 0.237276
O O10 0.109513 0.101067 0.283871
O O11 0.311138 0.902656 0.000000
O O12 0.918645 0.019963 0.500000
O O13 0.000000 0.000000 0.709695
#
# Coordination Sequence:
#
# PCOD9425020 Si02
#       5
#     8   8   8   8   8
#     4  10  18  30  51  74 101 133 166 207 253 303
#     4  10  20  32  48  73 105 135 168 207 253 305
#     4   9  18  31  48  72 100 132 168 203 247 299
#     4  10  19  30  48  74 104 133 162 206 256 301
#     4  10  20  35  54  75 102 136 175 213 246 293
#
# _framework density 16.166758000000002
#
# number of rings (size 3 to 8) (size 9 to 14) (size 15 to 20)
#    0.000    2.200    2.000    1.800    0.000    3.600 
#    0.000    0.000    0.000    1.200    0.000    8.400 
#    0.000    0.000    0.000    0.000    0.000    0.000 
#
# Total GULP energy -223188.541156 kJ/mol
# GULP energy per Si atom -5579.713529 kJ/mol
# Density = 1.612996 g / cm^3
# Si number density = 16.166758 Si / 1000 Ang^3
#
#
#
# Elastic Constant Matrix: (Units=GPa)
#
#
# Indices 1 2 3 4 5 6 
#
# 1 78.3353 64.9459 45.0765 0.0000 0.0000 0.0000
# 2 64.9459 181.2488 82.8910 0.0000 0.0000 0.0000
# 3 45.0765 82.8910 57.5507 0.0000 0.0000 0.0000
# 4 0.0000 0.0000 0.0000 18.2854 0.0000 0.0000
# 5 0.0000 0.0000 0.0000 0.0000 16.7628 0.0000
# 6 0.0000 0.0000 0.0000 0.0000 0.0000 18.8481
#
#
#
# Elastic Compliance Matrix: (Units=1/GPa)
#
#
# Indices 1 2 3 4 5 6 
#
# 1 0.023240 -0.000008 -0.018191 0.000000 0.000000 0.000000
# 2 -0.000008 0.016166 -0.023277 0.000000 0.000000 0.000000
# 3 -0.018191 -0.023277 0.065151 0.000000 0.000000 0.000000
# 4 0.000000 0.000000 0.000000 0.054689 0.000000 0.000000
# 5 0.000000 0.000000 0.000000 0.000000 0.059656 0.000000
# 6 0.000000 0.000000 0.000000 0.000000 0.000000 0.053056
#
#
# Mechanical properties :
#
#
# Convention : Reuss Voigt Hill
#
# Bulk Modulus (GPa) = 46.28880 78.10685 62.19783
# Shear Modulus (GPa) = 13.80793 19.06066 16.43430
#
# Velocity S-wave (km/s) = 2.92566 3.43739 3.19179
# Velocity P-wave (km/s) = 6.33300 8.01076 7.22077
#
# Compressibility (1/GPa) = 0.02160350
#
# Stress axis : x y z
#
# Youngs Moduli (GPa) = 43.02908 61.85973 15.34905
#
# Poissons Ratio (x) = 0.00050 0.27922
# Poissons Ratio (y) = 0.00035 0.35728
# Poissons Ratio (z) = 0.78275 1.43992
#
# Static dielectric constant tensor:
#      x y z
#    x 1.517490 0.000000 0.000000 
#    y 0.000000 1.524170 0.000000 
#    z 0.000000 0.000000 1.533210 
# 
# From -- ./inp_files/3614.got.cif
#   From: 2010.05.17/outbox.cif.g08.bks.cpg/sg55_2_cif.got.tgz:3614.got - 2010.06.03 13:27:54.
