data_PCOD9425079
_publ_section_title
;
Structure prediction by ZEFSAII (Michael W. Deem and Ramdas Pophale) SiO2 
 PCOD9425079
Probable space group: P B A M
;
_chemical_formula_sum "Si O2"
_cell_formula_units_Z 42
_cell_length_a 16.345169
_cell_length_b 9.512628
_cell_length_c 12.694974
_cell_angle_alpha 90.000000
_cell_angle_beta 90.000000
_cell_angle_gamma 90.000000
_cell_volume 1973.884536
_symmetry_space_group_name_H-M "P B A M"
_symmetry_group_IT_number 55
_symmetry_cell_setting 'orthorhombic'
loop_
_space_group_symop_operation_xyz
x,y,z
-x,-y,z
1/2+x,1/2-y,-z
1/2-x,1/2+y,-z
-x,-y,-z
x,y,-z
1/2-x,1/2+y,z
1/2+x,1/2-y,z
loop_
_atom_site_type_symbol
_atom_site_label
_atom_site_fract_x
_atom_site_fract_y
_atom_site_fract_z
Si Si1 0.605728 0.163207 0.384813
Si Si2 0.351637 0.142842 0.118437
Si Si3 0.227808 0.371714 0.206723
Si Si4 0.000000 0.000000 0.500000
Si Si5 0.921293 0.337638 0.661275
Si Si6 0.164143 0.938645 0.390127
O O1 0.635745 0.207497 0.500000
O O2 0.663520 0.201081 0.287449
O O3 0.510979 0.207084 0.376011
O O4 0.598662 0.993421 0.377516
O O5 0.281397 0.257792 0.145079
O O6 0.417178 0.161291 0.212028
O O7 0.316720 0.985382 0.133747
O O8 0.381645 0.162937 0.000000
O O9 0.285235 0.464633 0.285520
O O10 0.074211 0.001217 0.409580
O O11 0.855618 0.227786 0.619353
O O12 0.210042 0.967993 0.500000
#
# Coordination Sequence:
#
# PCOD9425079 Si02
#       6
#     8   8   8   2   8   8
#     4  10  18  31  52  85 111 143 170 226 275 339
#     4  10  21  39  57  76 106 147 189 242 280 316
#     4  10  21  35  56  83 110 139 188 229 279 335
#     4   8  20  28  52  66 110 142 180 190 256 316
#     4   9  18  32  53  74 109 143 187 216 276 333
#     4   9  17  33  49  77 109 151 175 216 264 339
#
# _framework density 21.277840000000001
#
# number of rings (size 3 to 8) (size 9 to 14) (size 15 to 20)
#    0.571    1.905    0.000    3.429    0.000    1.524 
#    0.000   10.476    0.000    0.000    0.000    7.333 
#    0.000    0.000    0.000    0.000    0.000    0.000 
#
# Total GULP energy -233837.995473 kJ/mol
# GULP energy per Si atom -5567.571321 kJ/mol
# Density = 2.122941 g / cm^3
# Si number density = 21.277840 Si / 1000 Ang^3
#
#
#
# Elastic Constant Matrix: (Units=GPa)
#
#
# Indices 1 2 3 4 5 6 
#
# 1 57.7903 -14.7876 5.0051 0.0000 0.0000 0.0000
# 2 -14.7876 65.0113 0.2957 0.0000 0.0000 0.0000
# 3 5.0051 0.2957 144.6952 0.0000 0.0000 0.0000
# 4 0.0000 0.0000 0.0000 0.4439 0.0000 0.0000
# 5 0.0000 0.0000 0.0000 0.0000 19.7812 0.0000
# 6 0.0000 0.0000 0.0000 0.0000 0.0000 25.4757
#
#
#
# Elastic Compliance Matrix: (Units=1/GPa)
#
#
# Indices 1 2 3 4 5 6 
#
# 1 0.018434 0.004196 -0.000646 0.000000 0.000000 0.000000
# 2 0.004196 0.016337 -0.000179 0.000000 0.000000 0.000000
# 3 -0.000646 -0.000179 0.006934 0.000000 0.000000 0.000000
# 4 0.000000 0.000000 0.000000 2.252989 0.000000 0.000000
# 5 0.000000 0.000000 0.000000 0.000000 0.050553 0.000000
# 6 0.000000 0.000000 0.000000 0.000000 0.000000 0.039253
#
#
# Mechanical properties :
#
#
# Convention : Reuss Voigt Hill
#
# Bulk Modulus (GPa) = 20.64120 27.61369 24.12744
# Shear Modulus (GPa) = 2.08864 27.60574 14.84719
#
# Velocity S-wave (km/s) = 0.99183 3.60584 2.64441
# Velocity P-wave (km/s) = 3.32167 5.50836 4.54838
#
# Compressibility (1/GPa) = 0.04844681
#
# Stress axis : x y z
#
# Youngs Moduli (GPa) = 54.24889 61.21018 144.22114
#
# Poissons Ratio (x) = -0.25683 0.09320
# Poissons Ratio (y) = -0.22762 0.02575
# Poissons Ratio (z) = 0.03506 0.01093
#
# Static dielectric constant tensor:
#      x y z
#    x 1.770770 0.000000 0.000000 
#    y 0.000000 1.844500 0.000000 
#    z 0.000000 0.000000 1.760500 
# 
# From -- ./inp_files/14766.got.cif
#   From: 2010.05.17/outbox.cif.g08.bks.cpg/sg55_8_cif.got.tgz:14766.got - 2010.06.03 13:27:54.
