data_PCOD9425757
_publ_section_title
;
Structure prediction by ZEFSAII (Michael W. Deem and Ramdas Pophale) SiO2 
 PCOD9425757
Probable space group: P B A M
;
_chemical_formula_sum "Si O2"
_cell_formula_units_Z 56
_cell_length_a 18.940399
_cell_length_b 21.496860
_cell_length_c 8.706009
_cell_angle_alpha 90.000000
_cell_angle_beta 90.000000
_cell_angle_gamma 90.000000
_cell_volume 3544.730838
_symmetry_space_group_name_H-M "P B A M"
_symmetry_group_IT_number 55
_symmetry_cell_setting 'orthorhombic'
loop_
_space_group_symop_operation_xyz
x,y,z
-x,-y,z
1/2+x,1/2-y,-z
1/2-x,1/2+y,-z
-x,-y,-z
x,y,-z
1/2-x,1/2+y,z
1/2+x,1/2-y,z
loop_
_atom_site_type_symbol
_atom_site_label
_atom_site_fract_x
_atom_site_fract_y
_atom_site_fract_z
Si Si1 0.082600 0.999608 0.683973
Si Si2 0.345694 0.622579 0.185512
Si Si3 0.351456 0.374091 0.185938
Si Si4 0.571058 0.754664 0.186484
Si Si5 0.294673 0.178324 0.177100
Si Si6 0.082994 0.246515 0.318175
Si Si7 0.288175 0.810553 0.177069
O O1 0.087036 0.003456 0.500000
O O2 0.117768 0.936106 0.741946
O O3 0.120934 0.058960 0.756972
O O4 0.000000 0.000000 0.727916
O O5 0.264744 0.632550 0.243065
O O6 0.390962 0.681345 0.244392
O O7 0.345090 0.624760 0.000000
O O8 0.398717 0.313814 0.227977
O O9 0.270313 0.359743 0.231742
O O10 0.352301 0.378267 0.000000
O O11 0.628538 0.805576 0.243156
O O12 0.493483 0.762892 0.252095
O O13 0.569593 0.757085 0.000000
O O14 0.254816 0.245152 0.175280
O O15 0.306043 0.159346 0.000000
O O16 0.079816 0.239144 0.500000
O O17 0.141930 0.297553 0.273129
O O18 0.307324 0.823991 0.000000
#
# Coordination Sequence:
#
# PCOD9425757 Si02
#       7
#     8   8   8   8   8   8   8
#     4  11  23  34  44  65  97 127 154 185 222 266
#     4  10  19  33  50  65  86 120 160 194 223 261
#     4   9  18  32  50  68  87 119 161 195 222 261
#     4   9  16  29  48  68  91 118 148 184 227 269
#     4   7  13  27  47  67  84 108 147 191 226 260
#     4  11  20  28  42  69  99 122 147 181 227 275
#     4   8  15  30  48  65  86 115 153 190 224 265
#
# _framework density 15.798098
#
# number of rings (size 3 to 8) (size 9 to 14) (size 15 to 20)
#    0.000    2.714    0.000    5.571    0.000    4.571 
#    0.000    6.429    0.000    0.000    0.000    1.000 
#    0.000    8.000    0.000    0.000    0.000    0.000 
#
# Total GULP energy -311922.839014 kJ/mol
# GULP energy per Si atom -5570.050697 kJ/mol
# Density = 1.576214 g / cm^3
# Si number density = 15.798098 Si / 1000 Ang^3
#
#
#
# Elastic Constant Matrix: (Units=GPa)
#
#
# Indices 1 2 3 4 5 6 
#
# 1 155.6668 64.8330 43.7526 0.0000 0.0000 0.0000
# 2 64.8330 74.2827 27.2414 0.0000 0.0000 0.0000
# 3 43.7526 27.2414 40.7805 0.0000 0.0000 0.0000
# 4 0.0000 0.0000 0.0000 12.4068 0.0000 0.0000
# 5 0.0000 0.0000 0.0000 0.0000 4.0634 0.0000
# 6 0.0000 0.0000 0.0000 0.0000 0.0000 26.9596
#
#
#
# Elastic Compliance Matrix: (Units=1/GPa)
#
#
# Indices 1 2 3 4 5 6 
#
# 1 0.011612 -0.007372 -0.007534 0.000000 0.000000 0.000000
# 2 -0.007372 0.022510 -0.007128 0.000000 0.000000 0.000000
# 3 -0.007534 -0.007128 0.037365 0.000000 0.000000 0.000000
# 4 0.000000 0.000000 0.000000 0.080601 0.000000 0.000000
# 5 0.000000 0.000000 0.000000 0.000000 0.246098 0.000000
# 6 0.000000 0.000000 0.000000 0.000000 0.000000 0.037092
#
#
# Mechanical properties :
#
#
# Convention : Reuss Voigt Hill
#
# Bulk Modulus (GPa) = 36.46830 60.26486 48.36658
# Shear Modulus (GPa) = 10.23573 17.67950 13.95762
#
# Velocity S-wave (km/s) = 2.54817 3.34891 2.97560
# Velocity P-wave (km/s) = 5.63841 7.29269 6.51824
#
# Compressibility (1/GPa) = 0.02742108
#
# Stress axis : x y z
#
# Youngs Moduli (GPa) = 86.12066 44.42483 26.76269
#
# Poissons Ratio (x) = 0.32749 0.20162
# Poissons Ratio (y) = 0.63486 0.19076
# Poissons Ratio (z) = 0.64880 0.31665
#
# Static dielectric constant tensor:
#      x y z
#    x 1.553080 0.000000 0.000000 
#    y 0.000000 1.506500 0.000000 
#    z 0.000000 0.000000 1.528420 
# 
# From -- ./inp_files/7828.got.cif
#   From: 2010.05.17/outbox.cif.g08.bks.cpg/sg55_4_cif.got.tgz:7828.got - 2010.06.03 13:27:54.
