data_PCOD9425251
_publ_section_title
;
Structure prediction by ZEFSAII (Michael W. Deem and Ramdas Pophale) SiO2 
 PCOD9425251
Probable space group: P B A M
;
_chemical_formula_sum "Si O2"
_cell_formula_units_Z 56
_cell_length_a 14.244874
_cell_length_b 7.793554
_cell_length_c 19.475008
_cell_angle_alpha 90.000000
_cell_angle_beta 90.000000
_cell_angle_gamma 90.000000
_cell_volume 2162.080231
_symmetry_space_group_name_H-M "P B A M"
_symmetry_group_IT_number 55
_symmetry_cell_setting 'orthorhombic'
loop_
_space_group_symop_operation_xyz
x,y,z
-x,-y,z
1/2+x,1/2-y,-z
1/2-x,1/2+y,-z
-x,-y,-z
x,y,-z
1/2-x,1/2+y,z
1/2+x,1/2-y,z
loop_
_atom_site_type_symbol
_atom_site_label
_atom_site_fract_x
_atom_site_fract_y
_atom_site_fract_z
Si Si1 0.736182 0.829897 0.922654
Si Si2 0.874294 0.093900 0.724186
Si Si3 0.121947 0.884321 0.425525
Si Si4 0.345530 0.815603 0.719471
Si Si5 0.440486 0.338723 0.876338
Si Si6 0.659339 0.206981 0.427243
Si Si7 0.111058 0.372201 0.136338
O O1 0.658602 0.680312 0.912635
O O2 0.821414 0.796064 0.871125
O O3 0.671409 0.990875 0.904513
O O4 0.770974 0.832788 0.000000
O O5 0.917552 0.153692 0.650702
O O6 0.766959 0.160437 0.726314
O O7 0.923631 0.150718 0.794211
O O8 0.869446 0.886454 0.723726
O O9 0.077898 0.837081 0.500000
O O10 0.227101 0.806763 0.425870
O O11 0.133595 0.091627 0.426320
O O12 0.373037 0.877700 0.643461
O O13 0.390296 0.913948 0.783210
O O14 0.500000 0.500000 0.899715
O O15 0.509497 0.179474 0.889366
O O16 0.628507 0.129926 0.500000
#
# Coordination Sequence:
#
# PCOD9425251 Si02
#       7
#     8   8   8   8   8   8   8
#     4  12  28  49  73 100 130 164 207 261 323 394
#     4  10  19  34  57  91 126 169 221 270 320 380
#     4   8  14  25  45  75 118 163 209 264 318 370
#     4  10  18  33  59  86 126 170 214 265 317 373
#     4  12  25  43  68  98 132 171 212 264 315 381
#     4   8  14  24  43  77 116 159 209 259 310 364
#     4  12  24  44  70  98 131 168 212 262 322 383
#
# _framework density 25.900980000000001
#
# number of rings (size 3 to 8) (size 9 to 14) (size 15 to 20)
#    0.000    1.714    2.857    2.571    0.000    2.000 
#    0.000    0.000    0.000    1.286    0.000    0.000 
#    0.000    2.286    0.000    0.000    0.000    0.000 
#
# Total GULP energy -313382.360195 kJ/mol
# GULP energy per Si atom -5596.113575 kJ/mol
# Density = 2.584203 g / cm^3
# Si number density = 25.900980 Si / 1000 Ang^3
#
#
#
# Elastic Constant Matrix: (Units=GPa)
#
#
# Indices 1 2 3 4 5 6 
#
# 1 101.9638 2.4738 0.9359 0.0000 0.0000 0.0000
# 2 2.4738 55.4234 -1.0865 0.0000 0.0000 0.0000
# 3 0.9359 -1.0865 147.6000 0.0000 0.0000 0.0000
# 4 0.0000 0.0000 0.0000 -56.0552 0.0000 0.0000
# 5 0.0000 0.0000 0.0000 0.0000 -0.2014 0.0000
# 6 0.0000 0.0000 0.0000 0.0000 0.0000 33.3784
#
#
#
# Elastic Compliance Matrix: (Units=1/GPa)
#
#
# Indices 1 2 3 4 5 6 
#
# 1 0.009819 -0.000440 -0.000065 0.000000 0.000000 0.000000
# 2 -0.000440 0.018065 0.000136 0.000000 0.000000 0.000000
# 3 -0.000065 0.000136 0.006776 0.000000 0.000000 0.000000
# 4 0.000000 0.000000 0.000000 -0.017840 0.000000 0.000000
# 5 0.000000 0.000000 0.000000 0.000000 -4.965319 0.000000
# 6 0.000000 0.000000 0.000000 0.000000 0.000000 0.029959
#
#
# Mechanical properties :
#
#
# Convention : Reuss Voigt Hill
#
# Bulk Modulus (GPa) = 29.47953 34.40372 31.94162
# Shear Modulus (GPa) = -1.01906 15.60197 7.29146
#
# Velocity S-wave (km/s) = -0.62793 2.45699 1.67965
# Velocity P-wave (km/s) = 3.29858 4.62176 4.01505
#
# Compressibility (1/GPa) = 0.03392185
#
# Stress axis : x y z
#
# Youngs Moduli (GPa) = 101.84687 55.35502 147.56918
#
# Poissons Ratio (x) = 0.02433 0.00966
# Poissons Ratio (y) = 0.04476 -0.02004
# Poissons Ratio (z) = 0.00667 -0.00752
#
# Static dielectric constant tensor:
#      x y z
#    x 1.963310 0.000000 0.000000 
#    y 0.000000 2.276750 0.000000 
#    z 0.000000 0.000000 2.021040 
# 
# From -- ./inp_files/22956.got.cif
#   From: 2010.05.17/outbox.cif.g08.bks.cpg/sg55_12_cif.got.tgz:22956.got - 2010.06.03 13:27:54.
