data_PCOD9425406
_publ_section_title
;
Structure prediction by ZEFSAII (Michael W. Deem and Ramdas Pophale) SiO2 
 PCOD9425406
Probable space group: P B A M
;
_chemical_formula_sum "Si O2"
_cell_formula_units_Z 56
_cell_length_a 16.545205
_cell_length_b 13.624307
_cell_length_c 14.764546
_cell_angle_alpha 90.000000
_cell_angle_beta 90.000000
_cell_angle_gamma 90.000000
_cell_volume 3328.178961
_symmetry_space_group_name_H-M "P B A M"
_symmetry_group_IT_number 55
_symmetry_cell_setting 'orthorhombic'
loop_
_space_group_symop_operation_xyz
x,y,z
-x,-y,z
1/2+x,1/2-y,-z
1/2-x,1/2+y,-z
-x,-y,-z
x,y,-z
1/2-x,1/2+y,z
1/2+x,1/2-y,z
loop_
_atom_site_type_symbol
_atom_site_label
_atom_site_fract_x
_atom_site_fract_y
_atom_site_fract_z
Si Si1 0.464121 0.352069 0.105811
Si Si2 0.173741 0.687892 0.104203
Si Si3 0.092435 0.492092 0.108633
Si Si4 0.800518 0.667154 0.805174
Si Si5 0.850652 0.040932 0.244885
Si Si6 0.962679 0.109860 0.602428
Si Si7 0.092741 0.176043 0.261807
O O1 0.405319 0.257410 0.106470
O O2 0.411360 0.433627 0.160598
O O3 0.541966 0.328868 0.167361
O O4 0.480343 0.376239 0.000000
O O5 0.146341 0.583469 0.143406
O O6 0.246054 0.748547 0.148427
O O7 0.197135 0.672105 0.000000
O O8 0.135846 0.390673 0.132589
O O9 0.000000 0.500000 0.141971
O O10 0.089360 0.501898 0.000000
O O11 0.736502 0.585650 0.773947
O O12 0.852740 0.727903 0.733526
O O13 0.886587 0.098465 0.331487
O O14 0.856443 0.925230 0.262910
O O15 0.946417 0.141932 0.500000
O O16 0.028470 0.172560 0.656915
O O17 0.000000 0.000000 0.599048
#
# Coordination Sequence:
#
# PCOD9425406 Si02
#       7
#     8   8   8   8   8   8   8
#     4   9  17  30  48  69  94 123 157 201 246 285
#     4   9  18  31  45  63  90 126 169 211 247 284
#     4  10  20  33  47  64  91 134 182 212 238 286
#     4  11  20  31  45  66  98 128 158 201 244 281
#     4   9  19  32  47  72  98 121 155 195 240 289
#     4   8  15  32  56  75  92 115 145 190 243 288
#     4  10  19  30  47  71  95 122 159 194 231 287
#
# _framework density 16.826018000000001
#
# number of rings (size 3 to 8) (size 9 to 14) (size 15 to 20)
#    0.000    2.571    0.000    3.429    0.000    4.000 
#    0.000    0.714    0.000    0.000    0.000    0.000 
#    0.000   21.714    0.000    0.000    0.000    0.000 
#
# Total GULP energy -311930.699820 kJ/mol
# GULP energy per Si atom -5570.191068 kJ/mol
# Density = 1.678772 g / cm^3
# Si number density = 16.826018 Si / 1000 Ang^3
#
#
#
# Elastic Constant Matrix: (Units=GPa)
#
#
# Indices 1 2 3 4 5 6 
#
# 1 88.8186 26.5153 25.9799 0.0000 0.0000 0.0000
# 2 26.5153 64.0222 2.5982 0.0000 0.0000 0.0000
# 3 25.9799 2.5982 83.8494 0.0000 0.0000 0.0000
# 4 0.0000 0.0000 0.0000 7.7415 0.0000 0.0000
# 5 0.0000 0.0000 0.0000 0.0000 7.0255 0.0000
# 6 0.0000 0.0000 0.0000 0.0000 0.0000 21.0303
#
#
#
# Elastic Compliance Matrix: (Units=1/GPa)
#
#
# Indices 1 2 3 4 5 6 
#
# 1 0.014198 -0.005709 -0.004222 0.000000 0.000000 0.000000
# 2 -0.005709 0.017935 0.001213 0.000000 0.000000 0.000000
# 3 -0.004222 0.001213 0.013197 0.000000 0.000000 0.000000
# 4 0.000000 0.000000 0.000000 0.129174 0.000000 0.000000
# 5 0.000000 0.000000 0.000000 0.000000 0.142338 0.000000
# 6 0.000000 0.000000 0.000000 0.000000 0.000000 0.047550
#
#
# Mechanical properties :
#
#
# Convention : Reuss Voigt Hill
#
# Bulk Modulus (GPa) = 35.85058 38.54190 37.19624
# Shear Modulus (GPa) = 12.78361 19.26592 16.02476
#
# Velocity S-wave (km/s) = 2.75935 3.38747 3.08941
# Velocity P-wave (km/s) = 5.61292 6.18513 5.90596
#
# Compressibility (1/GPa) = 0.02789355
#
# Stress axis : x y z
#
# Youngs Moduli (GPa) = 70.43109 55.75766 75.77595
#
# Poissons Ratio (x) = 0.31832 0.31995
# Poissons Ratio (y) = 0.40209 -0.09193
# Poissons Ratio (z) = 0.29738 -0.06764
#
# Static dielectric constant tensor:
#      x y z
#    x 1.586070 0.000000 0.000000 
#    y 0.000000 1.592040 0.000000 
#    z 0.000000 0.000000 1.557970 
# 
# From -- ./inp_files/19027.got.cif
#   From: 2010.05.17/outbox.cif.g08.bks.cpg/sg55_10_cif.got.tgz:19027.got - 2010.06.03 13:27:54.
