data_PCOD9425699
_publ_section_title
;
Structure prediction by ZEFSAII (Michael W. Deem and Ramdas Pophale) SiO2 
 PCOD9425699
Probable space group: P B A M
;
_chemical_formula_sum "Si O2"
_cell_formula_units_Z 64
_cell_length_a 14.639667
_cell_length_b 25.544254
_cell_length_c 7.637519
_cell_angle_alpha 90.000000
_cell_angle_beta 90.000000
_cell_angle_gamma 90.000000
_cell_volume 2856.121811
_symmetry_space_group_name_H-M "P B A M"
_symmetry_group_IT_number 55
_symmetry_cell_setting 'orthorhombic'
loop_
_space_group_symop_operation_xyz
x,y,z
-x,-y,z
1/2+x,1/2-y,-z
1/2-x,1/2+y,-z
-x,-y,-z
x,y,-z
1/2-x,1/2+y,z
1/2+x,1/2-y,z
loop_
_atom_site_type_symbol
_atom_site_label
_atom_site_fract_x
_atom_site_fract_y
_atom_site_fract_z
Si Si1 0.016848 0.555553 0.196994
Si Si2 0.704690 0.971761 0.701244
Si Si3 0.186914 0.302869 0.214387
Si Si4 0.468387 0.441611 0.287468
Si Si5 0.509191 0.830293 0.214739
Si Si6 0.852070 0.891468 0.709690
Si Si7 0.210684 0.700524 0.207558
Si Si8 0.759592 0.084613 0.205664
O O1 0.988735 0.610358 0.275489
O O2 0.791604 0.534012 0.282048
O O3 0.126343 0.555684 0.188467
O O4 0.977333 0.552457 0.000000
O O5 0.687231 0.957598 0.500000
O O6 0.800562 0.945979 0.751263
O O7 0.500000 0.000000 0.712134
O O8 0.080093 0.297343 0.263284
O O9 0.247208 0.254434 0.277814
O O10 0.226713 0.358978 0.272452
O O11 0.189486 0.302723 0.000000
O O12 0.500000 0.500000 0.231047
O O13 0.468101 0.442794 0.500000
O O14 0.544607 0.399525 0.227039
O O15 0.367158 0.425447 0.232289
O O16 0.609433 0.813151 0.277080
O O17 0.512495 0.832735 0.000000
O O18 0.856559 0.886667 0.500000
O O19 0.786082 0.845003 0.769903
O O20 0.198212 0.707454 0.000000
O O21 0.740230 0.083777 0.000000
#
# Coordination Sequence:
#
# PCOD9425699 Si02
#       8
#     8   8   8   8   8   8   8   8
#     4  10  19  32  53  81 113 150 189 234 288 345
#     4  11  21  35  55  80 114 153 188 231 288 347
#     4   9  20  37  56  83 118 151 183 234 295 340
#     4  10  20  38  58  79 115 160 192 226 294 360
#     4   9  17  32  54  81 112 147 183 223 282 339
#     4  10  21  37  57  80 112 150 187 232 289 344
#     4  10  20  36  61  85 108 146 197 240 277 335
#     4  11  22  36  57  86 117 150 195 244 288 342
#
# _framework density 22.408007000000001
#
# number of rings (size 3 to 8) (size 9 to 14) (size 15 to 20)
#    0.000    2.000    2.500    1.500    0.000    4.500 
#    0.000    3.750    0.000    2.250    0.000    0.000 
#    0.000    0.000    0.000    0.000    0.000    0.000 
#
# Total GULP energy -357344.759377 kJ/mol
# GULP energy per Si atom -5583.511865 kJ/mol
# Density = 2.235701 g / cm^3
# Si number density = 22.408007 Si / 1000 Ang^3
#
#
#
# Elastic Constant Matrix: (Units=GPa)
#
#
# Indices 1 2 3 4 5 6 
#
# 1 135.5500 53.7221 2.1341 0.0000 0.0000 0.0000
# 2 53.7221 132.5139 -0.1433 0.0000 0.0000 0.0000
# 3 2.1341 -0.1433 46.1570 0.0000 0.0000 0.0000
# 4 0.0000 0.0000 0.0000 10.7678 0.0000 0.0000
# 5 0.0000 0.0000 0.0000 0.0000 -29.3449 0.0000
# 6 0.0000 0.0000 0.0000 0.0000 0.0000 33.9225
#
#
#
# Elastic Compliance Matrix: (Units=1/GPa)
#
#
# Indices 1 2 3 4 5 6 
#
# 1 0.008798 -0.003567 -0.000418 0.000000 0.000000 0.000000
# 2 -0.003567 0.008993 0.000193 0.000000 0.000000 0.000000
# 3 -0.000418 0.000193 0.021685 0.000000 0.000000 0.000000
# 4 0.000000 0.000000 0.000000 0.092870 0.000000 0.000000
# 5 0.000000 0.000000 0.000000 0.000000 -0.034077 0.000000
# 6 0.000000 0.000000 0.000000 0.000000 0.000000 0.029479
#
#
# Mechanical properties :
#
#
# Convention : Reuss Voigt Hill
#
# Bulk Modulus (GPa) = 31.35650 47.29407 39.32529
# Shear Modulus (GPa) = 34.25566 20.30293 27.27930
#
# Velocity S-wave (km/s) = 3.91413 3.01334 3.49290
# Velocity P-wave (km/s) = 5.86950 5.76703 5.81849
#
# Compressibility (1/GPa) = 0.03189131
#
# Stress axis : x y z
#
# Youngs Moduli (GPa) = 113.66656 111.20115 46.11461
#
# Poissons Ratio (x) = 0.39666 0.01927
# Poissons Ratio (y) = 0.40546 -0.00889
# Poissons Ratio (z) = 0.04750 -0.02145
#
# Static dielectric constant tensor:
#      x y z
#    x 1.853640 0.000000 0.000000 
#    y 0.000000 1.819670 0.000000 
#    z 0.000000 0.000000 1.846520 
# 
# From -- ./inp_files/13649.got.cif
#   From: 2010.05.17/outbox.cif.g08.bks.cpg/sg55_7_cif.got.tgz:13649.got - 2010.06.03 13:27:54.
