data_PCOD9425230
_publ_section_title
;
Structure prediction by ZEFSAII (Michael W. Deem and Ramdas Pophale) SiO2 
 PCOD9425230
Probable space group: P B A M
;
_chemical_formula_sum "Si O2"
_cell_formula_units_Z 64
_cell_length_a 19.607570
_cell_length_b 12.951820
_cell_length_c 13.422077
_cell_angle_alpha 90.000000
_cell_angle_beta 90.000000
_cell_angle_gamma 90.000000
_cell_volume 3408.586348
_symmetry_space_group_name_H-M "P B A M"
_symmetry_group_IT_number 55
_symmetry_cell_setting 'orthorhombic'
loop_
_space_group_symop_operation_xyz
x,y,z
-x,-y,z
1/2+x,1/2-y,-z
1/2-x,1/2+y,-z
-x,-y,-z
x,y,-z
1/2-x,1/2+y,z
1/2+x,1/2-y,z
loop_
_atom_site_type_symbol
_atom_site_label
_atom_site_fract_x
_atom_site_fract_y
_atom_site_fract_z
Si Si1 0.319535 0.471136 0.785089
Si Si2 0.425447 0.549737 0.617214
Si Si3 0.322261 0.251537 0.112037
Si Si4 0.660292 0.969535 0.796453
Si Si5 0.575451 0.234288 0.281312
Si Si6 0.955326 0.601379 0.114587
Si Si7 0.833496 0.821684 0.108805
Si Si8 0.419490 0.977462 0.612132
O O1 0.367098 0.500130 0.689523
O O2 0.331551 0.353507 0.820603
O O3 0.238061 0.494732 0.774435
O O4 0.336958 0.555681 0.870548
O O5 0.500000 0.500000 0.629917
O O6 0.406224 0.543906 0.500000
O O7 0.438786 0.667020 0.652367
O O8 0.348375 0.140395 0.149694
O O9 0.241914 0.224748 0.106368
O O10 0.347543 0.272567 0.000000
O O11 0.620797 0.057937 0.859908
O O12 0.622038 0.958209 0.691830
O O13 0.524615 0.185330 0.198166
O O14 0.633311 0.271488 0.205280
O O15 0.592363 0.140264 0.353972
O O16 0.000000 0.500000 0.130102
O O17 0.962529 0.632530 0.000000
O O18 0.864556 0.800718 0.000000
O O19 0.397227 0.995858 0.500000
O O20 0.500000 0.000000 0.618742
#
# Coordination Sequence:
#
# PCOD9425230 Si02
#       8
#     8   8   8   8   8   8   8   8
#     4  10  21  35  56  82 108 140 181 223 266 318
#     4  10  23  42  60  77 101 137 182 233 284 330
#     4  10  19  32  53  81 114 147 176 212 262 316
#     4  10  20  35  54  82 114 144 179 222 266 314
#     4  10  18  33  57  79 103 140 183 222 263 318
#     4  10  20  33  53  85 121 152 181 216 262 318
#     4   9  18  32  52  80 111 144 179 212 254 314
#     4  10  21  36  55  79 107 140 177 219 268 319
#
# _framework density 18.776111
#
# number of rings (size 3 to 8) (size 9 to 14) (size 15 to 20)
#    0.000    2.125    0.000    4.500    0.000    5.000 
#    0.000    1.875    0.000   15.000    0.000    0.000 
#    0.000    0.000    0.000    0.000    0.000    0.000 
#
# Total GULP energy -356342.062624 kJ/mol
# GULP energy per Si atom -5567.844729 kJ/mol
# Density = 1.873338 g / cm^3
# Si number density = 18.776111 Si / 1000 Ang^3
#
#
#
# Elastic Constant Matrix: (Units=GPa)
#
#
# Indices 1 2 3 4 5 6 
#
# 1 49.1908 14.3123 23.7660 0.0000 0.0000 0.0000
# 2 14.3123 110.8983 25.8230 0.0000 0.0000 0.0000
# 3 23.7660 25.8230 112.4478 0.0000 0.0000 0.0000
# 4 0.0000 0.0000 0.0000 24.9241 0.0000 0.0000
# 5 0.0000 0.0000 0.0000 0.0000 21.6296 0.0000
# 6 0.0000 0.0000 0.0000 0.0000 0.0000 24.0115
#
#
#
# Elastic Compliance Matrix: (Units=1/GPa)
#
#
# Indices 1 2 3 4 5 6 
#
# 1 0.023030 -0.001943 -0.004421 0.000000 0.000000 0.000000
# 2 -0.001943 0.009691 -0.001815 0.000000 0.000000 0.000000
# 3 -0.004421 -0.001815 0.010244 0.000000 0.000000 0.000000
# 4 0.000000 0.000000 0.000000 0.040122 0.000000 0.000000
# 5 0.000000 0.000000 0.000000 0.000000 0.046233 0.000000
# 6 0.000000 0.000000 0.000000 0.000000 0.000000 0.041647
#
#
# Mechanical properties :
#
#
# Convention : Reuss Voigt Hill
#
# Bulk Modulus (GPa) = 37.58348 44.48215 41.03282
# Shear Modulus (GPa) = 25.48504 28.02208 26.75356
#
# Velocity S-wave (km/s) = 3.68817 3.86739 3.77884
# Velocity P-wave (km/s) = 6.18036 6.60943 6.39849
#
# Compressibility (1/GPa) = 0.02660744
#
# Stress axis : x y z
#
# Youngs Moduli (GPa) = 43.42095 103.19308 97.61593
#
# Poissons Ratio (x) = 0.20047 0.43159
# Poissons Ratio (y) = 0.08435 0.17715
# Poissons Ratio (z) = 0.19198 0.18727
#
# Static dielectric constant tensor:
#      x y z
#    x 1.686130 0.000000 0.000000 
#    y 0.000000 1.687100 0.000000 
#    z 0.000000 0.000000 1.648630 
# 
# From -- ./inp_files/19530.got.cif
#   From: 2010.05.17/outbox.cif.g08.bks.cpg/sg55_10_cif.got.tgz:19530.got - 2010.06.03 13:27:54.
