data_PCOD9425888
_publ_section_title
;
Structure prediction by ZEFSAII (Michael W. Deem and Ramdas Pophale) SiO2 
 PCOD9425888
Probable space group: P B A M
;
_chemical_formula_sum "Si O2"
_cell_formula_units_Z 56
_cell_length_a 14.837863
_cell_length_b 21.869304
_cell_length_c 9.431507
_cell_angle_alpha 90.000000
_cell_angle_beta 90.000000
_cell_angle_gamma 90.000000
_cell_volume 3060.464949
_symmetry_space_group_name_H-M "P B A M"
_symmetry_group_IT_number 55
_symmetry_cell_setting 'orthorhombic'
loop_
_space_group_symop_operation_xyz
x,y,z
-x,-y,z
1/2+x,1/2-y,-z
1/2-x,1/2+y,-z
-x,-y,-z
x,y,-z
1/2-x,1/2+y,z
1/2+x,1/2-y,z
loop_
_atom_site_type_symbol
_atom_site_label
_atom_site_fract_x
_atom_site_fract_y
_atom_site_fract_z
Si Si1 0.830870 0.275335 0.336567
Si Si2 0.502899 0.427660 0.330883
Si Si3 0.512737 0.876173 0.663542
Si Si4 0.856903 0.460691 0.832982
Si Si5 0.207047 0.113445 0.668868
Si Si6 0.645298 0.651640 0.832403
Si Si7 0.152601 0.394114 0.836578
O O1 0.820736 0.254612 0.500000
O O2 0.917100 0.320244 0.330044
O O3 0.744964 0.318435 0.300167
O O4 0.847757 0.218768 0.235017
O O5 0.500000 0.500000 0.294489
O O6 0.485406 0.422872 0.500000
O O7 0.602402 0.399832 0.304324
O O8 0.428995 0.389438 0.245760
O O9 0.503462 0.894591 0.500000
O O10 0.559102 0.929389 0.755243
O O11 0.416685 0.861556 0.731658
O O12 0.768536 0.432407 0.759198
O O13 0.857523 0.533264 0.817171
O O14 0.858575 0.445969 0.000000
O O15 0.224071 0.103586 0.500000
O O16 0.744043 0.622605 0.812136
O O17 0.626321 0.654404 0.000000
O O18 0.129921 0.379154 0.000000
#
# Coordination Sequence:
#
# PCOD9425888 Si02
#       7
#     8   8   8   8   8   8   8
#     4   9  20  39  57  77 108 143 183 230 280 332
#     4  10  21  38  61  88 117 150 189 235 287 339
#     4  10  21  36  57  83 109 142 183 225 269 324
#     4  10  19  33  55  82 114 147 176 216 271 326
#     4   9  19  36  58  83 111 145 186 230 274 329
#     4  11  24  39  56  80 111 146 187 234 278 329
#     4  10  22  37  52  78 114 146 178 220 271 325
#
# _framework density 18.297872999999999
#
# number of rings (size 3 to 8) (size 9 to 14) (size 15 to 20)
#    0.000    2.143    0.000    3.429    0.000    8.857 
#    0.000    4.286    0.000    0.000    0.000    0.000 
#    0.000    0.000    0.000    0.000    0.000    0.000 
#
# Total GULP energy -312669.254892 kJ/mol
# GULP energy per Si atom -5583.379552 kJ/mol
# Density = 1.825623 g / cm^3
# Si number density = 18.297873 Si / 1000 Ang^3
#
#
#
# Elastic Constant Matrix: (Units=GPa)
#
#
# Indices 1 2 3 4 5 6 
#
# 1 121.1162 62.9468 82.2800 0.0000 0.0000 0.0000
# 2 62.9468 88.8402 64.8925 0.0000 0.0000 0.0000
# 3 82.2800 64.8925 95.0707 0.0000 0.0000 0.0000
# 4 0.0000 0.0000 0.0000 21.5813 0.0000 0.0000
# 5 0.0000 0.0000 0.0000 0.0000 32.7409 0.0000
# 6 0.0000 0.0000 0.0000 0.0000 0.0000 12.8181
#
#
#
# Elastic Compliance Matrix: (Units=1/GPa)
#
#
# Indices 1 2 3 4 5 6 
#
# 1 0.020461 -0.003116 -0.015581 0.000000 0.000000 0.000000
# 2 -0.003116 0.022923 -0.012949 0.000000 0.000000 0.000000
# 3 -0.015581 -0.012949 0.032842 0.000000 0.000000 0.000000
# 4 0.000000 0.000000 0.000000 0.046336 0.000000 0.000000
# 5 0.000000 0.000000 0.000000 0.000000 0.030543 0.000000
# 6 0.000000 0.000000 0.000000 0.000000 0.000000 0.078014
#
#
# Mechanical properties :
#
#
# Convention : Reuss Voigt Hill
#
# Bulk Modulus (GPa) = 77.32500 80.58509 78.95504
# Shear Modulus (GPa) = 16.73775 19.75525 18.24650
#
# Velocity S-wave (km/s) = 3.02774 3.28936 3.16126
# Velocity P-wave (km/s) = 7.38740 7.65264 7.52119
#
# Compressibility (1/GPa) = 0.01293243
#
# Stress axis : x y z
#
# Youngs Moduli (GPa) = 48.87261 43.62406 30.44843
#
# Poissons Ratio (x) = 0.13595 0.47443
# Poissons Ratio (y) = 0.15231 0.39429
# Poissons Ratio (z) = 0.76150 0.56491
#
# Static dielectric constant tensor:
#      x y z
#    x 1.627370 0.000000 0.000000 
#    y 0.000000 1.607200 0.000000 
#    z 0.000000 0.000000 1.614240 
# 
# From -- ./inp_files/6123.got.cif
#   From: 2010.05.17/outbox.cif.g08.bks.cpg/sg55_4_cif.got.tgz:6123.got - 2010.06.03 13:27:54.
