data_PCOD9425654
_publ_section_title
;
Structure prediction by ZEFSAII (Michael W. Deem and Ramdas Pophale) SiO2 
 PCOD9425654
Probable space group: P B A M
;
_chemical_formula_sum "Si O2"
_cell_formula_units_Z 56
_cell_length_a 19.059708
_cell_length_b 16.109762
_cell_length_c 9.798221
_cell_angle_alpha 90.000000
_cell_angle_beta 90.000000
_cell_angle_gamma 90.000000
_cell_volume 3008.517888
_symmetry_space_group_name_H-M "P B A M"
_symmetry_group_IT_number 55
_symmetry_cell_setting 'orthorhombic'
loop_
_space_group_symop_operation_xyz
x,y,z
-x,-y,z
1/2+x,1/2-y,-z
1/2-x,1/2+y,-z
-x,-y,-z
x,y,-z
1/2-x,1/2+y,z
1/2+x,1/2-y,z
loop_
_atom_site_type_symbol
_atom_site_label
_atom_site_fract_x
_atom_site_fract_y
_atom_site_fract_z
Si Si1 0.734188 0.324676 0.842656
Si Si2 0.634013 0.484481 0.846111
Si Si3 0.127923 0.277002 0.340036
Si Si4 0.863577 0.321196 0.659379
Si Si5 0.631157 0.624830 0.348897
Si Si6 0.536210 0.389216 0.349327
Si Si7 0.488431 0.905006 0.665269
O O1 0.687187 0.407569 0.846002
O O2 0.691110 0.255035 0.755830
O O3 0.804208 0.350515 0.762611
O O4 0.746433 0.298496 0.000000
O O5 0.661515 0.563912 0.764024
O O6 0.568121 0.447416 0.764899
O O7 0.616256 0.507575 0.000000
O O8 0.150152 0.287130 0.500000
O O9 0.071714 0.201213 0.338666
O O10 0.083021 0.357291 0.292377
O O11 0.851544 0.345304 0.500000
O O12 0.856428 0.221939 0.667779
O O13 0.941392 0.352419 0.697639
O O14 0.655199 0.599592 0.500000
O O15 0.546751 0.617831 0.342440
O O16 0.555844 0.422285 0.500000
O O17 0.484131 0.906377 0.500000
O O18 0.500000 0.000000 0.711874
#
# Coordination Sequence:
#
# PCOD9425654 Si02
#       7
#     8   8   8   8   8   8   8
#     4  10  22  39  55  76 111 152 188 228 280 336
#     4  10  21  34  49  74 108 144 181 218 263 324
#     4   9  16  32  58  83 109 142 181 226 276 332
#     4  10  20  37  59  83 111 145 186 232 282 336
#     4  10  19  32  52  79 107 136 175 221 271 324
#     4   9  16  29  51  77 106 137 168 212 265 316
#     4   9  17  33  60  91 116 139 180 240 292 333
#
# _framework density 18.613816
#
# number of rings (size 3 to 8) (size 9 to 14) (size 15 to 20)
#    0.000    2.429    1.429    1.286    0.000    4.571 
#    2.571    0.714    0.000    0.857    0.000    0.000 
#    0.000    0.000    0.000    0.000    0.000    0.000 
#
# Total GULP energy -312158.387244 kJ/mol
# GULP energy per Si atom -5574.256915 kJ/mol
# Density = 1.857145 g / cm^3
# Si number density = 18.613816 Si / 1000 Ang^3
#
#
#
# Elastic Constant Matrix: (Units=GPa)
#
#
# Indices 1 2 3 4 5 6 
#
# 1 48.7166 -2.0087 26.2928 0.0000 0.0000 0.0000
# 2 -2.0087 55.7506 24.1473 0.0000 0.0000 0.0000
# 3 26.2928 24.1473 98.6643 0.0000 0.0000 0.0000
# 4 0.0000 0.0000 0.0000 15.0723 0.0000 0.0000
# 5 0.0000 0.0000 0.0000 0.0000 -177.3786 0.0000
# 6 0.0000 0.0000 0.0000 0.0000 0.0000 6.8018
#
#
#
# Elastic Compliance Matrix: (Units=1/GPa)
#
#
# Indices 1 2 3 4 5 6 
#
# 1 0.024827 0.004206 -0.007645 0.000000 0.000000 0.000000
# 2 0.004206 0.020776 -0.006206 0.000000 0.000000 0.000000
# 3 -0.007645 -0.006206 0.013692 0.000000 0.000000 0.000000
# 4 0.000000 0.000000 0.000000 0.066347 0.000000 0.000000
# 5 0.000000 0.000000 0.000000 0.000000 -0.005638 0.000000
# 6 0.000000 0.000000 0.000000 0.000000 0.000000 0.147020
#
#
# Mechanical properties :
#
#
# Convention : Reuss Voigt Hill
#
# Bulk Modulus (GPa) = 24.99726 33.33271 29.16498
# Shear Modulus (GPa) = 16.68616 -20.78759 -2.05071
#
# Velocity S-wave (km/s) = 2.99731 -3.34546 -1.05076
# Velocity P-wave (km/s) = 5.04351 1.73886 3.77231
#
# Compressibility (1/GPa) = 0.04000439
#
# Stress axis : x y z
#
# Youngs Moduli (GPa) = 40.27939 48.13137 73.03759
#
# Poissons Ratio (x) = -0.20244 0.55840
# Poissons Ratio (y) = -0.16941 0.45325
# Poissons Ratio (z) = 0.30795 0.29869
#
# Static dielectric constant tensor:
#      x y z
#    x 1.657320 0.000000 0.000000 
#    y 0.000000 1.680130 0.000000 
#    z 0.000000 0.000000 1.647170 
# 
# From -- ./inp_files/8794.got.cif
#   From: 2010.05.17/outbox.cif.g08.bks.cpg/sg55_5_cif.got.tgz:8794.got - 2010.06.03 13:27:54.
