data_PCOD9425961
_publ_section_title
;
Structure prediction by ZEFSAII (Michael W. Deem and Ramdas Pophale) SiO2 
 PCOD9425961
Probable space group: P B A M
;
_chemical_formula_sum "Si O2"
_cell_formula_units_Z 34
_cell_length_a 15.428717
_cell_length_b 8.821177
_cell_length_c 12.356730
_cell_angle_alpha 90.000000
_cell_angle_beta 90.000000
_cell_angle_gamma 90.000000
_cell_volume 1681.744077
_symmetry_space_group_name_H-M "P B A M"
_symmetry_group_IT_number 55
_symmetry_cell_setting 'orthorhombic'
loop_
_space_group_symop_operation_xyz
x,y,z
-x,-y,z
1/2+x,1/2-y,-z
1/2-x,1/2+y,-z
-x,-y,-z
x,y,-z
1/2-x,1/2+y,z
1/2+x,1/2-y,z
loop_
_atom_site_type_symbol
_atom_site_label
_atom_site_fract_x
_atom_site_fract_y
_atom_site_fract_z
Si Si1 0.129564 0.843920 0.834814
Si Si2 0.344175 0.826696 0.371937
Si Si3 0.970436 0.175399 0.382262
Si Si4 0.500000 0.500000 0.000000
Si Si5 0.765754 0.412290 0.230784
O O1 0.096670 0.814232 0.713316
O O2 0.181049 0.688626 0.855060
O O3 0.197761 0.980985 0.831352
O O4 0.049848 0.896912 0.906785
O O5 0.322858 0.838022 0.500000
O O6 0.444496 0.776825 0.364431
O O7 0.288181 0.697936 0.310823
O O8 0.324220 0.979223 0.305939
O O9 0.932750 0.213272 0.500000
O O10 0.000000 0.000000 0.384538
#
# Coordination Sequence:
#
# PCOD9425961 Si02
#       5
#     8   8   8   2   8
#     4  11  23  42  64  91 119 163 205 255 315 372
#     4  10  19  33  57  90 130 174 211 253 308 368
#     4  10  19  35  59  90 129 170 209 248 303 371
#     4  12  24  44  74  86 112 158 210 248 316 386
#     4  10  22  37  58  89 128 157 209 264 308 370
#
# _framework density 20.217106999999999
#
# number of rings (size 3 to 8) (size 9 to 14) (size 15 to 20)
#    0.000    1.647    3.529    0.706    0.000    6.588 
#    0.000    2.353    0.000   14.118    0.000    0.000 
#    0.000    0.000    0.000    0.000    0.000    0.000 
#
# Total GULP energy -189324.073532 kJ/mol
# GULP energy per Si atom -5568.355104 kJ/mol
# Density = 2.017109 g / cm^3
# Si number density = 20.217107 Si / 1000 Ang^3
#
#
#
# Elastic Constant Matrix: (Units=GPa)
#
#
# Indices 1 2 3 4 5 6 
#
# 1 51.7501 31.7862 21.2305 0.0000 0.0000 0.0000
# 2 31.7862 119.6757 23.9373 0.0000 0.0000 0.0000
# 3 21.2305 23.9373 52.6290 0.0000 0.0000 0.0000
# 4 0.0000 0.0000 0.0000 3.8361 0.0000 0.0000
# 5 0.0000 0.0000 0.0000 0.0000 -66.9088 0.0000
# 6 0.0000 0.0000 0.0000 0.0000 0.0000 36.5317
#
#
#
# Elastic Compliance Matrix: (Units=1/GPa)
#
#
# Indices 1 2 3 4 5 6 
#
# 1 0.025850 -0.005259 -0.008036 0.000000 0.000000 0.000000
# 2 -0.005259 0.010262 -0.002546 0.000000 0.000000 0.000000
# 3 -0.008036 -0.002546 0.023401 0.000000 0.000000 0.000000
# 4 0.000000 0.000000 0.000000 0.260680 0.000000 0.000000
# 5 0.000000 0.000000 0.000000 0.000000 -0.014946 0.000000
# 6 0.000000 0.000000 0.000000 0.000000 0.000000 0.027373
#
#
# Mechanical properties :
#
#
# Convention : Reuss Voigt Hill
#
# Bulk Modulus (GPa) = 35.93089 41.99586 38.96338
# Shear Modulus (GPa) = 13.38401 4.49854 8.94127
#
# Velocity S-wave (km/s) = 2.57575 1.49330 2.10529
# Velocity P-wave (km/s) = 5.16305 4.87758 5.02235
#
# Compressibility (1/GPa) = 0.02783120
#
# Stress axis : x y z
#
# Youngs Moduli (GPa) = 38.68408 97.44818 42.73357
#
# Poissons Ratio (x) = 0.51243 0.34342
# Poissons Ratio (y) = 0.20342 0.10881
# Poissons Ratio (z) = 0.31088 0.24812
#
# Static dielectric constant tensor:
#      x y z
#    x 1.745100 0.000000 0.000000 
#    y 0.000000 1.748470 0.000000 
#    z 0.000000 0.000000 1.702660 
# 
# From -- ./inp_files/11880.got.cif
#   From: 2010.05.17/outbox.cif.g08.bks.cpg/sg55_6_cif.got.tgz:11880.got - 2010.06.03 13:27:54.
