data_PCOD9425067
_publ_section_title
;
Structure prediction by ZEFSAII (Michael W. Deem and Ramdas Pophale) SiO2 
 PCOD9425067
Probable space group: P B A M
;
_chemical_formula_sum "Si O2"
_cell_formula_units_Z 64
_cell_length_a 17.531312
_cell_length_b 21.271381
_cell_length_c 7.807511
_cell_angle_alpha 90.000000
_cell_angle_beta 90.000000
_cell_angle_gamma 90.000000
_cell_volume 2911.539659
_symmetry_space_group_name_H-M "P B A M"
_symmetry_group_IT_number 55
_symmetry_cell_setting 'orthorhombic'
loop_
_space_group_symop_operation_xyz
x,y,z
-x,-y,z
1/2+x,1/2-y,-z
1/2-x,1/2+y,-z
-x,-y,-z
x,y,-z
1/2-x,1/2+y,z
1/2+x,1/2-y,z
loop_
_atom_site_type_symbol
_atom_site_label
_atom_site_fract_x
_atom_site_fract_y
_atom_site_fract_z
Si Si1 0.439822 0.167319 0.295049
Si Si2 0.898413 0.190252 0.204137
Si Si3 0.837077 0.979406 0.295187
Si Si4 0.765653 0.107203 0.293143
Si Si5 0.847219 0.778170 0.797683
Si Si6 0.964106 0.889885 0.794967
Si Si7 0.605596 0.142721 0.303244
Si Si8 0.277866 0.128976 0.292679
O O1 0.443099 0.158990 0.500000
O O2 0.425653 0.241610 0.266194
O O3 0.521082 0.143917 0.224163
O O4 0.364750 0.131171 0.231116
O O5 0.813194 0.169389 0.248988
O O6 0.954902 0.134940 0.271812
O O7 0.905184 0.192111 0.000000
O O8 0.829938 0.981263 0.500000
O O9 0.921551 0.953395 0.259152
O O10 0.775049 0.928311 0.230588
O O11 0.813196 0.047345 0.227967
O O12 0.761453 0.104594 0.500000
O O13 0.678874 0.107533 0.226173
O O14 0.906021 0.833411 0.747909
O O15 0.867565 0.715283 0.699395
O O16 0.764801 0.807405 0.761945
O O17 0.856022 0.765866 0.000000
O O18 0.968665 0.893037 0.000000
O O19 0.598156 0.120893 0.500000
O O20 0.278332 0.127053 0.500000
#
# Coordination Sequence:
#
# PCOD9425067 Si02
#       8
#     8   8   8   8   8   8   8   8
#     4  10  20  34  54  80 108 137 171 214 263 315
#     4  11  22  36  54  80 111 139 171 215 267 316
#     4   9  19  36  56  75 102 140 181 218 254 304
#     4  10  22  38  53  75 106 141 179 217 257 309
#     4  10  18  31  51  76 104 134 169 209 259 313
#     4   9  19  34  52  76 106 136 168 213 261 308
#     4  10  20  34  52  74 105 140 171 210 262 312
#     4   9  18  33  53  77 102 133 175 217 257 305
#
# _framework density 21.981497999999998
#
# number of rings (size 3 to 8) (size 9 to 14) (size 15 to 20)
#    0.000    2.250    1.250    1.500    0.000    6.500 
#    0.000    3.125    0.000    3.750    0.000    0.000 
#    0.000    7.000    0.000    0.000    0.000    0.000 
#
# Total GULP energy -357255.685076 kJ/mol
# GULP energy per Si atom -5582.120079 kJ/mol
# Density = 2.193147 g / cm^3
# Si number density = 21.981498 Si / 1000 Ang^3
#
#
#
# Elastic Constant Matrix: (Units=GPa)
#
#
# Indices 1 2 3 4 5 6 
#
# 1 118.6500 13.2287 1.0851 0.0000 0.0000 0.0000
# 2 13.2287 48.8120 -4.3434 0.0000 0.0000 0.0000
# 3 1.0851 -4.3434 27.7422 0.0000 0.0000 0.0000
# 4 0.0000 0.0000 0.0000 -69.4426 0.0000 0.0000
# 5 0.0000 0.0000 0.0000 0.0000 131.4637 0.0000
# 6 0.0000 0.0000 0.0000 0.0000 0.0000 28.7740
#
#
#
# Elastic Compliance Matrix: (Units=1/GPa)
#
#
# Indices 1 2 3 4 5 6 
#
# 1 0.008705 -0.002423 -0.000720 0.000000 0.000000 0.000000
# 2 -0.002423 0.021451 0.003453 0.000000 0.000000 0.000000
# 3 -0.000720 0.003453 0.036615 0.000000 0.000000 0.000000
# 4 0.000000 0.000000 0.000000 -0.014400 0.000000 0.000000
# 5 0.000000 0.000000 0.000000 0.000000 0.007607 0.000000
# 6 0.000000 0.000000 0.000000 0.000000 0.000000 0.034754
#
#
# Mechanical properties :
#
#
# Convention : Reuss Voigt Hill
#
# Bulk Modulus (GPa) = 14.83882 23.90499 19.37191
# Shear Modulus (GPa) = 42.89123 30.50793 36.69958
#
# Velocity S-wave (km/s) = 4.42208 3.72948 4.09047
# Velocity P-wave (km/s) = 5.73047 5.42624 5.58043
#
# Compressibility (1/GPa) = 0.06739081
#
# Stress axis : x y z
#
# Youngs Moduli (GPa) = 114.87774 46.61840 27.31124
#
# Poissons Ratio (x) = 0.11297 0.01966
# Poissons Ratio (y) = 0.27837 -0.09431
# Poissons Ratio (z) = 0.08269 -0.16098
#
# Static dielectric constant tensor:
#      x y z
#    x 1.862370 0.000000 0.000000 
#    y 0.000000 1.795130 0.000000 
#    z 0.000000 0.000000 1.811140 
# 
# From -- ./inp_files/7938.got.cif
#   From: 2010.05.17/outbox.cif.g08.bks.cpg/sg55_4_cif.got.tgz:7938.got - 2010.06.03 13:27:54.
