data_PCOD9425325
_publ_section_title
;
Structure prediction by ZEFSAII (Michael W. Deem and Ramdas Pophale) SiO2 
 PCOD9425325
Probable space group: P B A M
;
_chemical_formula_sum "Si O2"
_cell_formula_units_Z 58
_cell_length_a 18.488163
_cell_length_b 19.196810
_cell_length_c 7.793126
_cell_angle_alpha 90.000000
_cell_angle_beta 90.000000
_cell_angle_gamma 90.000000
_cell_volume 2765.887591
_symmetry_space_group_name_H-M "P B A M"
_symmetry_group_IT_number 55
_symmetry_cell_setting 'orthorhombic'
loop_
_space_group_symop_operation_xyz
x,y,z
-x,-y,z
1/2+x,1/2-y,-z
1/2-x,1/2+y,-z
-x,-y,-z
x,y,-z
1/2-x,1/2+y,z
1/2+x,1/2-y,z
loop_
_atom_site_type_symbol
_atom_site_label
_atom_site_fract_x
_atom_site_fract_y
_atom_site_fract_z
Si Si1 0.763918 0.469276 0.802369
Si Si2 0.772160 0.747754 0.704532
Si Si3 0.602014 0.483072 0.687588
Si Si4 0.000000 0.000000 0.000000
Si Si5 0.483518 0.814644 0.792000
Si Si6 0.911449 0.828944 0.198951
Si Si7 0.341692 0.895393 0.702407
Si Si8 0.145387 0.661726 0.206282
O O1 0.688699 0.486031 0.710771
O O2 0.817097 0.535032 0.794593
O O3 0.807806 0.403577 0.728211
O O4 0.744864 0.453186 0.000000
O O5 0.783846 0.752195 0.500000
O O6 0.829395 0.800390 0.790642
O O7 0.792936 0.670155 0.760097
O O8 0.691781 0.770470 0.749051
O O9 0.583032 0.511171 0.500000
O O10 0.583105 0.400561 0.700571
O O11 0.560313 0.516277 0.847037
O O12 0.458792 0.736702 0.739314
O O13 0.423302 0.869502 0.732934
O O14 0.563456 0.833490 0.730800
O O15 0.482118 0.813966 0.000000
O O16 0.929989 0.845690 0.000000
O O17 0.330709 0.906083 0.500000
O O18 0.141478 0.654881 0.000000
#
# Coordination Sequence:
#
# PCOD9425325 Si02
#       8
#     8   8   8   2   8   8   8   8
#     4  11  22  40  65  92 126 169 220 264 317 393
#     4  10  20  35  58  87 117 157 210 265 322 385
#     4  12  24  43  68  94 129 172 217 269 323 388
#     4  12  26  48  64  94 128 162 218 262 328 384
#     4   9  20  38  60  88 124 165 210 265 331 387
#     4  10  18  36  63  88 119 160 210 260 318 388
#     4  10  22  39  58  87 126 168 213 266 329 390
#     4  10  21  37  60  91 121 158 212 267 317 385
#
# _framework density 20.969760000000001
#
# number of rings (size 3 to 8) (size 9 to 14) (size 15 to 20)
#    0.000    1.655    2.759    1.862    0.000    3.862 
#    2.483    2.759    0.000    0.000    0.000    0.000 
#    0.000    0.000    0.000    0.000    0.000    0.000 
#
# Total GULP energy -323599.253925 kJ/mol
# GULP energy per Si atom -5579.297481 kJ/mol
# Density = 2.092203 g / cm^3
# Si number density = 20.969760 Si / 1000 Ang^3
#
#
#
# Elastic Constant Matrix: (Units=GPa)
#
#
# Indices 1 2 3 4 5 6 
#
# 1 142.6832 23.3786 11.1769 0.0000 0.0000 0.0000
# 2 23.3786 28.6683 -2.0894 0.0000 0.0000 0.0000
# 3 11.1769 -2.0894 80.5940 0.0000 0.0000 0.0000
# 4 0.0000 0.0000 0.0000 23.6958 0.0000 0.0000
# 5 0.0000 0.0000 0.0000 0.0000 -251.3211 0.0000
# 6 0.0000 0.0000 0.0000 0.0000 0.0000 6.1121
#
#
#
# Elastic Compliance Matrix: (Units=1/GPa)
#
#
# Indices 1 2 3 4 5 6 
#
# 1 0.008227 -0.006805 -0.001317 0.000000 0.000000 0.000000
# 2 -0.006805 0.040576 0.001996 0.000000 0.000000 0.000000
# 3 -0.001317 0.001996 0.012642 0.000000 0.000000 0.000000
# 4 0.000000 0.000000 0.000000 0.042202 0.000000 0.000000
# 5 0.000000 0.000000 0.000000 0.000000 -0.003979 0.000000
# 6 0.000000 0.000000 0.000000 0.000000 0.000000 0.163611
#
#
# Mechanical properties :
#
#
# Convention : Reuss Voigt Hill
#
# Bulk Modulus (GPa) = 20.32833 35.20864 27.76848
# Shear Modulus (GPa) = 17.12743 -29.67070 -6.27163
#
# Velocity S-wave (km/s) = 2.86102 -3.76563 -1.73127
# Velocity P-wave (km/s) = 4.54192 1.44223 3.04541
#
# Compressibility (1/GPa) = 0.04919244
#
# Stress axis : x y z
#
# Youngs Moduli (GPa) = 121.55571 24.64492 79.09954
#
# Poissons Ratio (x) = 0.16770 0.10420
# Poissons Ratio (y) = 0.82716 -0.15785
# Poissons Ratio (z) = 0.16013 -0.04918
#
# Static dielectric constant tensor:
#      x y z
#    x 1.746090 0.000000 0.000000 
#    y 0.000000 1.757970 0.000000 
#    z 0.000000 0.000000 1.763590 
# 
# From -- ./inp_files/7685.got.cif
#   From: 2010.05.17/outbox.cif.g08.bks.cpg/sg55_4_cif.got.tgz:7685.got - 2010.06.03 13:27:54.
