data_PCOD9425780
_publ_section_title
;
Structure prediction by ZEFSAII (Michael W. Deem and Ramdas Pophale) SiO2 
 PCOD9425780
Probable space group: P B A M
;
_chemical_formula_sum "Si O2"
_cell_formula_units_Z 56
_cell_length_a 12.484717
_cell_length_b 18.886050
_cell_length_c 14.338954
_cell_angle_alpha 90.000000
_cell_angle_beta 90.000000
_cell_angle_gamma 90.000000
_cell_volume 3380.938796
_symmetry_space_group_name_H-M "P B A M"
_symmetry_group_IT_number 55
_symmetry_cell_setting 'orthorhombic'
loop_
_space_group_symop_operation_xyz
x,y,z
-x,-y,z
1/2+x,1/2-y,-z
1/2-x,1/2+y,-z
-x,-y,-z
x,y,-z
1/2-x,1/2+y,z
1/2+x,1/2-y,z
loop_
_atom_site_type_symbol
_atom_site_label
_atom_site_fract_x
_atom_site_fract_y
_atom_site_fract_z
Si Si1 0.572290 0.817703 0.105940
Si Si2 0.087745 0.397541 0.608990
Si Si3 0.340475 0.054815 0.390752
Si Si4 0.265783 0.635494 0.225920
Si Si5 0.333849 0.338460 0.105108
Si Si6 0.357021 0.796277 0.225805
Si Si7 0.541260 0.420280 0.107293
O O1 0.655396 0.863844 0.166093
O O2 0.634197 0.743415 0.097267
O O3 0.463391 0.801852 0.162019
O O4 0.551971 0.843697 0.000000
O O5 0.107839 0.382195 0.500000
O O6 0.148711 0.471185 0.632506
O O7 0.119599 0.333810 0.676219
O O8 0.961074 0.414151 0.618936
O O9 0.311173 0.060603 0.500000
O O10 0.262755 0.097996 0.323119
O O11 0.312681 0.715807 0.235703
O O12 0.355430 0.592887 0.169083
O O13 0.233132 0.341489 0.171907
O O14 0.439761 0.375964 0.142455
O O15 0.311650 0.365737 0.000000
O O16 0.500000 0.500000 0.105855
O O17 0.563634 0.397266 0.000000
#
# Coordination Sequence:
#
# PCOD9425780 Si02
#       7
#     8   8   8   8   8   8   8
#     4  10  19  33  52  79 111 143 179 224 272 319
#     4   9  19  37  59  80 105 138 181 229 283 339
#     4   9  19  37  59  80 105 141 181 228 285 339
#     4  11  21  34  58  83 112 145 187 231 277 324
#     4   9  19  33  49  73 108 147 180 210 258 320
#     4  11  20  32  56  84 110 138 180 231 278 318
#     4  10  21  36  52  75 110 153 192 219 258 327
#
# _framework density 16.563447
#
# number of rings (size 3 to 8) (size 9 to 14) (size 15 to 20)
#    0.000    2.143    2.857    1.714    2.000    1.714 
#    0.000    0.000    0.000    2.143    0.000    0.000 
#    0.000    0.000    0.000    0.000    0.000    0.000 
#
# Total GULP energy -312027.579171 kJ/mol
# GULP energy per Si atom -5571.921057 kJ/mol
# Density = 1.652575 g / cm^3
# Si number density = 16.563447 Si / 1000 Ang^3
#
#
#
# Elastic Constant Matrix: (Units=GPa)
#
#
# Indices 1 2 3 4 5 6 
#
# 1 84.3954 30.0916 58.1444 0.0000 0.0000 0.0000
# 2 30.0916 43.5732 46.4459 0.0000 0.0000 0.0000
# 3 58.1444 46.4459 105.5422 0.0000 0.0000 0.0000
# 4 0.0000 0.0000 0.0000 25.1012 0.0000 0.0000
# 5 0.0000 0.0000 0.0000 0.0000 30.5915 0.0000
# 6 0.0000 0.0000 0.0000 0.0000 0.0000 16.2186
#
#
#
# Elastic Compliance Matrix: (Units=1/GPa)
#
#
# Indices 1 2 3 4 5 6 
#
# 1 0.019423 -0.003782 -0.009036 0.000000 0.000000 0.000000
# 2 -0.003782 0.043963 -0.017264 0.000000 0.000000 0.000000
# 3 -0.009036 -0.017264 0.022050 0.000000 0.000000 0.000000
# 4 0.000000 0.000000 0.000000 0.039839 0.000000 0.000000
# 5 0.000000 0.000000 0.000000 0.000000 0.032689 0.000000
# 6 0.000000 0.000000 0.000000 0.000000 0.000000 0.061658
#
#
# Mechanical properties :
#
#
# Convention : Reuss Voigt Hill
#
# Bulk Modulus (GPa) = 39.56688 55.87495 47.72091
# Shear Modulus (GPa) = 17.34859 20.97085 19.15972
#
# Velocity S-wave (km/s) = 3.23987 3.56208 3.40479
# Velocity P-wave (km/s) = 6.15919 7.12215 6.65810
#
# Compressibility (1/GPa) = 0.02527367
#
# Stress axis : x y z
#
# Youngs Moduli (GPa) = 51.48610 22.74638 45.35126
#
# Poissons Ratio (x) = 0.08602 0.40980
# Poissons Ratio (y) = 0.19470 0.78292
# Poissons Ratio (z) = 0.46523 0.39268
#
# Static dielectric constant tensor:
#      x y z
#    x 1.547130 0.000000 0.000000 
#    y 0.000000 1.586950 0.000000 
#    z 0.000000 0.000000 1.563810 
# 
# From -- ./inp_files/13364.got.cif
#   From: 2010.05.17/outbox.cif.g08.bks.cpg/sg55_7_cif.got.tgz:13364.got - 2010.06.03 13:27:54.
