data_PCOD9425969
_publ_section_title
;
Structure prediction by ZEFSAII (Michael W. Deem and Ramdas Pophale) SiO2 
 PCOD9425969
Probable space group: P B A M
;
_chemical_formula_sum "Si O2"
_cell_formula_units_Z 64
_cell_length_a 13.202577
_cell_length_b 28.105411
_cell_length_c 7.678743
_cell_angle_alpha 90.000000
_cell_angle_beta 90.000000
_cell_angle_gamma 90.000000
_cell_volume 2849.303963
_symmetry_space_group_name_H-M "P B A M"
_symmetry_group_IT_number 55
_symmetry_cell_setting 'orthorhombic'
loop_
_space_group_symop_operation_xyz
x,y,z
-x,-y,z
1/2+x,1/2-y,-z
1/2-x,1/2+y,-z
-x,-y,-z
x,y,-z
1/2-x,1/2+y,z
1/2+x,1/2-y,z
loop_
_atom_site_type_symbol
_atom_site_label
_atom_site_fract_x
_atom_site_fract_y
_atom_site_fract_z
Si Si1 0.545601 0.653428 0.703504
Si Si2 0.594158 0.033824 0.710234
Si Si3 0.241044 0.793885 0.698180
Si Si4 0.465172 0.552935 0.286735
Si Si5 0.667345 0.304688 0.798249
Si Si6 0.862339 0.357327 0.795336
Si Si7 0.082768 0.357842 0.201465
Si Si8 0.765275 0.452772 0.289856
O O1 0.572074 0.647107 0.500000
O O2 0.637474 0.684997 0.778326
O O3 0.526965 0.599687 0.773037
O O4 0.439511 0.681679 0.714716
O O5 0.591799 0.039663 0.500000
O O6 0.587753 0.085345 0.791372
O O7 0.500000 0.000000 0.756937
O O8 0.695094 0.004812 0.758958
O O9 0.219818 0.778370 0.500000
O O10 0.296555 0.749625 0.787792
O O11 0.323206 0.835726 0.700151
O O12 0.500000 0.500000 0.233612
O O13 0.467537 0.553563 0.500000
O O14 0.348205 0.558404 0.231891
O O15 0.762246 0.333374 0.718576
O O16 0.655695 0.318589 0.000000
O O17 0.842731 0.413296 0.777223
O O18 0.972297 0.343709 0.724618
O O19 0.865061 0.344906 0.000000
O O20 0.089107 0.342483 0.000000
O O21 0.767596 0.450402 0.500000
#
# Coordination Sequence:
#
# PCOD9425969 Si02
#       8
#     8   8   8   8   8   8   8   8
#     4  10  22  42  67  96 127 160 207 260 310 371
#     4  10  20  34  55  87 122 161 207 256 305 352
#     4  11  26  44  65  94 125 159 205 261 314 371
#     4   9  18  33  58  89 121 159 200 247 304 365
#     4  11  24  43  67  91 122 161 203 256 315 378
#     4  10  22  39  60  88 122 158 202 253 306 367
#     4  11  24  41  61  88 125 170 211 252 312 375
#     4  10  19  33  58  87 119 160 206 253 301 360
#
# _framework density 22.461625000000002
#
# number of rings (size 3 to 8) (size 9 to 14) (size 15 to 20)
#    0.000    1.750    2.500    1.125    3.500    2.750 
#    0.000    0.000    0.000    0.750    0.000    0.000 
#    0.000    0.000    0.000    0.000    0.000    0.000 
#
# Total GULP energy -357495.818791 kJ/mol
# GULP energy per Si atom -5585.872169 kJ/mol
# Density = 2.241050 g / cm^3
# Si number density = 22.461625 Si / 1000 Ang^3
#
#
#
# Elastic Constant Matrix: (Units=GPa)
#
#
# Indices 1 2 3 4 5 6 
#
# 1 130.7057 47.8843 -1.2394 0.0000 0.0000 0.0000
# 2 47.8843 104.3250 -6.5831 0.0000 0.0000 0.0000
# 3 -1.2394 -6.5831 39.3544 0.0000 0.0000 0.0000
# 4 0.0000 0.0000 0.0000 13.5630 0.0000 0.0000
# 5 0.0000 0.0000 0.0000 0.0000 8.1053 0.0000
# 6 0.0000 0.0000 0.0000 0.0000 0.0000 32.8258
#
#
#
# Elastic Compliance Matrix: (Units=1/GPa)
#
#
# Indices 1 2 3 4 5 6 
#
# 1 0.009204 -0.004251 -0.000421 0.000000 0.000000 0.000000
# 2 -0.004251 0.011651 0.001815 0.000000 0.000000 0.000000
# 3 -0.000421 0.001815 0.025700 0.000000 0.000000 0.000000
# 4 0.000000 0.000000 0.000000 0.073730 0.000000 0.000000
# 5 0.000000 0.000000 0.000000 0.000000 0.123375 0.000000
# 6 0.000000 0.000000 0.000000 0.000000 0.000000 0.030464
#
#
# Mechanical properties :
#
#
# Convention : Reuss Voigt Hill
#
# Bulk Modulus (GPa) = 24.48512 39.38986 31.93749
# Shear Modulus (GPa) = 17.03847 26.52039 21.77943
#
# Velocity S-wave (km/s) = 2.75718 3.43986 3.11726
# Velocity P-wave (km/s) = 4.58918 5.77507 5.21594
#
# Compressibility (1/GPa) = 0.04084112
#
# Stress axis : x y z
#
# Youngs Moduli (GPa) = 108.64568 85.82768 38.90981
#
# Poissons Ratio (x) = 0.36487 0.01639
# Poissons Ratio (y) = 0.46188 -0.07062
# Poissons Ratio (z) = 0.04577 -0.15578
#
# Static dielectric constant tensor:
#      x y z
#    x 1.835300 0.000000 0.000000 
#    y 0.000000 1.846540 0.000000 
#    z 0.000000 0.000000 1.882270 
# 
# From -- ./inp_files/4506.got.cif
#   From: 2010.05.17/outbox.cif.g08.bks.cpg/sg55_3_cif.got.tgz:4506.got - 2010.06.03 13:27:54.
