data_PCOD9425692
_publ_section_title
;
Structure prediction by ZEFSAII (Michael W. Deem and Ramdas Pophale) SiO2 
 PCOD9425692
Probable space group: P B A M
;
_chemical_formula_sum "Si O2"
_cell_formula_units_Z 48
_cell_length_a 27.808952
_cell_length_b 8.801658
_cell_length_c 9.940867
_cell_angle_alpha 90.000000
_cell_angle_beta 90.000000
_cell_angle_gamma 90.000000
_cell_volume 2433.175166
_symmetry_space_group_name_H-M "P B A M"
_symmetry_group_IT_number 55
_symmetry_cell_setting 'orthorhombic'
loop_
_space_group_symop_operation_xyz
x,y,z
-x,-y,z
1/2+x,1/2-y,-z
1/2-x,1/2+y,-z
-x,-y,-z
x,y,-z
1/2-x,1/2+y,z
1/2+x,1/2-y,z
loop_
_atom_site_type_symbol
_atom_site_label
_atom_site_fract_x
_atom_site_fract_y
_atom_site_fract_z
Si Si1 0.252437 0.476373 0.221859
Si Si2 0.313638 0.719648 0.653067
Si Si3 0.506589 0.816075 0.156243
Si Si4 0.918144 0.717346 0.657110
Si Si5 0.096203 0.648906 0.342740
Si Si6 0.178574 0.725260 0.141615
O O1 0.214719 0.351779 0.271672
O O2 0.281185 0.570476 0.334565
O O3 0.220649 0.599790 0.145694
O O4 0.294179 0.385152 0.147005
O O5 0.318117 0.769292 0.500000
O O6 0.368537 0.701479 0.699838
O O7 0.460948 0.752435 0.238813
O O8 0.553143 0.788639 0.249519
O O9 0.500000 0.000000 0.152937
O O10 0.510046 0.766058 0.000000
O O11 0.930145 0.753642 0.500000
O O12 0.907596 0.535322 0.660999
O O13 0.093218 0.693794 0.500000
O O14 0.145216 0.699507 0.270478
O O15 0.151262 0.708218 0.000000
#
# Coordination Sequence:
#
# PCOD9425692 Si02
#       6
#     8   8   8   8   8   8
#     4  10  22  36  54  80 109 150 190 229 272 325
#     4  10  19  34  55  82 114 147 185 229 276 325
#     4   9  17  30  49  77 108 143 180 221 271 327
#     4   9  17  31  50  79 111 142 178 225 275 324
#     4  10  19  32  53  81 110 142 180 227 277 327
#     4  11  22  38  56  79 112 149 188 229 274 328
#
# _framework density 19.727309000000002
#
# number of rings (size 3 to 8) (size 9 to 14) (size 15 to 20)
#    0.000    2.167    1.667    2.000    0.000    6.000 
#    0.000    1.667    0.000    1.000    0.000    5.833 
#    0.000    0.000    0.000    0.000    0.000    0.000 
#
# Total GULP energy -267511.728649 kJ/mol
# GULP energy per Si atom -5573.161014 kJ/mol
# Density = 1.968241 g / cm^3
# Si number density = 19.727309 Si / 1000 Ang^3
#
#
#
# Elastic Constant Matrix: (Units=GPa)
#
#
# Indices 1 2 3 4 5 6 
#
# 1 116.1647 9.4872 73.9663 0.0000 0.0000 0.0000
# 2 9.4872 17.8669 11.1651 0.0000 0.0000 0.0000
# 3 73.9663 11.1651 147.8730 0.0000 0.0000 0.0000
# 4 0.0000 0.0000 0.0000 3.0594 0.0000 0.0000
# 5 0.0000 0.0000 0.0000 0.0000 22.2130 0.0000
# 6 0.0000 0.0000 0.0000 0.0000 0.0000 12.1501
#
#
#
# Elastic Compliance Matrix: (Units=1/GPa)
#
#
# Indices 1 2 3 4 5 6 
#
# 1 0.012776 -0.002929 -0.006169 0.000000 0.000000 0.000000
# 2 -0.002929 0.059412 -0.003021 0.000000 0.000000 0.000000
# 3 -0.006169 -0.003021 0.010077 0.000000 0.000000 0.000000
# 4 0.000000 0.000000 0.000000 0.326857 0.000000 0.000000
# 5 0.000000 0.000000 0.000000 0.000000 0.045019 0.000000
# 6 0.000000 0.000000 0.000000 0.000000 0.000000 0.082304
#
#
# Mechanical properties :
#
#
# Convention : Reuss Voigt Hill
#
# Bulk Modulus (GPa) = 17.23347 52.34911 34.79129
# Shear Modulus (GPa) = 8.62032 19.97023 14.29528
#
# Velocity S-wave (km/s) = 2.09266 3.18514 2.69484
# Velocity P-wave (km/s) = 3.82018 6.33410 5.23042
#
# Compressibility (1/GPa) = 0.05802663
#
# Stress axis : x y z
#
# Youngs Moduli (GPa) = 78.27211 16.83156 99.23971
#
# Poissons Ratio (x) = 0.04929 0.61225
# Poissons Ratio (y) = 0.22923 0.29980
# Poissons Ratio (z) = 0.48289 0.05085
#
# Static dielectric constant tensor:
#      x y z
#    x 1.711650 0.000000 0.000000 
#    y 0.000000 1.667780 0.000000 
#    z 0.000000 0.000000 1.733760 
# 
# From -- ./inp_files/10503.got.cif
#   From: 2010.05.17/outbox.cif.g08.bks.cpg/sg55_6_cif.got.tgz:10503.got - 2010.06.03 13:27:54.
