data_PCOD9425537
_publ_section_title
;
Structure prediction by ZEFSAII (Michael W. Deem and Ramdas Pophale) SiO2 
 PCOD9425537
Probable space group: P B A M
;
_chemical_formula_sum "Si O2"
_cell_formula_units_Z 56
_cell_length_a 16.153552
_cell_length_b 19.491185
_cell_length_c 7.329444
_cell_angle_alpha 90.000000
_cell_angle_beta 90.000000
_cell_angle_gamma 90.000000
_cell_volume 2307.689153
_symmetry_space_group_name_H-M "P B A M"
_symmetry_group_IT_number 55
_symmetry_cell_setting 'orthorhombic'
loop_
_space_group_symop_operation_xyz
x,y,z
-x,-y,z
1/2+x,1/2-y,-z
1/2-x,1/2+y,-z
-x,-y,-z
x,y,-z
1/2-x,1/2+y,z
1/2+x,1/2-y,z
loop_
_atom_site_type_symbol
_atom_site_label
_atom_site_fract_x
_atom_site_fract_y
_atom_site_fract_z
Si Si1 0.905679 0.004255 0.722844
Si Si2 0.870777 0.156601 0.276711
Si Si3 0.775818 0.905539 0.290276
Si Si4 0.725513 0.257570 0.278183
Si Si5 0.373253 0.002196 0.780665
Si Si6 0.034999 0.233910 0.706754
Si Si7 0.987270 0.612467 0.220250
O O1 0.902877 0.002944 0.500000
O O2 0.867317 0.077110 0.777807
O O3 0.858256 0.937148 0.791704
O O4 0.000000 0.000000 0.777844
O O5 0.872075 0.159469 0.500000
O O6 0.790827 0.200329 0.215457
O O7 0.959157 0.189172 0.215690
O O8 0.793253 0.890108 0.500000
O O9 0.742471 0.833326 0.219852
O O10 0.712482 0.968187 0.283556
O O11 0.724255 0.249712 0.500000
O O12 0.628840 0.258943 0.216967
O O13 0.440571 0.059722 0.726626
O O14 0.403519 0.927275 0.721528
O O15 0.372643 0.001185 0.000000
O O16 0.046394 0.207952 0.500000
O O17 0.003247 0.312208 0.704217
O O18 0.487525 0.882379 0.000000
#
# Coordination Sequence:
#
# PCOD9425537 Si02
#       7
#     8   8   8   8   8   8   8
#     4   9  17  29  47  71 102 138 174 208 252 308
#     4   9  17  29  45  69 102 135 162 204 261 304
#     4  10  19  31  52  78 102 132 176 219 249 301
#     4   9  18  30  45  72 107 132 161 210 266 304
#     4   9  19  35  52  71 100 136 167 205 264 317
#     4  10  19  31  52  75 101 134 169 210 258 305
#     4   9  19  35  52  71 100 136 168 204 259 320
#
# _framework density 24.266701000000001
#
# number of rings (size 3 to 8) (size 9 to 14) (size 15 to 20)
#    0.000    2.714    0.000    2.571    2.000    5.714 
#    0.000    2.143    0.000    2.143    0.000    0.000 
#    0.000    0.000    0.000    0.000    0.000    0.000 
#
# Total GULP energy -312665.164230 kJ/mol
# GULP energy per Si atom -5583.306504 kJ/mol
# Density = 2.421147 g / cm^3
# Si number density = 24.266701 Si / 1000 Ang^3
#
#
#
# Elastic Constant Matrix: (Units=GPa)
#
#
# Indices 1 2 3 4 5 6 
#
# 1 90.1590 9.8453 1.6238 0.0000 0.0000 0.0000
# 2 9.8453 94.6523 -1.0539 0.0000 0.0000 0.0000
# 3 1.6238 -1.0539 93.2171 0.0000 0.0000 0.0000
# 4 0.0000 0.0000 0.0000 23.6528 0.0000 0.0000
# 5 0.0000 0.0000 0.0000 0.0000 -9.9854 0.0000
# 6 0.0000 0.0000 0.0000 0.0000 0.0000 40.8228
#
#
#
# Elastic Compliance Matrix: (Units=1/GPa)
#
#
# Indices 1 2 3 4 5 6 
#
# 1 0.011223 -0.001170 -0.000209 0.000000 0.000000 0.000000
# 2 -0.001170 0.010688 0.000141 0.000000 0.000000 0.000000
# 3 -0.000209 0.000141 0.010733 0.000000 0.000000 0.000000
# 4 0.000000 0.000000 0.000000 0.042278 0.000000 0.000000
# 5 0.000000 0.000000 0.000000 0.000000 -0.100146 0.000000
# 6 0.000000 0.000000 0.000000 0.000000 0.000000 0.024496
#
#
# Mechanical properties :
#
#
# Convention : Reuss Voigt Hill
#
# Bulk Modulus (GPa) = 33.14581 33.20652 33.17616
# Shear Modulus (GPa) = 423.60919 28.73894 226.17406
#
# Velocity S-wave (km/s) = 13.22660 3.44509 9.66467
# Velocity P-wave (km/s) = 15.71451 5.43494 11.75765
#
# Compressibility (1/GPa) = 0.03016972
#
# Stress axis : x y z
#
# Youngs Moduli (GPa) = 89.10275 93.56097 93.17166
#
# Poissons Ratio (x) = 0.10944 0.01945
# Poissons Ratio (y) = 0.10422 -0.01316
# Poissons Ratio (z) = 0.01860 -0.01321
#
# Static dielectric constant tensor:
#      x y z
#    x 1.954550 0.000000 0.000000 
#    y 0.000000 1.891800 0.000000 
#    z 0.000000 0.000000 1.941660 
# 
# From -- ./inp_files/6039.got.cif
#   From: 2010.05.17/outbox.cif.g08.bks.cpg/sg55_4_cif.got.tgz:6039.got - 2010.06.03 13:27:54.
