data_PCOD9425967
_publ_section_title
;
Structure prediction by ZEFSAII (Michael W. Deem and Ramdas Pophale) SiO2 
 PCOD9425967
Probable space group: P B A M
;
_chemical_formula_sum "Si O2"
_cell_formula_units_Z 52
_cell_length_a 14.952400
_cell_length_b 25.097419
_cell_length_c 7.753785
_cell_angle_alpha 90.000000
_cell_angle_beta 90.000000
_cell_angle_gamma 90.000000
_cell_volume 2909.736905
_symmetry_space_group_name_H-M "P B A M"
_symmetry_group_IT_number 55
_symmetry_cell_setting 'orthorhombic'
loop_
_space_group_symop_operation_xyz
x,y,z
-x,-y,z
1/2+x,1/2-y,-z
1/2-x,1/2+y,-z
-x,-y,-z
x,y,-z
1/2-x,1/2+y,z
1/2+x,1/2-y,z
loop_
_atom_site_type_symbol
_atom_site_label
_atom_site_fract_x
_atom_site_fract_y
_atom_site_fract_z
Si Si1 0.950983 0.113800 0.000000
Si Si2 0.859245 0.529351 0.708137
Si Si3 0.950651 0.419808 0.291575
Si Si4 0.807170 0.836818 0.304476
Si Si5 0.985834 0.790728 0.191330
Si Si6 0.113835 0.694781 0.293338
Si Si7 0.651531 0.418303 0.000000
Si Si8 0.219422 0.961202 0.000000
O O1 0.958467 0.154520 0.837454
O O2 0.043501 0.081355 0.000000
O O3 0.865327 0.077429 0.000000
O O4 0.843830 0.531889 0.500000
O O5 0.885849 0.468503 0.757218
O O6 0.948072 0.563606 0.749997
O O7 0.778720 0.547280 0.828541
O O8 0.946960 0.418423 0.500000
O O9 0.921519 0.362249 0.225790
O O10 0.791810 0.856956 0.500000
O O11 0.719364 0.803121 0.252750
O O12 0.898554 0.802738 0.302694
O O13 0.819150 0.884345 0.167835
O O14 0.052220 0.743350 0.235574
O O15 0.947783 0.780109 0.000000
O O16 0.106619 0.693980 0.500000
O O17 0.688463 0.477430 0.000000
#
# Coordination Sequence:
#
# PCOD9425967 Si02
#       8
#     4   8   8   8   8   8   4   4
#     4   8  21  41  53  74 109 150 178 230 291 317
#     4   9  19  36  54  80 119 151 175 220 280 333
#     4   8  16  34  54  77 118 150 178 227 274 325
#     4  10  20  37  60  85 111 142 187 236 283 329
#     4   9  20  39  56  76 112 154 182 230 286 327
#     4  10  19  33  58  87 108 145 194 232 273 328
#     4  10  21  37  60  83 107 141 185 234 285 325
#     4  12  21  35  59  83 108 142 189 229 269 353
#
# _framework density 17.871032
#
# number of rings (size 3 to 8) (size 9 to 14) (size 15 to 20)
#    0.462    2.154    0.769    2.538    1.077    3.077 
#    5.538    3.846    0.000    4.615    0.000    0.000 
#    0.000    0.000    0.000    0.000    0.000    0.000 
#
# Total GULP energy -289646.899919 kJ/mol
# GULP energy per Si atom -5570.132691 kJ/mol
# Density = 1.783036 g / cm^3
# Si number density = 17.871032 Si / 1000 Ang^3
#
#
#
# Elastic Constant Matrix: (Units=GPa)
#
#
# Indices 1 2 3 4 5 6 
#
# 1 112.4774 65.6480 35.9388 0.0000 0.0000 0.0000
# 2 65.6480 68.3541 22.4853 0.0000 0.0000 0.0000
# 3 35.9388 22.4853 68.9525 0.0000 0.0000 0.0000
# 4 0.0000 0.0000 0.0000 6.2804 0.0000 0.0000
# 5 0.0000 0.0000 0.0000 0.0000 27.1351 0.0000
# 6 0.0000 0.0000 0.0000 0.0000 0.0000 25.9258
#
#
#
# Elastic Compliance Matrix: (Units=1/GPa)
#
#
# Indices 1 2 3 4 5 6 
#
# 1 0.021699 -0.019176 -0.005056 0.000000 0.000000 0.000000
# 2 -0.019176 0.033335 -0.000876 0.000000 0.000000 0.000000
# 3 -0.005056 -0.000876 0.017424 0.000000 0.000000 0.000000
# 4 0.000000 0.000000 0.000000 0.159226 0.000000 0.000000
# 5 0.000000 0.000000 0.000000 0.000000 0.036853 0.000000
# 6 0.000000 0.000000 0.000000 0.000000 0.000000 0.038572
#
#
# Mechanical properties :
#
#
# Convention : Reuss Voigt Hill
#
# Bulk Modulus (GPa) = 44.96206 55.32534 50.14370
# Shear Modulus (GPa) = 13.70852 20.24907 16.97879
#
# Velocity S-wave (km/s) = 2.77263 3.36976 3.08567
# Velocity P-wave (km/s) = 5.95514 6.79453 6.38864
#
# Compressibility (1/GPa) = 0.02224097
#
# Stress axis : x y z
#
# Youngs Moduli (GPa) = 46.08604 29.99869 57.39347
#
# Poissons Ratio (x) = 0.57526 0.29019
# Poissons Ratio (y) = 0.88376 0.05025
# Poissons Ratio (z) = 0.23302 0.02626
#
# Static dielectric constant tensor:
#      x y z
#    x 1.599810 0.000000 0.000000 
#    y 0.000000 1.610400 0.000000 
#    z 0.000000 0.000000 1.648280 
# 
# From -- ./inp_files/6378.got.cif
#   From: 2010.05.17/outbox.cif.g08.bks.cpg/sg55_4_cif.got.tgz:6378.got - 2010.06.03 13:27:54.
