data_PCOD9425986
_publ_section_title
;
Structure prediction by ZEFSAII (Michael W. Deem and Ramdas Pophale) SiO2 
 PCOD9425986
Probable space group: P B A M
;
_chemical_formula_sum "Si O2"
_cell_formula_units_Z 64
_cell_length_a 23.728125
_cell_length_b 19.700680
_cell_length_c 8.561368
_cell_angle_alpha 90.000000
_cell_angle_beta 90.000000
_cell_angle_gamma 90.000000
_cell_volume 4002.098777
_symmetry_space_group_name_H-M "P B A M"
_symmetry_group_IT_number 55
_symmetry_cell_setting 'orthorhombic'
loop_
_space_group_symop_operation_xyz
x,y,z
-x,-y,z
1/2+x,1/2-y,-z
1/2-x,1/2+y,-z
-x,-y,-z
x,y,-z
1/2-x,1/2+y,z
1/2+x,1/2-y,z
loop_
_atom_site_type_symbol
_atom_site_label
_atom_site_fract_x
_atom_site_fract_y
_atom_site_fract_z
Si Si1 0.123464 0.500801 0.186411
Si Si2 0.059170 0.639599 0.813855
Si Si3 0.834554 0.730025 0.688137
Si Si4 0.224842 0.856463 0.310540
Si Si5 0.341634 0.227395 0.313034
Si Si6 0.232853 0.149698 0.184417
Si Si7 0.434688 0.866297 0.313646
Si Si8 0.249970 0.504903 0.313236
O O1 0.088433 0.568014 0.230552
O O2 0.088789 0.434065 0.232357
O O3 0.183799 0.500962 0.270351
O O4 0.132798 0.502708 0.000000
O O5 0.102654 0.698062 0.764918
O O6 0.998880 0.645955 0.733140
O O7 0.051459 0.639345 0.000000
O O8 0.831993 0.738101 0.500000
O O9 0.784876 0.677063 0.733390
O O10 0.817917 0.800962 0.765594
O O11 0.893711 0.696106 0.730492
O O12 0.224093 0.857650 0.500000
O O13 0.177115 0.802986 0.261334
O O14 0.222513 0.934046 0.257872
O O15 0.347910 0.226673 0.500000
O O16 0.288794 0.179337 0.268280
O O17 0.225384 0.072344 0.236142
O O18 0.242119 0.153441 0.000000
O O19 0.429675 0.875507 0.500000
O O20 0.255487 0.509890 0.500000
#
# Coordination Sequence:
#
# PCOD9425986 Si02
#       8
#     8   8   8   8   8   8   8   8
#     4  11  22  34  47  70 106 140 173 212 248 293
#     4  11  23  36  49  71 104 137 173 212 251 297
#     4   9  18  35  52  71  96 129 171 212 248 297
#     4   8  16  31  51  74  97 123 164 212 250 289
#     4  10  19  34  53  72  96 131 171 211 249 295
#     4  11  21  32  48  75 104 131 164 207 257 306
#     4  11  22  36  54  73  97 134 181 216 248 297
#     4  11  19  32  53  75 101 137 171 207 250 301
#
# _framework density 15.991609
#
# number of rings (size 3 to 8) (size 9 to 14) (size 15 to 20)
#    0.000    1.750    2.500    4.125    0.000    4.000 
#    0.000    1.875    0.000    0.000    0.000    0.875 
#    0.000    7.000    0.000    0.000    0.000    0.000 
#
# Total GULP energy -357266.487929 kJ/mol
# GULP energy per Si atom -5582.288874 kJ/mol
# Density = 1.595521 g / cm^3
# Si number density = 15.991609 Si / 1000 Ang^3
#
#
#
# Elastic Constant Matrix: (Units=GPa)
#
#
# Indices 1 2 3 4 5 6 
#
# 1 60.4555 41.7677 3.1406 0.0000 0.0000 0.0000
# 2 41.7677 124.0898 6.5642 0.0000 0.0000 0.0000
# 3 3.1406 6.5642 17.6471 0.0000 0.0000 0.0000
# 4 0.0000 0.0000 0.0000 5.9875 0.0000 0.0000
# 5 0.0000 0.0000 0.0000 0.0000 4.0012 0.0000
# 6 0.0000 0.0000 0.0000 0.0000 0.0000 17.6370
#
#
#
# Elastic Compliance Matrix: (Units=1/GPa)
#
#
# Indices 1 2 3 4 5 6 
#
# 1 0.021577 -0.007201 -0.001161 0.000000 0.000000 0.000000
# 2 -0.007201 0.010624 -0.002670 0.000000 0.000000 0.000000
# 3 -0.001161 -0.002670 0.057866 0.000000 0.000000 0.000000
# 4 0.000000 0.000000 0.000000 0.167014 0.000000 0.000000
# 5 0.000000 0.000000 0.000000 0.000000 0.249928 0.000000
# 6 0.000000 0.000000 0.000000 0.000000 0.000000 0.056699
#
#
# Mechanical properties :
#
#
# Convention : Reuss Voigt Hill
#
# Bulk Modulus (GPa) = 14.70553 33.90416 24.30485
# Shear Modulus (GPa) = 8.21774 15.57313 11.89544
#
# Velocity S-wave (km/s) = 2.26935 3.12401 2.73033
# Velocity P-wave (km/s) = 4.01028 5.85319 5.01708
#
# Compressibility (1/GPa) = 0.06800164
#
# Stress axis : x y z
#
# Youngs Moduli (GPa) = 46.34670 94.12871 17.28117
#
# Poissons Ratio (x) = 0.67783 0.02007
# Poissons Ratio (y) = 0.33375 0.04614
# Poissons Ratio (z) = 0.05382 0.25134
#
# Static dielectric constant tensor:
#      x y z
#    x 1.507260 0.000000 0.000000 
#    y 0.000000 1.545960 0.000000 
#    z 0.000000 0.000000 1.536270 
# 
# From -- ./inp_files/9871.got.cif
#   From: 2010.05.17/outbox.cif.g08.bks.cpg/sg55_5_cif.got.tgz:9871.got - 2010.06.03 13:27:54.
