data_PCOD9425024
_publ_section_title
;
Structure prediction by ZEFSAII (Michael W. Deem and Ramdas Pophale) SiO2 
 PCOD9425024
Probable space group: P B A M
;
_chemical_formula_sum "Si O2"
_cell_formula_units_Z 56
_cell_length_a 18.860601
_cell_length_b 14.659110
_cell_length_c 7.512418
_cell_angle_alpha 90.000000
_cell_angle_beta 90.000000
_cell_angle_gamma 90.000000
_cell_volume 2077.030509
_symmetry_space_group_name_H-M "P B A M"
_symmetry_group_IT_number 55
_symmetry_cell_setting 'orthorhombic'
loop_
_space_group_symop_operation_xyz
x,y,z
-x,-y,z
1/2+x,1/2-y,-z
1/2-x,1/2+y,-z
-x,-y,-z
x,y,-z
1/2-x,1/2+y,z
1/2+x,1/2-y,z
loop_
_atom_site_type_symbol
_atom_site_label
_atom_site_fract_x
_atom_site_fract_y
_atom_site_fract_z
Si Si1 0.070827 0.220320 0.787680
Si Si2 0.129523 0.603822 0.283935
Si Si3 0.976972 0.595870 0.794309
Si Si4 0.218096 0.764165 0.702977
Si Si5 0.788133 0.563566 0.283001
Si Si6 0.075611 0.868389 0.790971
Si Si7 0.850860 0.954722 0.711116
O O1 0.070992 0.323742 0.713457
O O2 0.134305 0.149884 0.757275
O O3 0.999604 0.168310 0.722715
O O4 0.064696 0.231044 0.000000
O O5 0.127918 0.609570 0.500000
O O6 0.193351 0.668309 0.219885
O O7 0.144751 0.498389 0.234652
O O8 0.056325 0.640053 0.207964
O O9 0.000000 0.500000 0.704456
O O10 0.958650 0.579332 0.000000
O O11 0.241033 0.746364 0.500000
O O12 0.273597 0.834911 0.786364
O O13 0.143785 0.821263 0.699992
O O14 0.786934 0.567942 0.500000
O O15 0.721131 0.502225 0.223526
O O16 0.086839 0.977028 0.771735
O O17 0.080853 0.847439 0.000000
O O18 0.847677 0.959071 0.500000
#
# Coordination Sequence:
#
# PCOD9425024 Si02
#       7
#     8   8   8   8   8   8   8
#     4  10  20  34  52  76 106 143 180 220 272 323
#     4  10  19  35  60  82 105 140 184 231 273 322
#     4  10  22  41  60  78 108 147 185 228 279 331
#     4   9  17  31  53  77 104 140 180 222 271 327
#     4   8  17  34  51  77 111 141 175 219 274 325
#     4  10  18  30  51  77 106 140 177 218 266 322
#     4  10  20  33  51  79 114 144 174 216 268 329
#
# _framework density 26.961568
#
# number of rings (size 3 to 8) (size 9 to 14) (size 15 to 20)
#    0.000    2.429    1.429    2.143    0.000    3.714 
#    2.571    3.571    0.000    0.000    0.000    0.000 
#    0.000    0.000    0.000    0.000    0.000    0.000 
#
# Total GULP energy -313160.459321 kJ/mol
# GULP energy per Si atom -5592.151059 kJ/mol
# Density = 2.690020 g / cm^3
# Si number density = 26.961568 Si / 1000 Ang^3
#
#
#
# Elastic Constant Matrix: (Units=GPa)
#
#
# Indices 1 2 3 4 5 6 
#
# 1 70.7865 -2.4417 8.0664 0.0000 0.0000 0.0000
# 2 -2.4417 157.7141 20.1637 0.0000 0.0000 0.0000
# 3 8.0664 20.1637 102.1137 0.0000 0.0000 0.0000
# 4 0.0000 0.0000 0.0000 19.8449 0.0000 0.0000
# 5 0.0000 0.0000 0.0000 0.0000 18.4617 0.0000
# 6 0.0000 0.0000 0.0000 0.0000 0.0000 48.7867
#
#
#
# Elastic Compliance Matrix: (Units=1/GPa)
#
#
# Indices 1 2 3 4 5 6 
#
# 1 0.014277 0.000375 -0.001202 0.000000 0.000000 0.000000
# 2 0.000375 0.006515 -0.001316 0.000000 0.000000 0.000000
# 3 -0.001202 -0.001316 0.010148 0.000000 0.000000 0.000000
# 4 0.000000 0.000000 0.000000 0.050391 0.000000 0.000000
# 5 0.000000 0.000000 0.000000 0.000000 0.054166 0.000000
# 6 0.000000 0.000000 0.000000 0.000000 0.000000 0.020497
#
#
# Mechanical properties :
#
#
# Convention : Reuss Voigt Hill
#
# Bulk Modulus (GPa) = 37.51909 42.46567 39.99238
# Shear Modulus (GPa) = 29.55707 37.74038 33.64873
#
# Velocity S-wave (km/s) = 3.31458 3.74543 3.53657
# Velocity P-wave (km/s) = 5.34739 5.87273 5.61621
#
# Compressibility (1/GPa) = 0.02665310
#
# Stress axis : x y z
#
# Youngs Moduli (GPa) = 70.04344 153.50047 98.54355
#
# Poissons Ratio (x) = -0.05751 0.11843
# Poissons Ratio (y) = -0.02624 0.12968
# Poissons Ratio (z) = 0.08418 0.20201
#
# Static dielectric constant tensor:
#      x y z
#    x 2.158990 0.000000 0.000000 
#    y 0.000000 2.188890 0.000000 
#    z 0.000000 0.000000 1.970430 
# 
# From -- ./inp_files/8730.got.cif
#   From: 2010.05.17/outbox.cif.g08.bks.cpg/sg55_5_cif.got.tgz:8730.got - 2010.06.03 13:27:54.
