data_PCOD9425346
_publ_section_title
;
Structure prediction by ZEFSAII (Michael W. Deem and Ramdas Pophale) SiO2 
 PCOD9425346
Probable space group: P B A M
;
_chemical_formula_sum "Si O2"
_cell_formula_units_Z 58
_cell_length_a 13.820635
_cell_length_b 23.755271
_cell_length_c 7.561358
_cell_angle_alpha 90.000000
_cell_angle_beta 90.000000
_cell_angle_gamma 90.000000
_cell_volume 2482.491598
_symmetry_space_group_name_H-M "P B A M"
_symmetry_group_IT_number 55
_symmetry_cell_setting 'orthorhombic'
loop_
_space_group_symop_operation_xyz
x,y,z
-x,-y,z
1/2+x,1/2-y,-z
1/2-x,1/2+y,-z
-x,-y,-z
x,y,-z
1/2-x,1/2+y,z
1/2+x,1/2-y,z
loop_
_atom_site_type_symbol
_atom_site_label
_atom_site_fract_x
_atom_site_fract_y
_atom_site_fract_z
Si Si1 0.005904 0.757203 0.798266
Si Si2 0.500000 0.500000 0.500000
Si Si3 0.011217 0.369483 0.213496
Si Si4 0.197170 0.621065 0.211073
Si Si5 0.205187 0.235935 0.710824
Si Si6 0.929210 0.130142 0.207320
Si Si7 0.224183 0.363875 0.292261
Si Si8 0.890313 0.945199 0.215645
O O1 0.996237 0.695279 0.718532
O O2 0.068763 0.806481 0.713376
O O3 0.896958 0.781524 0.795446
O O4 0.039147 0.748237 0.000000
O O5 0.415571 0.503338 0.657864
O O6 0.909982 0.396383 0.274623
O O7 0.118402 0.390144 0.260820
O O8 0.010696 0.368982 0.000000
O O9 0.218202 0.686872 0.252446
O O10 0.289117 0.584040 0.265699
O O11 0.195979 0.616776 0.000000
O O12 0.192214 0.238862 0.500000
O O13 0.222764 0.299289 0.780010
O O14 0.820734 0.107527 0.220724
O O15 0.020736 0.095807 0.276085
O O16 0.950360 0.136225 0.000000
O O17 0.237636 0.360395 0.500000
O O18 0.894515 0.954807 0.000000
#
# Coordination Sequence:
#
# PCOD9425346 Si02
#       8
#     8   2   8   8   8   8   8   8
#     4   9  16  28  46  70 103 147 195 233 266 309
#     4  12  26  44  68  90 118 152 166 232 320 380
#     4   9  18  31  49  73 106 153 196 228 267 310
#     4  10  19  34  55  78 107 143 189 238 278 331
#     4  10  19  28  43  70 109 153 195 234 273 316
#     4  10  19  33  54  78 107 145 192 239 277 330
#     4  10  21  32  44  72 114 157 195 235 268 310
#     4  10  23  41  64  95 118 143 187 236 294 365
#
# _framework density 23.363623
#
# number of rings (size 3 to 8) (size 9 to 14) (size 15 to 20)
#    0.000    2.207    1.379    1.862    1.931    3.862 
#    0.000    2.759    0.000    0.000    0.000    1.931 
#    0.000    5.517    0.000    0.000    0.000    0.000 
#
# Total GULP energy -322946.126368 kJ/mol
# GULP energy per Si atom -5568.036662 kJ/mol
# Density = 2.331045 g / cm^3
# Si number density = 23.363623 Si / 1000 Ang^3
#
#
#
# Elastic Constant Matrix: (Units=GPa)
#
#
# Indices 1 2 3 4 5 6 
#
# 1 169.9063 14.9416 14.6511 0.0000 0.0000 0.0000
# 2 14.9416 22.5161 5.6096 0.0000 0.0000 0.0000
# 3 14.6511 5.6096 73.5978 0.0000 0.0000 0.0000
# 4 0.0000 0.0000 0.0000 -15.2171 0.0000 0.0000
# 5 0.0000 0.0000 0.0000 0.0000 -81.9203 0.0000
# 6 0.0000 0.0000 0.0000 0.0000 0.0000 24.4319
#
#
#
# Elastic Compliance Matrix: (Units=1/GPa)
#
#
# Indices 1 2 3 4 5 6 
#
# 1 0.006316 -0.003953 -0.000956 0.000000 0.000000 0.000000
# 2 -0.003953 0.047746 -0.002852 0.000000 0.000000 0.000000
# 3 -0.000956 -0.002852 0.013995 0.000000 0.000000 0.000000
# 4 0.000000 0.000000 0.000000 -0.065716 0.000000 0.000000
# 5 0.000000 0.000000 0.000000 0.000000 -0.012207 0.000000
# 6 0.000000 0.000000 0.000000 0.000000 0.000000 0.040930
#
#
# Mechanical properties :
#
#
# Convention : Reuss Voigt Hill
#
# Bulk Modulus (GPa) = 19.03500 37.38053 28.20777
# Shear Modulus (GPa) = 78.00487 0.84677 39.42582
#
# Velocity S-wave (km/s) = 5.78444 0.60268 4.11236
# Velocity P-wave (km/s) = 7.26485 4.06429 5.88628
#
# Compressibility (1/GPa) = 0.05253480
#
# Stress axis : x y z
#
# Youngs Moduli (GPa) = 158.33697 20.94399 71.45373
#
# Poissons Ratio (x) = 0.08279 0.06831
# Poissons Ratio (y) = 0.62588 0.20381
# Poissons Ratio (z) = 0.15136 0.05974
#
# Static dielectric constant tensor:
#      x y z
#    x 1.948620 0.000000 0.000000 
#    y 0.000000 1.991550 0.000000 
#    z 0.000000 0.000000 1.912230 
# 
# From -- ./inp_files/4455.got.cif
#   From: 2010.05.17/outbox.cif.g08.bks.cpg/sg55_3_cif.got.tgz:4455.got - 2010.06.03 13:27:54.
