data_PCOD9425482
_publ_section_title
;
Structure prediction by ZEFSAII (Michael W. Deem and Ramdas Pophale) SiO2 
 PCOD9425482
Probable space group: P B A M
;
_chemical_formula_sum "Si O2"
_cell_formula_units_Z 36
_cell_length_a 9.992674
_cell_length_b 5.198582
_cell_length_c 25.488918
_cell_angle_alpha 90.000000
_cell_angle_beta 90.000000
_cell_angle_gamma 90.000000
_cell_volume 1324.091562
_symmetry_space_group_name_H-M "P B A M"
_symmetry_group_IT_number 55
_symmetry_cell_setting 'orthorhombic'
loop_
_space_group_symop_operation_xyz
x,y,z
-x,-y,z
1/2+x,1/2-y,-z
1/2-x,1/2+y,-z
-x,-y,-z
x,y,-z
1/2-x,1/2+y,z
1/2+x,1/2-y,z
loop_
_atom_site_type_symbol
_atom_site_label
_atom_site_fract_x
_atom_site_fract_y
_atom_site_fract_z
Si Si1 0.590633 0.249372 0.444886
Si Si2 0.158699 0.187402 0.219101
Si Si3 0.676346 0.175604 0.674061
Si Si4 0.158755 0.195920 0.000000
Si Si5 0.158438 0.302214 0.889935
O O1 0.500000 0.500000 0.445052
O O2 0.672927 0.257273 0.500000
O O3 0.647096 0.231462 0.386607
O O4 0.500000 0.000000 0.448103
O O5 0.276614 0.404719 0.218089
O O6 0.090568 0.236695 0.275446
O O7 0.083654 0.246465 0.164746
O O8 0.800840 0.372952 0.680005
O O9 0.085556 0.249640 0.054977
O O10 0.222373 0.911378 0.000000
O O11 0.277128 0.086126 0.889889
#
# Coordination Sequence:
#
# PCOD9425482 Si02
#       5
#     8   8   8   4   8
#     4  10  21  36  51  68  93 122 147 177 223 269
#     4   8  14  23  35  53  77 102 130 168 210 246
#     4  10  19  31  49  71  91 115 150 186 218 258
#     4   8  12  16  24  38  58  90 128 156 184 234
#     4   8  12  18  27  41  64  94 126 158 194 238
#
# _framework density 27.188454
#
# number of rings (size 3 to 8) (size 9 to 14) (size 15 to 20)
#    0.000    3.111    0.000    1.333    0.000    0.889 
#    0.000    0.000    0.000    0.000    0.000    0.000 
#    0.000    0.000    0.000    2.000    0.000    7.778 
#
# Total GULP energy -200868.950440 kJ/mol
# GULP energy per Si atom -5579.693068 kJ/mol
# Density = 2.712657 g / cm^3
# Si number density = 27.188454 Si / 1000 Ang^3
#
#
#
# Elastic Constant Matrix: (Units=GPa)
#
#
# Indices 1 2 3 4 5 6 
#
# 1 44.0742 49.9370 30.4850 0.0000 0.0000 0.0000
# 2 49.9370 205.9515 5.6193 0.0000 0.0000 0.0000
# 3 30.4850 5.6193 334.2424 0.0000 0.0000 0.0000
# 4 0.0000 0.0000 0.0000 43.9748 0.0000 0.0000
# 5 0.0000 0.0000 0.0000 0.0000 32.0569 0.0000
# 6 0.0000 0.0000 0.0000 0.0000 0.0000 48.6361
#
#
#
# Elastic Compliance Matrix: (Units=1/GPa)
#
#
# Indices 1 2 3 4 5 6 
#
# 1 0.033982 -0.008159 -0.002962 0.000000 0.000000 0.000000
# 2 -0.008159 0.006817 0.000630 0.000000 0.000000 0.000000
# 3 -0.002962 0.000630 0.003251 0.000000 0.000000 0.000000
# 4 0.000000 0.000000 0.000000 0.022740 0.000000 0.000000
# 5 0.000000 0.000000 0.000000 0.000000 0.031195 0.000000
# 6 0.000000 0.000000 0.000000 0.000000 0.000000 0.020561
#
#
# Mechanical properties :
#
#
# Convention : Reuss Voigt Hill
#
# Bulk Modulus (GPa) = 43.35178 84.03896 63.69537
# Shear Modulus (GPa) = 33.96331 58.14867 46.05599
#
# Velocity S-wave (km/s) = 3.53821 4.62965 4.12023
# Velocity P-wave (km/s) = 5.71589 7.71720 6.79068
#
# Compressibility (1/GPa) = 0.02306710
#
# Stress axis : x y z
#
# Youngs Moduli (GPa) = 29.42734 146.70077 307.55716
#
# Poissons Ratio (x) = 1.19690 0.91105
# Poissons Ratio (y) = 0.24009 -0.19362
# Poissons Ratio (z) = 0.08717 -0.09235
#
# Static dielectric constant tensor:
#      x y z
#    x 2.332450 0.000000 0.000000 
#    y 0.000000 2.015770 0.000000 
#    z 0.000000 0.000000 2.323690 
# 
# From -- ./inp_files/22250.got.cif
#   From: 2010.05.17/outbox.cif.g08.bks.cpg/sg55_12_cif.got.tgz:22250.got - 2010.06.03 13:27:54.
