data_PCOD9425293
_publ_section_title
;
Structure prediction by ZEFSAII (Michael W. Deem and Ramdas Pophale) SiO2 
 PCOD9425293
Probable space group: P B A M
;
_chemical_formula_sum "Si O2"
_cell_formula_units_Z 48
_cell_length_a 10.258398
_cell_length_b 30.156263
_cell_length_c 8.630997
_cell_angle_alpha 90.000000
_cell_angle_beta 90.000000
_cell_angle_gamma 90.000000
_cell_volume 2670.041629
_symmetry_space_group_name_H-M "P B A M"
_symmetry_group_IT_number 55
_symmetry_cell_setting 'orthorhombic'
loop_
_space_group_symop_operation_xyz
x,y,z
-x,-y,z
1/2+x,1/2-y,-z
1/2-x,1/2+y,-z
-x,-y,-z
x,y,-z
1/2-x,1/2+y,z
1/2+x,1/2-y,z
loop_
_atom_site_type_symbol
_atom_site_label
_atom_site_fract_x
_atom_site_fract_y
_atom_site_fract_z
Si Si1 0.517288 0.716188 0.186633
Si Si2 0.876448 0.471155 0.684044
Si Si3 0.279212 0.117953 0.185289
Si Si4 0.274120 0.214486 0.315382
Si Si5 0.137589 0.974745 0.816112
Si Si6 0.021999 0.884428 0.187748
O O1 0.619466 0.750951 0.253778
O O2 0.369463 0.723702 0.244675
O O3 0.554664 0.665720 0.234412
O O4 0.517521 0.718246 0.000000
O O5 0.884139 0.464623 0.500000
O O6 0.866020 0.423298 0.763774
O O7 0.748410 0.499053 0.727107
O O8 0.000000 0.500000 0.735733
O O9 0.312467 0.164857 0.261897
O O10 0.128906 0.107393 0.231604
O O11 0.281971 0.123116 0.000000
O O12 0.266141 0.216443 0.500000
O O13 0.113303 0.924474 0.759408
O O14 0.170111 0.974551 0.000000
O O15 0.000000 0.000000 0.801412
O O16 0.025109 0.885953 0.000000
#
# Coordination Sequence:
#
# PCOD9425293 Si02
#       6
#     8   8   8   8   8   8
#     4  10  20  38  61  85 116 156 199 237 282 350
#     4  11  24  39  53  79 120 157 188 232 286 341
#     4  10  19  37  62  84 109 150 195 234 282 348
#     4  11  22  38  60  89 120 151 188 242 301 346
#     4  10  18  34  60  86 110 141 187 236 278 331
#     4   8  16  32  57  86 110 137 184 242 281 324
#
# _framework density 17.977246999999998
#
# number of rings (size 3 to 8) (size 9 to 14) (size 15 to 20)
#    0.000    2.000    1.667    4.000    0.000    1.667 
#    3.000    1.667    0.000    0.000    0.000    0.000 
#    0.000    0.000    0.000    0.000    0.000    0.000 
#
# Total GULP energy -267926.339444 kJ/mol
# GULP energy per Si atom -5581.798738 kJ/mol
# Density = 1.793633 g / cm^3
# Si number density = 17.977247 Si / 1000 Ang^3
#
#
#
# Elastic Constant Matrix: (Units=GPa)
#
#
# Indices 1 2 3 4 5 6 
#
# 1 54.1598 56.9998 23.2080 0.0000 0.0000 0.0000
# 2 56.9998 145.5429 39.0804 0.0000 0.0000 0.0000
# 3 23.2080 39.0804 66.0426 0.0000 0.0000 0.0000
# 4 0.0000 0.0000 0.0000 30.4305 0.0000 0.0000
# 5 0.0000 0.0000 0.0000 0.0000 25.5488 0.0000
# 6 0.0000 0.0000 0.0000 0.0000 0.0000 35.9133
#
#
#
# Elastic Compliance Matrix: (Units=1/GPa)
#
#
# Indices 1 2 3 4 5 6 
#
# 1 0.032560 -0.011508 -0.004632 0.000000 0.000000 0.000000
# 2 -0.011508 0.012236 -0.003197 0.000000 0.000000 0.000000
# 3 -0.004632 -0.003197 0.018661 0.000000 0.000000 0.000000
# 4 0.000000 0.000000 0.000000 0.032862 0.000000 0.000000
# 5 0.000000 0.000000 0.000000 0.000000 0.039141 0.000000
# 6 0.000000 0.000000 0.000000 0.000000 0.000000 0.027845
#
#
# Mechanical properties :
#
#
# Convention : Reuss Voigt Hill
#
# Bulk Modulus (GPa) = 40.34880 56.03574 48.19227
# Shear Modulus (GPa) = 23.78237 28.14233 25.96235
#
# Velocity S-wave (km/s) = 3.64114 3.96086 3.80436
# Velocity P-wave (km/s) = 6.33800 7.22190 6.79434
#
# Compressibility (1/GPa) = 0.02478388
#
# Stress axis : x y z
#
# Youngs Moduli (GPa) = 30.71231 81.72542 53.58721
#
# Poissons Ratio (x) = 0.94049 0.24823
# Poissons Ratio (y) = 0.35344 0.17130
# Poissons Ratio (z) = 0.14227 0.26125
#
# Static dielectric constant tensor:
#      x y z
#    x 1.588060 0.000000 0.000000 
#    y 0.000000 1.623890 0.000000 
#    z 0.000000 0.000000 1.609050 
# 
# From -- ./inp_files/2843.got.cif
#   From: 2010.05.17/outbox.cif.g08.bks.cpg/sg55_2_cif.got.tgz:2843.got - 2010.06.03 13:27:54.
