data_PCOD9425697
_publ_section_title
;
Structure prediction by ZEFSAII (Michael W. Deem and Ramdas Pophale) SiO2 
 PCOD9425697
Probable space group: P B A M
;
_chemical_formula_sum "Si O2"
_cell_formula_units_Z 28
_cell_length_a 18.620548
_cell_length_b 5.176277
_cell_length_c 14.967194
_cell_angle_alpha 90.000000
_cell_angle_beta 90.000000
_cell_angle_gamma 90.000000
_cell_volume 1442.614705
_symmetry_space_group_name_H-M "P B A M"
_symmetry_group_IT_number 55
_symmetry_cell_setting 'orthorhombic'
loop_
_space_group_symop_operation_xyz
x,y,z
-x,-y,z
1/2+x,1/2-y,-z
1/2-x,1/2+y,-z
-x,-y,-z
x,y,-z
1/2-x,1/2+y,z
1/2+x,1/2-y,z
loop_
_atom_site_type_symbol
_atom_site_label
_atom_site_fract_x
_atom_site_fract_y
_atom_site_fract_z
Si Si1 0.500000 0.500000 0.148967
Si Si2 0.865291 0.264559 0.211171
Si Si3 0.146582 0.218701 0.100849
Si Si4 0.701419 0.756901 0.401848
O O1 0.550170 0.695220 0.204069
O O2 0.439331 0.656656 0.096118
O O3 0.846956 0.513899 0.152703
O O4 0.845030 0.294416 0.313690
O O5 0.827154 0.018073 0.163149
O O6 0.175485 0.220808 0.000000
O O7 0.666089 0.785648 0.500000
O O8 0.736709 0.473981 0.397992
#
# Coordination Sequence:
#
# PCOD9425697 Si02
#       4
#     4   8   8   8
#     4   8  21  30  53  84 112 142 175 216 265 314
#     4  10  20  33  53  82 112 135 181 224 266 312
#     4  10  19  32  53  81 112 145 178 209 255 318
#     4  10  21  39  62  80  98 137 188 229 269 318
#
# _framework density 19.409202000000001
#
# number of rings (size 3 to 8) (size 9 to 14) (size 15 to 20)
#    1.714    0.571    0.000    3.857    0.000    1.143 
#    0.000    0.714    0.000   18.857    0.000    0.000 
#    0.000    0.000    0.000    0.000    0.000    0.000 
#
# Total GULP energy -155896.721855 kJ/mol
# GULP energy per Si atom -5567.740066 kJ/mol
# Density = 1.936503 g / cm^3
# Si number density = 19.409202 Si / 1000 Ang^3
#
#
#
# Elastic Constant Matrix: (Units=GPa)
#
#
# Indices 1 2 3 4 5 6 
#
# 1 36.7439 -0.5816 20.3077 0.0000 0.0000 0.0000
# 2 -0.5816 114.2553 42.2583 0.0000 0.0000 0.0000
# 3 20.3077 42.2583 185.0089 0.0000 0.0000 0.0000
# 4 0.0000 0.0000 0.0000 11.6170 0.0000 0.0000
# 5 0.0000 0.0000 0.0000 0.0000 36.6547 0.0000
# 6 0.0000 0.0000 0.0000 0.0000 0.0000 -1.1258
#
#
#
# Elastic Compliance Matrix: (Units=1/GPa)
#
#
# Indices 1 2 3 4 5 6 
#
# 1 0.029193 0.001457 -0.003537 0.000000 0.000000 0.000000
# 2 0.001457 0.009633 -0.002360 0.000000 0.000000 0.000000
# 3 -0.003537 -0.002360 0.006332 0.000000 0.000000 0.000000
# 4 0.000000 0.000000 0.000000 0.086080 0.000000 0.000000
# 5 0.000000 0.000000 0.000000 0.000000 0.027282 0.000000
# 6 0.000000 0.000000 0.000000 0.000000 0.000000 -0.888230
#
#
# Mechanical properties :
#
#
# Convention : Reuss Voigt Hill
#
# Bulk Modulus (GPa) = 27.56518 51.10854 39.33686
# Shear Modulus (GPa) = -7.05482 27.69743 10.32131
#
# Velocity S-wave (km/s) = -1.90858 3.78170 2.30852
# Velocity P-wave (km/s) = 3.06204 6.74223 5.23611
#
# Compressibility (1/GPa) = 0.03627765
#
# Stress axis : x y z
#
# Youngs Moduli (GPa) = 34.25429 103.81349 157.91564
#
# Poissons Ratio (x) = -0.15124 0.55858
# Poissons Ratio (y) = -0.04990 0.37270
# Poissons Ratio (z) = 0.12117 0.24501
#
# Static dielectric constant tensor:
#      x y z
#    x 1.657930 0.000000 0.000000 
#    y 0.000000 1.691280 0.000000 
#    z 0.000000 0.000000 1.677840 
# 
# From -- ./inp_files/11197.got.cif
#   From: 2010.05.17/outbox.cif.g08.bks.cpg/sg55_6_cif.got.tgz:11197.got - 2010.06.03 13:27:54.
