data_PCOD9425225
_publ_section_title
;
Structure prediction by ZEFSAII (Michael W. Deem and Ramdas Pophale) SiO2 
 PCOD9425225
Probable space group: P B A M
;
_chemical_formula_sum "Si O2"
_cell_formula_units_Z 56
_cell_length_a 10.501923
_cell_length_b 19.516542
_cell_length_c 14.146504
_cell_angle_alpha 90.000000
_cell_angle_beta 90.000000
_cell_angle_gamma 90.000000
_cell_volume 2899.484737
_symmetry_space_group_name_H-M "P B A M"
_symmetry_group_IT_number 55
_symmetry_cell_setting 'orthorhombic'
loop_
_space_group_symop_operation_xyz
x,y,z
-x,-y,z
1/2+x,1/2-y,-z
1/2-x,1/2+y,-z
-x,-y,-z
x,y,-z
1/2-x,1/2+y,z
1/2+x,1/2-y,z
loop_
_atom_site_type_symbol
_atom_site_label
_atom_site_fract_x
_atom_site_fract_y
_atom_site_fract_z
Si Si1 0.553559 0.838898 0.103888
Si Si2 0.884813 0.180388 0.893815
Si Si3 0.336274 0.383601 0.388060
Si Si4 0.841504 0.684441 0.250308
Si Si5 0.925661 0.838963 0.266851
Si Si6 0.148857 0.516924 0.106895
Si Si7 0.855728 0.988287 0.740593
O O1 0.609233 0.763079 0.101926
O O2 0.467797 0.841272 0.197483
O O3 0.653185 0.900261 0.107596
O O4 0.486247 0.847245 0.000000
O O5 0.765099 0.167195 0.827846
O O6 0.009543 0.156732 0.837053
O O7 0.877647 0.153595 0.000000
O O8 0.341814 0.380574 0.500000
O O9 0.207381 0.351571 0.344838
O O10 0.455610 0.343248 0.340195
O O11 0.345238 0.461000 0.348292
O O12 0.856184 0.765881 0.269146
O O13 0.845617 0.907831 0.283626
O O14 0.249299 0.491868 0.183183
O O15 0.000000 0.500000 0.127108
O O16 0.175541 0.493231 0.000000
O O17 0.000000 0.000000 0.777713
#
# Coordination Sequence:
#
# PCOD9425225 Si02
#       7
#     8   8   8   8   8   8   8
#     4   9  17  29  49  77 110 149 182 212 263 332
#     4   9  17  29  48  78 114 147 179 218 265 321
#     4  10  22  39  57  78 105 140 185 240 300 348
#     4  10  18  33  55  80 110 143 184 231 279 331
#     4   9  20  34  54  82 108 140 185 232 275 327
#     4  10  20  33  51  78 112 150 186 220 268 329
#     4  10  21  38  58  81 110 149 191 233 280 332
#
# _framework density 19.313776000000001
#
# number of rings (size 3 to 8) (size 9 to 14) (size 15 to 20)
#    0.000    2.429    0.000    2.143    0.000    4.571 
#    0.000    7.143    0.000    3.857    0.000    0.000 
#    0.000    0.000    0.000    0.000    0.000    0.000 
#
# Total GULP energy -312272.223406 kJ/mol
# GULP energy per Si atom -5576.289704 kJ/mol
# Density = 1.926982 g / cm^3
# Si number density = 19.313776 Si / 1000 Ang^3
#
#
#
# Elastic Constant Matrix: (Units=GPa)
#
#
# Indices 1 2 3 4 5 6 
#
# 1 45.3676 4.7281 42.1654 0.0000 0.0000 0.0000
# 2 4.7281 106.2369 28.1214 0.0000 0.0000 0.0000
# 3 42.1654 28.1214 140.1479 0.0000 0.0000 0.0000
# 4 0.0000 0.0000 0.0000 12.5834 0.0000 0.0000
# 5 0.0000 0.0000 0.0000 0.0000 14.6971 0.0000
# 6 0.0000 0.0000 0.0000 0.0000 0.0000 15.0423
#
#
#
# Elastic Compliance Matrix: (Units=1/GPa)
#
#
# Indices 1 2 3 4 5 6 
#
# 1 0.030729 0.001140 -0.009474 0.000000 0.000000 0.000000
# 2 0.001140 0.009983 -0.002346 0.000000 0.000000 0.000000
# 3 -0.009474 -0.002346 0.010456 0.000000 0.000000 0.000000
# 4 0.000000 0.000000 0.000000 0.079470 0.000000 0.000000
# 5 0.000000 0.000000 0.000000 0.000000 0.068040 0.000000
# 6 0.000000 0.000000 0.000000 0.000000 0.000000 0.066479
#
#
# Mechanical properties :
#
#
# Convention : Reuss Voigt Hill
#
# Bulk Modulus (GPa) = 33.54760 49.08692 41.31726
# Shear Modulus (GPa) = 16.86606 22.91375 19.88990
#
# Velocity S-wave (km/s) = 2.95831 3.44814 3.21258
# Velocity P-wave (km/s) = 5.39225 6.42834 5.93295
#
# Compressibility (1/GPa) = 0.02980839
#
# Stress axis : x y z
#
# Youngs Moduli (GPa) = 32.54304 100.16791 95.63474
#
# Poissons Ratio (x) = -0.11421 0.90603
# Poissons Ratio (y) = -0.03711 0.22438
# Poissons Ratio (z) = 0.30831 0.23502
#
# Static dielectric constant tensor:
#      x y z
#    x 1.708650 0.000000 0.000000 
#    y 0.000000 1.730160 0.000000 
#    z 0.000000 0.000000 1.655610 
# 
# From -- ./inp_files/13389.got.cif
#   From: 2010.05.17/outbox.cif.g08.bks.cpg/sg55_7_cif.got.tgz:13389.got - 2010.06.03 13:27:54.
