data_PCOD9425149
_publ_section_title
;
Structure prediction by ZEFSAII (Michael W. Deem and Ramdas Pophale) SiO2 
 PCOD9425149
Probable space group: P B A M
;
_chemical_formula_sum "Si O2"
_cell_formula_units_Z 44
_cell_length_a 18.733016
_cell_length_b 13.353052
_cell_length_c 11.063628
_cell_angle_alpha 90.000000
_cell_angle_beta 90.000000
_cell_angle_gamma 90.000000
_cell_volume 2767.488399
_symmetry_space_group_name_H-M "P B A M"
_symmetry_group_IT_number 55
_symmetry_cell_setting 'orthorhombic'
loop_
_space_group_symop_operation_xyz
x,y,z
-x,-y,z
1/2+x,1/2-y,-z
1/2-x,1/2+y,-z
-x,-y,-z
x,y,-z
1/2-x,1/2+y,z
1/2+x,1/2-y,z
loop_
_atom_site_type_symbol
_atom_site_label
_atom_site_fract_x
_atom_site_fract_y
_atom_site_fract_z
Si Si1 0.519699 0.111683 0.772682
Si Si2 0.373796 0.157756 0.355200
Si Si3 0.726633 0.699884 0.786086
Si Si4 0.281676 0.661251 0.000000
Si Si5 0.393997 0.811973 0.000000
Si Si6 0.738476 0.572433 0.000000
Si Si7 0.839893 0.568830 0.640413
O O1 0.448356 0.158169 0.717117
O O2 0.578409 0.097780 0.667938
O O3 0.500000 0.000000 0.816855
O O4 0.558800 0.166759 0.882443
O O5 0.384764 0.160723 0.500000
O O6 0.326522 0.249431 0.307852
O O7 0.336126 0.049785 0.327832
O O8 0.700227 0.616422 0.881258
O O9 0.790132 0.642505 0.717078
O O10 0.750536 0.787611 0.878576
O O11 0.263941 0.545694 0.000000
O O12 0.363174 0.699631 0.000000
O O13 0.321248 0.883173 0.000000
O O14 0.822863 0.579520 0.500000
#
# Coordination Sequence:
#
# PCOD9425149 Si02
#       7
#     8   8   8   4   4   4   8
#     4  10  19  32  50  78 111 137 165 213 264 312
#     4  10  21  33  52  81 108 137 173 213 260 313
#     4  10  19  33  52  76 106 136 175 214 261 307
#     4  10  20  32  55  75 108 134 175 218 258 306
#     4  10  19  34  52  83 104 140 175 209 266 322
#     4  10  20  34  53  78 104 132 172 224 261 299
#     4  10  18  32  51  75 108 140 170 209 258 310
#
# _framework density 15.898892
#
# number of rings (size 3 to 8) (size 9 to 14) (size 15 to 20)
#    0.000    2.182    3.636    2.455    2.545    3.636 
#    0.000    0.000    0.000    2.182    0.000    1.273 
#    0.000    0.000    0.000    0.000    0.000    0.000 
#
# Total GULP energy -244954.488400 kJ/mol
# GULP energy per Si atom -5567.147464 kJ/mol
# Density = 1.586270 g / cm^3
# Si number density = 15.898892 Si / 1000 Ang^3
#
#
#
# Elastic Constant Matrix: (Units=GPa)
#
#
# Indices 1 2 3 4 5 6 
#
# 1 63.9247 35.5061 26.5040 0.0000 0.0000 0.0000
# 2 35.5061 95.0567 37.0917 0.0000 0.0000 0.0000
# 3 26.5040 37.0917 78.8403 0.0000 0.0000 0.0000
# 4 0.0000 0.0000 0.0000 17.7503 0.0000 0.0000
# 5 0.0000 0.0000 0.0000 0.0000 21.7482 0.0000
# 6 0.0000 0.0000 0.0000 0.0000 0.0000 23.5979
#
#
#
# Elastic Compliance Matrix: (Units=1/GPa)
#
#
# Indices 1 2 3 4 5 6 
#
# 1 0.020757 -0.006162 -0.004079 0.000000 0.000000 0.000000
# 2 -0.006162 0.014715 -0.004851 0.000000 0.000000 0.000000
# 3 -0.004079 -0.004851 0.016338 0.000000 0.000000 0.000000
# 4 0.000000 0.000000 0.000000 0.056337 0.000000 0.000000
# 5 0.000000 0.000000 0.000000 0.000000 0.045981 0.000000
# 6 0.000000 0.000000 0.000000 0.000000 0.000000 0.042377
#
#
# Mechanical properties :
#
#
# Convention : Reuss Voigt Hill
#
# Bulk Modulus (GPa) = 46.24272 48.44725 47.34499
# Shear Modulus (GPa) = 21.37701 21.86728 21.62214
#
# Velocity S-wave (km/s) = 3.67080 3.71266 3.69179
# Velocity P-wave (km/s) = 6.86404 6.99405 6.92935
#
# Compressibility (1/GPa) = 0.02162502
#
# Stress axis : x y z
#
# Youngs Moduli (GPa) = 48.17650 67.95991 61.20861
#
# Poissons Ratio (x) = 0.41874 0.24968
# Poissons Ratio (y) = 0.29684 0.29694
# Poissons Ratio (z) = 0.19652 0.32970
#
# Static dielectric constant tensor:
#      x y z
#    x 1.525110 0.000000 0.000000 
#    y 0.000000 1.528630 0.000000 
#    z 0.000000 0.000000 1.549950 
# 
# From -- ./inp_files/14086.got.cif
#   From: 2010.05.17/outbox.cif.g08.bks.cpg/sg55_8_cif.got.tgz:14086.got - 2010.06.03 13:27:54.
