data_PCOD9425124
_publ_section_title
;
Structure prediction by ZEFSAII (Michael W. Deem and Ramdas Pophale) SiO2 
 PCOD9425124
Probable space group: P B A M
;
_chemical_formula_sum "Si O2"
_cell_formula_units_Z 64
_cell_length_a 25.492957
_cell_length_b 14.633488
_cell_length_c 7.710218
_cell_angle_alpha 90.000000
_cell_angle_beta 90.000000
_cell_angle_gamma 90.000000
_cell_volume 2876.303613
_symmetry_space_group_name_H-M "P B A M"
_symmetry_group_IT_number 55
_symmetry_cell_setting 'orthorhombic'
loop_
_space_group_symop_operation_xyz
x,y,z
-x,-y,z
1/2+x,1/2-y,-z
1/2-x,1/2+y,-z
-x,-y,-z
x,y,-z
1/2-x,1/2+y,z
1/2+x,1/2-y,z
loop_
_atom_site_type_symbol
_atom_site_label
_atom_site_fract_x
_atom_site_fract_y
_atom_site_fract_z
Si Si1 0.669666 0.979617 0.706500
Si Si2 0.301978 0.827295 0.794127
Si Si3 0.093270 0.233491 0.202398
Si Si4 0.803594 0.277080 0.291201
Si Si5 0.983905 0.278280 0.297868
Si Si6 0.056123 0.525197 0.296565
Si Si7 0.944249 0.962312 0.793729
Si Si8 0.602432 0.645787 0.710205
O O1 0.662550 0.967961 0.500000
O O2 0.704949 0.068528 0.731936
O O3 0.688776 0.881239 0.773290
O O4 0.611662 0.003658 0.779233
O O5 0.355727 0.782544 0.720999
O O6 0.252789 0.764052 0.751996
O O7 0.307045 0.833654 0.000000
O O8 0.040400 0.293313 0.214847
O O9 0.075789 0.134897 0.277050
O O10 0.105199 0.217922 0.000000
O O11 0.808041 0.279671 0.500000
O O12 0.848626 0.206672 0.229266
O O13 0.994895 0.262411 0.500000
O O14 0.945595 0.364878 0.291260
O O15 0.951171 0.193872 0.224393
O O16 0.054205 0.494316 0.500000
O O17 0.000000 0.500000 0.217677
O O18 0.901195 0.040992 0.764190
O O19 0.951765 0.950139 0.000000
O O20 0.000000 0.000000 0.721578
O O21 0.601613 0.649739 0.500000
#
# Coordination Sequence:
#
# PCOD9425124 Si02
#       8
#     8   8   8   8   8   8   8   8
#     4  10  20  39  65  90 118 153 195 243 294 351
#     4  11  25  42  60  86 121 158 199 247 295 349
#     4  10  22  39  55  79 118 158 197 242 290 346
#     4  10  22  42  65  88 117 153 198 250 298 348
#     4  10  18  31  55  86 115 145 186 236 291 349
#     4   9  16  28  52  86 118 149 185 228 286 351
#     4  10  20  35  56  81 115 162 202 233 285 353
#     4  10  20  35  57  87 117 144 186 245 296 341
#
# _framework density 22.250782000000001
#
# number of rings (size 3 to 8) (size 9 to 14) (size 15 to 20)
#    0.000    2.000    2.500    1.125    0.000    4.750 
#    0.000    3.125    0.000    2.250    0.000    0.000 
#    0.000    0.000    0.000    0.000    0.000    0.000 
#
# Total GULP energy -357279.901302 kJ/mol
# GULP energy per Si atom -5582.498458 kJ/mol
# Density = 2.220014 g / cm^3
# Si number density = 22.250782 Si / 1000 Ang^3
#
#
#
# Elastic Constant Matrix: (Units=GPa)
#
#
# Indices 1 2 3 4 5 6 
#
# 1 117.2530 52.2766 -3.1342 0.0000 0.0000 0.0000
# 2 52.2766 113.0870 4.4303 0.0000 0.0000 0.0000
# 3 -3.1342 4.4303 33.8717 0.0000 0.0000 0.0000
# 4 0.0000 0.0000 0.0000 33.7301 0.0000 0.0000
# 5 0.0000 0.0000 0.0000 0.0000-2278.6672 0.0000
# 6 0.0000 0.0000 0.0000 0.0000 0.0000 31.5411
#
#
#
# Elastic Compliance Matrix: (Units=1/GPa)
#
#
# Indices 1 2 3 4 5 6 
#
# 1 0.010835 -0.005074 0.001666 0.000000 0.000000 0.000000
# 2 -0.005074 0.011264 -0.001943 0.000000 0.000000 0.000000
# 3 0.001666 -0.001943 0.029931 0.000000 0.000000 0.000000
# 4 0.000000 0.000000 0.000000 0.029647 0.000000 0.000000
# 5 0.000000 0.000000 0.000000 0.000000 -0.000439 0.000000
# 6 0.000000 0.000000 0.000000 0.000000 0.000000 0.031705
#
#
# Mechanical properties :
#
#
# Convention : Reuss Voigt Hill
#
# Bulk Modulus (GPa) = 24.19558 41.26191 32.72875
# Shear Modulus (GPa) = 36.38421 -428.63659 -196.12619
#
# Velocity S-wave (km/s) = 4.04813 -13.89450 -9.39866
# Velocity P-wave (km/s) = 5.72254 15.45397 10.15081
#
# Compressibility (1/GPa) = 0.04132986
#
# Stress axis : x y z
#
# Youngs Moduli (GPa) = 92.29024 88.77464 33.40968
#
# Poissons Ratio (x) = 0.45045 -0.05567
# Poissons Ratio (y) = 0.46829 0.06491
# Poissons Ratio (z) = -0.15378 0.17248
#
# Static dielectric constant tensor:
#      x y z
#    x 1.822880 0.000000 0.000000 
#    y 0.000000 1.840610 0.000000 
#    z 0.000000 0.000000 1.835190 
# 
# From -- ./inp_files/9807.got.cif
#   From: 2010.05.17/outbox.cif.g08.bks.cpg/sg55_5_cif.got.tgz:9807.got - 2010.06.03 13:27:54.
