data_PCOD9425509
_publ_section_title
;
Structure prediction by ZEFSAII (Michael W. Deem and Ramdas Pophale) SiO2 
 PCOD9425509
Probable space group: P B A M
;
_chemical_formula_sum "Si O2"
_cell_formula_units_Z 56
_cell_length_a 14.822426
_cell_length_b 19.157223
_cell_length_c 7.460182
_cell_angle_alpha 90.000000
_cell_angle_beta 90.000000
_cell_angle_gamma 90.000000
_cell_volume 2118.367321
_symmetry_space_group_name_H-M "P B A M"
_symmetry_group_IT_number 55
_symmetry_cell_setting 'orthorhombic'
loop_
_space_group_symop_operation_xyz
x,y,z
-x,-y,z
1/2+x,1/2-y,-z
1/2-x,1/2+y,-z
-x,-y,-z
x,y,-z
1/2-x,1/2+y,z
1/2+x,1/2-y,z
loop_
_atom_site_type_symbol
_atom_site_label
_atom_site_fract_x
_atom_site_fract_y
_atom_site_fract_z
Si Si1 0.778492 0.418202 0.703019
Si Si2 0.540521 0.850673 0.207546
Si Si3 0.604079 0.489002 0.281800
Si Si4 0.060675 0.211698 0.296264
Si Si5 0.893017 0.141431 0.718732
Si Si6 0.882665 0.557014 0.209024
Si Si7 0.281905 0.797405 0.282366
O O1 0.765622 0.394141 0.500000
O O2 0.853866 0.366751 0.780592
O O3 0.678373 0.432953 0.780978
O O4 0.829131 0.493656 0.702248
O O5 0.501255 0.782047 0.301922
O O6 0.482370 0.918152 0.271828
O O7 0.516172 0.841018 0.000000
O O8 0.500000 0.500000 0.226231
O O9 0.601790 0.482398 0.500000
O O10 0.642221 0.565362 0.233934
O O11 0.078364 0.189028 0.500000
O O12 0.993339 0.155915 0.213211
O O13 0.154758 0.235552 0.214713
O O14 0.897499 0.143453 0.500000
O O15 0.820703 0.198234 0.778276
O O16 0.828041 0.629448 0.230298
O O17 0.889292 0.536926 0.000000
O O18 0.283232 0.794438 0.500000
#
# Coordination Sequence:
#
# PCOD9425509 Si02
#       7
#     8   8   8   8   8   8   8
#     4  11  20  32  53  80 106 137 173 216 265 315
#     4  10  21  35  50  74 111 143 170 213 263 318
#     4   9  18  33  53  80 108 135 174 223 270 315
#     4   9  18  32  52  78 104 136 177 221 266 314
#     4   9  16  31  53  77 105 134 171 221 267 310
#     4  10  19  31  50  76 104 139 176 210 259 319
#     4   9  16  30  51  75 103 135 175 220 265 316
#
# _framework density 26.435455000000001
#
# number of rings (size 3 to 8) (size 9 to 14) (size 15 to 20)
#    0.000    2.429    1.429    1.714    0.000    3.429 
#    2.571    0.714    0.000    1.714    0.000    0.000 
#    0.000    0.000    0.000    0.000    0.000    0.000 
#
# Total GULP energy -312965.939376 kJ/mol
# GULP energy per Si atom -5588.677489 kJ/mol
# Density = 2.637529 g / cm^3
# Si number density = 26.435455 Si / 1000 Ang^3
#
#
#
# Elastic Constant Matrix: (Units=GPa)
#
#
# Indices 1 2 3 4 5 6 
#
# 1 184.2118 20.9646 3.6617 0.0000 0.0000 0.0000
# 2 20.9646 93.6048 -1.3929 0.0000 0.0000 0.0000
# 3 3.6617 -1.3929 88.8442 0.0000 0.0000 0.0000
# 4 0.0000 0.0000 0.0000 3.0365 0.0000 0.0000
# 5 0.0000 0.0000 0.0000 0.0000 182.7970 0.0000
# 6 0.0000 0.0000 0.0000 0.0000 0.0000 50.7814
#
#
#
# Elastic Compliance Matrix: (Units=1/GPa)
#
#
# Indices 1 2 3 4 5 6 
#
# 1 0.005576 -0.001253 -0.000249 0.000000 0.000000 0.000000
# 2 -0.001253 0.010967 0.000224 0.000000 0.000000 0.000000
# 3 -0.000249 0.000224 0.011269 0.000000 0.000000 0.000000
# 4 0.000000 0.000000 0.000000 0.329322 0.000000 0.000000
# 5 0.000000 0.000000 0.000000 0.000000 0.005471 0.000000
# 6 0.000000 0.000000 0.000000 0.000000 0.000000 0.019692
#
#
# Mechanical properties :
#
#
# Convention : Reuss Voigt Hill
#
# Bulk Modulus (GPa) = 39.59511 45.90307 42.74909
# Shear Modulus (GPa) = 12.71381 70.21813 41.46597
#
# Velocity S-wave (km/s) = 2.19541 5.15944 3.96482
# Velocity P-wave (km/s) = 4.63001 7.27289 6.09639
#
# Compressibility (1/GPa) = 0.02525564
#
# Stress axis : x y z
#
# Youngs Moduli (GPa) = 179.33864 91.18197 88.73548
#
# Poissons Ratio (x) = 0.11421 0.02214
# Poissons Ratio (y) = 0.22463 -0.01984
# Poissons Ratio (z) = 0.04474 -0.02038
#
# Static dielectric constant tensor:
#      x y z
#    x 2.097500 0.000000 0.000000 
#    y 0.000000 2.094090 0.000000 
#    z 0.000000 0.000000 2.018880 
# 
# From -- ./inp_files/6050.got.cif
#   From: 2010.05.17/outbox.cif.g08.bks.cpg/sg55_4_cif.got.tgz:6050.got - 2010.06.03 13:27:54.
