data_PCOD9425525
_publ_section_title
;
Structure prediction by ZEFSAII (Michael W. Deem and Ramdas Pophale) SiO2 
 PCOD9425525
Probable space group: P B A M
;
_chemical_formula_sum "Si O2"
_cell_formula_units_Z 64
_cell_length_a 21.197878
_cell_length_b 19.955777
_cell_length_c 7.788941
_cell_angle_alpha 90.000000
_cell_angle_beta 90.000000
_cell_angle_gamma 90.000000
_cell_volume 3294.878805
_symmetry_space_group_name_H-M "P B A M"
_symmetry_group_IT_number 55
_symmetry_cell_setting 'orthorhombic'
loop_
_space_group_symop_operation_xyz
x,y,z
-x,-y,z
1/2+x,1/2-y,-z
1/2-x,1/2+y,-z
-x,-y,-z
x,y,-z
1/2-x,1/2+y,z
1/2+x,1/2-y,z
loop_
_atom_site_type_symbol
_atom_site_label
_atom_site_fract_x
_atom_site_fract_y
_atom_site_fract_z
Si Si1 0.762315 0.330564 0.700223
Si Si2 0.608695 0.178061 0.203999
Si Si3 0.683093 0.547800 0.300279
Si Si4 0.435833 0.535271 0.292094
Si Si5 0.744930 0.680319 0.709020
Si Si6 0.693688 0.970793 0.801575
Si Si7 0.881888 0.826223 0.795832
Si Si8 0.563348 0.036984 0.789360
O O1 0.778871 0.332759 0.500000
O O2 0.773311 0.255122 0.766522
O O3 0.798576 0.391022 0.788951
O O4 0.686875 0.341665 0.717339
O O5 0.683248 0.166364 0.234730
O O6 0.595867 0.253295 0.270061
O O7 0.570833 0.113866 0.270731
O O8 0.597673 0.179578 0.000000
O O9 0.667555 0.558814 0.500000
O O10 0.624861 0.506212 0.225811
O O11 0.700285 0.620722 0.227516
O O12 0.746769 0.504215 0.290835
O O13 0.500000 0.500000 0.234736
O O14 0.434839 0.534614 0.500000
O O15 0.427857 0.612297 0.239333
O O16 0.745295 0.680593 0.500000
O O17 0.626687 0.997516 0.736817
O O18 0.699128 0.991416 0.000000
O O19 0.871877 0.820785 0.000000
O O20 0.500000 0.000000 0.732263
O O21 0.562530 0.037143 0.000000
#
# Coordination Sequence:
#
# PCOD9425525 Si02
#       8
#     8   8   8   8   8   8   8   8
#     4  10  19  32  50  74 105 136 168 210 262 316
#     4   9  17  31  51  75 101 132 170 213 257 304
#     4  10  19  33  53  75 101 132 170 215 260 307
#     4  10  21  36  53  74 103 141 178 210 255 316
#     4   9  18  31  50  75 101 133 170 211 263 312
#     4  11  20  31  52  79 103 132 173 215 256 302
#     4  10  19  31  51  77 103 130 169 217 261 305
#     4   9  18  33  52  75 105 140 174 209 253 309
#
# _framework density 19.424085000000002
#
# number of rings (size 3 to 8) (size 9 to 14) (size 15 to 20)
#    0.000    2.250    2.500    1.125    0.000    1.250 
#    0.000    1.250    0.000    3.375    0.000    0.000 
#    0.000    0.000    0.000    0.000    0.000    0.000 
#
# Total GULP energy -357047.514841 kJ/mol
# GULP energy per Si atom -5578.867419 kJ/mol
# Density = 1.937987 g / cm^3
# Si number density = 19.424085 Si / 1000 Ang^3
#
#
#
# Elastic Constant Matrix: (Units=GPa)
#
#
# Indices 1 2 3 4 5 6 
#
# 1 105.9827 79.4990 -3.5764 0.0000 0.0000 0.0000
# 2 79.4990 177.8009 -2.0734 0.0000 0.0000 0.0000
# 3 -3.5764 -2.0734 24.7065 0.0000 0.0000 0.0000
# 4 0.0000 0.0000 0.0000 -5.1923 0.0000 0.0000
# 5 0.0000 0.0000 0.0000 0.0000 13.4306 0.0000
# 6 0.0000 0.0000 0.0000 0.0000 0.0000 31.0721
#
#
#
# Elastic Compliance Matrix: (Units=1/GPa)
#
#
# Indices 1 2 3 4 5 6 
#
# 1 0.014255 -0.006356 0.001530 0.000000 0.000000 0.000000
# 2 -0.006356 0.008464 -0.000210 0.000000 0.000000 0.000000
# 3 0.001530 -0.000210 0.040679 0.000000 0.000000 0.000000
# 4 0.000000 0.000000 0.000000 -0.192591 0.000000 0.000000
# 5 0.000000 0.000000 0.000000 0.000000 0.074457 0.000000
# 6 0.000000 0.000000 0.000000 0.000000 0.000000 0.032183
#
#
# Mechanical properties :
#
#
# Convention : Reuss Voigt Hill
#
# Bulk Modulus (GPa) = 18.75244 50.68763 34.72003
# Shear Modulus (GPa) = 944.76779 23.50480 484.13629
#
# Velocity S-wave (km/s) = 22.07817 3.48240 15.80463
# Velocity P-wave (km/s) = 25.68273 6.50549 18.73398
#
# Compressibility (1/GPa) = 0.05332640
#
# Stress axis : x y z
#
# Youngs Moduli (GPa) = 70.15248 118.15259 24.58268
#
# Poissons Ratio (x) = 0.75095 -0.03761
# Poissons Ratio (y) = 0.44587 0.00516
# Poissons Ratio (z) = -0.10734 0.02478
#
# Static dielectric constant tensor:
#      x y z
#    x 1.638150 0.000000 0.000000 
#    y 0.000000 1.716940 0.000000 
#    z 0.000000 0.000000 1.718900 
# 
# From -- ./inp_files/9866.got.cif
#   From: 2010.05.17/outbox.cif.g08.bks.cpg/sg55_5_cif.got.tgz:9866.got - 2010.06.03 13:27:54.
