data_PCOD9425707
_publ_section_title
;
Structure prediction by ZEFSAII (Michael W. Deem and Ramdas Pophale) SiO2 
 PCOD9425707
Probable space group: P B A M
;
_chemical_formula_sum "Si O2"
_cell_formula_units_Z 56
_cell_length_a 14.924565
_cell_length_b 25.038914
_cell_length_c 7.478765
_cell_angle_alpha 90.000000
_cell_angle_beta 90.000000
_cell_angle_gamma 90.000000
_cell_volume 2794.776335
_symmetry_space_group_name_H-M "P B A M"
_symmetry_group_IT_number 55
_symmetry_cell_setting 'orthorhombic'
loop_
_space_group_symop_operation_xyz
x,y,z
-x,-y,z
1/2+x,1/2-y,-z
1/2-x,1/2+y,-z
-x,-y,-z
x,y,-z
1/2-x,1/2+y,z
1/2+x,1/2-y,z
loop_
_atom_site_type_symbol
_atom_site_label
_atom_site_fract_x
_atom_site_fract_y
_atom_site_fract_z
Si Si1 0.899263 0.994297 0.207595
Si Si2 0.281136 0.601124 0.794573
Si Si3 0.636656 0.819428 0.220575
Si Si4 0.054182 0.289825 0.206060
Si Si5 0.626980 0.611485 0.713617
Si Si6 0.745799 0.714510 0.788831
Si Si7 0.051467 0.168770 0.715719
O O1 0.854690 0.052492 0.215762
O O2 0.833936 0.949250 0.287651
O O3 0.912287 0.978605 0.000000
O O4 0.000000 0.000000 0.286273
O O5 0.192337 0.628751 0.719367
O O6 0.354642 0.648269 0.788732
O O7 0.260226 0.586906 0.000000
O O8 0.533661 0.818481 0.281846
O O9 0.688812 0.765297 0.279657
O O10 0.636259 0.818639 0.000000
O O11 0.153788 0.292310 0.287287
O O12 0.029975 0.227201 0.213330
O O13 0.061974 0.307609 0.000000
O O14 0.627383 0.608389 0.500000
O O15 0.692035 0.659562 0.766501
O O16 0.527133 0.628706 0.771314
O O17 0.756837 0.725024 0.000000
O O18 0.055264 0.170508 0.500000
#
# Coordination Sequence:
#
# PCOD9425707 Si02
#       7
#     8   8   8   8   8   8   8
#     4  10  20  33  54  78 101 133 173 217 258 306
#     4  10  19  34  53  76 104 135 171 208 255 306
#     4   9  17  30  52  78 102 129 164 209 254 301
#     4  10  19  33  52  75 103 136 169 205 251 303
#     4  11  23  35  49  73 109 142 171 209 255 306
#     4  10  19  32  54  77 100 134 172 209 251 301
#     4  11  21  30  46  75 107 138 167 204 248 300
#
# _framework density 20.037382000000001
#
# number of rings (size 3 to 8) (size 9 to 14) (size 15 to 20)
#    0.000    1.857    4.286    0.857    0.000    2.571 
#    0.000    0.714    0.000    0.857    0.000    6.000 
#    0.000    0.000    0.000    0.000    0.000    0.000 
#
# Total GULP energy -312500.295871 kJ/mol
# GULP energy per Si atom -5580.362426 kJ/mol
# Density = 1.999178 g / cm^3
# Si number density = 20.037382 Si / 1000 Ang^3
#
#
#
# Elastic Constant Matrix: (Units=GPa)
#
#
# Indices 1 2 3 4 5 6 
#
# 1 87.3032 4.7240 8.1783 0.0000 0.0000 0.0000
# 2 4.7240 58.6269 -8.4917 0.0000 0.0000 0.0000
# 3 8.1783 -8.4917 62.6090 0.0000 0.0000 0.0000
# 4 0.0000 0.0000 0.0000 70.3032 0.0000 0.0000
# 5 0.0000 0.0000 0.0000 0.0000 -14.2409 0.0000
# 6 0.0000 0.0000 0.0000 0.0000 0.0000 36.1877
#
#
#
# Elastic Compliance Matrix: (Units=1/GPa)
#
#
# Indices 1 2 3 4 5 6 
#
# 1 0.011676 -0.001185 -0.001686 0.000000 0.000000 0.000000
# 2 -0.001185 0.017519 0.002531 0.000000 0.000000 0.000000
# 3 -0.001686 0.002531 0.016536 0.000000 0.000000 0.000000
# 4 0.000000 0.000000 0.000000 0.014224 0.000000 0.000000
# 5 0.000000 0.000000 0.000000 0.000000 -0.070220 0.000000
# 6 0.000000 0.000000 0.000000 0.000000 0.000000 0.027634
#
#
# Mechanical properties :
#
#
# Convention : Reuss Voigt Hill
#
# Bulk Modulus (GPa) = 22.19708 24.15114 23.17411
# Shear Modulus (GPa) = 151.21270 32.05856 91.63563
#
# Velocity S-wave (km/s) = 8.69650 4.00426 6.76991
# Velocity P-wave (km/s) = 10.58020 5.78429 8.52639
#
# Compressibility (1/GPa) = 0.04505098
#
# Stress axis : x y z
#
# Youngs Moduli (GPa) = 85.64292 57.08057 60.47539
#
# Poissons Ratio (x) = 0.06764 0.10196
# Poissons Ratio (y) = 0.10149 -0.15306
# Poissons Ratio (z) = 0.14439 -0.14447
#
# Static dielectric constant tensor:
#      x y z
#    x 1.734930 0.000000 0.000000 
#    y 0.000000 1.697070 0.000000 
#    z 0.000000 0.000000 1.794780 
# 
# From -- ./inp_files/6133.got.cif
#   From: 2010.05.17/outbox.cif.g08.bks.cpg/sg55_4_cif.got.tgz:6133.got - 2010.06.03 13:27:54.
