data_PCOD9425247
_publ_section_title
;
Structure prediction by ZEFSAII (Michael W. Deem and Ramdas Pophale) SiO2 
 PCOD9425247
Probable space group: P B A M
;
_chemical_formula_sum "Si O2"
_cell_formula_units_Z 64
_cell_length_a 17.126733
_cell_length_b 12.633429
_cell_length_c 15.615764
_cell_angle_alpha 90.000000
_cell_angle_beta 90.000000
_cell_angle_gamma 90.000000
_cell_volume 3378.772946
_symmetry_space_group_name_H-M "P B A M"
_symmetry_group_IT_number 55
_symmetry_cell_setting 'orthorhombic'
loop_
_space_group_symop_operation_xyz
x,y,z
-x,-y,z
1/2+x,1/2-y,-z
1/2-x,1/2+y,-z
-x,-y,-z
x,y,-z
1/2-x,1/2+y,z
1/2+x,1/2-y,z
loop_
_atom_site_type_symbol
_atom_site_label
_atom_site_fract_x
_atom_site_fract_y
_atom_site_fract_z
Si Si1 0.695764 0.368079 0.903743
Si Si2 0.811182 0.758235 0.596012
Si Si3 0.325325 0.045251 0.205983
Si Si4 0.375458 0.808972 0.776854
Si Si5 0.086131 0.961343 0.833817
Si Si6 0.058379 0.736560 0.764049
Si Si7 0.638071 0.698011 0.594703
Si Si8 0.176299 0.022593 0.667690
O O1 0.780952 0.405657 0.875272
O O2 0.666833 0.279673 0.835570
O O3 0.644374 0.475340 0.895125
O O4 0.691571 0.327012 0.000000
O O5 0.829524 0.718233 0.500000
O O6 0.843492 0.697169 0.678990
O O7 0.717030 0.766429 0.602484
O O8 0.841417 0.876400 0.610823
O O9 0.392910 0.128709 0.226877
O O10 0.356993 0.927265 0.191732
O O11 0.257502 0.036374 0.279510
O O12 0.467187 0.783245 0.778105
O O13 0.088212 0.833942 0.824394
O O14 0.111134 0.006115 0.740692
O O15 0.000000 0.000000 0.854656
O O16 0.076707 0.775427 0.667824
O O17 0.605157 0.708575 0.500000
O O18 0.672991 0.581627 0.611036
#
# Coordination Sequence:
#
# PCOD9425247 Si02
#       8
#     8   8   8   8   8   8   8   8
#     4  11  25  43  70  97 120 159 213 267 320 382
#     4  11  20  34  59  88 122 167 215 262 309 367
#     4  11  23  41  65  90 126 173 211 254 317 387
#     4  12  23  43  64  93 133 165 210 261 319 383
#     4  10  19  38  63  92 122 157 200 263 318 377
#     4  11  22  40  64  91 129 174 207 258 326 382
#     4  10  20  33  55  86 123 166 218 266 311 369
#     4  10  18  33  58  85 118 159 214 260 308 367
#
# _framework density 18.941789
#
# number of rings (size 3 to 8) (size 9 to 14) (size 15 to 20)
#    0.000    1.250    6.250    0.750    3.500    1.250 
#    0.000    1.250    0.000    7.125    0.000    0.000 
#    0.000    0.000    0.000    0.000    0.000    0.000 
#
# Total GULP energy -356946.611726 kJ/mol
# GULP energy per Si atom -5577.290808 kJ/mol
# Density = 1.889868 g / cm^3
# Si number density = 18.941789 Si / 1000 Ang^3
#
#
#
# Elastic Constant Matrix: (Units=GPa)
#
#
# Indices 1 2 3 4 5 6 
#
# 1 47.5133 20.0939 21.3987 0.0000 0.0000 0.0000
# 2 20.0939 108.8487 25.2800 0.0000 0.0000 0.0000
# 3 21.3987 25.2800 83.9008 0.0000 0.0000 0.0000
# 4 0.0000 0.0000 0.0000 5.5960 0.0000 0.0000
# 5 0.0000 0.0000 0.0000 0.0000 4.5672 0.0000
# 6 0.0000 0.0000 0.0000 0.0000 0.0000 26.7491
#
#
#
# Elastic Compliance Matrix: (Units=1/GPa)
#
#
# Indices 1 2 3 4 5 6 
#
# 1 0.024866 -0.003352 -0.005332 0.000000 0.000000 0.000000
# 2 -0.003352 0.010330 -0.002258 0.000000 0.000000 0.000000
# 3 -0.005332 -0.002258 0.013959 0.000000 0.000000 0.000000
# 4 0.000000 0.000000 0.000000 0.178699 0.000000 0.000000
# 5 0.000000 0.000000 0.000000 0.000000 0.218952 0.000000
# 6 0.000000 0.000000 0.000000 0.000000 0.000000 0.037384
#
#
# Mechanical properties :
#
#
# Convention : Reuss Voigt Hill
#
# Bulk Modulus (GPa) = 36.66804 41.53420 39.10112
# Shear Modulus (GPa) = 9.70566 18.94848 14.32707
#
# Velocity S-wave (km/s) = 2.26607 3.16627 2.75321
# Velocity P-wave (km/s) = 5.12319 5.94490 5.54928
#
# Compressibility (1/GPa) = 0.02727171
#
# Stress axis : x y z
#
# Youngs Moduli (GPa) = 40.21612 96.80365 71.63841
#
# Poissons Ratio (x) = 0.32448 0.38197
# Poissons Ratio (y) = 0.13480 0.16174
# Poissons Ratio (z) = 0.21443 0.21855
#
# Static dielectric constant tensor:
#      x y z
#    x 1.658620 0.000000 0.000000 
#    y 0.000000 1.674640 0.000000 
#    z 0.000000 0.000000 1.670460 
# 
# From -- ./inp_files/19498.got.cif
#   From: 2010.05.17/outbox.cif.g08.bks.cpg/sg55_10_cif.got.tgz:19498.got - 2010.06.03 13:27:54.
