data_PCOD9425800
_publ_section_title
;
Structure prediction by ZEFSAII (Michael W. Deem and Ramdas Pophale) SiO2 
 PCOD9425800
Probable space group: P B A M
;
_chemical_formula_sum "Si O2"
_cell_formula_units_Z 64
_cell_length_a 19.935560
_cell_length_b 21.085871
_cell_length_c 8.440197
_cell_angle_alpha 90.000000
_cell_angle_beta 90.000000
_cell_angle_gamma 90.000000
_cell_volume 3547.909787
_symmetry_space_group_name_H-M "P B A M"
_symmetry_group_IT_number 55
_symmetry_cell_setting 'orthorhombic'
loop_
_space_group_symop_operation_xyz
x,y,z
-x,-y,z
1/2+x,1/2-y,-z
1/2-x,1/2+y,-z
-x,-y,-z
x,y,-z
1/2-x,1/2+y,z
1/2+x,1/2-y,z
loop_
_atom_site_type_symbol
_atom_site_label
_atom_site_fract_x
_atom_site_fract_y
_atom_site_fract_z
Si Si1 0.037851 0.813882 0.691153
Si Si2 0.674109 0.136511 0.809151
Si Si3 0.317079 0.510943 0.308820
Si Si4 0.320173 0.362271 0.309496
Si Si5 0.965831 0.688677 0.811727
Si Si6 0.541949 0.438156 0.306627
Si Si7 0.037914 0.564205 0.688127
Si Si8 0.328464 0.010810 0.811411
O O1 0.039647 0.816597 0.500000
O O2 0.114719 0.823611 0.746438
O O3 0.003206 0.748935 0.740277
O O4 0.993797 0.873976 0.746861
O O5 0.747546 0.157863 0.753912
O O6 0.610613 0.177345 0.753087
O O7 0.664445 0.062949 0.757402
O O8 0.673704 0.136034 0.000000
O O9 0.311046 0.514045 0.500000
O O10 0.329802 0.436787 0.267830
O O11 0.381084 0.551928 0.258524
O O12 0.246937 0.530222 0.232311
O O13 0.317849 0.358991 0.500000
O O14 0.006391 0.624913 0.771496
O O15 0.963133 0.696624 0.000000
O O16 0.500000 0.500000 0.257000
O O17 0.541134 0.437966 0.500000
O O18 0.028782 0.571068 0.500000
O O19 0.115464 0.553101 0.728895
O O20 0.000000 0.500000 0.740818
O O21 0.338312 0.012798 0.000000
#
# Coordination Sequence:
#
# PCOD9425800 Si02
#       8
#     8   8   8   8   8   8   8   8
#     4  10  20  35  55  83 113 144 185 231 274 324
#     4   9  19  34  53  76 105 142 184 222 264 327
#     4   9  16  29  52  82 110 141 184 230 273 322
#     4   9  17  30  53  81 108 137 178 229 274 320
#     4  11  23  39  56  78 111 150 184 221 272 330
#     4   9  15  29  55  82 109 142 181 226 277 322
#     4  11  22  36  58  85 108 134 176 228 274 322
#     4  10  19  33  53  79 112 146 179 222 275 329
#
# _framework density 18.038789999999999
#
# number of rings (size 3 to 8) (size 9 to 14) (size 15 to 20)
#    0.000    2.250    2.500    1.125    0.000    2.500 
#    0.000    1.875    0.000    5.250    0.000    0.000 
#    0.000    0.000    0.000    0.000    0.000    0.000 
#
# Total GULP energy -357064.883777 kJ/mol
# GULP energy per Si atom -5579.138809 kJ/mol
# Density = 1.799773 g / cm^3
# Si number density = 18.038790 Si / 1000 Ang^3
#
#
#
# Elastic Constant Matrix: (Units=GPa)
#
#
# Indices 1 2 3 4 5 6 
#
# 1 161.0107 61.1888 8.3733 0.0000 0.0000 0.0000
# 2 61.1888 85.4403 4.1094 0.0000 0.0000 0.0000
# 3 8.3733 4.1094 3.8684 0.0000 0.0000 0.0000
# 4 0.0000 0.0000 0.0000 13.7877 0.0000 0.0000
# 5 0.0000 0.0000 0.0000 0.0000 -75.9035 0.0000
# 6 0.0000 0.0000 0.0000 0.0000 0.0000 26.9265
#
#
#
# Elastic Compliance Matrix: (Units=1/GPa)
#
#
# Indices 1 2 3 4 5 6 
#
# 1 0.009161 -0.005909 -0.013553 0.000000 0.000000 0.000000
# 2 -0.005909 0.016146 -0.004361 0.000000 0.000000 0.000000
# 3 -0.013553 -0.004361 0.292476 0.000000 0.000000 0.000000
# 4 0.000000 0.000000 0.000000 0.072528 0.000000 0.000000
# 5 0.000000 0.000000 0.000000 0.000000 -0.013175 0.000000
# 6 0.000000 0.000000 0.000000 0.000000 0.000000 0.037138
#
#
# Mechanical properties :
#
#
# Convention : Reuss Voigt Hill
#
# Bulk Modulus (GPa) = 3.70183 44.18469 23.94326
# Shear Modulus (GPa) = 9.05852 4.73867 6.89860
#
# Velocity S-wave (km/s) = 2.24334 1.62254 1.95771
# Velocity P-wave (km/s) = 2.96087 5.29694 4.29094
#
# Compressibility (1/GPa) = 0.27013685
#
# Stress axis : x y z
#
# Youngs Moduli (GPa) = 109.15652 61.93629 3.41908
#
# Poissons Ratio (x) = 0.36598 0.04634
# Poissons Ratio (y) = 0.64501 0.01491
# Poissons Ratio (z) = 1.47936 0.27013
#
# Static dielectric constant tensor:
#      x y z
#    x 1.630520 0.000000 0.000000 
#    y 0.000000 1.589410 0.000000 
#    z 0.000000 0.000000 1.616640 
# 
# From -- ./inp_files/8995.got.cif
#   From: 2010.05.17/outbox.cif.g08.bks.cpg/sg55_5_cif.got.tgz:8995.got - 2010.06.03 13:27:54.
