data_PCOD9425686
_publ_section_title
;
Structure prediction by ZEFSAII (Michael W. Deem and Ramdas Pophale) SiO2 
 PCOD9425686
Probable space group: P B A M
;
_chemical_formula_sum "Si O2"
_cell_formula_units_Z 48
_cell_length_a 19.244022
_cell_length_b 12.728804
_cell_length_c 8.260384
_cell_angle_alpha 90.000000
_cell_angle_beta 90.000000
_cell_angle_gamma 90.000000
_cell_volume 2023.409016
_symmetry_space_group_name_H-M "P B A M"
_symmetry_group_IT_number 55
_symmetry_cell_setting 'orthorhombic'
loop_
_space_group_symop_operation_xyz
x,y,z
-x,-y,z
1/2+x,1/2-y,-z
1/2-x,1/2+y,-z
-x,-y,-z
x,y,-z
1/2-x,1/2+y,z
1/2+x,1/2-y,z
loop_
_atom_site_type_symbol
_atom_site_label
_atom_site_fract_x
_atom_site_fract_y
_atom_site_fract_z
Si Si1 0.532554 0.888856 0.304916
Si Si2 0.938826 0.073487 0.316191
Si Si3 0.764515 0.582732 0.690635
Si Si4 0.849372 0.249402 0.184115
Si Si5 0.166878 0.070970 0.182501
Si Si6 0.891282 0.716315 0.306376
O O1 0.535840 0.893479 0.500000
O O2 0.608999 0.851234 0.249060
O O3 0.470903 0.805746 0.262714
O O4 0.500000 0.000000 0.248328
O O5 0.954085 0.110451 0.500000
O O6 0.146638 0.189756 0.213670
O O7 0.911726 0.164542 0.202943
O O8 0.875364 0.992958 0.316554
O O9 0.759315 0.562467 0.500000
O O10 0.713967 0.684749 0.729510
O O11 0.742208 0.479090 0.788952
O O12 0.843132 0.615917 0.725305
O O13 0.827666 0.265202 0.000000
O O14 0.145951 0.042779 0.000000
O O15 0.000000 0.000000 0.254959
O O16 0.888310 0.737461 0.500000
#
# Coordination Sequence:
#
# PCOD9425686 Si02
#       6
#     8   8   8   8   8   8
#     4  10  22  41  63  87 117 156 202 249 299 359
#     4  10  19  32  53  79 108 144 186 231 278 334
#     4  10  21  39  62  86 116 158 207 254 298 352
#     4  11  22  36  56  84 117 151 190 239 299 359
#     4  11  22  35  55  84 117 150 186 236 297 354
#     4  10  22  40  62  87 116 155 203 248 294 355
#
# _framework density 23.722342000000001
#
# number of rings (size 3 to 8) (size 9 to 14) (size 15 to 20)
#    0.000    1.667    0.000    7.000    0.000    9.000 
#    0.000    3.333    0.000    0.000    0.000    0.000 
#    0.000    0.000    0.000    0.000    0.000    0.000 
#
# Total GULP energy -267803.052095 kJ/mol
# GULP energy per Si atom -5579.230252 kJ/mol
# Density = 2.366835 g / cm^3
# Si number density = 23.722342 Si / 1000 Ang^3
#
#
#
# Elastic Constant Matrix: (Units=GPa)
#
#
# Indices 1 2 3 4 5 6 
#
# 1 85.7695 -0.5864 4.8590 0.0000 0.0000 0.0000
# 2 -0.5864 61.2569 13.9299 0.0000 0.0000 0.0000
# 3 4.8590 13.9299 54.2095 0.0000 0.0000 0.0000
# 4 0.0000 0.0000 0.0000 17.3565 0.0000 0.0000
# 5 0.0000 0.0000 0.0000 0.0000 -0.8905 0.0000
# 6 0.0000 0.0000 0.0000 0.0000 0.0000 26.6681
#
#
#
# Elastic Compliance Matrix: (Units=1/GPa)
#
#
# Indices 1 2 3 4 5 6 
#
# 1 0.011727 0.000373 -0.001147 0.000000 0.000000 0.000000
# 2 0.000373 0.017350 -0.004492 0.000000 0.000000 0.000000
# 3 -0.001147 -0.004492 0.019704 0.000000 0.000000 0.000000
# 4 0.000000 0.000000 0.000000 0.057615 0.000000 0.000000
# 5 0.000000 0.000000 0.000000 0.000000 -1.123001 0.000000
# 6 0.000000 0.000000 0.000000 0.000000 0.000000 0.037498
#
#
# Mechanical properties :
#
#
# Convention : Reuss Voigt Hill
#
# Bulk Modulus (GPa) = 26.14436 26.40454 26.27445
# Shear Modulus (GPa) = -5.23108 20.82904 7.79898
#
# Velocity S-wave (km/s) = -1.48658 2.96638 1.81514
# Velocity P-wave (km/s) = 2.84576 4.78408 3.93610
#
# Compressibility (1/GPa) = 0.03824916
#
# Stress axis : x y z
#
# Youngs Moduli (GPa) = 85.27555 57.63793 50.75120
#
# Poissons Ratio (x) = -0.02150 0.05821
# Poissons Ratio (y) = -0.03181 0.22796
# Poissons Ratio (z) = 0.09781 0.25889
#
# Static dielectric constant tensor:
#      x y z
#    x -0.102150 0.000000 0.000000 
#    y 0.000000 2.081890 0.000000 
#    z 0.000000 0.000000 1.802530 
# 
# From -- ./inp_files/7550.got.cif
#   From: 2010.05.17/outbox.cif.g08.bks.cpg/sg55_4_cif.got.tgz:7550.got - 2010.06.03 13:27:54.
