data_PCOD9425836
_publ_section_title
;
Structure prediction by ZEFSAII (Michael W. Deem and Ramdas Pophale) SiO2 
 PCOD9425836
Probable space group: P B A M
;
_chemical_formula_sum "Si O2"
_cell_formula_units_Z 64
_cell_length_a 21.841043
_cell_length_b 17.416435
_cell_length_c 7.657034
_cell_angle_alpha 90.000000
_cell_angle_beta 90.000000
_cell_angle_gamma 90.000000
_cell_volume 2912.682944
_symmetry_space_group_name_H-M "P B A M"
_symmetry_group_IT_number 55
_symmetry_cell_setting 'orthorhombic'
loop_
_space_group_symop_operation_xyz
x,y,z
-x,-y,z
1/2+x,1/2-y,-z
1/2-x,1/2+y,-z
-x,-y,-z
x,y,-z
1/2-x,1/2+y,z
1/2+x,1/2-y,z
loop_
_atom_site_type_symbol
_atom_site_label
_atom_site_fract_x
_atom_site_fract_y
_atom_site_fract_z
Si Si1 0.498451 0.416045 0.297700
Si Si2 0.571074 0.007976 0.709652
Si Si3 0.636946 0.854848 0.707326
Si Si4 0.676120 0.122851 0.210478
Si Si5 0.770605 0.787667 0.209274
Si Si6 0.103320 0.804449 0.289138
Si Si7 0.197319 0.931434 0.791276
Si Si8 0.131282 0.083096 0.789969
O O1 0.500000 0.500000 0.213539
O O2 0.479607 0.425689 0.500000
O O3 0.450706 0.357601 0.218443
O O4 0.567761 0.389861 0.289123
O O5 0.567395 0.003246 0.500000
O O6 0.610668 0.085459 0.744279
O O7 0.500000 0.000000 0.772683
O O8 0.612784 0.936224 0.777472
O O9 0.627573 0.860320 0.500000
O O10 0.705865 0.822999 0.730514
O O11 0.599293 0.781856 0.778019
O O12 0.698669 0.207488 0.272595
O O13 0.732631 0.068301 0.271384
O O14 0.677325 0.125751 0.000000
O O15 0.817933 0.854812 0.249303
O O16 0.764427 0.779115 0.000000
O O17 0.099795 0.800211 0.500000
O O18 0.165759 0.849762 0.246480
O O19 0.154404 0.999987 0.723854
O O20 0.199392 0.940785 0.000000
O O21 0.123675 0.078828 0.000000
#
# Coordination Sequence:
#
# PCOD9425836 Si02
#       8
#     8   8   8   8   8   8   8   8
#     4  10  20  34  51  76 110 148 186 223 269 326
#     4  10  23  42  62  86 118 157 202 250 299 353
#     4  10  21  38  60  86 113 148 195 241 291 347
#     4  10  21  38  61  87 114 147 191 239 294 354
#     4  10  21  38  59  86 119 149 185 237 293 348
#     4  10  20  34  54  79 110 146 187 233 277 332
#     4  10  19  33  54  81 110 145 185 226 279 337
#     4  10  21  34  52  79 112 147 183 225 273 331
#
# _framework density 21.972868999999999
#
# number of rings (size 3 to 8) (size 9 to 14) (size 15 to 20)
#    0.000    2.000    2.500    0.750    0.000    5.000 
#    0.000    1.250    0.000    0.000    0.000    0.000 
#    0.000    0.000    0.000    0.000    0.000    0.000 
#
# Total GULP energy -356889.656458 kJ/mol
# GULP energy per Si atom -5576.400882 kJ/mol
# Density = 2.192286 g / cm^3
# Si number density = 21.972869 Si / 1000 Ang^3
#
#
#
# Elastic Constant Matrix: (Units=GPa)
#
#
# Indices 1 2 3 4 5 6 
#
# 1 86.2489 36.8299 13.5168 0.0000 0.0000 0.0000
# 2 36.8299 97.5785 16.2217 0.0000 0.0000 0.0000
# 3 13.5168 16.2217 29.5962 0.0000 0.0000 0.0000
# 4 0.0000 0.0000 0.0000 13.8512 0.0000 0.0000
# 5 0.0000 0.0000 0.0000 0.0000 10.0511 0.0000
# 6 0.0000 0.0000 0.0000 0.0000 0.0000 23.7823
#
#
#
# Elastic Compliance Matrix: (Units=1/GPa)
#
#
# Indices 1 2 3 4 5 6 
#
# 1 0.014222 -0.004718 -0.003909 0.000000 0.000000 0.000000
# 2 -0.004718 0.012841 -0.004883 0.000000 0.000000 0.000000
# 3 -0.003909 -0.004883 0.038250 0.000000 0.000000 0.000000
# 4 0.000000 0.000000 0.000000 0.072196 0.000000 0.000000
# 5 0.000000 0.000000 0.000000 0.000000 0.099492 0.000000
# 6 0.000000 0.000000 0.000000 0.000000 0.000000 0.042048
#
#
# Mechanical properties :
#
#
# Convention : Reuss Voigt Hill
#
# Bulk Modulus (GPa) = 26.11548 38.50672 32.31110
# Shear Modulus (GPa) = 15.68219 19.32726 17.50473
#
# Velocity S-wave (km/s) = 2.67443 2.96902 2.82556
# Velocity P-wave (km/s) = 4.63119 5.41444 5.03806
#
# Compressibility (1/GPa) = 0.03829147
#
# Stress axis : x y z
#
# Youngs Moduli (GPa) = 70.31537 77.87743 26.14376
#
# Poissons Ratio (x) = 0.36742 0.10220
# Poissons Ratio (y) = 0.33174 0.12767
# Poissons Ratio (z) = 0.27488 0.38030
#
# Static dielectric constant tensor:
#      x y z
#    x 2.057610 0.000000 0.000000 
#    y 0.000000 1.838610 0.000000 
#    z 0.000000 0.000000 1.825600 
# 
# From -- ./inp_files/8984.got.cif
#   From: 2010.05.17/outbox.cif.g08.bks.cpg/sg55_5_cif.got.tgz:8984.got - 2010.06.03 13:27:54.
