data_PCOD9425610
_publ_section_title
;
Structure prediction by ZEFSAII (Michael W. Deem and Ramdas Pophale) SiO2 
 PCOD9425610
Probable space group: P B A M
;
_chemical_formula_sum "Si O2"
_cell_formula_units_Z 64
_cell_length_a 25.772997
_cell_length_b 14.833906
_cell_length_c 9.094821
_cell_angle_alpha 90.000000
_cell_angle_beta 90.000000
_cell_angle_gamma 90.000000
_cell_volume 3477.079350
_symmetry_space_group_name_H-M "P B A M"
_symmetry_group_IT_number 55
_symmetry_cell_setting 'orthorhombic'
loop_
_space_group_symop_operation_xyz
x,y,z
-x,-y,z
1/2+x,1/2-y,-z
1/2-x,1/2+y,-z
-x,-y,-z
x,y,-z
1/2-x,1/2+y,z
1/2+x,1/2-y,z
loop_
_atom_site_type_symbol
_atom_site_label
_atom_site_fract_x
_atom_site_fract_y
_atom_site_fract_z
Si Si1 0.233530 0.862843 0.169512
Si Si2 0.585571 0.868946 0.324964
Si Si3 0.198039 0.061157 0.173477
Si Si4 0.984874 0.721607 0.322805
Si Si5 0.695374 0.840021 0.827271
Si Si6 0.661109 0.133072 0.333333
Si Si7 0.929347 0.551538 0.826512
Si Si8 0.609099 0.331010 0.668792
O O1 0.205388 0.767165 0.182524
O O2 0.279958 0.863832 0.284834
O O3 0.201062 0.953712 0.193753
O O4 0.253501 0.867624 0.000000
O O5 0.587648 0.880654 0.500000
O O6 0.546266 0.785581 0.293275
O O7 0.643011 0.859798 0.260523
O O8 0.560054 0.956955 0.251075
O O9 0.252471 0.107431 0.225356
O O10 0.146846 0.102965 0.244783
O O11 0.196028 0.081149 0.000000
O O12 0.977769 0.712602 0.500000
O O13 0.959811 0.634824 0.244855
O O14 0.949350 0.806994 0.277809
O O15 0.687743 0.863625 0.000000
O O16 0.653815 0.098933 0.500000
O O17 0.630087 0.073613 0.216437
O O18 0.637931 0.233824 0.328150
O O19 0.937497 0.546786 0.000000
O O20 0.605829 0.361341 0.500000
#
# Coordination Sequence:
#
# PCOD9425610 Si02
#       8
#     8   8   8   8   8   8   8   8
#     4  10  20  34  53  78 109 144 180 223 273 324
#     4  11  22  36  54  75 106 144 183 224 272 327
#     4  10  20  34  54  79 106 139 177 217 268 322
#     4   9  20  37  54  76 106 141 180 228 275 317
#     4  10  21  36  53  78 114 146 178 223 271 324
#     4  10  19  32  51  76 106 141 180 221 264 315
#     4  11  21  32  51  79 110 143 181 221 268 327
#     4   9  18  33  53  76 103 133 171 218 266 314
#
# _framework density 18.406253
#
# number of rings (size 3 to 8) (size 9 to 14) (size 15 to 20)
#    0.000    2.000    1.250    3.750    0.000    7.000 
#    0.000    0.000    0.000    0.750    0.000    5.250 
#    0.000    0.000    0.000    0.000    0.000    0.000 
#
# Total GULP energy -356896.611161 kJ/mol
# GULP energy per Si atom -5576.509549 kJ/mol
# Density = 1.836436 g / cm^3
# Si number density = 18.406253 Si / 1000 Ang^3
#
#
#
# Elastic Constant Matrix: (Units=GPa)
#
#
# Indices 1 2 3 4 5 6 
#
# 1 31.6243 1.4463 5.5353 0.0000 0.0000 0.0000
# 2 1.4463 49.7132 11.1755 0.0000 0.0000 0.0000
# 3 5.5353 11.1755 32.1249 0.0000 0.0000 0.0000
# 4 0.0000 0.0000 0.0000 19.4541 0.0000 0.0000
# 5 0.0000 0.0000 0.0000 0.0000 10.0119 0.0000
# 6 0.0000 0.0000 0.0000 0.0000 0.0000 19.5150
#
#
#
# Elastic Compliance Matrix: (Units=1/GPa)
#
#
# Indices 1 2 3 4 5 6 
#
# 1 0.032610 0.000341 -0.005738 0.000000 0.000000 0.000000
# 2 0.000341 0.021825 -0.007651 0.000000 0.000000 0.000000
# 3 -0.005738 -0.007651 0.034779 0.000000 0.000000 0.000000
# 4 0.000000 0.000000 0.000000 0.051403 0.000000 0.000000
# 5 0.000000 0.000000 0.000000 0.000000 0.099881 0.000000
# 6 0.000000 0.000000 0.000000 0.000000 0.000000 0.051243
#
#
# Mechanical properties :
#
#
# Convention : Reuss Voigt Hill
#
# Bulk Modulus (GPa) = 15.84317 16.64184 16.24251
# Shear Modulus (GPa) = 14.75465 16.14990 15.45228
#
# Velocity S-wave (km/s) = 2.83435 2.96533 2.90058
# Velocity P-wave (km/s) = 4.39745 4.55909 4.47900
#
# Compressibility (1/GPa) = 0.06311867
#
# Stress axis : x y z
#
# Youngs Moduli (GPa) = 30.66554 45.81799 28.75309
#
# Poissons Ratio (x) = -0.01563 0.16497
# Poissons Ratio (y) = -0.01046 0.22000
# Poissons Ratio (z) = 0.17594 0.35057
#
# Static dielectric constant tensor:
#      x y z
#    x 1.671020 0.000000 0.000000 
#    y 0.000000 1.641640 0.000000 
#    z 0.000000 0.000000 1.621720 
# 
# From -- ./inp_files/6564.got.cif
#   From: 2010.05.17/outbox.cif.g08.bks.cpg/sg55_4_cif.got.tgz:6564.got - 2010.06.03 13:27:54.
