data_PCOD9425882
_publ_section_title
;
Structure prediction by ZEFSAII (Michael W. Deem and Ramdas Pophale) SiO2 
 PCOD9425882
Probable space group: P B A M
;
_chemical_formula_sum "Si O2"
_cell_formula_units_Z 64
_cell_length_a 29.384176
_cell_length_b 12.946923
_cell_length_c 7.538925
_cell_angle_alpha 90.000000
_cell_angle_beta 90.000000
_cell_angle_gamma 90.000000
_cell_volume 2868.068400
_symmetry_space_group_name_H-M "P B A M"
_symmetry_group_IT_number 55
_symmetry_cell_setting 'orthorhombic'
loop_
_space_group_symop_operation_xyz
x,y,z
-x,-y,z
1/2+x,1/2-y,-z
1/2-x,1/2+y,-z
-x,-y,-z
x,y,-z
1/2-x,1/2+y,z
1/2+x,1/2-y,z
loop_
_atom_site_type_symbol
_atom_site_label
_atom_site_fract_x
_atom_site_fract_y
_atom_site_fract_z
Si Si1 0.940612 0.242594 0.214194
Si Si2 0.878271 0.826327 0.712489
Si Si3 0.341226 0.299602 0.217342
Si Si4 0.948333 0.479320 0.785509
Si Si5 0.860660 0.600436 0.297066
Si Si6 0.023977 0.101713 0.706286
Si Si7 0.700838 0.488662 0.213461
Si Si8 0.702999 0.912566 0.793985
O O1 0.893942 0.187803 0.271412
O O2 0.936331 0.362367 0.264640
O O3 0.986322 0.191080 0.284136
O O4 0.943528 0.238623 0.000000
O O5 0.883290 0.811745 0.500000
O O6 0.861350 0.715202 0.782428
O O7 0.927711 0.861705 0.782690
O O8 0.840809 0.912950 0.746181
O O9 0.311340 0.396382 0.276577
O O10 0.321333 0.189745 0.279658
O O11 0.342060 0.298278 0.000000
O O12 0.912259 0.559070 0.709675
O O13 0.000000 0.500000 0.732142
O O14 0.945627 0.487130 0.000000
O O15 0.844876 0.606538 0.500000
O O16 0.829839 0.511765 0.211694
O O17 0.033360 0.076725 0.500000
O O18 0.000000 0.000000 0.786428
O O19 0.748231 0.443379 0.284208
O O20 0.704994 0.496141 0.000000
O O21 0.711224 0.887217 0.000000
#
# Coordination Sequence:
#
# PCOD9425882 Si02
#       8
#     8   8   8   8   8   8   8   8
#     4  10  19  33  55  81 113 148 182 237 295 336
#     4  10  23  41  57  82 124 160 189 239 293 341
#     4   9  18  36  57  85 119 143 181 242 298 342
#     4  10  20  35  56  83 113 150 194 239 292 347
#     4  11  23  38  57  83 118 158 196 236 288 351
#     4  10  21  37  57  81 113 155 199 237 283 343
#     4  10  22  37  63  91 110 146 195 240 293 356
#     4  10  21  39  62  86 116 150 189 247 301 346
#
# _framework density 22.31467
#
# number of rings (size 3 to 8) (size 9 to 14) (size 15 to 20)
#    0.000    2.000    1.250    1.875    1.750    3.000 
#    0.000    0.625    0.000    0.000    0.000    0.000 
#    0.000    0.000    0.000    0.000    0.000    0.000 
#
# Total GULP energy -357664.402076 kJ/mol
# GULP energy per Si atom -5588.506282 kJ/mol
# Density = 2.226388 g / cm^3
# Si number density = 22.314670 Si / 1000 Ang^3
#
#
#
# Elastic Constant Matrix: (Units=GPa)
#
#
# Indices 1 2 3 4 5 6 
#
# 1 160.7304 60.0758 -6.6136 0.0000 0.0000 0.0000
# 2 60.0758 138.3015 -5.1904 0.0000 0.0000 0.0000
# 3 -6.6136 -5.1904 47.8935 0.0000 0.0000 0.0000
# 4 0.0000 0.0000 0.0000 6.1963 0.0000 0.0000
# 5 0.0000 0.0000 0.0000 0.0000 6.4872 0.0000
# 6 0.0000 0.0000 0.0000 0.0000 0.0000 31.9357
#
#
#
# Elastic Compliance Matrix: (Units=1/GPa)
#
#
# Indices 1 2 3 4 5 6 
#
# 1 0.007450 -0.003210 0.000681 0.000000 0.000000 0.000000
# 2 -0.003210 0.008644 0.000493 0.000000 0.000000 0.000000
# 3 0.000681 0.000493 0.021027 0.000000 0.000000 0.000000
# 4 0.000000 0.000000 0.000000 0.161386 0.000000 0.000000
# 5 0.000000 0.000000 0.000000 0.000000 0.154149 0.000000
# 6 0.000000 0.000000 0.000000 0.000000 0.000000 0.031313
#
#
# Mechanical properties :
#
#
# Convention : Reuss Voigt Hill
#
# Bulk Modulus (GPa) = 30.25907 49.27434 39.76671
# Shear Modulus (GPa) = 12.52955 28.83408 20.68181
#
# Velocity S-wave (km/s) = 2.37216 3.59856 3.04768
# Velocity P-wave (km/s) = 4.59265 6.27660 5.49946
#
# Compressibility (1/GPa) = 0.03304794
#
# Stress axis : x y z
#
# Youngs Moduli (GPa) = 134.23614 115.69188 47.55757
#
# Poissons Ratio (x) = 0.37142 -0.03238
# Poissons Ratio (y) = 0.43095 -0.02347
# Poissons Ratio (z) = -0.09138 -0.05709
#
# Static dielectric constant tensor:
#      x y z
#    x 1.787150 0.000000 0.000000 
#    y 0.000000 1.801090 0.000000 
#    z 0.000000 0.000000 1.920720 
# 
# From -- ./inp_files/10798.got.cif
#   From: 2010.05.17/outbox.cif.g08.bks.cpg/sg55_6_cif.got.tgz:10798.got - 2010.06.03 13:27:54.
