data_PCOD9425756
_publ_section_title
;
Structure prediction by ZEFSAII (Michael W. Deem and Ramdas Pophale) SiO2 
 PCOD9425756
Probable space group: P B A M
;
_chemical_formula_sum "Si O2"
_cell_formula_units_Z 40
_cell_length_a 33.436286
_cell_length_b 5.142856
_cell_length_c 15.641548
_cell_angle_alpha 90.000000
_cell_angle_beta 90.000000
_cell_angle_gamma 90.000000
_cell_volume 2689.689375
_symmetry_space_group_name_H-M "P B A M"
_symmetry_group_IT_number 55
_symmetry_cell_setting 'orthorhombic'
loop_
_space_group_symop_operation_xyz
x,y,z
-x,-y,z
1/2+x,1/2-y,-z
1/2-x,1/2+y,-z
-x,-y,-z
x,y,-z
1/2-x,1/2+y,z
1/2+x,1/2-y,z
loop_
_atom_site_type_symbol
_atom_site_label
_atom_site_fract_x
_atom_site_fract_y
_atom_site_fract_z
Si Si1 0.883191 0.320092 0.397336
Si Si2 0.278316 0.619431 0.812805
Si Si3 0.024672 0.751545 0.603933
Si Si4 0.775278 0.658446 0.500000
Si Si5 0.165530 0.192525 0.347656
Si Si6 0.776056 0.787207 0.000000
O O1 0.881979 0.370241 0.500000
O O2 0.928886 0.260327 0.372138
O O3 0.866322 0.573751 0.350200
O O4 0.855740 0.072463 0.376877
O O5 0.255149 0.346099 0.803707
O O6 0.311860 0.653263 0.741462
O O7 0.295690 0.650060 0.908978
O O8 0.024600 0.757572 0.500000
O O9 0.000000 0.500000 0.630912
O O10 0.000000 0.000000 0.634085
O O11 0.761760 0.359295 0.500000
O O12 0.801260 0.724414 0.417074
O O13 0.761792 0.487842 0.000000
#
# Coordination Sequence:
#
# PCOD9425756 Si02
#       6
#     8   8   8   4   8   4
#     4  11  20  33  45  63  91 121 150 182 223 263
#     4  10  19  33  48  66  86 114 154 192 230 268
#     4   9  17  29  46  64  81 109 148 183 214 258
#     4  12  22  32  42  56  80 120 160 186 206 238
#     4  12  21  32  45  63  89 122 151 190 221 258
#     4   8  16  30  50  66  82 106 142 192 238 274
#
# _framework density 14.871606
#
# number of rings (size 3 to 8) (size 9 to 14) (size 15 to 20)
#    0.000    1.600    2.000    4.800    0.000    3.200 
#    0.000    0.000    0.000    0.000    0.000    0.000 
#    0.000    0.000    0.000   18.000    0.000    0.000 
#
# Total GULP energy -223191.231477 kJ/mol
# GULP energy per Si atom -5579.780787 kJ/mol
# Density = 1.483776 g / cm^3
# Si number density = 14.871606 Si / 1000 Ang^3
#
#
#
# Elastic Constant Matrix: (Units=GPa)
#
#
# Indices 1 2 3 4 5 6 
#
# 1 55.8833 0.6501 23.2743 0.0000 0.0000 0.0000
# 2 0.6501 60.1030 -15.9462 0.0000 0.0000 0.0000
# 3 23.2743 -15.9462 60.2172 0.0000 0.0000 0.0000
# 4 0.0000 0.0000 0.0000 -58.0286 0.0000 0.0000
# 5 0.0000 0.0000 0.0000 0.0000 5.4035 0.0000
# 6 0.0000 0.0000 0.0000 0.0000 0.0000 26.0147
#
#
#
# Elastic Compliance Matrix: (Units=1/GPa)
#
#
# Indices 1 2 3 4 5 6 
#
# 1 0.021712 -0.002647 -0.009093 0.000000 0.000000 0.000000
# 2 -0.002647 0.018218 0.005848 0.000000 0.000000 0.000000
# 3 -0.009093 0.005848 0.021670 0.000000 0.000000 0.000000
# 4 0.000000 0.000000 0.000000 -0.017233 0.000000 0.000000
# 5 0.000000 0.000000 0.000000 0.000000 0.185065 0.000000
# 6 0.000000 0.000000 0.000000 0.000000 0.000000 0.038440
#
#
# Mechanical properties :
#
#
# Convention : Reuss Voigt Hill
#
# Bulk Modulus (GPa) = 20.07446 21.35112 20.71279
# Shear Modulus (GPa) = 16.87696 5.89294 11.38495
#
# Velocity S-wave (km/s) = 3.37240 1.99277 2.76986
# Velocity P-wave (km/s) = 5.35648 4.43655 4.91808
#
# Compressibility (1/GPa) = 0.04981455
#
# Stress axis : x y z
#
# Youngs Moduli (GPa) = 46.05686 54.89017 46.14766
#
# Poissons Ratio (x) = 0.14531 0.41962
# Poissons Ratio (y) = 0.12193 -0.26985
# Poissons Ratio (z) = 0.41879 -0.32098
#
# Static dielectric constant tensor:
#      x y z
#    x 1.477900 0.000000 0.000000 
#    y 0.000000 1.502570 0.000000 
#    z 0.000000 0.000000 1.489130 
# 
# From -- ./inp_files/16606.got.cif
#   From: 2010.05.17/outbox.cif.g08.bks.cpg/sg55_9_cif.got.tgz:16606.got - 2010.06.03 13:27:54.
