data_PCOD9425356
_publ_section_title
;
Structure prediction by ZEFSAII (Michael W. Deem and Ramdas Pophale) SiO2 
 PCOD9425356
Probable space group: P B A M
;
_chemical_formula_sum "Si O2"
_cell_formula_units_Z 36
_cell_length_a 5.073615
_cell_length_b 24.104942
_cell_length_c 15.984539
_cell_angle_alpha 90.000000
_cell_angle_beta 90.000000
_cell_angle_gamma 90.000000
_cell_volume 1954.896257
_symmetry_space_group_name_H-M "P B A M"
_symmetry_group_IT_number 55
_symmetry_cell_setting 'orthorhombic'
loop_
_space_group_symop_operation_xyz
x,y,z
-x,-y,z
1/2+x,1/2-y,-z
1/2-x,1/2+y,-z
-x,-y,-z
x,y,-z
1/2-x,1/2+y,z
1/2+x,1/2-y,z
loop_
_atom_site_type_symbol
_atom_site_label
_atom_site_fract_x
_atom_site_fract_y
_atom_site_fract_z
Si Si1 0.076032 0.376236 0.663516
Si Si2 0.991273 0.713483 0.000000
Si Si3 0.095077 0.063254 0.599597
Si Si4 0.416542 0.791070 0.815961
Si Si5 0.797705 0.272950 0.595935
O O1 0.356400 0.398235 0.632451
O O2 0.857389 0.424484 0.653470
O O3 0.086038 0.341764 0.750294
O O4 0.947511 0.330205 0.602560
O O5 0.926948 0.685823 0.911267
O O6 0.295062 0.732981 0.000000
O O7 0.142066 0.073371 0.500000
O O8 0.000000 0.000000 0.607668
O O9 0.171250 0.748917 0.807405
O O10 0.739570 0.259524 0.500000
O O11 0.507880 0.270019 0.634419
#
# Coordination Sequence:
#
# PCOD9425356 Si02
#       5
#     8   4   8   8   8
#     4  12  21  34  55  76  99 134 172 217 262 303
#     4   8  16  30  50  76 111 146 169 198 240 296
#     4  11  24  40  55  72  96 131 180 231 271 305
#     4  10  19  33  53  82 115 142 170 203 247 310
#     4  10  19  29  42  65  97 128 155 185 231 297
#
# _framework density 18.415302000000001
#
# number of rings (size 3 to 8) (size 9 to 14) (size 15 to 20)
#    0.000    1.556    0.000    6.667    0.000    3.556 
#    0.000    0.000    0.000    0.000    0.000    4.667 
#    0.000    0.000    0.000    0.000    0.000    0.000 
#
# Total GULP energy -200720.762356 kJ/mol
# GULP energy per Si atom -5575.576732 kJ/mol
# Density = 1.837339 g / cm^3
# Si number density = 18.415302 Si / 1000 Ang^3
#
#
#
# Elastic Constant Matrix: (Units=GPa)
#
#
# Indices 1 2 3 4 5 6 
#
# 1 60.4739 3.1027 21.0431 0.0000 0.0000 0.0000
# 2 3.1027 69.0344 31.6050 0.0000 0.0000 0.0000
# 3 21.0431 31.6050 138.9780 0.0000 0.0000 0.0000
# 4 0.0000 0.0000 0.0000 20.7898 0.0000 0.0000
# 5 0.0000 0.0000 0.0000 0.0000 21.0431 0.0000
# 6 0.0000 0.0000 0.0000 0.0000 0.0000 32.1886
#
#
#
# Elastic Compliance Matrix: (Units=1/GPa)
#
#
# Indices 1 2 3 4 5 6 
#
# 1 0.017470 0.000475 -0.002753 0.000000 0.000000 0.000000
# 2 0.000475 0.016182 -0.003752 0.000000 0.000000 0.000000
# 3 -0.002753 -0.003752 0.008465 0.000000 0.000000 0.000000
# 4 0.000000 0.000000 0.000000 0.048100 0.000000 0.000000
# 5 0.000000 0.000000 0.000000 0.000000 0.047521 0.000000
# 6 0.000000 0.000000 0.000000 0.000000 0.000000 0.031067
#
#
# Mechanical properties :
#
#
# Convention : Reuss Voigt Hill
#
# Bulk Modulus (GPa) = 33.26969 42.22090 37.74529
# Shear Modulus (GPa) = 26.19385 28.98669 27.59027
#
# Velocity S-wave (km/s) = 3.77556 3.97174 3.87489
# Velocity P-wave (km/s) = 6.09196 6.63399 6.36874
#
# Compressibility (1/GPa) = 0.03005739
#
# Stress axis : x y z
#
# Youngs Moduli (GPa) = 57.24195 61.79769 118.12683
#
# Poissons Ratio (x) = -0.02937 0.32523
# Poissons Ratio (y) = -0.02721 0.44320
# Poissons Ratio (z) = 0.15760 0.23186
#
# Static dielectric constant tensor:
#      x y z
#    x 1.705340 0.000000 0.000000 
#    y 0.000000 1.675150 0.000000 
#    z 0.000000 0.000000 1.695070 
# 
# From -- ./inp_files/20427.got.cif
#   From: 2010.05.17/outbox.cif.g08.bks.cpg/sg55_11_cif.got.tgz:20427.got - 2010.06.03 13:27:54.
