data_PCOD9425340
_publ_section_title
;
Structure prediction by ZEFSAII (Michael W. Deem and Ramdas Pophale) SiO2 
 PCOD9425340
Probable space group: P B A M
;
_chemical_formula_sum "Si O2"
_cell_formula_units_Z 64
_cell_length_a 5.511674
_cell_length_b 22.535600
_cell_length_c 24.236393
_cell_angle_alpha 90.000000
_cell_angle_beta 90.000000
_cell_angle_gamma 90.000000
_cell_volume 3010.375244
_symmetry_space_group_name_H-M "P B A M"
_symmetry_group_IT_number 55
_symmetry_cell_setting 'orthorhombic'
loop_
_space_group_symop_operation_xyz
x,y,z
-x,-y,z
1/2+x,1/2-y,-z
1/2-x,1/2+y,-z
-x,-y,-z
x,y,-z
1/2-x,1/2+y,z
1/2+x,1/2-y,z
loop_
_atom_site_type_symbol
_atom_site_label
_atom_site_fract_x
_atom_site_fract_y
_atom_site_fract_z
Si Si1 0.927071 0.713676 0.825531
Si Si2 0.963032 0.288100 0.060159
Si Si3 0.981327 0.787362 0.436713
Si Si4 0.518711 0.082954 0.657953
Si Si5 0.520425 0.213139 0.299727
Si Si6 0.504636 0.426873 0.767555
Si Si7 0.992895 0.566625 0.210760
Si Si8 0.516582 0.401685 0.360560
O O1 0.147728 0.763194 0.827410
O O2 0.988738 0.678675 0.881960
O O3 0.968328 0.690655 0.763535
O O4 0.692516 0.258652 0.061256
O O5 0.983029 0.318294 0.000000
O O6 0.981327 0.809593 0.500000
O O7 0.231260 0.749966 0.430323
O O8 0.981923 0.840803 0.393681
O O9 0.520175 0.154855 0.662706
O O10 0.516745 0.061987 0.721542
O O11 0.764876 0.066028 0.628299
O O12 0.269768 0.066368 0.629443
O O13 0.767864 0.251124 0.306691
O O14 0.500000 0.500000 0.759937
O O15 0.743826 0.408069 0.799524
O O16 0.509732 0.396442 0.707017
O O17 0.270117 0.408688 0.801831
O O18 0.000000 0.500000 0.188080
#
# Coordination Sequence:
#
# PCOD9425340 Si02
#       8
#     8   8   8   8   8   8   8   8
#     4   8  14  23  32  42  60  88 116 141 174 210
#     4   8  12  18  29  43  56  73 105 147 179 202
#     4  10  21  35  48  61  78 101 126 151 181 213
#     4  10  19  28  41  61  78  97 124 149 178 211
#     4  10  19  28  36  49  74 103 125 147 176 212
#     4   8  14  25  41  60  79  96 113 138 175 213
#     4   8  14  25  39  55  75  95 117 146 176 207
#     4  10  19  30  45  62  78  96 121 152 179 209
#
# _framework density 21.259809000000001
#
# number of rings (size 3 to 8) (size 9 to 14) (size 15 to 20)
#    0.000    3.000    0.000    1.500    0.000    3.000 
#    0.000    0.000    0.000    0.375    0.000    0.000 
#    0.000   13.000    0.000    0.000    0.000    2.625 
#
# Total GULP energy -356415.920885 kJ/mol
# GULP energy per Si atom -5568.998764 kJ/mol
# Density = 2.121142 g / cm^3
# Si number density = 21.259809 Si / 1000 Ang^3
#
#
#
# Elastic Constant Matrix: (Units=GPa)
#
#
# Indices 1 2 3 4 5 6 
#
# 1 231.9198 30.4314 10.4355 0.0000 0.0000 0.0000
# 2 30.4314 78.0766 18.9560 0.0000 0.0000 0.0000
# 3 10.4355 18.9560 94.0156 0.0000 0.0000 0.0000
# 4 0.0000 0.0000 0.0000 6.8943 0.0000 0.0000
# 5 0.0000 0.0000 0.0000 0.0000 15.5833 0.0000
# 6 0.0000 0.0000 0.0000 0.0000 0.0000 10.5241
#
#
#
# Elastic Compliance Matrix: (Units=1/GPa)
#
#
# Indices 1 2 3 4 5 6 
#
# 1 0.004546 -0.001734 -0.000155 0.000000 0.000000 0.000000
# 2 -0.001734 0.014129 -0.002656 0.000000 0.000000 0.000000
# 3 -0.000155 -0.002656 0.011189 0.000000 0.000000 0.000000
# 4 0.000000 0.000000 0.000000 0.145048 0.000000 0.000000
# 5 0.000000 0.000000 0.000000 0.000000 0.064171 0.000000
# 6 0.000000 0.000000 0.000000 0.000000 0.000000 0.095020
#
#
# Mechanical properties :
#
#
# Convention : Reuss Voigt Hill
#
# Bulk Modulus (GPa) = 48.13849 58.18418 53.16133
# Shear Modulus (GPa) = 14.28084 29.54628 21.91356
#
# Velocity S-wave (km/s) = 2.59459 3.73201 3.21401
# Velocity P-wave (km/s) = 5.62743 6.78219 6.23161
#
# Compressibility (1/GPa) = 0.02077340
#
# Stress axis : x y z
#
# Youngs Moduli (GPa) = 219.95495 70.77728 89.37116
#
# Poissons Ratio (x) = 0.12276 0.01385
# Poissons Ratio (y) = 0.38149 0.23739
# Poissons Ratio (z) = 0.03408 0.18800
#
# Static dielectric constant tensor:
#      x y z
#    x 1.904190 0.000000 0.000000 
#    y 0.000000 1.883320 0.000000 
#    z 0.000000 0.000000 1.774940 
# 
# From -- ./inp_files/23886.got.cif
#   From: 2010.05.17/outbox.cif.g08.bks.cpg/sg55_12_cif.got.tgz:23886.got - 2010.06.03 13:27:54.
