data_PCOD9425595
_publ_section_title
;
Structure prediction by ZEFSAII (Michael W. Deem and Ramdas Pophale) SiO2 
 PCOD9425595
Probable space group: P B A M
;
_chemical_formula_sum "Si O2"
_cell_formula_units_Z 56
_cell_length_a 18.237951
_cell_length_b 9.434445
_cell_length_c 15.800062
_cell_angle_alpha 90.000000
_cell_angle_beta 90.000000
_cell_angle_gamma 90.000000
_cell_volume 2718.636809
_symmetry_space_group_name_H-M "P B A M"
_symmetry_group_IT_number 55
_symmetry_cell_setting 'orthorhombic'
loop_
_space_group_symop_operation_xyz
x,y,z
-x,-y,z
1/2+x,1/2-y,-z
1/2-x,1/2+y,-z
-x,-y,-z
x,y,-z
1/2-x,1/2+y,z
1/2+x,1/2-y,z
loop_
_atom_site_type_symbol
_atom_site_label
_atom_site_fract_x
_atom_site_fract_y
_atom_site_fract_z
Si Si1 0.069755 0.396402 0.095722
Si Si2 0.673647 0.719666 0.366531
Si Si3 0.624193 0.202570 0.266088
Si Si4 0.279243 0.076355 0.906372
Si Si5 0.413572 0.021012 0.408266
Si Si6 0.323792 0.608117 0.594976
Si Si7 0.214858 0.845960 0.808853
O O1 0.074335 0.302565 0.181515
O O2 0.144608 0.489750 0.098519
O O3 0.000000 0.500000 0.101722
O O4 0.068109 0.330784 0.000000
O O5 0.684340 0.561282 0.400280
O O6 0.661551 0.695398 0.266387
O O7 0.607656 0.814685 0.399941
O O8 0.745504 0.814859 0.388028
O O9 0.614110 0.066379 0.327398
O O10 0.622848 0.333996 0.331157
O O11 0.706241 0.189123 0.231150
O O12 0.294754 0.238534 0.885555
O O13 0.222592 0.005770 0.840664
O O14 0.248881 0.062038 0.000000
O O15 0.383313 0.972074 0.500000
O O16 0.500000 0.000000 0.409149
O O17 0.348346 0.644376 0.500000
#
# Coordination Sequence:
#
# PCOD9425595 Si02
#       7
#     8   8   8   8   8   8   8
#     4   9  18  34  58  86 113 148 194 238 283 341
#     4  11  21  36  56  83 116 151 195 243 292 349
#     4  10  20  35  54  80 113 147 185 234 288 342
#     4  10  19  32  52  80 114 144 179 231 285 339
#     4  11  23  39  60  84 113 151 194 239 290 350
#     4  11  21  34  57  84 114 151 192 242 297 354
#     4  10  19  32  50  78 108 143 183 224 282 342
#
# _framework density 20.598559000000002
#
# number of rings (size 3 to 8) (size 9 to 14) (size 15 to 20)
#    0.000    1.714    0.000    7.714    0.000    0.571 
#    0.000    0.714    0.000    4.286    0.000    3.000 
#    0.000   27.429    0.000    0.000    0.000    0.000 
#
# Total GULP energy -312248.412099 kJ/mol
# GULP energy per Si atom -5575.864502 kJ/mol
# Density = 2.055168 g / cm^3
# Si number density = 20.598559 Si / 1000 Ang^3
#
#
#
# Elastic Constant Matrix: (Units=GPa)
#
#
# Indices 1 2 3 4 5 6 
#
# 1 27.0577 10.5606 34.4651 0.0000 0.0000 0.0000
# 2 10.5606 84.4478 41.8982 0.0000 0.0000 0.0000
# 3 34.4651 41.8982 154.6668 0.0000 0.0000 0.0000
# 4 0.0000 0.0000 0.0000 11.7616 0.0000 0.0000
# 5 0.0000 0.0000 0.0000 0.0000 6.6714 0.0000
# 6 0.0000 0.0000 0.0000 0.0000 0.0000 20.5257
#
#
#
# Elastic Compliance Matrix: (Units=1/GPa)
#
#
# Indices 1 2 3 4 5 6 
#
# 1 0.051661 -0.000865 -0.011277 0.000000 0.000000 0.000000
# 2 -0.000865 0.013695 -0.003517 0.000000 0.000000 0.000000
# 3 -0.011277 -0.003517 0.009931 0.000000 0.000000 0.000000
# 4 0.000000 0.000000 0.000000 0.085022 0.000000 0.000000
# 5 0.000000 0.000000 0.000000 0.000000 0.149893 0.000000
# 6 0.000000 0.000000 0.000000 0.000000 0.000000 0.048719
#
#
# Mechanical properties :
#
#
# Convention : Reuss Voigt Hill
#
# Bulk Modulus (GPa) = 22.74416 48.89112 35.81764
# Shear Modulus (GPa) = 12.34883 19.74163 16.04523
#
# Velocity S-wave (km/s) = 2.45112 3.09916 2.79399
# Velocity P-wave (km/s) = 4.36764 6.04923 5.27586
#
# Compressibility (1/GPa) = 0.04396733
#
# Stress axis : x y z
#
# Youngs Moduli (GPa) = 19.35713 73.02051 100.69237
#
# Poissons Ratio (x) = 0.06318 1.13555
# Poissons Ratio (y) = 0.01675 0.35414
# Poissons Ratio (z) = 0.21830 0.25681
#
# Static dielectric constant tensor:
#      x y z
#    x 1.733010 0.000000 0.000000 
#    y 0.000000 1.742920 0.000000 
#    z 0.000000 0.000000 1.833440 
# 
# From -- ./inp_files/19746.got.cif
#   From: 2010.05.17/outbox.cif.g08.bks.cpg/sg55_10_cif.got.tgz:19746.got - 2010.06.03 13:27:54.
