data_PCOD9425885
_publ_section_title
;
Structure prediction by ZEFSAII (Michael W. Deem and Ramdas Pophale) SiO2 
 PCOD9425885
Probable space group: P B A M
;
_chemical_formula_sum "Si O2"
_cell_formula_units_Z 58
_cell_length_a 22.859010
_cell_length_b 16.091191
_cell_length_c 7.498011
_cell_angle_alpha 90.000000
_cell_angle_beta 90.000000
_cell_angle_gamma 90.000000
_cell_volume 2757.983609
_symmetry_space_group_name_H-M "P B A M"
_symmetry_group_IT_number 55
_symmetry_cell_setting 'orthorhombic'
loop_
_space_group_symop_operation_xyz
x,y,z
-x,-y,z
1/2+x,1/2-y,-z
1/2-x,1/2+y,-z
-x,-y,-z
x,y,-z
1/2-x,1/2+y,z
1/2+x,1/2-y,z
loop_
_atom_site_type_symbol
_atom_site_label
_atom_site_fract_x
_atom_site_fract_y
_atom_site_fract_z
Si Si1 0.901280 0.372789 0.784047
Si Si2 0.972323 0.690562 0.217913
Si Si3 0.500000 0.500000 0.000000
Si Si4 0.627584 0.060595 0.216266
Si Si5 0.283409 0.221512 0.290383
Si Si6 0.260941 0.402974 0.293352
Si Si7 0.799608 0.922185 0.705527
Si Si8 0.575117 0.365255 0.802596
O O1 0.888489 0.467205 0.726214
O O2 0.848425 0.313907 0.726356
O O3 0.964041 0.339721 0.721935
O O4 0.901865 0.373568 0.000000
O O5 0.922146 0.625720 0.270921
O O6 0.955096 0.783458 0.275648
O O7 0.974847 0.690820 0.000000
O O8 0.470598 0.561825 0.153070
O O9 0.691200 0.086071 0.284407
O O10 0.630065 0.061003 0.000000
O O11 0.267822 0.229559 0.500000
O O12 0.277390 0.313848 0.212624
O O13 0.239500 0.151781 0.214254
O O14 0.280712 0.400220 0.500000
O O15 0.288464 0.486939 0.212519
O O16 0.779281 0.929476 0.500000
O O17 0.867350 0.898306 0.707507
O O18 0.597890 0.338732 0.000000
#
# Coordination Sequence:
#
# PCOD9425885 Si02
#       8
#     8   8   2   8   8   8   8   8
#     4  10  20  34  54  81 112 142 180 225 277 331
#     4   9  18  34  55  79 108 146 180 226 277 321
#     4   8  20  36  54  80 102 140 178 230 272 306
#     4  10  19  33  55  82 111 141 184 225 271 331
#     4  10  21  37  55  78 111 146 183 228 278 330
#     4  10  21  36  55  79 110 147 181 223 279 329
#     4  10  20  36  56  79 110 144 179 226 278 322
#     4   9  19  36  57  78 108 142 186 226 268 324
#
# _framework density 21.029858000000001
#
# number of rings (size 3 to 8) (size 9 to 14) (size 15 to 20)
#    0.414    1.931    1.379    1.241    0.000    4.414 
#    0.000    1.724    0.000    1.655    0.000    0.000 
#    0.000    0.000    0.000    0.000    0.000    0.000 
#
# Total GULP energy -323061.544440 kJ/mol
# GULP energy per Si atom -5570.026628 kJ/mol
# Density = 2.098199 g / cm^3
# Si number density = 21.029858 Si / 1000 Ang^3
#
#
#
# Elastic Constant Matrix: (Units=GPa)
#
#
# Indices 1 2 3 4 5 6 
#
# 1 98.5590 84.0224 -18.2929 0.0000 0.0000 0.0000
# 2 84.0224 201.8784 1.8052 0.0000 0.0000 0.0000
# 3 -18.2929 1.8052 52.8900 0.0000 0.0000 0.0000
# 4 0.0000 0.0000 0.0000 -3.4367 0.0000 0.0000
# 5 0.0000 0.0000 0.0000 0.0000 23.2614 0.0000
# 6 0.0000 0.0000 0.0000 0.0000 0.0000 29.1319
#
#
#
# Elastic Compliance Matrix: (Units=1/GPa)
#
#
# Indices 1 2 3 4 5 6 
#
# 1 0.017628 -0.007393 0.006349 0.000000 0.000000 0.000000
# 2 -0.007393 0.008056 -0.002832 0.000000 0.000000 0.000000
# 3 0.006349 -0.002832 0.021200 0.000000 0.000000 0.000000
# 4 0.000000 0.000000 0.000000 -0.290973 0.000000 0.000000
# 5 0.000000 0.000000 0.000000 0.000000 0.042990 0.000000
# 6 0.000000 0.000000 0.000000 0.000000 0.000000 0.034327
#
#
# Mechanical properties :
#
#
# Convention : Reuss Voigt Hill
#
# Bulk Modulus (GPa) = 25.55543 54.26631 39.91087
# Shear Modulus (GPa) = -34.25199 28.84415 -2.70392
#
# Velocity S-wave (km/s) = -4.04013 3.70750 -1.13514
# Velocity P-wave (km/s) = 3.09600 6.64740 4.15949
#
# Compressibility (1/GPa) = 0.03913062
#
# Stress axis : x y z
#
# Youngs Moduli (GPa) = 56.72922 124.13150 47.17022
#
# Poissons Ratio (x) = 0.91776 -0.29949
# Poissons Ratio (y) = 0.41942 0.13359
# Poissons Ratio (z) = -0.36018 0.35155
#
# Static dielectric constant tensor:
#      x y z
#    x 1.690050 0.000000 0.000000 
#    y 0.000000 1.784250 0.000000 
#    z 0.000000 0.000000 1.934610 
# 
# From -- ./inp_files/9573.got.cif
#   From: 2010.05.17/outbox.cif.g08.bks.cpg/sg55_5_cif.got.tgz:9573.got - 2010.06.03 13:27:54.
