data_PCOD9425735
_publ_section_title
;
Structure prediction by ZEFSAII (Michael W. Deem and Ramdas Pophale) SiO2 
 PCOD9425735
Probable space group: P B A M
;
_chemical_formula_sum "Si O2"
_cell_formula_units_Z 64
_cell_length_a 19.914004
_cell_length_b 15.751640
_cell_length_c 9.584607
_cell_angle_alpha 90.000000
_cell_angle_beta 90.000000
_cell_angle_gamma 90.000000
_cell_volume 3006.482482
_symmetry_space_group_name_H-M "P B A M"
_symmetry_group_IT_number 55
_symmetry_cell_setting 'orthorhombic'
loop_
_space_group_symop_operation_xyz
x,y,z
-x,-y,z
1/2+x,1/2-y,-z
1/2-x,1/2+y,-z
-x,-y,-z
x,y,-z
1/2-x,1/2+y,z
1/2+x,1/2-y,z
loop_
_atom_site_type_symbol
_atom_site_label
_atom_site_fract_x
_atom_site_fract_y
_atom_site_fract_z
Si Si1 0.709885 0.526338 0.163677
Si Si2 0.889309 0.801725 0.653572
Si Si3 0.593881 0.149183 0.839376
Si Si4 0.919133 0.488192 0.659457
Si Si5 0.066527 0.670752 0.158362
Si Si6 0.185491 0.779773 0.836120
Si Si7 0.936756 0.938684 0.156514
Si Si8 0.743135 0.876161 0.657939
O O1 0.706777 0.625434 0.206287
O O2 0.632971 0.490926 0.170655
O O3 0.756026 0.465006 0.257899
O O4 0.729705 0.521009 0.000000
O O5 0.912211 0.774069 0.500000
O O6 0.872603 0.722775 0.751126
O O7 0.940136 0.864054 0.731422
O O8 0.821745 0.855065 0.642007
O O9 0.606042 0.060735 0.763003
O O10 0.513912 0.170868 0.831892
O O11 0.614169 0.147090 0.000000
O O12 0.896766 0.498422 0.500000
O O13 0.907296 0.396388 0.727657
O O14 0.000000 0.500000 0.658137
O O15 0.105219 0.759849 0.173908
O O16 0.082097 0.639860 0.000000
O O17 0.216084 0.703277 0.746769
O O18 0.203437 0.770461 0.000000
O O19 0.935908 0.900683 0.000000
O O20 0.000000 0.000000 0.167980
O O21 0.715635 0.879842 0.500000
#
# Coordination Sequence:
#
# PCOD9425735 Si02
#       8
#     8   8   8   8   8   8   8   8
#     4   9  19  37  61  87 115 149 188 235 287 338
#     4  10  21  36  53  77 111 148 187 230 278 332
#     4  10  19  32  55  82 112 147 187 228 275 332
#     4   9  17  31  50  73 108 147 181 219 269 325
#     4   9  19  34  54  82 114 144 182 231 281 334
#     4  10  21  38  62  88 115 147 189 241 289 340
#     4   9  18  32  56  85 115 148 183 222 275 339
#     4  10  22  41  60  80 112 150 191 237 284 337
#
# _framework density 21.287336
#
# number of rings (size 3 to 8) (size 9 to 14) (size 15 to 20)
#    0.000    2.500    0.000    1.500    1.750    4.750 
#    2.250    0.000    0.000    0.000    0.000    0.000 
#    0.000    0.000    0.000    0.000    0.000    0.000 
#
# Total GULP energy -357265.985559 kJ/mol
# GULP energy per Si atom -5582.281024 kJ/mol
# Density = 2.123889 g / cm^3
# Si number density = 21.287336 Si / 1000 Ang^3
#
#
#
# Elastic Constant Matrix: (Units=GPa)
#
#
# Indices 1 2 3 4 5 6 
#
# 1 33.1263 13.7411 23.1128 0.0000 0.0000 0.0000
# 2 13.7411 131.4001 80.4232 0.0000 0.0000 0.0000
# 3 23.1128 80.4232 142.9747 0.0000 0.0000 0.0000
# 4 0.0000 0.0000 0.0000 -21.7764 0.0000 0.0000
# 5 0.0000 0.0000 0.0000 0.0000 10.0721 0.0000
# 6 0.0000 0.0000 0.0000 0.0000 0.0000 20.2407
#
#
#
# Elastic Compliance Matrix: (Units=1/GPa)
#
#
# Indices 1 2 3 4 5 6 
#
# 1 0.034033 -0.000292 -0.005337 0.000000 0.000000 0.000000
# 2 -0.000292 0.011609 -0.006483 0.000000 0.000000 0.000000
# 3 -0.005337 -0.006483 0.011503 0.000000 0.000000 0.000000
# 4 0.000000 0.000000 0.000000 -0.045921 0.000000 0.000000
# 5 0.000000 0.000000 0.000000 0.000000 0.099285 0.000000
# 6 0.000000 0.000000 0.000000 0.000000 0.000000 0.049405
#
#
# Mechanical properties :
#
#
# Convention : Reuss Voigt Hill
#
# Bulk Modulus (GPa) = 30.37618 60.22836 45.30227
# Shear Modulus (GPa) = 25.62643 14.38886 20.00765
#
# Velocity S-wave (km/s) = 3.47340 2.60270 3.06908
# Velocity P-wave (km/s) = 5.51240 6.11445 5.82121
#
# Compressibility (1/GPa) = 0.03292054
#
# Stress axis : x y z
#
# Youngs Moduli (GPa) = 29.38358 86.14343 86.93037
#
# Poissons Ratio (x) = 0.02518 0.46396
# Poissons Ratio (y) = 0.00859 0.56353
# Poissons Ratio (z) = 0.15682 0.55843
#
# Static dielectric constant tensor:
#      x y z
#    x 1.841490 0.000000 0.000000 
#    y 0.000000 1.740200 0.000000 
#    z 0.000000 0.000000 1.763990 
# 
# From -- ./inp_files/9697.got.cif
#   From: 2010.05.17/outbox.cif.g08.bks.cpg/sg55_5_cif.got.tgz:9697.got - 2010.06.03 13:27:54.
