data_PCOD9425731
_publ_section_title
;
Structure prediction by ZEFSAII (Michael W. Deem and Ramdas Pophale) SiO2 
 PCOD9425731
Probable space group: P B A M
;
_chemical_formula_sum "Si O2"
_cell_formula_units_Z 40
_cell_length_a 25.458382
_cell_length_b 5.921882
_cell_length_c 11.244831
_cell_angle_alpha 90.000000
_cell_angle_beta 90.000000
_cell_angle_gamma 90.000000
_cell_volume 1695.287972
_symmetry_space_group_name_H-M "P B A M"
_symmetry_group_IT_number 55
_symmetry_cell_setting 'orthorhombic'
loop_
_space_group_symop_operation_xyz
x,y,z
-x,-y,z
1/2+x,1/2-y,-z
1/2-x,1/2+y,-z
-x,-y,-z
x,y,-z
1/2-x,1/2+y,z
1/2+x,1/2-y,z
loop_
_atom_site_type_symbol
_atom_site_label
_atom_site_fract_x
_atom_site_fract_y
_atom_site_fract_z
Si Si1 0.627194 0.343927 0.737448
Si Si2 0.422921 0.038951 0.138873
Si Si3 0.687605 0.710537 0.869904
Si Si4 0.951612 0.173284 0.366689
Si Si5 0.233929 0.273313 0.657988
O O1 0.660272 0.475776 0.836386
O O2 0.600808 0.523352 0.649616
O O3 0.671089 0.200814 0.668281
O O4 0.582127 0.210615 0.807359
O O5 0.362003 0.120781 0.137129
O O6 0.451422 0.177692 0.245247
O O7 0.440916 0.056502 0.000000
O O8 0.733629 0.753258 0.779472
O O9 0.709882 0.712810 0.000000
O O10 0.951135 0.283972 0.500000
O O11 0.000000 0.000000 0.365563
O O12 0.256096 0.514895 0.612391
#
# Coordination Sequence:
#
# PCOD9425731 Si02
#       5
#     8   8   8   8   8
#     4  10  20  36  59  91 131 170 222 277 342 405
#     4  10  20  37  63  98 133 167 213 274 346 413
#     4   9  18  31  51  87 133 176 215 261 319 395
#     4  10  24  46  69  92 123 172 234 294 353 423
#     4  10  19  32  54  89 132 178 227 271 328 401
#
# _framework density 23.594812000000001
#
# number of rings (size 3 to 8) (size 9 to 14) (size 15 to 20)
#    0.000    2.200    2.000    0.600    0.000    6.800 
#    0.000    3.000    0.000   10.800    0.000    0.000 
#    0.000    0.000    0.000    0.000    0.000    0.000 
#
# Total GULP energy -222781.349891 kJ/mol
# GULP energy per Si atom -5569.533747 kJ/mol
# Density = 2.354111 g / cm^3
# Si number density = 23.594812 Si / 1000 Ang^3
#
#
#
# Elastic Constant Matrix: (Units=GPa)
#
#
# Indices 1 2 3 4 5 6 
#
# 1 89.7338 13.1493 43.1922 0.0000 0.0000 0.0000
# 2 13.1493 94.6998 31.2773 0.0000 0.0000 0.0000
# 3 43.1922 31.2773 197.3350 0.0000 0.0000 0.0000
# 4 0.0000 0.0000 0.0000 -4.8661 0.0000 0.0000
# 5 0.0000 0.0000 0.0000 0.0000 19.8012 0.0000
# 6 0.0000 0.0000 0.0000 0.0000 0.0000 41.8954
#
#
#
# Elastic Compliance Matrix: (Units=1/GPa)
#
#
# Indices 1 2 3 4 5 6 
#
# 1 0.012525 -0.000880 -0.002602 0.000000 0.000000 0.000000
# 2 -0.000880 0.011205 -0.001583 0.000000 0.000000 0.000000
# 3 -0.002602 -0.001583 0.005888 0.000000 0.000000 0.000000
# 4 0.000000 0.000000 0.000000 -0.205501 0.000000 0.000000
# 5 0.000000 0.000000 0.000000 0.000000 0.050502 0.000000
# 6 0.000000 0.000000 0.000000 0.000000 0.000000 0.023869
#
#
# Mechanical properties :
#
#
# Convention : Reuss Voigt Hill
#
# Bulk Modulus (GPa) = 51.31417 61.88957 56.60187
# Shear Modulus (GPa) = -58.90279 30.97609 -13.96335
#
# Velocity S-wave (km/s) = -5.00185 3.62724 -2.43533
# Velocity P-wave (km/s) = 3.40040 6.62039 4.01664
#
# Compressibility (1/GPa) = 0.01948779
#
# Stress axis : x y z
#
# Youngs Moduli (GPa) = 79.83730 89.24753 169.83614
#
# Poissons Ratio (x) = 0.07852 0.44193
# Poissons Ratio (y) = 0.07024 0.26891
# Poissons Ratio (z) = 0.20774 0.14131
#
# Static dielectric constant tensor:
#      x y z
#    x 1.864720 0.000000 0.000000 
#    y 0.000000 1.988650 0.000000 
#    z 0.000000 0.000000 1.904400 
# 
# From -- ./inp_files/11310.got.cif
#   From: 2010.05.17/outbox.cif.g08.bks.cpg/sg55_6_cif.got.tgz:11310.got - 2010.06.03 13:27:54.
