data_PCOD9425476
_publ_section_title
;
Structure prediction by ZEFSAII (Michael W. Deem and Ramdas Pophale) SiO2 
 PCOD9425476
Probable space group: P B A M
;
_chemical_formula_sum "Si O2"
_cell_formula_units_Z 64
_cell_length_a 24.935007
_cell_length_b 14.296223
_cell_length_c 7.457565
_cell_angle_alpha 90.000000
_cell_angle_beta 90.000000
_cell_angle_gamma 90.000000
_cell_volume 2658.446077
_symmetry_space_group_name_H-M "P B A M"
_symmetry_group_IT_number 55
_symmetry_cell_setting 'orthorhombic'
loop_
_space_group_symop_operation_xyz
x,y,z
-x,-y,z
1/2+x,1/2-y,-z
1/2-x,1/2+y,-z
-x,-y,-z
x,y,-z
1/2-x,1/2+y,z
1/2+x,1/2-y,z
loop_
_atom_site_type_symbol
_atom_site_label
_atom_site_fract_x
_atom_site_fract_y
_atom_site_fract_z
Si Si1 0.328776 0.865547 0.782179
Si Si2 0.460327 0.612428 0.293262
Si Si3 0.575137 0.659352 0.291779
Si Si4 0.176683 0.567924 0.780782
Si Si5 0.279341 0.669885 0.780080
Si Si6 0.063531 0.628901 0.203231
Si Si7 0.948955 0.669872 0.782076
Si Si8 0.144131 0.006788 0.199276
O O1 0.301712 0.769741 0.718882
O O2 0.391377 0.869054 0.729926
O O3 0.303607 0.964457 0.728790
O O4 0.327519 0.862014 0.000000
O O5 0.456668 0.580318 0.500000
O O6 0.521686 0.603706 0.228350
O O7 0.450692 0.723389 0.282262
O O8 0.411792 0.563650 0.193729
O O9 0.565267 0.680006 0.500000
O O10 0.576211 0.759522 0.198012
O O11 0.626642 0.593087 0.277198
O O12 0.218668 0.647078 0.727248
O O13 0.116491 0.584743 0.713746
O O14 0.174597 0.570594 0.000000
O O15 0.315230 0.581728 0.717406
O O16 0.282697 0.670273 0.000000
O O17 0.003748 0.620783 0.281097
O O18 0.059972 0.591328 0.000000
O O19 0.951359 0.671631 0.000000
O O20 0.164561 0.986543 0.000000
#
# Coordination Sequence:
#
# PCOD9425476 Si02
#       8
#     8   8   8   8   8   8   8   8
#     4   9  16  29  49  73 105 139 168 211 266 313
#     4  10  19  31  48  73 106 141 177 214 259 317
#     4  10  21  34  49  73 107 145 176 209 264 322
#     4   9  18  31  50  79 108 135 173 219 267 314
#     4   9  18  31  48  75 108 138 170 215 268 316
#     4   9  18  32  51  78 106 135 176 222 263 314
#     4   9  16  29  50  75 106 138 171 215 270 315
#     4  11  20  31  50  76 103 137 180 222 264 309
#
# _framework density 24.074213
#
# number of rings (size 3 to 8) (size 9 to 14) (size 15 to 20)
#    0.000    2.500    1.250    1.500    0.000    4.500 
#    0.000    6.250    0.000    2.250    0.000    3.500 
#    0.000    0.000    0.000    0.000    0.000    0.000 
#
# Total GULP energy -357399.586696 kJ/mol
# GULP energy per Si atom -5584.368542 kJ/mol
# Density = 2.401942 g / cm^3
# Si number density = 24.074213 Si / 1000 Ang^3
#
#
#
# Elastic Constant Matrix: (Units=GPa)
#
#
# Indices 1 2 3 4 5 6 
#
# 1 103.8894 58.5873 0.2032 0.0000 0.0000 0.0000
# 2 58.5873 92.1748 -3.4418 0.0000 0.0000 0.0000
# 3 0.2032 -3.4418 72.9796 0.0000 0.0000 0.0000
# 4 0.0000 0.0000 0.0000 -74.6567 0.0000 0.0000
# 5 0.0000 0.0000 0.0000 0.0000 144.2477 0.0000
# 6 0.0000 0.0000 0.0000 0.0000 0.0000 35.3549
#
#
#
# Elastic Compliance Matrix: (Units=1/GPa)
#
#
# Indices 1 2 3 4 5 6 
#
# 1 0.015021 -0.009566 -0.000493 0.000000 0.000000 0.000000
# 2 -0.009566 0.016960 0.000827 0.000000 0.000000 0.000000
# 3 -0.000493 0.000827 0.013743 0.000000 0.000000 0.000000
# 4 0.000000 0.000000 0.000000 -0.013395 0.000000 0.000000
# 5 0.000000 0.000000 0.000000 0.000000 0.006933 0.000000
# 6 0.000000 0.000000 0.000000 0.000000 0.000000 0.028285
#
#
# Mechanical properties :
#
#
# Convention : Reuss Voigt Hill
#
# Bulk Modulus (GPa) = 36.68504 42.19347 39.43926
# Shear Modulus (GPa) = 52.57721 35.23550 43.90635
#
# Velocity S-wave (km/s) = 4.67836 3.82988 4.27522
# Velocity P-wave (km/s) = 6.66739 6.09276 6.38654
#
# Compressibility (1/GPa) = 0.02725907
#
# Stress axis : x y z
#
# Youngs Moduli (GPa) = 66.57221 58.96185 72.76532
#
# Poissons Ratio (x) = 0.56403 0.03587
# Poissons Ratio (y) = 0.63684 -0.06014
# Poissons Ratio (z) = 0.03282 -0.04873
#
# Static dielectric constant tensor:
#      x y z
#    x 1.915170 0.000000 0.000000 
#    y 0.000000 1.899690 0.000000 
#    z 0.000000 0.000000 1.917040 
# 
# From -- ./inp_files/9678.got.cif
#   From: 2010.05.17/outbox.cif.g08.bks.cpg/sg55_5_cif.got.tgz:9678.got - 2010.06.03 13:27:54.
