data_PCOD9425851
_publ_section_title
;
Structure prediction by ZEFSAII (Michael W. Deem and Ramdas Pophale) SiO2 
 PCOD9425851
Probable space group: P B A M
;
_chemical_formula_sum "Si O2"
_cell_formula_units_Z 64
_cell_length_a 15.904818
_cell_length_b 11.398469
_cell_length_c 17.985429
_cell_angle_alpha 90.000000
_cell_angle_beta 90.000000
_cell_angle_gamma 90.000000
_cell_volume 3260.588764
_symmetry_space_group_name_H-M "P B A M"
_symmetry_group_IT_number 55
_symmetry_cell_setting 'orthorhombic'
loop_
_space_group_symop_operation_xyz
x,y,z
-x,-y,z
1/2+x,1/2-y,-z
1/2-x,1/2+y,-z
-x,-y,-z
x,y,-z
1/2-x,1/2+y,z
1/2+x,1/2-y,z
loop_
_atom_site_type_symbol
_atom_site_label
_atom_site_fract_x
_atom_site_fract_y
_atom_site_fract_z
Si Si1 0.687316 0.253291 0.335627
Si Si2 0.018805 0.361803 0.664929
Si Si3 0.534514 0.134627 0.159914
Si Si4 0.364560 0.274354 0.586799
Si Si5 0.789755 0.130074 0.204740
Si Si6 0.380708 0.222603 0.917602
Si Si7 0.189919 0.462613 0.083605
Si Si8 0.899663 0.007104 0.324289
O O1 0.609690 0.175999 0.367723
O O2 0.771666 0.262654 0.385199
O O3 0.722807 0.188452 0.261252
O O4 0.646396 0.381408 0.323863
O O5 0.030167 0.334691 0.753056
O O6 0.000000 0.500000 0.656641
O O7 0.939853 0.291124 0.631314
O O8 0.474230 0.219757 0.114458
O O9 0.622897 0.129027 0.117538
O O10 0.500000 0.000000 0.157132
O O11 0.374143 0.250962 0.500000
O O12 0.374172 0.412570 0.605366
O O13 0.822039 0.221200 0.144090
O O14 0.754856 0.028305 0.151317
O O15 0.864180 0.080666 0.254952
O O16 0.353814 0.087609 0.923383
O O17 0.376580 0.274871 0.000000
O O18 0.217599 0.429567 0.000000
O O19 0.000000 0.000000 0.321800
#
# Coordination Sequence:
#
# PCOD9425851 Si02
#       8
#     8   8   8   8   8   8   8   8
#     4  11  24  43  67  99 128 170 219 268 321 387
#     4  11  23  42  70 100 133 165 217 268 324 384
#     4   9  17  32  56  83 113 153 198 257 306 364
#     4  11  27  46  69  99 132 170 209 262 329 395
#     4  11  22  36  61  87 123 167 217 271 319 370
#     4  10  20  33  52  83 121 162 209 261 319 378
#     4  10  19  33  54  85 121 159 205 262 325 375
#     4  11  24  45  67  94 127 172 225 266 314 392
#
# _framework density 19.628356
#
# number of rings (size 3 to 8) (size 9 to 14) (size 15 to 20)
#    0.000    1.500    2.500    3.000    3.500    3.000 
#    0.000    0.000    0.000    1.500    0.000    0.000 
#    0.000    0.000    0.000    0.000    0.000    0.000 
#
# Total GULP energy -356811.588761 kJ/mol
# GULP energy per Si atom -5575.181074 kJ/mol
# Density = 1.958368 g / cm^3
# Si number density = 19.628356 Si / 1000 Ang^3
#
#
#
# Elastic Constant Matrix: (Units=GPa)
#
#
# Indices 1 2 3 4 5 6 
#
# 1 132.1573 35.3578 40.9598 0.0000 0.0000 0.0000
# 2 35.3578 65.2403 27.4276 0.0000 0.0000 0.0000
# 3 40.9598 27.4276 104.6254 0.0000 0.0000 0.0000
# 4 0.0000 0.0000 0.0000 12.2821 0.0000 0.0000
# 5 0.0000 0.0000 0.0000 0.0000 25.8218 0.0000
# 6 0.0000 0.0000 0.0000 0.0000 0.0000 32.9353
#
#
#
# Elastic Compliance Matrix: (Units=1/GPa)
#
#
# Indices 1 2 3 4 5 6 
#
# 1 0.009463 -0.004013 -0.002652 0.000000 0.000000 0.000000
# 2 -0.004013 0.018929 -0.003391 0.000000 0.000000 0.000000
# 3 -0.002652 -0.003391 0.011485 0.000000 0.000000 0.000000
# 4 0.000000 0.000000 0.000000 0.081419 0.000000 0.000000
# 5 0.000000 0.000000 0.000000 0.000000 0.038727 0.000000
# 6 0.000000 0.000000 0.000000 0.000000 0.000000 0.030363
#
#
# Mechanical properties :
#
#
# Convention : Reuss Voigt Hill
#
# Bulk Modulus (GPa) = 50.59943 56.61260 53.60602
# Shear Modulus (GPa) = 23.03234 27.42637 25.22936
#
# Velocity S-wave (km/s) = 3.42924 3.74208 3.58907
# Velocity P-wave (km/s) = 6.44316 6.89752 6.67421
#
# Compressibility (1/GPa) = 0.01976307
#
# Stress axis : x y z
#
# Youngs Moduli (GPa) = 105.68011 52.83019 87.06824
#
# Poissons Ratio (x) = 0.21202 0.23094
# Poissons Ratio (y) = 0.42412 0.29525
# Poissons Ratio (z) = 0.28031 0.17915
#
# Static dielectric constant tensor:
#      x y z
#    x 1.750440 0.000000 0.000000 
#    y 0.000000 1.708200 0.000000 
#    z 0.000000 0.000000 1.685660 
# 
# From -- ./inp_files/21664.got.cif
#   From: 2010.05.17/outbox.cif.g08.bks.cpg/sg55_11_cif.got.tgz:21664.got - 2010.06.03 13:27:54.
