data_PCOD9425452
_publ_section_title
;
Structure prediction by ZEFSAII (Michael W. Deem and Ramdas Pophale) SiO2 
 PCOD9425452
Probable space group: P B A M
;
_chemical_formula_sum "Si O2"
_cell_formula_units_Z 48
_cell_length_a 26.201908
_cell_length_b 9.919895
_cell_length_c 11.194749
_cell_angle_alpha 90.000000
_cell_angle_beta 90.000000
_cell_angle_gamma 90.000000
_cell_volume 2909.741132
_symmetry_space_group_name_H-M "P B A M"
_symmetry_group_IT_number 55
_symmetry_cell_setting 'orthorhombic'
loop_
_space_group_symop_operation_xyz
x,y,z
-x,-y,z
1/2+x,1/2-y,-z
1/2-x,1/2+y,-z
-x,-y,-z
x,y,-z
1/2-x,1/2+y,z
1/2+x,1/2-y,z
loop_
_atom_site_type_symbol
_atom_site_label
_atom_site_fract_x
_atom_site_fract_y
_atom_site_fract_z
Si Si1 0.365929 0.769456 0.141848
Si Si2 0.816111 0.229405 0.500000
Si Si3 0.060220 0.505347 0.143942
Si Si4 0.360697 0.208786 0.243138
Si Si5 0.737163 0.003388 0.500000
Si Si6 0.214925 0.471231 0.765951
Si Si7 0.829864 0.014096 0.857759
O O1 0.411574 0.866932 0.183209
O O2 0.313868 0.849456 0.170135
O O3 0.359903 0.617830 0.187823
O O4 0.372205 0.759510 0.000000
O O5 0.848734 0.257915 0.618639
O O6 0.791420 0.080352 0.500000
O O7 0.769523 0.340325 0.500000
O O8 0.088533 0.625412 0.213604
O O9 0.000000 0.500000 0.164380
O O10 0.068655 0.522591 0.000000
O O11 0.358226 0.348246 0.173187
O O12 0.314763 0.108804 0.202369
O O13 0.710817 0.047634 0.376792
O O14 0.273868 0.480270 0.799446
O O15 0.823033 0.002849 0.000000
#
# Coordination Sequence:
#
# PCOD9425452 Si02
#       7
#     8   4   8   8   4   8   8
#     4   9  19  32  48  74 102 130 166 204 245 298
#     4  10  20  34  49  72 102 134 173 206 240 286
#     4   9  18  36  58  75  96 128 165 209 260 310
#     4  10  20  33  50  73  99 131 170 205 248 295
#     4  10  20  30  46  68  97 137 171 196 230 281
#     4  10  19  31  46  68 101 137 168 194 233 292
#     4  11  20  29  45  72 103 132 161 199 245 291
#
# _framework density 16.496314000000002
#
# number of rings (size 3 to 8) (size 9 to 14) (size 15 to 20)
#    0.000    2.167    1.667    2.000    2.333    3.333 
#    0.000    1.250    0.000    4.000    0.000    1.167 
#    0.000    0.000    0.000    0.000    0.000    0.000 
#
# Total GULP energy -267462.251958 kJ/mol
# GULP energy per Si atom -5572.130249 kJ/mol
# Density = 1.645877 g / cm^3
# Si number density = 16.496314 Si / 1000 Ang^3
#
#
#
# Elastic Constant Matrix: (Units=GPa)
#
#
# Indices 1 2 3 4 5 6 
#
# 1 95.8767 51.6205 15.7352 0.0000 0.0000 0.0000
# 2 51.6205 119.3621 13.8009 0.0000 0.0000 0.0000
# 3 15.7352 13.8009 13.1140 0.0000 0.0000 0.0000
# 4 0.0000 0.0000 0.0000 16.5918 0.0000 0.0000
# 5 0.0000 0.0000 0.0000 0.0000 4.7855 0.0000
# 6 0.0000 0.0000 0.0000 0.0000 0.0000 4.5571
#
#
#
# Elastic Compliance Matrix: (Units=1/GPa)
#
#
# Indices 1 2 3 4 5 6 
#
# 1 0.015321 -0.005124 -0.012991 0.000000 0.000000 0.000000
# 2 -0.005124 0.011252 -0.005694 0.000000 0.000000 0.000000
# 3 -0.012991 -0.005694 0.097833 0.000000 0.000000 0.000000
# 4 0.000000 0.000000 0.000000 0.060271 0.000000 0.000000
# 5 0.000000 0.000000 0.000000 0.000000 0.208966 0.000000
# 6 0.000000 0.000000 0.000000 0.000000 0.000000 0.219437
#
#
# Mechanical properties :
#
#
# Convention : Reuss Voigt Hill
#
# Bulk Modulus (GPa) = 13.02256 43.40734 28.21495
# Shear Modulus (GPa) = 7.28553 14.99997 11.14275
#
# Velocity S-wave (km/s) = 2.10382 3.01872 2.60180
# Velocity P-wave (km/s) = 3.71655 6.20650 5.11534
#
# Compressibility (1/GPa) = 0.07678981
#
# Stress axis : x y z
#
# Youngs Moduli (GPa) = 65.27092 88.87292 10.22147
#
# Poissons Ratio (x) = 0.45536 0.13279
# Poissons Ratio (y) = 0.33443 0.05820
# Poissons Ratio (z) = 0.84793 0.50600
#
# Static dielectric constant tensor:
#      x y z
#    x 1.522430 0.000000 0.000000 
#    y 0.000000 1.581120 0.000000 
#    z 0.000000 0.000000 1.565890 
# 
# From -- ./inp_files/12259.got.cif
#   From: 2010.05.17/outbox.cif.g08.bks.cpg/sg55_7_cif.got.tgz:12259.got - 2010.06.03 13:27:54.
