data_PCOD9425856
_publ_section_title
;
Structure prediction by ZEFSAII (Michael W. Deem and Ramdas Pophale) SiO2 
 PCOD9425856
Probable space group: P B A M
;
_chemical_formula_sum "Si O2"
_cell_formula_units_Z 56
_cell_length_a 19.573657
_cell_length_b 17.804179
_cell_length_c 9.389515
_cell_angle_alpha 90.000000
_cell_angle_beta 90.000000
_cell_angle_gamma 90.000000
_cell_volume 3272.179245
_symmetry_space_group_name_H-M "P B A M"
_symmetry_group_IT_number 55
_symmetry_cell_setting 'orthorhombic'
loop_
_space_group_symop_operation_xyz
x,y,z
-x,-y,z
1/2+x,1/2-y,-z
1/2-x,1/2+y,-z
-x,-y,-z
x,y,-z
1/2-x,1/2+y,z
1/2+x,1/2-y,z
loop_
_atom_site_type_symbol
_atom_site_label
_atom_site_fract_x
_atom_site_fract_y
_atom_site_fract_z
Si Si1 0.104244 0.381529 0.331048
Si Si2 0.621477 0.290123 0.329814
Si Si3 0.571632 0.540707 0.170812
Si Si4 0.038395 0.811475 0.329906
Si Si5 0.557624 0.860523 0.668854
Si Si6 0.343717 0.025950 0.170036
Si Si7 0.189628 0.076692 0.829852
O O1 0.115566 0.394087 0.500000
O O2 0.130150 0.297798 0.295022
O O3 0.138484 0.446114 0.239519
O O4 0.022177 0.380858 0.309338
O O5 0.629316 0.297893 0.500000
O O6 0.542661 0.310885 0.295268
O O7 0.670662 0.346491 0.248689
O O8 0.500000 0.500000 0.207641
O O9 0.573437 0.620857 0.247221
O O10 0.633938 0.486369 0.211634
O O11 0.572927 0.550936 0.000000
O O12 0.044525 0.821958 0.500000
O O13 0.065315 0.727882 0.296640
O O14 0.571568 0.870517 0.500000
O O15 0.605738 0.913102 0.760967
O O16 0.265814 0.049145 0.201484
O O17 0.352518 0.023190 0.000000
O O18 0.183420 0.087601 0.000000
#
# Coordination Sequence:
#
# PCOD9425856 Si02
#       7
#     8   8   8   8   8   8   8
#     4   9  19  37  60  83 107 138 178 225 274 321
#     4   9  18  34  57  82 105 134 175 220 268 320
#     4  10  19  33  55  78 104 143 183 218 263 319
#     4   9  18  33  55  84 109 131 171 225 272 313
#     4   9  19  37  59  81 109 141 175 225 278 320
#     4  11  23  37  53  79 112 146 183 222 267 321
#     4  10  22  38  52  74 111 148 180 218 268 318
#
# _framework density 17.113976999999998
#
# number of rings (size 3 to 8) (size 9 to 14) (size 15 to 20)
#    0.000    2.429    1.429    2.571    0.000    5.429 
#    2.571    2.857    0.000    0.000    0.000    0.000 
#    0.000    0.000    0.000    0.000    0.000    0.000 
#
# Total GULP energy -312482.641255 kJ/mol
# GULP energy per Si atom -5580.047165 kJ/mol
# Density = 1.707502 g / cm^3
# Si number density = 17.113977 Si / 1000 Ang^3
#
#
#
# Elastic Constant Matrix: (Units=GPa)
#
#
# Indices 1 2 3 4 5 6 
#
# 1 93.9123 97.1412 63.6458 0.0000 0.0000 0.0000
# 2 97.1412 171.5461 84.3643 0.0000 0.0000 0.0000
# 3 63.6458 84.3643 52.5073 0.0000 0.0000 0.0000
# 4 0.0000 0.0000 0.0000 109.9783 0.0000 0.0000
# 5 0.0000 0.0000 0.0000 0.0000 24.9400 0.0000
# 6 0.0000 0.0000 0.0000 0.0000 0.0000 13.8531
#
#
#
# Elastic Compliance Matrix: (Units=1/GPa)
#
#
# Indices 1 2 3 4 5 6 
#
# 1 0.062356 0.008869 -0.089833 0.000000 0.000000 0.000000
# 2 0.008869 0.029042 -0.057412 0.000000 0.000000 0.000000
# 3 -0.089833 -0.057412 0.220179 0.000000 0.000000 0.000000
# 4 0.000000 0.000000 0.000000 0.009093 0.000000 0.000000
# 5 0.000000 0.000000 0.000000 0.000000 0.040096 0.000000
# 6 0.000000 0.000000 0.000000 0.000000 0.000000 0.072186
#
#
# Mechanical properties :
#
#
# Convention : Reuss Voigt Hill
#
# Bulk Modulus (GPa) = 28.71563 89.80757 59.26160
# Shear Modulus (GPa) = 6.93180 34.60856 20.77018
#
# Velocity S-wave (km/s) = 2.01474 4.50181 3.48751
# Velocity P-wave (km/s) = 4.71463 8.92254 7.13581
#
# Compressibility (1/GPa) = 0.03482424
#
# Stress axis : x y z
#
# Youngs Moduli (GPa) = 16.03688 34.43331 4.54176
#
# Poissons Ratio (x) = -0.30537 0.40800
# Poissons Ratio (y) = -0.14222 0.26075
# Poissons Ratio (z) = 1.44065 1.97687
#
# Static dielectric constant tensor:
#      x y z
#    x 1.561660 0.000000 0.000000 
#    y 0.000000 1.565960 0.000000 
#    z 0.000000 0.000000 1.561540 
# 
# From -- ./inp_files/8898.got.cif
#   From: 2010.05.17/outbox.cif.g08.bks.cpg/sg55_5_cif.got.tgz:8898.got - 2010.06.03 13:27:54.
