data_PCOD9425372
_publ_section_title
;
Structure prediction by ZEFSAII (Michael W. Deem and Ramdas Pophale) SiO2 
 PCOD9425372
Probable space group: P B A M
;
_chemical_formula_sum "Si O2"
_cell_formula_units_Z 36
_cell_length_a 11.430386
_cell_length_b 27.724443
_cell_length_c 5.556431
_cell_angle_alpha 90.000000
_cell_angle_beta 90.000000
_cell_angle_gamma 90.000000
_cell_volume 1760.839013
_symmetry_space_group_name_H-M "P B A M"
_symmetry_group_IT_number 55
_symmetry_cell_setting 'orthorhombic'
loop_
_space_group_symop_operation_xyz
x,y,z
-x,-y,z
1/2+x,1/2-y,-z
1/2-x,1/2+y,-z
-x,-y,-z
x,y,-z
1/2-x,1/2+y,z
1/2+x,1/2-y,z
loop_
_atom_site_type_symbol
_atom_site_label
_atom_site_fract_x
_atom_site_fract_y
_atom_site_fract_z
Si Si1 0.542391 0.726991 0.500000
Si Si2 0.008955 0.201429 0.000000
Si Si3 0.853062 0.662899 0.500000
Si Si4 0.625275 0.616251 0.500000
Si Si5 0.237902 0.290561 0.000000
Si Si6 0.447598 0.553955 0.749470
Si Si7 0.369882 0.170022 0.500000
Si Si8 0.749619 0.326971 0.000000
O O1 0.474716 0.730311 0.751015
O O2 0.587939 0.672233 0.500000
O O3 0.631669 0.770975 0.500000
O O4 0.252621 0.232313 0.000000
O O5 0.111008 0.162575 0.000000
O O6 0.764950 0.616902 0.500000
O O7 0.819150 0.689532 0.247402
O O8 0.992817 0.656102 0.500000
O O9 0.559666 0.589189 0.718473
O O10 0.871846 0.189918 0.000000
O O11 0.500000 0.500000 0.746670
O O12 0.379186 0.561597 0.500000
O O13 0.383679 0.559859 0.000000
O O14 0.308600 0.156070 0.751398
#
# Coordination Sequence:
#
# PCOD9425372 Si02
#       8
#     4   4   4   4   4   8   4   4
#     4  12  21  34  49  73  99 118 180 202 272 277
#     4  12  22  36  50  72  88 129 163 224 251 305
#     4  12  24  33  56  69 109 122 176 218 257 293
#     4  10  19  29  50  74  98 136 160 213 231 315
#     4  12  21  38  47  76  88 126 164 222 261 302
#     4   8  16  28  44  68  99 133 155 183 243 309
#     4  12  23  40  47  74  90 142 169 226 252 297
#     4  12  23  38  55  60  96 127 180 209 268 297
#
# _framework density 20.444800000000001
#
# number of rings (size 3 to 8) (size 9 to 14) (size 15 to 20)
#    0.667    0.444    4.444    3.333    3.111    0.000 
#    0.000    0.000    0.000    0.000    0.000    0.000 
#    0.000    0.000    0.000   24.000    0.000    0.000 
#
# Total GULP energy -200439.028574 kJ/mol
# GULP energy per Si atom -5567.750794 kJ/mol
# Density = 2.039827 g / cm^3
# Si number density = 20.444800 Si / 1000 Ang^3
#
#
#
# Elastic Constant Matrix: (Units=GPa)
#
#
# Indices 1 2 3 4 5 6 
#
# 1 123.3439 -4.7995 47.6110 0.0000 0.0000 0.0000
# 2 -4.7995 52.3731 -6.7248 0.0000 0.0000 0.0000
# 3 47.6110 -6.7248 240.9498 0.0000 0.0000 0.0000
# 4 0.0000 0.0000 0.0000 -9.1301 0.0000 0.0000
# 5 0.0000 0.0000 0.0000 0.0000 -10.5850 0.0000
# 6 0.0000 0.0000 0.0000 0.0000 0.0000 8.1765
#
#
#
# Elastic Compliance Matrix: (Units=1/GPa)
#
#
# Indices 1 2 3 4 5 6 
#
# 1 0.008795 0.000585 -0.001721 0.000000 0.000000 0.000000
# 2 0.000585 0.019201 0.000420 0.000000 0.000000 0.000000
# 3 -0.001721 0.000420 0.004502 0.000000 0.000000 0.000000
# 4 0.000000 0.000000 0.000000 -0.109527 0.000000 0.000000
# 5 0.000000 0.000000 0.000000 0.000000 -0.094473 0.000000
# 6 0.000000 0.000000 0.000000 0.000000 0.000000 0.122302
#
#
# Mechanical properties :
#
#
# Convention : Reuss Voigt Hill
#
# Bulk Modulus (GPa) = 32.18989 54.31558 43.25273
# Shear Modulus (GPa) = -133.64669 23.06427 -55.29121
#
# Velocity S-wave (km/s) = -8.09391 3.36240 -5.20604
# Velocity P-wave (km/s) = 8.45988 6.45747 3.86463
#
# Compressibility (1/GPa) = 0.03106566
#
# Stress axis : x y z
#
# Youngs Moduli (GPa) = 113.70533 52.07967 222.11706
#
# Poissons Ratio (x) = -0.03046 0.38237
# Poissons Ratio (y) = -0.06651 -0.09336
# Poissons Ratio (z) = 0.19574 -0.02189
#
# Static dielectric constant tensor:
#      x y z
#    x 1.748000 0.000000 0.000000 
#    y 0.000000 1.740900 0.000000 
#    z 0.000000 0.000000 1.881490 
# 
# From -- ./inp_files/551.got.cif
#   From: 2010.05.17/outbox.cif.g08.bks.cpg/sg55_1_cif.got.tgz:551.got - 2010.06.03 13:27:54.
