data_PCOD9425521
_publ_section_title
;
Structure prediction by ZEFSAII (Michael W. Deem and Ramdas Pophale) SiO2 
 PCOD9425521
Probable space group: P B A M
;
_chemical_formula_sum "Si O2"
_cell_formula_units_Z 48
_cell_length_a 15.978742
_cell_length_b 15.213126
_cell_length_c 9.339062
_cell_angle_alpha 90.000000
_cell_angle_beta 90.000000
_cell_angle_gamma 90.000000
_cell_volume 2270.200972
_symmetry_space_group_name_H-M "P B A M"
_symmetry_group_IT_number 55
_symmetry_cell_setting 'orthorhombic'
loop_
_space_group_symop_operation_xyz
x,y,z
-x,-y,z
1/2+x,1/2-y,-z
1/2-x,1/2+y,-z
-x,-y,-z
x,y,-z
1/2-x,1/2+y,z
1/2+x,1/2-y,z
loop_
_atom_site_type_symbol
_atom_site_label
_atom_site_fract_x
_atom_site_fract_y
_atom_site_fract_z
Si Si1 0.588076 0.549533 0.666098
Si Si2 0.094156 0.490341 0.661206
Si Si3 0.919575 0.233663 0.171850
Si Si4 0.234403 0.265348 0.163620
Si Si5 0.920915 0.715830 0.658964
Si Si6 0.252777 0.480208 0.164584
O O1 0.500000 0.500000 0.669537
O O2 0.609421 0.568689 0.500000
O O3 0.576377 0.637499 0.758002
O O4 0.665606 0.499959 0.740783
O O5 0.097224 0.529902 0.500000
O O6 0.104438 0.385693 0.644904
O O7 0.169036 0.518446 0.763786
O O8 0.000000 0.500000 0.718598
O O9 0.826323 0.268416 0.205613
O O10 0.996748 0.282776 0.243775
O O11 0.926924 0.229952 0.000000
O O12 0.158011 0.239133 0.264662
O O13 0.243415 0.372723 0.163958
O O14 0.216130 0.240043 0.000000
O O15 0.937951 0.752040 0.500000
O O16 0.262376 0.507530 0.000000
#
# Coordination Sequence:
#
# PCOD9425521 Si02
#       6
#     8   8   8   8   8   8
#     4  10  20  34  53  76 101 130 165 205 247 293
#     4   9  18  33  52  74 101 134 170 207 248 294
#     4  10  20  34  53  75 101 132 165 205 249 295
#     4   8  16  31  49  69  94 128 167 202 241 292
#     4  10  19  31  51  76 100 130 167 207 249 294
#     4   9  17  30  50  74  99 131 168 203 244 296
#
# _framework density 21.143502999999999
#
# number of rings (size 3 to 8) (size 9 to 14) (size 15 to 20)
#    0.000    2.667    0.000    3.000    0.000    7.000 
#    0.000    1.667    0.000    6.000    0.000    0.000 
#    0.000    0.000    0.000    0.000    0.000    0.000 
#
# Total GULP energy -267788.254180 kJ/mol
# GULP energy per Si atom -5578.921962 kJ/mol
# Density = 2.109538 g / cm^3
# Si number density = 21.143503 Si / 1000 Ang^3
#
#
#
# Elastic Constant Matrix: (Units=GPa)
#
#
# Indices 1 2 3 4 5 6 
#
# 1 152.4060 1.7621 94.0089 0.0000 0.0000 0.0000
# 2 1.7621 27.7979 5.7291 0.0000 0.0000 0.0000
# 3 94.0089 5.7291 126.8751 0.0000 0.0000 0.0000
# 4 0.0000 0.0000 0.0000 11.9118 0.0000 0.0000
# 5 0.0000 0.0000 0.0000 0.0000 34.5666 0.0000
# 6 0.0000 0.0000 0.0000 0.0000 0.0000 18.5226
#
#
#
# Elastic Compliance Matrix: (Units=1/GPa)
#
#
# Indices 1 2 3 4 5 6 
#
# 1 0.012117 0.001092 -0.009028 0.000000 0.000000 0.000000
# 2 0.001092 0.036410 -0.002454 0.000000 0.000000 0.000000
# 3 -0.009028 -0.002454 0.014682 0.000000 0.000000 0.000000
# 4 0.000000 0.000000 0.000000 0.083951 0.000000 0.000000
# 5 0.000000 0.000000 0.000000 0.000000 0.028930 0.000000
# 6 0.000000 0.000000 0.000000 0.000000 0.000000 0.053988
#
#
# Mechanical properties :
#
#
# Convention : Reuss Voigt Hill
#
# Bulk Modulus (GPa) = 23.56727 56.67548 40.12137
# Shear Modulus (GPa) = 18.86794 26.70546 22.78670
#
# Velocity S-wave (km/s) = 2.99051 3.55781 3.28642
# Velocity P-wave (km/s) = 4.80570 6.61367 5.78080
#
# Compressibility (1/GPa) = 0.04243173
#
# Stress axis : x y z
#
# Youngs Moduli (GPa) = 82.52556 27.46467 68.11149
#
# Poissons Ratio (x) = -0.03001 0.61490
# Poissons Ratio (y) = -0.09016 0.16712
# Poissons Ratio (z) = 0.74503 0.06739
#
# Static dielectric constant tensor:
#      x y z
#    x 1.765230 0.000000 0.000000 
#    y 0.000000 1.819550 0.000000 
#    z 0.000000 0.000000 1.749630 
# 
# From -- ./inp_files/5565.got.cif
#   From: 2010.05.17/outbox.cif.g08.bks.cpg/sg55_3_cif.got.tgz:5565.got - 2010.06.03 13:27:54.
