data_PCOD9425656
_publ_section_title
;
Structure prediction by ZEFSAII (Michael W. Deem and Ramdas Pophale) SiO2 
 PCOD9425656
Probable space group: P B A M
;
_chemical_formula_sum "Si O2"
_cell_formula_units_Z 48
_cell_length_a 14.116176
_cell_length_b 19.021798
_cell_length_c 7.734880
_cell_angle_alpha 90.000000
_cell_angle_beta 90.000000
_cell_angle_gamma 90.000000
_cell_volume 2076.931678
_symmetry_space_group_name_H-M "P B A M"
_symmetry_group_IT_number 55
_symmetry_cell_setting 'orthorhombic'
loop_
_space_group_symop_operation_xyz
x,y,z
-x,-y,z
1/2+x,1/2-y,-z
1/2-x,1/2+y,-z
-x,-y,-z
x,y,-z
1/2-x,1/2+y,z
1/2+x,1/2-y,z
loop_
_atom_site_type_symbol
_atom_site_label
_atom_site_fract_x
_atom_site_fract_y
_atom_site_fract_z
Si Si1 0.769407 0.607801 0.205323
Si Si2 0.418366 0.773138 0.706781
Si Si3 0.891586 0.009554 0.292230
Si Si4 0.184266 0.140333 0.712060
Si Si5 0.382346 0.175284 0.694008
Si Si6 0.608237 0.978043 0.199559
O O1 0.827392 0.677007 0.259556
O O2 0.662694 0.582488 0.249461
O O3 0.831677 0.542246 0.272447
O O4 0.775372 0.607753 0.000000
O O5 0.428194 0.774438 0.500000
O O6 0.399319 0.693248 0.760869
O O7 0.519408 0.800083 0.777902
O O8 0.894124 0.006060 0.500000
O O9 0.833744 0.939762 0.231289
O O10 0.000000 0.000000 0.230758
O O11 0.190039 0.139114 0.500000
O O12 0.278937 0.179998 0.777886
O O13 0.376077 0.205940 0.500000
O O14 0.387392 0.091100 0.687943
O O15 0.500000 0.000000 0.192646
O O16 0.637294 0.962714 0.000000
#
# Coordination Sequence:
#
# PCOD9425656 Si02
#       6
#     8   8   8   8   8   8
#     4  11  22  36  56  83 114 147 185 233 283 337
#     4  10  21  35  55  83 113 148 188 236 289 338
#     4  10  21  38  62  87 112 151 196 239 286 341
#     4   9  19  36  55  81 115 147 188 235 284 342
#     4  10  19  32  55  81 107 142 182 230 280 331
#     4  10  19  32  52  79 110 141 174 219 274 329
#
# _framework density 23.111015999999999
#
# number of rings (size 3 to 8) (size 9 to 14) (size 15 to 20)
#    0.000    2.000    3.333    0.500    0.000    2.667 
#    0.000    6.667    0.000    2.000    0.000    0.000 
#    0.000    0.000    0.000    0.000    0.000    0.000 
#
# Total GULP energy -267538.132570 kJ/mol
# GULP energy per Si atom -5573.711095 kJ/mol
# Density = 2.305841 g / cm^3
# Si number density = 23.111016 Si / 1000 Ang^3
#
#
#
# Elastic Constant Matrix: (Units=GPa)
#
#
# Indices 1 2 3 4 5 6 
#
# 1 113.2880 14.5097 3.7659 0.0000 0.0000 0.0000
# 2 14.5097 55.6757 -3.5396 0.0000 0.0000 0.0000
# 3 3.7659 -3.5396 40.6585 0.0000 0.0000 0.0000
# 4 0.0000 0.0000 0.0000 -15.1628 0.0000 0.0000
# 5 0.0000 0.0000 0.0000 0.0000 10.7548 0.0000
# 6 0.0000 0.0000 0.0000 0.0000 0.0000 29.6663
#
#
#
# Elastic Compliance Matrix: (Units=1/GPa)
#
#
# Indices 1 2 3 4 5 6 
#
# 1 0.009177 -0.002459 -0.001064 0.000000 0.000000 0.000000
# 2 -0.002459 0.018720 0.001858 0.000000 0.000000 0.000000
# 3 -0.001064 0.001858 0.024855 0.000000 0.000000 0.000000
# 4 0.000000 0.000000 0.000000 -0.065951 0.000000 0.000000
# 5 0.000000 0.000000 0.000000 0.000000 0.092982 0.000000
# 6 0.000000 0.000000 0.000000 0.000000 0.000000 0.033708
#
#
# Mechanical properties :
#
#
# Convention : Reuss Voigt Hill
#
# Bulk Modulus (GPa) = 20.23433 26.56601 23.40017
# Shear Modulus (GPa) = 37.51003 18.04408 27.77705
#
# Velocity S-wave (km/s) = 4.03306 2.79723 3.47060
# Velocity P-wave (km/s) = 5.51922 4.68536 5.11929
#
# Compressibility (1/GPa) = 0.04942096
#
# Stress axis : x y z
#
# Youngs Moduli (GPa) = 108.96297 53.41826 40.23275
#
# Poissons Ratio (x) = 0.13138 0.04281
# Poissons Ratio (y) = 0.26798 -0.07473
# Poissons Ratio (z) = 0.11595 -0.09922
#
# Static dielectric constant tensor:
#      x y z
#    x 2.107200 0.000000 0.000000 
#    y 0.000000 1.850800 0.000000 
#    z 0.000000 0.000000 1.873070 
# 
# From -- ./inp_files/5663.got.cif
#   From: 2010.05.17/outbox.cif.g08.bks.cpg/sg55_3_cif.got.tgz:5663.got - 2010.06.03 13:27:54.
