data_PCOD9425546
_publ_section_title
;
Structure prediction by ZEFSAII (Michael W. Deem and Ramdas Pophale) SiO2 
 PCOD9425546
Probable space group: P B A M
;
_chemical_formula_sum "Si O2"
_cell_formula_units_Z 36
_cell_length_a 19.853521
_cell_length_b 5.130438
_cell_length_c 20.071992
_cell_angle_alpha 90.000000
_cell_angle_beta 90.000000
_cell_angle_gamma 90.000000
_cell_volume 2044.478079
_symmetry_space_group_name_H-M "P B A M"
_symmetry_group_IT_number 55
_symmetry_cell_setting 'orthorhombic'
loop_
_space_group_symop_operation_xyz
x,y,z
-x,-y,z
1/2+x,1/2-y,-z
1/2-x,1/2+y,-z
-x,-y,-z
x,y,-z
1/2-x,1/2+y,z
1/2+x,1/2-y,z
loop_
_atom_site_type_symbol
_atom_site_label
_atom_site_fract_x
_atom_site_fract_y
_atom_site_fract_z
Si Si1 0.000000 0.500000 0.668130
Si Si2 0.292124 0.624518 0.500000
Si Si3 0.797528 0.315507 0.145301
Si Si4 0.366012 0.771501 0.635277
Si Si5 0.297997 0.192631 0.000000
Si Si6 0.871762 0.245048 0.717851
O O1 0.054204 0.333480 0.626847
O O2 0.049081 0.683120 0.711315
O O3 0.271271 0.322346 0.500000
O O4 0.332814 0.694542 0.566430
O O5 0.759543 0.591774 0.149243
O O6 0.845754 0.277917 0.207863
O O7 0.832535 0.293146 0.072368
O O8 0.358790 0.537844 0.687770
O O9 0.338112 0.036068 0.669379
O O10 0.244130 0.426172 0.000000
#
# Coordination Sequence:
#
# PCOD9425546 Si02
#       6
#     4   4   8   8   4   8
#     4   8  22  39  56  79 102 138 186 222 252 305
#     4  12  26  41  57  83 113 138 166 216 276 320
#     4  10  19  31  52  82 110 142 173 213 269 316
#     4  10  22  39  58  78 106 142 174 219 260 315
#     4   8  16  30  46  73 113 141 171 208 254 322
#     4  10  20  36  57  80 105 139 181 224 254 311
#
# _framework density 17.608405000000001
#
# number of rings (size 3 to 8) (size 9 to 14) (size 15 to 20)
#    1.333    0.889    0.000    3.333    0.000    5.778 
#    0.000    1.111    0.000    0.667    0.000    1.556 
#    0.000    0.000    0.000    0.000    0.000    0.000 
#
# Total GULP energy -200402.132105 kJ/mol
# GULP energy per Si atom -5566.725892 kJ/mol
# Density = 1.756833 g / cm^3
# Si number density = 17.608405 Si / 1000 Ang^3
#
#
#
# Elastic Constant Matrix: (Units=GPa)
#
#
# Indices 1 2 3 4 5 6 
#
# 1 32.2545 -18.8225 23.2404 0.0000 0.0000 0.0000
# 2 -18.8225 54.3140 -25.8403 0.0000 0.0000 0.0000
# 3 23.2404 -25.8403 95.6856 0.0000 0.0000 0.0000
# 4 0.0000 0.0000 0.0000 36.7115 0.0000 0.0000
# 5 0.0000 0.0000 0.0000 0.0000 -13.3557 0.0000
# 6 0.0000 0.0000 0.0000 0.0000 0.0000 -13.1784
#
#
#
# Elastic Compliance Matrix: (Units=1/GPa)
#
#
# Indices 1 2 3 4 5 6 
#
# 1 0.042947 0.011383 -0.007357 0.000000 0.000000 0.000000
# 2 0.011383 0.024143 0.003755 0.000000 0.000000 0.000000
# 3 -0.007357 0.003755 0.013252 0.000000 0.000000 0.000000
# 4 0.000000 0.000000 0.000000 0.027239 0.000000 0.000000
# 5 0.000000 0.000000 0.000000 0.000000 -0.074875 0.000000
# 6 0.000000 0.000000 0.000000 0.000000 0.000000 -0.075882
#
#
# Mechanical properties :
#
#
# Convention : Reuss Voigt Hill
#
# Bulk Modulus (GPa) = 10.42706 15.48992 12.95849
# Shear Modulus (GPa) = -186.78291 15.61391 -85.58450
#
# Velocity S-wave (km/s) = -10.31049 2.98103 -6.97924
# Velocity P-wave (km/s) = 11.65363 4.54585 7.58757
#
# Compressibility (1/GPa) = 0.09590430
#
# Stress axis : x y z
#
# Youngs Moduli (GPa) = 23.28438 41.42017 75.46092
#
# Poissons Ratio (x) = -0.47149 0.55517
# Poissons Ratio (y) = -0.26505 -0.28336
# Poissons Ratio (z) = 0.17131 -0.15554
#
# Static dielectric constant tensor:
#      x y z
#    x 1.598280 0.000000 0.000000 
#    y 0.000000 1.618330 0.000000 
#    z 0.000000 0.000000 1.602520 
# 
# From -- ./inp_files/23030.got.cif
#   From: 2010.05.17/outbox.cif.g08.bks.cpg/sg55_12_cif.got.tgz:23030.got - 2010.06.03 13:27:54.
