data_PCOD9425897
_publ_section_title
;
Structure prediction by ZEFSAII (Michael W. Deem and Ramdas Pophale) SiO2 
 PCOD9425897
Probable space group: P B A M
;
_chemical_formula_sum "Si O2"
_cell_formula_units_Z 64
_cell_length_a 14.552690
_cell_length_b 24.926810
_cell_length_c 7.577832
_cell_angle_alpha 90.000000
_cell_angle_beta 90.000000
_cell_angle_gamma 90.000000
_cell_volume 2748.874764
_symmetry_space_group_name_H-M "P B A M"
_symmetry_group_IT_number 55
_symmetry_cell_setting 'orthorhombic'
loop_
_space_group_symop_operation_xyz
x,y,z
-x,-y,z
1/2+x,1/2-y,-z
1/2-x,1/2+y,-z
-x,-y,-z
x,y,-z
1/2-x,1/2+y,z
1/2+x,1/2-y,z
loop_
_atom_site_type_symbol
_atom_site_label
_atom_site_fract_x
_atom_site_fract_y
_atom_site_fract_z
Si Si1 0.760175 0.938426 0.783630
Si Si2 0.950066 0.444465 0.785412
Si Si3 0.037396 0.267842 0.295409
Si Si4 0.166639 0.742755 0.292795
Si Si5 0.594104 0.527226 0.784753
Si Si6 0.813958 0.132510 0.214743
Si Si7 0.114134 0.374403 0.799175
Si Si8 0.659664 0.326772 0.798991
O O1 0.654557 0.940140 0.722466
O O2 0.811241 0.884174 0.723465
O O3 0.819874 0.989988 0.733512
O O4 0.758447 0.936737 0.000000
O O5 0.000000 0.500000 0.740289
O O6 0.021032 0.398971 0.722294
O O7 0.943660 0.441659 0.000000
O O8 0.036925 0.283133 0.500000
O O9 0.102464 0.310419 0.200949
O O10 0.079134 0.208503 0.284365
O O11 0.934376 0.272101 0.223902
O O12 0.171854 0.729564 0.500000
O O13 0.173140 0.806820 0.275208
O O14 0.249117 0.710334 0.205393
O O15 0.500000 0.500000 0.723927
O O16 0.611609 0.588501 0.729683
O O17 0.591648 0.527566 0.000000
O O18 0.713285 0.113157 0.278842
O O19 0.812267 0.134022 0.000000
O O20 0.118181 0.395034 0.000000
O O21 0.630527 0.335963 0.000000
#
# Coordination Sequence:
#
# PCOD9425897 Si02
#       8
#     8   8   8   8   8   8   8   8
#     4   9  18  31  49  79 114 148 186 233 289 341
#     4   9  16  28  50  79 114 147 177 225 284 339
#     4  11  24  39  56  80 113 156 195 236 291 352
#     4  11  24  40  58  82 117 158 197 239 294 353
#     4   9  18  32  51  79 116 152 187 236 292 340
#     4  10  20  34  57  85 112 146 193 241 285 340
#     4  10  19  33  55  85 113 144 188 239 287 338
#     4  11  22  37  60  88 117 150 193 245 292 342
#
# _framework density 23.282254999999999
#
# number of rings (size 3 to 8) (size 9 to 14) (size 15 to 20)
#    0.000    2.000    1.250    2.625    1.750    6.000 
#    0.000    0.000    0.000    2.250    0.000    0.000 
#    0.000    0.000    0.000    0.000    0.000    0.000 
#
# Total GULP energy -357679.233058 kJ/mol
# GULP energy per Si atom -5588.738017 kJ/mol
# Density = 2.322926 g / cm^3
# Si number density = 23.282255 Si / 1000 Ang^3
#
#
#
# Elastic Constant Matrix: (Units=GPa)
#
#
# Indices 1 2 3 4 5 6 
#
# 1 44.7193 -28.2590 -6.0251 0.0000 0.0000 0.0000
# 2 -28.2590 66.5097 -12.3091 0.0000 0.0000 0.0000
# 3 -6.0251 -12.3091 55.6427 0.0000 0.0000 0.0000
# 4 0.0000 0.0000 0.0000 29.0087 0.0000 0.0000
# 5 0.0000 0.0000 0.0000 0.0000 -4.9387 0.0000
# 6 0.0000 0.0000 0.0000 0.0000 0.0000 40.8293
#
#
#
# Elastic Compliance Matrix: (Units=1/GPa)
#
#
# Indices 1 2 3 4 5 6 
#
# 1 0.032961 0.015291 0.006952 0.000000 0.000000 0.000000
# 2 0.015291 0.022771 0.006693 0.000000 0.000000 0.000000
# 3 0.006952 0.006693 0.020205 0.000000 0.000000 0.000000
# 4 0.000000 0.000000 0.000000 0.034472 0.000000 0.000000
# 5 0.000000 0.000000 0.000000 0.000000 -0.202482 0.000000
# 6 0.000000 0.000000 0.000000 0.000000 0.000000 0.024492
#
#
# Mechanical properties :
#
#
# Convention : Reuss Voigt Hill
#
# Bulk Modulus (GPa) = 7.47329 8.18726 7.83028
# Shear Modulus (GPa) = -61.84392 27.21085 -17.31653
#
# Velocity S-wave (km/s) = -5.15949 3.42239 -2.73016
# Velocity P-wave (km/s) = 5.68128 4.37506 2.56279
#
# Compressibility (1/GPa) = 0.13380994
#
# Stress axis : x y z
#
# Youngs Moduli (GPa) = 30.33871 43.91525 49.49219
#
# Poissons Ratio (x) = -0.67152 -0.34406
# Poissons Ratio (y) = -0.46392 -0.33126
# Poissons Ratio (z) = -0.21091 -0.29393
#
# Static dielectric constant tensor:
#      x y z
#    x 1.861710 0.000000 0.000000 
#    y 0.000000 1.865110 0.000000 
#    z 0.000000 0.000000 1.900010 
# 
# From -- ./inp_files/6652.got.cif
#   From: 2010.05.17/outbox.cif.g08.bks.cpg/sg55_4_cif.got.tgz:6652.got - 2010.06.03 13:27:54.
