data_PCOD9425386
_publ_section_title
;
Structure prediction by ZEFSAII (Michael W. Deem and Ramdas Pophale) SiO2 
 PCOD9425386
Probable space group: P B A M
;
_chemical_formula_sum "Si O2"
_cell_formula_units_Z 52
_cell_length_a 5.096712
_cell_length_b 14.590231
_cell_length_c 34.319442
_cell_angle_alpha 90.000000
_cell_angle_beta 90.000000
_cell_angle_gamma 90.000000
_cell_volume 2552.069396
_symmetry_space_group_name_H-M "P B A M"
_symmetry_group_IT_number 55
_symmetry_cell_setting 'orthorhombic'
loop_
_space_group_symop_operation_xyz
x,y,z
-x,-y,z
1/2+x,1/2-y,-z
1/2-x,1/2+y,-z
-x,-y,-z
x,y,-z
1/2-x,1/2+y,z
1/2+x,1/2-y,z
loop_
_atom_site_type_symbol
_atom_site_label
_atom_site_fract_x
_atom_site_fract_y
_atom_site_fract_z
Si Si1 0.050836 0.314451 0.000000
Si Si2 0.990826 0.610142 0.331619
Si Si3 0.457219 0.811597 0.247509
Si Si4 0.164836 0.314648 0.833816
Si Si5 0.169699 0.189458 0.457104
Si Si6 0.009113 0.109470 0.375861
Si Si7 0.165984 0.314617 0.918217
O O1 0.109414 0.364666 0.040892
O O2 0.760343 0.270704 0.000000
O O3 0.274298 0.644325 0.345301
O O4 0.000000 0.500000 0.333380
O O5 0.918108 0.636844 0.287910
O O6 0.774825 0.643625 0.362595
O O7 0.752132 0.772930 0.246983
O O8 0.392224 0.864383 0.207111
O O9 0.451279 0.268202 0.833177
O O10 0.133364 0.361829 0.876028
O O11 0.128809 0.146023 0.500000
O O12 0.467351 0.225072 0.455412
O O13 0.096653 0.131950 0.419404
O O14 0.000000 0.000000 0.372600
O O15 0.452901 0.268411 0.918919
#
# Coordination Sequence:
#
# PCOD9425386 Si02
#       7
#     4   8   8   8   8   8   8
#     4   8  12  16  24  38  56  84 121 152 187 240
#     4  10  21  35  49  69  96 121 148 186 226 259
#     4  10  19  30  46  67  87 113 150 183 216 263
#     4   8  14  23  34  50  73  98 128 168 207 244
#     4  10  21  36  54  77 102 125 151 185 222 257
#     4  10  21  36  53  72  95 124 154 182 218 263
#     4   8  12  18  27  40  61  89 120 156 196 238
#
# _framework density 20.375620000000001
#
# number of rings (size 3 to 8) (size 9 to 14) (size 15 to 20)
#    0.000    2.769    0.000    1.846    0.000    4.000 
#    0.000    0.000    0.000    5.538    0.000    0.000 
#    0.000    0.000    0.000    0.692    0.000    1.538 
#
# Total GULP energy -289546.243349 kJ/mol
# GULP energy per Si atom -5568.196987 kJ/mol
# Density = 2.032924 g / cm^3
# Si number density = 20.375620 Si / 1000 Ang^3
#
#
#
# Elastic Constant Matrix: (Units=GPa)
#
#
# Indices 1 2 3 4 5 6 
#
# 1 82.0607 -3.6718 -1.2204 0.0000 0.0000 0.0000
# 2 -3.6718 13.7313 -6.0051 0.0000 0.0000 0.0000
# 3 -1.2204 -6.0051 140.1480 0.0000 0.0000 0.0000
# 4 0.0000 0.0000 0.0000 -12.4943 0.0000 0.0000
# 5 0.0000 0.0000 0.0000 0.0000 29.3987 0.0000
# 6 0.0000 0.0000 0.0000 0.0000 0.0000 5.4853
#
#
#
# Elastic Compliance Matrix: (Units=1/GPa)
#
#
# Indices 1 2 3 4 5 6 
#
# 1 0.012343 0.003411 0.000254 0.000000 0.000000 0.000000
# 2 0.003411 0.075160 0.003250 0.000000 0.000000 0.000000
# 3 0.000254 0.003250 0.007277 0.000000 0.000000 0.000000
# 4 0.000000 0.000000 0.000000 -0.080036 0.000000 0.000000
# 5 0.000000 0.000000 0.000000 0.000000 0.034015 0.000000
# 6 0.000000 0.000000 0.000000 0.000000 0.000000 0.182305
#
#
# Mechanical properties :
#
#
# Convention : Reuss Voigt Hill
#
# Bulk Modulus (GPa) = 9.20726 23.79393 16.50060
# Shear Modulus (GPa) = 19.72884 20.93376 20.33130
#
# Velocity S-wave (km/s) = 3.11506 3.20877 3.16226
# Velocity P-wave (km/s) = 4.17932 5.04295 4.63131
#
# Compressibility (1/GPa) = 0.10860989
#
# Stress axis : x y z
#
# Youngs Moduli (GPa) = 81.02077 13.30492 137.42329
#
# Poissons Ratio (x) = -0.04539 -0.03486
# Poissons Ratio (y) = -0.27639 -0.44665
# Poissons Ratio (z) = -0.02055 -0.04324
#
# Static dielectric constant tensor:
#      x y z
#    x 1.718660 0.000000 0.000000 
#    y 0.000000 1.677560 0.000000 
#    z 0.000000 0.000000 1.828320 
# 
# From -- ./inp_files/24102.got.cif
#   From: 2010.05.17/outbox.cif.g08.bks.cpg/sg55_13_cif.got.tgz:24102.got - 2010.06.03 13:27:54.
