data_PCOD9425861
_publ_section_title
;
Structure prediction by ZEFSAII (Michael W. Deem and Ramdas Pophale) SiO2 
 PCOD9425861
Probable space group: P B A M
;
_chemical_formula_sum "Si O2"
_cell_formula_units_Z 64
_cell_length_a 19.031156
_cell_length_b 20.589992
_cell_length_c 7.558427
_cell_angle_alpha 90.000000
_cell_angle_beta 90.000000
_cell_angle_gamma 90.000000
_cell_volume 2961.779822
_symmetry_space_group_name_H-M "P B A M"
_symmetry_group_IT_number 55
_symmetry_cell_setting 'orthorhombic'
loop_
_space_group_symop_operation_xyz
x,y,z
-x,-y,z
1/2+x,1/2-y,-z
1/2-x,1/2+y,-z
-x,-y,-z
x,y,-z
1/2-x,1/2+y,z
1/2+x,1/2-y,z
loop_
_atom_site_type_symbol
_atom_site_label
_atom_site_fract_x
_atom_site_fract_y
_atom_site_fract_z
Si Si1 0.056389 0.450730 0.296610
Si Si2 0.960428 0.933692 0.283767
Si Si3 0.710831 0.076792 0.282134
Si Si4 0.787550 0.203972 0.286066
Si Si5 0.446879 0.313566 0.712572
Si Si6 0.305668 0.539074 0.704106
Si Si7 0.037979 0.665707 0.789928
Si Si8 0.697309 0.851391 0.793083
O O1 0.066340 0.472558 0.500000
O O2 0.134088 0.445304 0.219341
O O3 0.000000 0.500000 0.213499
O O4 0.019774 0.380670 0.293284
O O5 0.959891 0.929574 0.500000
O O6 0.880079 0.938186 0.220215
O O7 0.003831 0.871176 0.220680
O O8 0.000000 0.000000 0.236752
O O9 0.709539 0.076202 0.500000
O O10 0.732593 0.149321 0.228800
O O11 0.769029 0.025172 0.220796
O O12 0.787988 0.204820 0.500000
O O13 0.865982 0.183824 0.224945
O O14 0.775360 0.277727 0.227430
O O15 0.444093 0.318980 0.500000
O O16 0.473978 0.241665 0.756195
O O17 0.320834 0.522249 0.500000
O O18 0.248897 0.596613 0.708602
O O19 0.116948 0.648638 0.723873
O O20 0.036973 0.654876 0.000000
O O21 0.694305 0.867183 0.000000
#
# Coordination Sequence:
#
# PCOD9425861 Si02
#       8
#     8   8   8   8   8   8   8   8
#     4  10  20  34  53  76 102 131 166 210 255 300
#     4   9  17  30  52  82 109 132 165 210 254 296
#     4   9  18  32  52  78 103 129 167 212 252 294
#     4   9  17  32  54  76 100 133 171 208 248 297
#     4   9  17  31  53  78 103 133 168 206 248 295
#     4  10  19  33  55  79 104 135 169 206 251 303
#     4  10  21  36  53  73 100 135 171 208 252 301
#     4  10  21  36  52  73 103 135 169 210 252 298
#
# _framework density 21.608630000000002
#
# number of rings (size 3 to 8) (size 9 to 14) (size 15 to 20)
#    0.000    2.500    0.000    2.250    0.000    6.750 
#    0.000    7.500    0.000    3.000    0.000    0.000 
#    0.000    0.000    0.000    0.000    0.000    0.000 
#
# Total GULP energy -357422.169191 kJ/mol
# GULP energy per Si atom -5584.721394 kJ/mol
# Density = 2.155945 g / cm^3
# Si number density = 21.608630 Si / 1000 Ang^3
#
#
#
# Elastic Constant Matrix: (Units=GPa)
#
#
# Indices 1 2 3 4 5 6 
#
# 1 42.2105 10.8947 -6.1155 0.0000 0.0000 0.0000
# 2 10.8947 52.1012 -14.9840 0.0000 0.0000 0.0000
# 3 -6.1155 -14.9840 49.9936 0.0000 0.0000 0.0000
# 4 0.0000 0.0000 0.0000 -155.6708 0.0000 0.0000
# 5 0.0000 0.0000 0.0000 0.0000 -38.0420 0.0000
# 6 0.0000 0.0000 0.0000 0.0000 0.0000 40.3792
#
#
#
# Elastic Compliance Matrix: (Units=1/GPa)
#
#
# Indices 1 2 3 4 5 6 
#
# 1 0.025165 -0.004790 0.001643 0.000000 0.000000 0.000000
# 2 -0.004790 0.021916 0.005983 0.000000 0.000000 0.000000
# 3 0.001643 0.005983 0.021997 0.000000 0.000000 0.000000
# 4 0.000000 0.000000 0.000000 -0.006424 0.000000 0.000000
# 5 0.000000 0.000000 0.000000 0.000000 -0.026287 0.000000
# 6 0.000000 0.000000 0.000000 0.000000 0.000000 0.024765
#
#
# Mechanical properties :
#
#
# Convention : Reuss Voigt Hill
#
# Bulk Modulus (GPa) = 13.37821 13.76619 13.57220
# Shear Modulus (GPa) = 62.20707 -20.36604 20.92052
#
# Velocity S-wave (km/s) = 5.37127 -3.07334 3.11490
# Velocity P-wave (km/s) = 6.68371 2.49186 4.38535
#
# Compressibility (1/GPa) = 0.07474840
#
# Stress axis : x y z
#
# Youngs Moduli (GPa) = 39.73771 45.62970 45.46155
#
# Poissons Ratio (x) = 0.21855 -0.07468
# Poissons Ratio (y) = 0.19033 -0.27198
# Poissons Ratio (z) = -0.06528 -0.27298
#
# Static dielectric constant tensor:
#      x y z
#    x 1.778310 0.000000 0.000000 
#    y 0.000000 1.744690 0.000000 
#    z 0.000000 0.000000 1.900820 
# 
# From -- ./inp_files/7961.got.cif
#   From: 2010.05.17/outbox.cif.g08.bks.cpg/sg55_4_cif.got.tgz:7961.got - 2010.06.03 13:27:54.
