data_PCOD9425641
_publ_section_title
;
Structure prediction by ZEFSAII (Michael W. Deem and Ramdas Pophale) SiO2 
 PCOD9425641
Probable space group: P B A M
;
_chemical_formula_sum "Si O2"
_cell_formula_units_Z 64
_cell_length_a 31.280529
_cell_length_b 9.819524
_cell_length_c 11.667576
_cell_angle_alpha 90.000000
_cell_angle_beta 90.000000
_cell_angle_gamma 90.000000
_cell_volume 3583.811539
_symmetry_space_group_name_H-M "P B A M"
_symmetry_group_IT_number 55
_symmetry_cell_setting 'orthorhombic'
loop_
_space_group_symop_operation_xyz
x,y,z
-x,-y,z
1/2+x,1/2-y,-z
1/2-x,1/2+y,-z
-x,-y,-z
x,y,-z
1/2-x,1/2+y,z
1/2+x,1/2-y,z
loop_
_atom_site_type_symbol
_atom_site_label
_atom_site_fract_x
_atom_site_fract_y
_atom_site_fract_z
Si Si1 0.241373 0.819795 0.704331
Si Si2 0.372156 0.963176 0.197780
Si Si3 0.583438 0.762086 0.132171
Si Si4 0.186100 0.226367 0.125157
Si Si5 0.697690 0.944224 0.623311
Si Si6 0.534136 0.798334 0.631611
Si Si7 0.061189 0.382885 0.626651
Si Si8 0.333290 0.424493 0.131474
O O1 0.277468 0.747846 0.781637
O O2 0.219590 0.702449 0.630416
O O3 0.266047 0.941203 0.640987
O O4 0.204312 0.879270 0.784753
O O5 0.398636 0.082512 0.136904
O O6 0.337937 0.038495 0.279772
O O7 0.344569 0.856813 0.126316
O O8 0.403800 0.872821 0.275594
O O9 0.554740 0.744450 0.248541
O O10 0.623588 0.660860 0.147505
O O11 0.566356 0.740864 0.000000
O O12 0.160834 0.086414 0.146035
O O13 0.206733 0.214249 0.000000
O O14 0.676681 0.963522 0.500000
O O15 0.543990 0.744467 0.500000
O O16 0.482770 0.801203 0.644542
O O17 0.548629 0.956711 0.626914
O O18 0.077855 0.348613 0.500000
O O19 0.319518 0.400109 0.000000
#
# Coordination Sequence:
#
# PCOD9425641 Si02
#       8
#     8   8   8   8   8   8   8   8
#     4  11  20  37  51  72  98 130 177 211 260 307
#     4  10  19  32  52  77 104 130 173 215 260 305
#     4  10  19  32  52  80 108 133 171 219 263 305
#     4  10  21  35  52  72 100 135 170 212 261 314
#     4  11  22  34  51  72 102 135 170 216 261 308
#     4   8  15  29  50  77 107 138 171 206 255 315
#     4   8  14  28  50  75 104 138 170 205 252 312
#     4  10  20  35  52  72 100 135 171 213 261 310
#
# _framework density 17.858082
#
# number of rings (size 3 to 8) (size 9 to 14) (size 15 to 20)
#    0.000    2.250    2.500    2.250    0.000    0.500 
#    0.000    5.625    0.000    0.750    0.000    4.375 
#    0.000    0.000    0.000    0.000    0.000    0.000 
#
# Total GULP energy -356293.523827 kJ/mol
# GULP energy per Si atom -5567.086310 kJ/mol
# Density = 1.781744 g / cm^3
# Si number density = 17.858082 Si / 1000 Ang^3
#
#
#
# Elastic Constant Matrix: (Units=GPa)
#
#
# Indices 1 2 3 4 5 6 
#
# 1 35.3966 -6.1508 21.8042 0.0000 0.0000 0.0000
# 2 -6.1508 41.9119 6.3124 0.0000 0.0000 0.0000
# 3 21.8042 6.3124 91.7583 0.0000 0.0000 0.0000
# 4 0.0000 0.0000 0.0000 9.1551 0.0000 0.0000
# 5 0.0000 0.0000 0.0000 0.0000 -88.7410 0.0000
# 6 0.0000 0.0000 0.0000 0.0000 0.0000 7.5186
#
#
#
# Elastic Compliance Matrix: (Units=1/GPa)
#
#
# Indices 1 2 3 4 5 6 
#
# 1 0.034717 0.006404 -0.008690 0.000000 0.000000 0.000000
# 2 0.006404 0.025291 -0.003262 0.000000 0.000000 0.000000
# 3 -0.008690 -0.003262 0.013188 0.000000 0.000000 0.000000
# 4 0.000000 0.000000 0.000000 0.109229 0.000000 0.000000
# 5 0.000000 0.000000 0.000000 0.000000 -0.011269 0.000000
# 6 0.000000 0.000000 0.000000 0.000000 0.000000 0.133003
#
#
# Mechanical properties :
#
#
# Convention : Reuss Voigt Hill
#
# Bulk Modulus (GPa) = 16.10319 23.66649 19.88484
# Shear Modulus (GPa) = 14.88295 -4.60673 5.13811
#
# Velocity S-wave (km/s) = 2.89000 -1.60787 1.69807
# Velocity P-wave (km/s) = 4.49144 3.13597 3.87346
#
# Compressibility (1/GPa) = 0.06209951
#
# Stress axis : x y z
#
# Youngs Moduli (GPa) = 28.80406 39.54035 75.82875
#
# Poissons Ratio (x) = -0.25321 0.65897
# Poissons Ratio (y) = -0.18446 0.24732
# Poissons Ratio (z) = 0.25032 0.12896
#
# Static dielectric constant tensor:
#      x y z
#    x 1.589590 0.000000 0.000000 
#    y 0.000000 1.595320 0.000000 
#    z 0.000000 0.000000 1.633020 
# 
# From -- ./inp_files/16213.got.cif
#   From: 2010.05.17/outbox.cif.g08.bks.cpg/sg55_9_cif.got.tgz:16213.got - 2010.06.03 13:27:54.
