data_PCOD9425572
_publ_section_title
;
Structure prediction by ZEFSAII (Michael W. Deem and Ramdas Pophale) SiO2 
 PCOD9425572
Probable space group: P B A M
;
_chemical_formula_sum "Si O2"
_cell_formula_units_Z 64
_cell_length_a 20.061099
_cell_length_b 21.115279
_cell_length_c 9.098451
_cell_angle_alpha 90.000000
_cell_angle_beta 90.000000
_cell_angle_gamma 90.000000
_cell_volume 3854.064742
_symmetry_space_group_name_H-M "P B A M"
_symmetry_group_IT_number 55
_symmetry_cell_setting 'orthorhombic'
loop_
_space_group_symop_operation_xyz
x,y,z
-x,-y,z
1/2+x,1/2-y,-z
1/2-x,1/2+y,-z
-x,-y,-z
x,y,-z
1/2-x,1/2+y,z
1/2+x,1/2-y,z
loop_
_atom_site_type_symbol
_atom_site_label
_atom_site_fract_x
_atom_site_fract_y
_atom_site_fract_z
Si Si1 0.711319 0.694909 0.324192
Si Si2 0.209164 0.431919 0.323452
Si Si3 0.920486 0.233421 0.826152
Si Si4 0.566612 0.120684 0.675898
Si Si5 0.286741 0.062005 0.176980
Si Si6 0.710792 0.310972 0.176009
Si Si7 0.569402 0.257427 0.824711
Si Si8 0.570339 0.884636 0.825083
O O1 0.713229 0.699888 0.500000
O O2 0.747995 0.629766 0.281306
O O3 0.636081 0.699058 0.265835
O O4 0.750333 0.754125 0.254249
O O5 0.212062 0.437817 0.500000
O O6 0.132027 0.418855 0.281875
O O7 0.233110 0.496080 0.248781
O O8 0.917443 0.309432 0.799443
O O9 0.996554 0.214704 0.790491
O O10 0.908561 0.223753 0.000000
O O11 0.562440 0.122817 0.500000
O O12 0.576804 0.191646 0.738236
O O13 0.497080 0.096508 0.742450
O O14 0.240653 0.121389 0.220311
O O15 0.362912 0.079010 0.219791
O O16 0.284872 0.057126 0.000000
O O17 0.632380 0.301776 0.205366
O O18 0.721363 0.304643 0.000000
O O19 0.568811 0.242710 0.000000
O O20 0.560514 0.892372 0.000000
#
# Coordination Sequence:
#
# PCOD9425572 Si02
#       8
#     8   8   8   8   8   8   8   8
#     4  11  21  34  53  78 106 139 175 214 258 306
#     4  10  23  38  49  71 108 141 176 217 256 305
#     4   9  17  32  52  78 107 132 167 214 260 307
#     4  10  19  32  49  72 105 141 176 212 248 302
#     4  10  21  36  54  76 103 136 177 218 260 311
#     4  10  19  35  57  80 104 133 172 219 264 309
#     4   9  18  32  54  79 105 134 166 213 267 308
#     4   9  18  33  50  74 106 136 172 216 255 304
#
# _framework density 16.605844999999999
#
# number of rings (size 3 to 8) (size 9 to 14) (size 15 to 20)
#    0.000    2.250    2.500    1.500    0.000    5.500 
#    0.000    2.500    0.000    0.750    0.000    5.250 
#    0.000    0.000    0.000    0.000    0.000    0.000 
#
# Total GULP energy -357057.523093 kJ/mol
# GULP energy per Si atom -5579.023798 kJ/mol
# Density = 1.656805 g / cm^3
# Si number density = 16.605845 Si / 1000 Ang^3
#
#
#
# Elastic Constant Matrix: (Units=GPa)
#
#
# Indices 1 2 3 4 5 6 
#
# 1 108.3935 59.0976 35.9627 0.0000 0.0000 0.0000
# 2 59.0976 104.5319 34.8866 0.0000 0.0000 0.0000
# 3 35.9627 34.8866 23.0959 0.0000 0.0000 0.0000
# 4 0.0000 0.0000 0.0000 20.2744 0.0000 0.0000
# 5 0.0000 0.0000 0.0000 0.0000 24.1847 0.0000
# 6 0.0000 0.0000 0.0000 0.0000 0.0000 21.4983
#
#
#
# Elastic Compliance Matrix: (Units=1/GPa)
#
#
# Indices 1 2 3 4 5 6 
#
# 1 0.019247 -0.001773 -0.027292 0.000000 0.000000 0.000000
# 2 -0.001773 0.019455 -0.026626 0.000000 0.000000 0.000000
# 3 -0.027292 -0.026626 0.126013 0.000000 0.000000 0.000000
# 4 0.000000 0.000000 0.000000 0.049323 0.000000 0.000000
# 5 0.000000 0.000000 0.000000 0.000000 0.041349 0.000000
# 6 0.000000 0.000000 0.000000 0.000000 0.000000 0.046515
#
#
# Mechanical properties :
#
#
# Convention : Reuss Voigt Hill
#
# Bulk Modulus (GPa) = 18.74998 55.10168 36.92583
# Shear Modulus (GPa) = 11.59925 20.26310 15.93117
#
# Velocity S-wave (km/s) = 2.64579 3.49698 3.10073
# Velocity P-wave (km/s) = 4.54415 7.03984 5.92489
#
# Compressibility (1/GPa) = 0.05333338
#
# Stress axis : x y z
#
# Youngs Moduli (GPa) = 51.95565 51.40006 7.93569
#
# Poissons Ratio (x) = 0.09114 0.21658
# Poissons Ratio (y) = 0.09213 0.21130
# Poissons Ratio (z) = 1.41795 1.36859
#
# Static dielectric constant tensor:
#      x y z
#    x 1.577250 0.000000 0.000000 
#    y 0.000000 1.535880 0.000000 
#    z 0.000000 0.000000 1.553860 
# 
# From -- ./inp_files/8957.got.cif
#   From: 2010.05.17/outbox.cif.g08.bks.cpg/sg55_5_cif.got.tgz:8957.got - 2010.06.03 13:27:54.
