data_PCOD9425493
_publ_section_title
;
Structure prediction by ZEFSAII (Michael W. Deem and Ramdas Pophale) SiO2 
 PCOD9425493
Probable space group: P B A M
;
_chemical_formula_sum "Si O2"
_cell_formula_units_Z 48
_cell_length_a 9.696832
_cell_length_b 26.236451
_cell_length_c 11.711213
_cell_angle_alpha 90.000000
_cell_angle_beta 90.000000
_cell_angle_gamma 90.000000
_cell_volume 2979.455059
_symmetry_space_group_name_H-M "P B A M"
_symmetry_group_IT_number 55
_symmetry_cell_setting 'orthorhombic'
loop_
_space_group_symop_operation_xyz
x,y,z
-x,-y,z
1/2+x,1/2-y,-z
1/2-x,1/2+y,-z
-x,-y,-z
x,y,-z
1/2-x,1/2+y,z
1/2+x,1/2-y,z
loop_
_atom_site_type_symbol
_atom_site_label
_atom_site_fract_x
_atom_site_fract_y
_atom_site_fract_z
Si Si1 0.460291 0.317700 0.000000
Si Si2 0.990690 0.557238 0.362927
Si Si3 0.294750 0.144800 0.637095
Si Si4 0.724617 0.140746 0.635706
Si Si5 0.636927 0.217140 0.000000
Si Si6 0.505611 0.335857 0.750284
Si Si7 0.976598 0.713234 0.753335
O O1 0.584238 0.275791 0.000000
O O2 0.481245 0.348093 0.116659
O O3 0.303667 0.292525 0.000000
O O4 0.971629 0.553208 0.500000
O O5 0.865131 0.592684 0.320490
O O6 0.000000 0.500000 0.316740
O O7 0.127299 0.591038 0.346099
O O8 0.291846 0.155228 0.500000
O O9 0.145632 0.145377 0.693353
O O10 0.387391 0.186323 0.704067
O O11 0.723235 0.139372 0.500000
O O12 0.646705 0.191784 0.676004
O O13 0.877409 0.142337 0.681732
O O14 0.567348 0.197582 0.117468
O O15 0.506791 0.273885 0.746263
#
# Coordination Sequence:
#
# PCOD9425493 Si02
#       7
#     4   8   8   8   4   8   8
#     4  10  22  34  50  70  99 139 186 219 241 275
#     4   8  16  34  55  72  96 128 166 212 255 303
#     4  10  21  33  49  78 106 133 169 205 251 314
#     4  10  19  31  49  75 102 134 168 202 256 312
#     4  10  20  34  50  70  95 136 188 220 238 276
#     4  11  21  32  48  73 108 137 170 210 247 290
#     4  10  20  32  49  69 104 141 175 204 240 291
#
# _framework density 16.110329
#
# number of rings (size 3 to 8) (size 9 to 14) (size 15 to 20)
#    0.000    2.167    1.667    3.000    7.000    4.000 
#    0.000    0.833    0.000    4.000    0.000   22.167 
#    0.000    0.000    0.000    0.000    0.000    0.000 
#
# Total GULP energy -267369.523394 kJ/mol
# GULP energy per Si atom -5570.198404 kJ/mol
# Density = 1.607366 g / cm^3
# Si number density = 16.110329 Si / 1000 Ang^3
#
#
#
# Elastic Constant Matrix: (Units=GPa)
#
#
# Indices 1 2 3 4 5 6 
#
# 1 140.8675 30.6428 55.1573 0.0000 0.0000 0.0000
# 2 30.6428 71.6241 33.5043 0.0000 0.0000 0.0000
# 3 55.1573 33.5043 92.3613 0.0000 0.0000 0.0000
# 4 0.0000 0.0000 0.0000 25.1711 0.0000 0.0000
# 5 0.0000 0.0000 0.0000 0.0000 24.2648 0.0000
# 6 0.0000 0.0000 0.0000 0.0000 0.0000 -2.3816
#
#
#
# Elastic Compliance Matrix: (Units=1/GPa)
#
#
# Indices 1 2 3 4 5 6 
#
# 1 0.009432 -0.001687 -0.005021 0.000000 0.000000 0.000000
# 2 -0.001687 0.017117 -0.005202 0.000000 0.000000 0.000000
# 3 -0.005021 -0.005202 0.015712 0.000000 0.000000 0.000000
# 4 0.000000 0.000000 0.000000 0.039728 0.000000 0.000000
# 5 0.000000 0.000000 0.000000 0.000000 0.041212 0.000000
# 6 0.000000 0.000000 0.000000 0.000000 0.000000 -0.419888
#
#
# Mechanical properties :
#
#
# Convention : Reuss Voigt Hill
#
# Bulk Modulus (GPa) = 54.22300 60.38463 57.30382
# Shear Modulus (GPa) = -18.74617 21.78075 1.51729
#
# Velocity S-wave (km/s) = -3.41488 3.68091 0.97152
# Velocity P-wave (km/s) = 4.26402 7.45847 6.07497
#
# Compressibility (1/GPa) = 0.01844236
#
# Stress axis : x y z
#
# Youngs Moduli (GPa) = 106.02642 58.42248 63.64414
#
# Poissons Ratio (x) = 0.09853 0.31954
# Poissons Ratio (y) = 0.17882 0.33107
# Poissons Ratio (z) = 0.53232 0.30391
#
# Static dielectric constant tensor:
#      x y z
#    x 1.584820 0.000000 0.000000 
#    y 0.000000 1.460930 0.000000 
#    z 0.000000 0.000000 1.563620 
# 
# From -- ./inp_files/12335.got.cif
#   From: 2010.05.17/outbox.cif.g08.bks.cpg/sg55_7_cif.got.tgz:12335.got - 2010.06.03 13:27:54.
