data_PCOD9425246
_publ_section_title
;
Structure prediction by ZEFSAII (Michael W. Deem and Ramdas Pophale) SiO2 
 PCOD9425246
Probable space group: P B A M
;
_chemical_formula_sum "Si O2"
_cell_formula_units_Z 64
_cell_length_a 17.136305
_cell_length_b 20.906221
_cell_length_c 8.898735
_cell_angle_alpha 90.000000
_cell_angle_beta 90.000000
_cell_angle_gamma 90.000000
_cell_volume 3188.019684
_symmetry_space_group_name_H-M "P B A M"
_symmetry_group_IT_number 55
_symmetry_cell_setting 'orthorhombic'
loop_
_space_group_symop_operation_xyz
x,y,z
-x,-y,z
1/2+x,1/2-y,-z
1/2-x,1/2+y,-z
-x,-y,-z
x,y,-z
1/2-x,1/2+y,z
1/2+x,1/2-y,z
loop_
_atom_site_type_symbol
_atom_site_label
_atom_site_fract_x
_atom_site_fract_y
_atom_site_fract_z
Si Si1 0.543018 0.109820 0.322395
Si Si2 0.602174 0.807846 0.682912
Si Si3 0.763286 0.395290 0.679119
Si Si4 0.706752 0.624650 0.825512
Si Si5 0.154318 0.289950 0.175161
Si Si6 0.055541 0.834963 0.678591
Si Si7 0.391813 0.642087 0.175074
Si Si8 0.340111 0.983156 0.176720
O O1 0.540644 0.096683 0.500000
O O2 0.459742 0.137354 0.271619
O O3 0.600715 0.169031 0.285834
O O4 0.581414 0.050179 0.237469
O O5 0.601038 0.805734 0.500000
O O6 0.687383 0.832590 0.728699
O O7 0.574180 0.737848 0.734559
O O8 0.756561 0.393926 0.500000
O O9 0.677671 0.397592 0.749989
O O10 0.814193 0.455341 0.731237
O O11 0.757050 0.688828 0.795686
O O12 0.630830 0.623773 0.723687
O O13 0.769678 0.568350 0.803755
O O14 0.682562 0.624319 0.000000
O O15 0.135371 0.216001 0.190410
O O16 0.138162 0.309139 0.000000
O O17 0.046401 0.832459 0.500000
O O18 0.976383 0.861348 0.749997
O O19 0.397387 0.626217 0.000000
O O20 0.347012 0.997145 0.000000
#
# Coordination Sequence:
#
# PCOD9425246 Si02
#       8
#     8   8   8   8   8   8   8   8
#     4  10  18  33  58  85 116 153 190 230 281 334
#     4   9  20  36  56  87 123 151 183 234 289 339
#     4  11  23  40  60  83 113 153 198 241 288 341
#     4   9  19  36  57  81 111 147 186 234 286 335
#     4   9  18  33  54  82 115 149 186 228 282 342
#     4  11  21  36  58  88 119 148 187 233 283 343
#     4  11  22  37  57  83 117 153 188 232 291 345
#     4  10  22  41  59  81 116 153 198 243 286 339
#
# _framework density 20.075158999999999
#
# number of rings (size 3 to 8) (size 9 to 14) (size 15 to 20)
#    0.000    2.000    1.250    3.375    0.000    3.500 
#    0.000    7.500    0.000    3.750    0.000    0.000 
#    0.000    0.000    0.000    0.000    0.000    0.000 
#
# Total GULP energy -357387.888086 kJ/mol
# GULP energy per Si atom -5584.185751 kJ/mol
# Density = 2.002947 g / cm^3
# Si number density = 20.075159 Si / 1000 Ang^3
#
#
#
# Elastic Constant Matrix: (Units=GPa)
#
#
# Indices 1 2 3 4 5 6 
#
# 1 99.0370 -2.0038 35.0944 0.0000 0.0000 0.0000
# 2 -2.0038 23.4972 5.0031 0.0000 0.0000 0.0000
# 3 35.0944 5.0031 51.9555 0.0000 0.0000 0.0000
# 4 0.0000 0.0000 0.0000 25.3667 0.0000 0.0000
# 5 0.0000 0.0000 0.0000 0.0000 23.7004 0.0000
# 6 0.0000 0.0000 0.0000 0.0000 0.0000 17.9165
#
#
#
# Elastic Compliance Matrix: (Units=1/GPa)
#
#
# Indices 1 2 3 4 5 6 
#
# 1 0.013500 0.003158 -0.009423 0.000000 0.000000 0.000000
# 2 0.003158 0.044188 -0.006388 0.000000 0.000000 0.000000
# 3 -0.009423 -0.006388 0.026227 0.000000 0.000000 0.000000
# 4 0.000000 0.000000 0.000000 0.039422 0.000000 0.000000
# 5 0.000000 0.000000 0.000000 0.000000 0.042193 0.000000
# 6 0.000000 0.000000 0.000000 0.000000 0.000000 0.055815
#
#
# Mechanical properties :
#
#
# Convention : Reuss Voigt Hill
#
# Bulk Modulus (GPa) = 17.06240 27.85302 22.45771
# Shear Modulus (GPa) = 18.78372 22.48978 20.63675
#
# Velocity S-wave (km/s) = 3.06219 3.35069 3.20968
# Velocity P-wave (km/s) = 4.58480 5.37345 4.99472
#
# Compressibility (1/GPa) = 0.05860841
#
# Stress axis : x y z
#
# Youngs Moduli (GPa) = 74.07260 22.63077 38.12805
#
# Poissons Ratio (x) = -0.07146 0.35928
# Poissons Ratio (y) = -0.23390 0.24356
# Poissons Ratio (z) = 0.69799 0.14457
#
# Static dielectric constant tensor:
#      x y z
#    x 1.707610 0.000000 0.000000 
#    y 0.000000 1.734390 0.000000 
#    z 0.000000 0.000000 1.674630 
# 
# From -- ./inp_files/8160.got.cif
#   From: 2010.05.17/outbox.cif.g08.bks.cpg/sg55_5_cif.got.tgz:8160.got - 2010.06.03 13:27:54.
