data_PCOD9425560
_publ_section_title
;
Structure prediction by ZEFSAII (Michael W. Deem and Ramdas Pophale) SiO2 
 PCOD9425560
Probable space group: P B A M
;
_chemical_formula_sum "Si O2"
_cell_formula_units_Z 34
_cell_length_a 10.169124
_cell_length_b 5.170282
_cell_length_c 24.649552
_cell_angle_alpha 90.000000
_cell_angle_beta 90.000000
_cell_angle_gamma 90.000000
_cell_volume 1296.005381
_symmetry_space_group_name_H-M "P B A M"
_symmetry_group_IT_number 55
_symmetry_cell_setting 'orthorhombic'
loop_
_space_group_symop_operation_xyz
x,y,z
-x,-y,z
1/2+x,1/2-y,-z
1/2-x,1/2+y,-z
-x,-y,-z
x,y,-z
1/2-x,1/2+y,z
1/2+x,1/2-y,z
loop_
_atom_site_type_symbol
_atom_site_label
_atom_site_fract_x
_atom_site_fract_y
_atom_site_fract_z
Si Si1 0.910344 0.248943 0.827542
Si Si2 0.594789 0.750089 0.057745
Si Si3 0.319567 0.341687 0.705935
Si Si4 0.157739 0.721445 0.408507
Si Si5 0.000000 0.000000 0.500000
O O1 0.830148 0.256593 0.884383
O O2 0.851703 0.222231 0.767949
O O3 0.000000 0.500000 0.826198
O O4 0.000000 0.000000 0.832639
O O5 0.500000 0.500000 0.056974
O O6 0.500000 0.000000 0.057981
O O7 0.669402 0.751682 0.000000
O O8 0.306190 0.649486 0.700136
O O9 0.396895 0.247408 0.652865
O O10 0.229675 0.446040 0.415200
O O11 0.052420 0.798445 0.452782
#
# Coordination Sequence:
#
# PCOD9425560 Si02
#       5
#     8   8   8   8   2
#     4  10  19  31  54  82 105 139 193 239 270 336
#     4   8  14  25  42  69 103 135 173 229 285 322
#     4  10  21  39  56  78 115 152 177 227 291 336
#     4  10  24  43  62  91 125 153 197 243 288 354
#     4  12  24  42  72  92 116 166 194 242 300 348
#
# _framework density 26.234456000000002
#
# number of rings (size 3 to 8) (size 9 to 14) (size 15 to 20)
#    0.000    2.353    0.000    2.118    1.647    1.882 
#    0.000    0.000    0.000    1.412    0.000    0.000 
#    0.000    0.000    0.000    0.000    0.000    0.000 
#
# Total GULP energy -189278.450192 kJ/mol
# GULP energy per Si atom -5567.013241 kJ/mol
# Density = 2.617475 g / cm^3
# Si number density = 26.234456 Si / 1000 Ang^3
#
#
#
# Elastic Constant Matrix: (Units=GPa)
#
#
# Indices 1 2 3 4 5 6 
#
# 1 38.6447 44.6186 30.9525 0.0000 0.0000 0.0000
# 2 44.6186 200.7122 -4.2457 0.0000 0.0000 0.0000
# 3 30.9525 -4.2457 298.0567 0.0000 0.0000 0.0000
# 4 0.0000 0.0000 0.0000 16.2032 0.0000 0.0000
# 5 0.0000 0.0000 0.0000 0.0000 180.0665 0.0000
# 6 0.0000 0.0000 0.0000 0.0000 0.0000 55.6196
#
#
#
# Elastic Compliance Matrix: (Units=1/GPa)
#
#
# Indices 1 2 3 4 5 6 
#
# 1 0.039508 -0.008872 -0.004229 0.000000 0.000000 0.000000
# 2 -0.008872 0.006976 0.001021 0.000000 0.000000 0.000000
# 3 -0.004229 0.001021 0.003809 0.000000 0.000000 0.000000
# 4 0.000000 0.000000 0.000000 0.061716 0.000000 0.000000
# 5 0.000000 0.000000 0.000000 0.000000 0.005554 0.000000
# 6 0.000000 0.000000 0.000000 0.000000 0.000000 0.017979
#
#
# Mechanical properties :
#
#
# Convention : Reuss Voigt Hill
#
# Bulk Modulus (GPa) = 38.26789 75.56274 56.91532
# Shear Modulus (GPa) = 29.68890 81.45041 55.56965
#
# Velocity S-wave (km/s) = 3.36769 5.57804 4.60738
# Velocity P-wave (km/s) = 5.45347 8.38757 7.07431
#
# Compressibility (1/GPa) = 0.02613157
#
# Stress axis : x y z
#
# Youngs Moduli (GPa) = 25.31151 143.34601 262.55016
#
# Poissons Ratio (x) = 1.27178 1.11037
# Poissons Ratio (y) = 0.22457 -0.26799
# Poissons Ratio (z) = 0.10705 -0.14632
#
# Static dielectric constant tensor:
#      x y z
#    x 2.145020 0.000000 0.000000 
#    y 0.000000 2.017490 0.000000 
#    z 0.000000 0.000000 2.145640 
# 
# From -- ./inp_files/23527.got.cif
#   From: 2010.05.17/outbox.cif.g08.bks.cpg/sg55_12_cif.got.tgz:23527.got - 2010.06.03 13:27:54.
