data_PCOD9425827
_publ_section_title
;
Structure prediction by ZEFSAII (Michael W. Deem and Ramdas Pophale) SiO2 
 PCOD9425827
Probable space group: P B A M
;
_chemical_formula_sum "Si O2"
_cell_formula_units_Z 48
_cell_length_a 16.526720
_cell_length_b 7.813663
_cell_length_c 16.207703
_cell_angle_alpha 90.000000
_cell_angle_beta 90.000000
_cell_angle_gamma 90.000000
_cell_volume 2092.969094
_symmetry_space_group_name_H-M "P B A M"
_symmetry_group_IT_number 55
_symmetry_cell_setting 'orthorhombic'
loop_
_space_group_symop_operation_xyz
x,y,z
-x,-y,z
1/2+x,1/2-y,-z
1/2-x,1/2+y,-z
-x,-y,-z
x,y,-z
1/2-x,1/2+y,z
1/2+x,1/2-y,z
loop_
_atom_site_type_symbol
_atom_site_label
_atom_site_fract_x
_atom_site_fract_y
_atom_site_fract_z
Si Si1 0.797246 0.234113 0.819720
Si Si2 0.782350 0.971281 0.500000
Si Si3 0.878972 0.609348 0.820152
Si Si4 0.879105 0.612304 0.500000
Si Si5 0.372490 0.413307 0.341724
Si Si6 0.623660 0.122674 0.000000
Si Si7 0.797667 0.245006 0.000000
Si Si8 0.965677 0.724825 0.659902
O O1 0.838474 0.420848 0.814493
O O2 0.699707 0.233122 0.813813
O O3 0.828418 0.123889 0.743759
O O4 0.818828 0.163877 0.911466
O O5 0.686016 0.962511 0.500000
O O6 0.811623 0.069634 0.582077
O O7 0.825783 0.787841 0.500000
O O8 0.940288 0.642104 0.746359
O O9 0.917979 0.636601 0.911039
O O10 0.931043 0.622293 0.582506
O O11 0.419910 0.592411 0.339859
O O12 0.440453 0.267767 0.351484
O O13 0.665036 0.934357 0.000000
O O14 0.700102 0.250705 0.000000
#
# Coordination Sequence:
#
# PCOD9425827 Si02
#       8
#     8   4   8   4   8   4   4   8
#     4  10  19  33  54  79 106 137 175 217 260 307
#     4  10  21  37  57  79 103 134 171 212 258 308
#     4  10  19  33  54  79 106 137 175 217 260 307
#     4  10  21  37  57  79 103 134 171 212 258 308
#     4  10  21  37  55  76 105 140 175 212 257 308
#     4   8  16  30  49  74 103 135 171 213 259 304
#     4   8  16  30  49  74 103 135 171 213 259 304
#     4  10  21  37  55  76 105 140 175 212 257 308
#
# _framework density 22.933927000000001
#
# number of rings (size 3 to 8) (size 9 to 14) (size 15 to 20)
#    0.000    2.333    0.000    2.500    0.000    8.000 
#    0.000    0.833    0.000    8.000    0.000    0.000 
#    0.000    0.000    0.000    0.000    0.000    0.000 
#
# Total GULP energy -268362.795259 kJ/mol
# GULP energy per Si atom -5590.891568 kJ/mol
# Density = 2.288173 g / cm^3
# Si number density = 22.933927 Si / 1000 Ang^3
#
#
#
# Elastic Constant Matrix: (Units=GPa)
#
#
# Indices 1 2 3 4 5 6 
#
# 1 58.6685 16.6356 30.7325 0.0000 0.0000 0.0000
# 2 16.6356 70.0979 38.6285 0.0000 0.0000 0.0000
# 3 30.7325 38.6285 170.6022 0.0000 0.0000 0.0000
# 4 0.0000 0.0000 0.0000 23.0479 0.0000 0.0000
# 5 0.0000 0.0000 0.0000 0.0000 -241.8144 0.0000
# 6 0.0000 0.0000 0.0000 0.0000 0.0000 32.9807
#
#
#
# Elastic Compliance Matrix: (Units=1/GPa)
#
#
# Indices 1 2 3 4 5 6 
#
# 1 0.019378 -0.003056 -0.002799 0.000000 0.000000 0.000000
# 2 -0.003056 0.016782 -0.003249 0.000000 0.000000 0.000000
# 3 -0.002799 -0.003249 0.007101 0.000000 0.000000 0.000000
# 4 0.000000 0.000000 0.000000 0.043388 0.000000 0.000000
# 5 0.000000 0.000000 0.000000 0.000000 -0.004135 0.000000
# 6 0.000000 0.000000 0.000000 0.000000 0.000000 0.030321
#
#
# Mechanical properties :
#
#
# Convention : Reuss Voigt Hill
#
# Bulk Modulus (GPa) = 39.91678 52.37354 46.14516
# Shear Modulus (GPa) = 35.86979 -22.93233 6.46873
#
# Velocity S-wave (km/s) = 3.95910 -3.16560 1.68128
# Velocity P-wave (km/s) = 6.19211 3.08625 4.89219
#
# Compressibility (1/GPa) = 0.02505212
#
# Stress axis : x y z
#
# Youngs Moduli (GPa) = 51.60593 59.58900 140.81662
#
# Poissons Ratio (x) = 0.18213 0.39410
# Poissons Ratio (y) = 0.15773 0.45754
# Poissons Ratio (z) = 0.14443 0.19362
#
# Static dielectric constant tensor:
#      x y z
#    x 1.809200 0.000000 0.000000 
#    y 0.000000 1.890120 0.000000 
#    z 0.000000 0.000000 1.842690 
# 
# From -- ./inp_files/17457.got.cif
#   From: 2010.05.17/outbox.cif.g08.bks.cpg/sg55_9_cif.got.tgz:17457.got - 2010.06.03 13:27:54.
