data_PCOD9425918
_publ_section_title
;
Structure prediction by ZEFSAII (Michael W. Deem and Ramdas Pophale) SiO2 
 PCOD9425918
Probable space group: P B A M
;
_chemical_formula_sum "Si O2"
_cell_formula_units_Z 56
_cell_length_a 17.790019
_cell_length_b 19.491338
_cell_length_c 7.681301
_cell_angle_alpha 90.000000
_cell_angle_beta 90.000000
_cell_angle_gamma 90.000000
_cell_volume 2663.500903
_symmetry_space_group_name_H-M "P B A M"
_symmetry_group_IT_number 55
_symmetry_cell_setting 'orthorhombic'
loop_
_space_group_symop_operation_xyz
x,y,z
-x,-y,z
1/2+x,1/2-y,-z
1/2-x,1/2+y,-z
-x,-y,-z
x,y,-z
1/2-x,1/2+y,z
1/2+x,1/2-y,z
loop_
_atom_site_type_symbol
_atom_site_label
_atom_site_fract_x
_atom_site_fract_y
_atom_site_fract_z
Si Si1 0.682462 0.209304 0.701417
Si Si2 0.033240 0.927601 0.203941
Si Si3 0.761588 0.955620 0.293232
Si Si4 0.386328 0.649234 0.711915
Si Si5 0.438508 0.903260 0.211462
Si Si6 0.797561 0.103677 0.294572
Si Si7 0.401513 0.059241 0.208875
O O1 0.699600 0.226266 0.500000
O O2 0.648676 0.279318 0.776770
O O3 0.616666 0.152755 0.711676
O O4 0.755700 0.170879 0.778748
O O5 0.113053 0.903844 0.278586
O O6 0.969602 0.870268 0.229155
O O7 0.046691 0.938794 0.000000
O O8 0.000000 0.000000 0.276723
O O9 0.772715 0.961482 0.500000
O O10 0.830654 0.911056 0.226571
O O11 0.681482 0.920261 0.264439
O O12 0.763397 0.032817 0.219716
O O13 0.387980 0.649987 0.500000
O O14 0.525971 0.897469 0.265587
O O15 0.414125 0.980153 0.264818
O O16 0.434183 0.899269 0.000000
O O17 0.779229 0.104916 0.500000
O O18 0.403547 0.058817 0.000000
#
# Coordination Sequence:
#
# PCOD9425918 Si02
#       7
#     8   8   8   8   8   8   8
#     4  10  21  38  58  82 111 147 190 235 284 339
#     4  11  23  38  60  89 115 144 190 240 283 336
#     4  10  19  33  56  83 108 141 185 232 277 328
#     4  10  22  40  59  80 112 149 184 230 288 339
#     4   9  18  33  53  77 109 147 182 222 276 333
#     4  10  20  36  60  86 113 147 189 233 283 338
#     4   9  18  32  52  79 109 143 182 225 275 329
#
# _framework density 21.02496
#
# number of rings (size 3 to 8) (size 9 to 14) (size 15 to 20)
#    0.000    2.143    2.857    1.286    0.000    3.429 
#    2.571    1.429    0.000    0.000    0.000    0.000 
#    0.000    0.000    0.000    0.000    0.000    0.000 
#
# Total GULP energy -312465.300109 kJ/mol
# GULP energy per Si atom -5579.737502 kJ/mol
# Density = 2.097711 g / cm^3
# Si number density = 21.024960 Si / 1000 Ang^3
#
#
#
# Elastic Constant Matrix: (Units=GPa)
#
#
# Indices 1 2 3 4 5 6 
#
# 1 141.9499 34.5228 -15.5108 0.0000 0.0000 0.0000
# 2 34.5228 79.9529 1.2416 0.0000 0.0000 0.0000
# 3 -15.5108 1.2416 33.0764 0.0000 0.0000 0.0000
# 4 0.0000 0.0000 0.0000 12.0001 0.0000 0.0000
# 5 0.0000 0.0000 0.0000 0.0000 4.5931 0.0000
# 6 0.0000 0.0000 0.0000 0.0000 0.0000 30.4235
#
#
#
# Elastic Compliance Matrix: (Units=1/GPa)
#
#
# Indices 1 2 3 4 5 6 
#
# 1 0.008385 -0.003684 0.004071 0.000000 0.000000 0.000000
# 2 -0.003684 0.014133 -0.002258 0.000000 0.000000 0.000000
# 3 0.004071 -0.002258 0.032227 0.000000 0.000000 0.000000
# 4 0.000000 0.000000 0.000000 0.083333 0.000000 0.000000
# 5 0.000000 0.000000 0.000000 0.000000 0.217720 0.000000
# 6 0.000000 0.000000 0.000000 0.000000 0.000000 0.032869
#
#
# Mechanical properties :
#
#
# Convention : Reuss Voigt Hill
#
# Bulk Modulus (GPa) = 19.60697 32.83182 26.21940
# Shear Modulus (GPa) = 12.21267 25.05171 18.63219
#
# Velocity S-wave (km/s) = 2.41273 3.45559 2.98013
# Velocity P-wave (km/s) = 4.13612 5.61881 4.93348
#
# Compressibility (1/GPa) = 0.05100228
#
# Stress axis : x y z
#
# Youngs Moduli (GPa) = 119.25367 70.75576 31.03023
#
# Poissons Ratio (x) = 0.26066 -0.12631
# Poissons Ratio (y) = 0.43933 0.07007
# Poissons Ratio (z) = -0.48543 0.15977
#
# Static dielectric constant tensor:
#      x y z
#    x 1.758150 0.000000 0.000000 
#    y 0.000000 1.763580 0.000000 
#    z 0.000000 0.000000 1.782350 
# 
# From -- ./inp_files/7846.got.cif
#   From: 2010.05.17/outbox.cif.g08.bks.cpg/sg55_4_cif.got.tgz:7846.got - 2010.06.03 13:27:54.
