data_PCOD9425548
_publ_section_title
;
Structure prediction by ZEFSAII (Michael W. Deem and Ramdas Pophale) SiO2 
 PCOD9425548
Probable space group: P B A M
;
_chemical_formula_sum "Si O2"
_cell_formula_units_Z 64
_cell_length_a 16.166330
_cell_length_b 20.595617
_cell_length_c 9.031551
_cell_angle_alpha 90.000000
_cell_angle_beta 90.000000
_cell_angle_gamma 90.000000
_cell_volume 3007.104949
_symmetry_space_group_name_H-M "P B A M"
_symmetry_group_IT_number 55
_symmetry_cell_setting 'orthorhombic'
loop_
_space_group_symop_operation_xyz
x,y,z
-x,-y,z
1/2+x,1/2-y,-z
1/2-x,1/2+y,-z
-x,-y,-z
x,y,-z
1/2-x,1/2+y,z
1/2+x,1/2-y,z
loop_
_atom_site_type_symbol
_atom_site_label
_atom_site_fract_x
_atom_site_fract_y
_atom_site_fract_z
Si Si1 0.812953 0.058045 0.821859
Si Si2 0.156189 0.078715 0.327050
Si Si3 0.022656 0.573185 0.824935
Si Si4 0.507720 0.579006 0.832194
Si Si5 0.554037 0.202339 0.321106
Si Si6 0.828518 0.380434 0.336216
Si Si7 0.726392 0.183652 0.823549
Si Si8 0.390505 0.265523 0.667298
O O1 0.737295 0.106091 0.792561
O O2 0.900407 0.091057 0.772841
O O3 0.812868 0.988608 0.745479
O O4 0.819863 0.049477 0.000000
O O5 0.142971 0.068073 0.500000
O O6 0.070592 0.101299 0.258580
O O7 0.232176 0.126604 0.302569
O O8 0.119227 0.581810 0.785082
O O9 0.000000 0.500000 0.780074
O O10 0.975392 0.631739 0.741279
O O11 0.007722 0.580461 0.000000
O O12 0.500000 0.500000 0.834553
O O13 0.502541 0.602695 0.000000
O O14 0.554943 0.201392 0.500000
O O15 0.646396 0.211835 0.258441
O O16 0.485565 0.257493 0.276658
O O17 0.835243 0.412135 0.500000
O O18 0.867862 0.310299 0.347727
O O19 0.814842 0.210312 0.767877
O O20 0.718890 0.192393 0.000000
O O21 0.388681 0.294231 0.500000
#
# Coordination Sequence:
#
# PCOD9425548 Si02
#       8
#     8   8   8   8   8   8   8   8
#     4   9  20  36  52  76 114 151 182 227 287 344
#     4  10  19  31  52  83 113 143 187 235 275 332
#     4  10  21  35  55  86 120 152 190 236 287 345
#     4   8  15  31  50  68 101 147 181 214 273 336
#     4  10  22  41  64  87 118 158 196 241 297 356
#     4   9  20  37  55  79 112 150 190 235 285 346
#     4  11  23  39  62  90 120 151 194 249 295 349
#     4   9  20  42  63  80 111 152 195 240 291 345
#
# _framework density 21.282927999999998
#
# number of rings (size 3 to 8) (size 9 to 14) (size 15 to 20)
#    0.000    2.500    0.000    3.000    1.750    7.750 
#    2.250    0.000    0.000    0.000    0.000    0.000 
#    0.000    0.000    0.000    0.000    0.000    0.000 
#
# Total GULP energy -356871.160209 kJ/mol
# GULP energy per Si atom -5576.111878 kJ/mol
# Density = 2.123449 g / cm^3
# Si number density = 21.282928 Si / 1000 Ang^3
#
#
#
# Elastic Constant Matrix: (Units=GPa)
#
#
# Indices 1 2 3 4 5 6 
#
# 1 128.7781 25.0878 36.8485 0.0000 0.0000 0.0000
# 2 25.0878 30.2467 13.9531 0.0000 0.0000 0.0000
# 3 36.8485 13.9531 49.8098 0.0000 0.0000 0.0000
# 4 0.0000 0.0000 0.0000 18.1272 0.0000 0.0000
# 5 0.0000 0.0000 0.0000 0.0000 31.8601 0.0000
# 6 0.0000 0.0000 0.0000 0.0000 0.0000 25.6244
#
#
#
# Elastic Compliance Matrix: (Units=1/GPa)
#
#
# Indices 1 2 3 4 5 6 
#
# 1 0.010725 -0.006013 -0.006250 0.000000 0.000000 0.000000
# 2 -0.006013 0.041339 -0.007132 0.000000 0.000000 0.000000
# 3 -0.006250 -0.007132 0.026698 0.000000 0.000000 0.000000
# 4 0.000000 0.000000 0.000000 0.055166 0.000000 0.000000
# 5 0.000000 0.000000 0.000000 0.000000 0.031387 0.000000
# 6 0.000000 0.000000 0.000000 0.000000 0.000000 0.039025
#
#
# Mechanical properties :
#
#
# Convention : Reuss Voigt Hill
#
# Bulk Modulus (GPa) = 25.01727 40.06816 32.54272
# Shear Modulus (GPa) = 19.49675 23.98535 21.74105
#
# Velocity S-wave (km/s) = 3.02996 3.36069 3.19960
# Velocity P-wave (km/s) = 4.90112 5.82463 5.38272
#
# Compressibility (1/GPa) = 0.03997238
#
# Stress axis : x y z
#
# Youngs Moduli (GPa) = 93.24034 24.19042 37.45622
#
# Poissons Ratio (x) = 0.14545 0.23410
# Poissons Ratio (y) = 0.56062 0.26714
# Poissons Ratio (z) = 0.58274 0.17253
#
# Static dielectric constant tensor:
#      x y z
#    x 1.858370 0.000000 0.000000 
#    y 0.000000 1.818850 0.000000 
#    z 0.000000 0.000000 1.742850 
# 
# From -- ./inp_files/6510.got.cif
#   From: 2010.05.17/outbox.cif.g08.bks.cpg/sg55_4_cif.got.tgz:6510.got - 2010.06.03 13:27:54.
