data_PCOD9425495
_publ_section_title
;
Structure prediction by ZEFSAII (Michael W. Deem and Ramdas Pophale) SiO2 
 PCOD9425495
Probable space group: P B A M
;
_chemical_formula_sum "Si O2"
_cell_formula_units_Z 40
_cell_length_a 7.741612
_cell_length_b 23.257365
_cell_length_c 10.740387
_cell_angle_alpha 90.000000
_cell_angle_beta 90.000000
_cell_angle_gamma 90.000000
_cell_volume 1933.801266
_symmetry_space_group_name_H-M "P B A M"
_symmetry_group_IT_number 55
_symmetry_cell_setting 'orthorhombic'
loop_
_space_group_symop_operation_xyz
x,y,z
-x,-y,z
1/2+x,1/2-y,-z
1/2-x,1/2+y,-z
-x,-y,-z
x,y,-z
1/2-x,1/2+y,z
1/2+x,1/2-y,z
loop_
_atom_site_type_symbol
_atom_site_label
_atom_site_fract_x
_atom_site_fract_y
_atom_site_fract_z
Si Si1 0.178427 0.465857 0.133374
Si Si2 0.628780 0.453985 0.294286
Si Si3 0.999277 0.406047 0.643174
Si Si4 0.009994 0.833255 0.352169
Si Si5 0.101355 0.287223 0.354243
O O1 0.319750 0.513297 0.167672
O O2 0.000000 0.500000 0.120650
O O3 0.137182 0.429203 0.257140
O O4 0.213528 0.436653 0.000000
O O5 0.500000 0.500000 0.358293
O O6 0.818026 0.440091 0.352030
O O7 0.536626 0.392538 0.285230
O O8 0.062904 0.408443 0.500000
O O9 0.972256 0.339045 0.679783
O O10 0.969747 0.843563 0.500000
O O11 0.209424 0.814346 0.342953
O O12 0.913802 0.776416 0.300222
O O13 0.065014 0.276943 0.500000
#
# Coordination Sequence:
#
# PCOD9425495 Si02
#       5
#     8   8   8   8   8
#     4   9  20  38  57  78 109 150 191 232 281 336
#     4  11  22  33  50  80 116 154 193 233 280 341
#     4  10  20  35  57  83 112 147 189 240 291 340
#     4  10  19  31  49  75 110 149 187 232 287 346
#     4   9  18  33  52  76 108 147 189 234 290 348
#
# _framework density 20.684647999999999
#
# number of rings (size 3 to 8) (size 9 to 14) (size 15 to 20)
#    0.000    2.200    0.000    3.000    0.000    9.600 
#    0.000    0.000    0.000    1.200    0.000    5.600 
#    0.000    0.000    0.000    0.000    0.000    0.000 
#
# Total GULP energy -222712.889254 kJ/mol
# GULP energy per Si atom -5567.822231 kJ/mol
# Density = 2.063757 g / cm^3
# Si number density = 20.684648 Si / 1000 Ang^3
#
#
#
# Elastic Constant Matrix: (Units=GPa)
#
#
# Indices 1 2 3 4 5 6 
#
# 1 63.8960 53.0109 36.4279 0.0000 0.0000 0.0000
# 2 53.0109 179.7721 40.9631 0.0000 0.0000 0.0000
# 3 36.4279 40.9631 81.0726 0.0000 0.0000 0.0000
# 4 0.0000 0.0000 0.0000 319.5311 0.0000 0.0000
# 5 0.0000 0.0000 0.0000 0.0000 -58.4451 0.0000
# 6 0.0000 0.0000 0.0000 0.0000 0.0000 45.0569
#
#
#
# Elastic Compliance Matrix: (Units=1/GPa)
#
#
# Indices 1 2 3 4 5 6 
#
# 1 0.025000 -0.005439 -0.008485 0.000000 0.000000 0.000000
# 2 -0.005439 0.007469 -0.001330 0.000000 0.000000 0.000000
# 3 -0.008485 -0.001330 0.016819 0.000000 0.000000 0.000000
# 4 0.000000 0.000000 0.000000 0.003130 0.000000 0.000000
# 5 0.000000 0.000000 0.000000 0.000000 -0.017110 0.000000
# 6 0.000000 0.000000 0.000000 0.000000 0.000000 0.022194
#
#
# Mechanical properties :
#
#
# Convention : Reuss Voigt Hill
#
# Bulk Modulus (GPa) = 53.24633 65.06050 59.15342
# Shear Modulus (GPa) = 53.03861 74.18452 63.61157
#
# Velocity S-wave (km/s) = 5.06924 5.99520 5.55156
# Velocity P-wave (km/s) = 7.74989 8.91319 8.35182
#
# Compressibility (1/GPa) = 0.01878064
#
# Stress axis : x y z
#
# Youngs Moduli (GPa) = 40.00002 133.87877 59.45507
#
# Poissons Ratio (x) = 0.72810 0.50449
# Poissons Ratio (y) = 0.21754 0.07910
# Poissons Ratio (z) = 0.33941 0.17811
#
# Static dielectric constant tensor:
#      x y z
#    x 1.826490 0.000000 0.000000 
#    y 0.000000 1.807960 0.000000 
#    z 0.000000 0.000000 1.757610 
# 
# From -- ./inp_files/12296.got.cif
#   From: 2010.05.17/outbox.cif.g08.bks.cpg/sg55_7_cif.got.tgz:12296.got - 2010.06.03 13:27:54.
