data_PCOD9425771
_publ_section_title
;
Structure prediction by ZEFSAII (Michael W. Deem and Ramdas Pophale) SiO2 
 PCOD9425771
Probable space group: P B A M
;
_chemical_formula_sum "Si O2"
_cell_formula_units_Z 48
_cell_length_a 13.943779
_cell_length_b 24.356190
_cell_length_c 8.770356
_cell_angle_alpha 90.000000
_cell_angle_beta 90.000000
_cell_angle_gamma 90.000000
_cell_volume 2978.564894
_symmetry_space_group_name_H-M "P B A M"
_symmetry_group_IT_number 55
_symmetry_cell_setting 'orthorhombic'
loop_
_space_group_symop_operation_xyz
x,y,z
-x,-y,z
1/2+x,1/2-y,-z
1/2-x,1/2+y,-z
-x,-y,-z
x,y,-z
1/2-x,1/2+y,z
1/2+x,1/2-y,z
loop_
_atom_site_type_symbol
_atom_site_label
_atom_site_fract_x
_atom_site_fract_y
_atom_site_fract_z
Si Si1 0.095080 0.225357 0.181999
Si Si2 0.209754 0.336463 0.182069
Si Si3 0.894899 0.560147 0.318089
Si Si4 0.791892 0.330638 0.817048
Si Si5 0.888370 0.224657 0.319448
Si Si6 0.606966 0.943295 0.817083
O O1 0.136914 0.286058 0.216491
O O2 0.181831 0.183864 0.220024
O O3 0.997004 0.214511 0.268457
O O4 0.077860 0.222818 0.000000
O O5 0.173367 0.391181 0.262782
O O6 0.313235 0.316180 0.238891
O O7 0.210735 0.343836 0.000000
O O8 0.902953 0.559235 0.500000
O O9 0.861935 0.500640 0.257463
O O10 0.000289 0.568917 0.245159
O O11 0.857745 0.285598 0.735098
O O12 0.825171 0.391910 0.780419
O O13 0.802968 0.322472 0.000000
O O14 0.878058 0.220307 0.500000
O O15 0.602407 0.949488 0.000000
#
# Coordination Sequence:
#
# PCOD9425771 Si02
#       6
#     8   8   8   8   8   8
#     4   9  18  33  51  71  96 127 162 198 238 285
#     4  10  20  35  53  71  96 132 169 202 238 287
#     4  11  21  32  48  74 104 130 160 202 251 293
#     4   9  19  34  52  72  96 130 168 202 236 283
#     4  11  21  31  48  75 103 129 158 197 246 292
#     4  10  19  33  52  73  98 132 170 201 238 290
#
# _framework density 16.115143
#
# number of rings (size 3 to 8) (size 9 to 14) (size 15 to 20)
#    0.000    2.000    0.000    7.000    0.000    8.667 
#    0.000    0.000    0.000    1.000    0.000    7.000 
#    0.000    0.000    0.000    0.000    0.000    0.000 
#
# Total GULP energy -267974.904010 kJ/mol
# GULP energy per Si atom -5582.810500 kJ/mol
# Density = 1.607846 g / cm^3
# Si number density = 16.115143 Si / 1000 Ang^3
#
#
#
# Elastic Constant Matrix: (Units=GPa)
#
#
# Indices 1 2 3 4 5 6 
#
# 1 83.6581 61.5866 39.7122 0.0000 0.0000 0.0000
# 2 61.5866 123.7062 51.1212 0.0000 0.0000 0.0000
# 3 39.7122 51.1212 70.5371 0.0000 0.0000 0.0000
# 4 0.0000 0.0000 0.0000 14.7869 0.0000 0.0000
# 5 0.0000 0.0000 0.0000 0.0000 -57.4389 0.0000
# 6 0.0000 0.0000 0.0000 0.0000 0.0000 18.9371
#
#
#
# Elastic Compliance Matrix: (Units=1/GPa)
#
#
# Indices 1 2 3 4 5 6 
#
# 1 0.020458 -0.007745 -0.005905 0.000000 0.000000 0.000000
# 2 -0.007745 0.014472 -0.006128 0.000000 0.000000 0.000000
# 3 -0.005905 -0.006128 0.021943 0.000000 0.000000 0.000000
# 4 0.000000 0.000000 0.000000 0.067628 0.000000 0.000000
# 5 0.000000 0.000000 0.000000 0.000000 -0.017410 0.000000
# 6 0.000000 0.000000 0.000000 0.000000 0.000000 0.052806
#
#
# Mechanical properties :
#
#
# Convention : Reuss Voigt Hill
#
# Bulk Modulus (GPa) = 57.74649 64.74906 61.24777
# Shear Modulus (GPa) = 24.36366 3.62243 13.99305
#
# Velocity S-wave (km/s) = 3.89247 1.50091 2.94992
# Velocity P-wave (km/s) = 7.49088 6.57798 7.04922
#
# Compressibility (1/GPa) = 0.01731707
#
# Stress axis : x y z
#
# Youngs Moduli (GPa) = 48.88107 69.10027 45.57350
#
# Poissons Ratio (x) = 0.53516 0.26910
# Poissons Ratio (y) = 0.37857 0.27928
# Poissons Ratio (z) = 0.28863 0.42345
#
# Static dielectric constant tensor:
#      x y z
#    x 1.521180 0.000000 0.000000 
#    y 0.000000 1.529440 0.000000 
#    z 0.000000 0.000000 1.535460 
# 
# From -- ./inp_files/4088.got.cif
#   From: 2010.05.17/outbox.cif.g08.bks.cpg/sg55_3_cif.got.tgz:4088.got - 2010.06.03 13:27:54.
