data_PCOD9425286
_publ_section_title
;
Structure prediction by ZEFSAII (Michael W. Deem and Ramdas Pophale) SiO2 
 PCOD9425286
Probable space group: P B A M
;
_chemical_formula_sum "Si O2"
_cell_formula_units_Z 56
_cell_length_a 17.967617
_cell_length_b 19.463414
_cell_length_c 7.506323
_cell_angle_alpha 90.000000
_cell_angle_beta 90.000000
_cell_angle_gamma 90.000000
_cell_volume 2625.044986
_symmetry_space_group_name_H-M "P B A M"
_symmetry_group_IT_number 55
_symmetry_cell_setting 'orthorhombic'
loop_
_space_group_symop_operation_xyz
x,y,z
-x,-y,z
1/2+x,1/2-y,-z
1/2-x,1/2+y,-z
-x,-y,-z
x,y,-z
1/2-x,1/2+y,z
1/2+x,1/2-y,z
loop_
_atom_site_type_symbol
_atom_site_label
_atom_site_fract_x
_atom_site_fract_y
_atom_site_fract_z
Si Si1 0.053423 0.902512 0.283451
Si Si2 0.767442 0.461060 0.794764
Si Si3 0.117953 0.653645 0.704896
Si Si4 0.820684 0.203839 0.718901
Si Si5 0.689212 0.110740 0.706666
Si Si6 0.975686 0.576913 0.719073
Si Si7 0.603239 0.444340 0.715065
O O1 0.053231 0.902165 0.500000
O O2 0.109962 0.843987 0.226332
O O3 0.967136 0.898620 0.227059
O O4 0.083711 0.977480 0.229975
O O5 0.828406 0.412152 0.708253
O O6 0.768689 0.537343 0.714091
O O7 0.685664 0.428591 0.779077
O O8 0.787542 0.468484 0.000000
O O9 0.102213 0.672118 0.500000
O O10 0.161238 0.719226 0.780286
O O11 0.039047 0.629811 0.781220
O O12 0.817065 0.202568 0.500000
O O13 0.744321 0.168413 0.782521
O O14 0.677636 0.128738 0.500000
O O15 0.606777 0.097412 0.780957
O O16 0.975361 0.576164 0.500000
O O17 0.000000 0.500000 0.772593
O O18 0.605520 0.442942 0.500000
#
# Coordination Sequence:
#
# PCOD9425286 Si02
#       7
#     8   8   8   8   8   8   8
#     4   8  14  27  52  83 104 128 168 217 269 321
#     4  12  23  34  51  78 108 144 187 226 263 315
#     4  10  20  36  55  78 109 143 178 224 279 327
#     4   9  17  31  55  84 109 135 174 223 275 330
#     4  10  18  34  59  82 106 137 177 225 276 326
#     4   9  16  29  54  82 103 131 172 221 272 321
#     4   9  16  30  54  79 105 134 170 218 268 314
#
# _framework density 21.332967
#
# number of rings (size 3 to 8) (size 9 to 14) (size 15 to 20)
#    0.000    2.429    2.857    2.143    0.000    0.000 
#    2.571    3.571    0.000    0.000    0.000    0.000 
#    0.000    0.000    0.000    0.000    0.000    0.000 
#
# Total GULP energy -312481.012376 kJ/mol
# GULP energy per Si atom -5580.018078 kJ/mol
# Density = 2.128441 g / cm^3
# Si number density = 21.332967 Si / 1000 Ang^3
#
#
#
# Elastic Constant Matrix: (Units=GPa)
#
#
# Indices 1 2 3 4 5 6 
#
# 1 181.4430 55.9542 0.9684 0.0000 0.0000 0.0000
# 2 55.9542 95.6870 2.2606 0.0000 0.0000 0.0000
# 3 0.9684 2.2606 56.6492 0.0000 0.0000 0.0000
# 4 0.0000 0.0000 0.0000 -16.9427 0.0000 0.0000
# 5 0.0000 0.0000 0.0000 0.0000 -289.8818 0.0000
# 6 0.0000 0.0000 0.0000 0.0000 0.0000 28.6959
#
#
#
# Elastic Compliance Matrix: (Units=1/GPa)
#
#
# Indices 1 2 3 4 5 6 
#
# 1 0.006724 -0.003933 0.000042 0.000000 0.000000 0.000000
# 2 -0.003933 0.012761 -0.000442 0.000000 0.000000 0.000000
# 3 0.000042 -0.000442 0.017669 0.000000 0.000000 0.000000
# 4 0.000000 0.000000 0.000000 -0.059023 0.000000 0.000000
# 5 0.000000 0.000000 0.000000 0.000000 -0.003450 0.000000
# 6 0.000000 0.000000 0.000000 0.000000 0.000000 0.034848
#
#
# Mechanical properties :
#
#
# Convention : Reuss Voigt Hill
#
# Bulk Modulus (GPa) = 35.10181 50.23840 42.67010
# Shear Modulus (GPa) = 180.55440 -37.31932 71.61754
#
# Velocity S-wave (km/s) = 9.20978 -4.18709 5.80036
# Velocity P-wave (km/s) = 11.38347 0.47451 8.05632
#
# Compressibility (1/GPa) = 0.02848856
#
# Stress axis : x y z
#
# Youngs Moduli (GPa) = 148.72081 78.36360 56.59494
#
# Poissons Ratio (x) = 0.30820 -0.00238
# Poissons Ratio (y) = 0.58491 0.02502
# Poissons Ratio (z) = -0.00625 0.03464
#
# Static dielectric constant tensor:
#      x y z
#    x 1.776660 0.000000 0.000000 
#    y 0.000000 1.738380 0.000000 
#    z 0.000000 0.000000 1.798640 
# 
# From -- ./inp_files/7891.got.cif
#   From: 2010.05.17/outbox.cif.g08.bks.cpg/sg55_4_cif.got.tgz:7891.got - 2010.06.03 13:27:54.
