data_PCOD9425167
_publ_section_title
;
Structure prediction by ZEFSAII (Michael W. Deem and Ramdas Pophale) SiO2 
 PCOD9425167
Probable space group: P B A M
;
_chemical_formula_sum "Si O2"
_cell_formula_units_Z 56
_cell_length_a 14.580170
_cell_length_b 5.288723
_cell_length_c 33.500927
_cell_angle_alpha 90.000000
_cell_angle_beta 90.000000
_cell_angle_gamma 90.000000
_cell_volume 2583.272576
_symmetry_space_group_name_H-M "P B A M"
_symmetry_group_IT_number 55
_symmetry_cell_setting 'orthorhombic'
loop_
_space_group_symop_operation_xyz
x,y,z
-x,-y,z
1/2+x,1/2-y,-z
1/2-x,1/2+y,-z
-x,-y,-z
x,y,-z
1/2-x,1/2+y,z
1/2+x,1/2-y,z
loop_
_atom_site_type_symbol
_atom_site_label
_atom_site_fract_x
_atom_site_fract_y
_atom_site_fract_z
Si Si1 0.688390 0.411432 0.839546
Si Si2 0.609278 0.481647 0.331948
Si Si3 0.395486 0.717562 0.079454
Si Si4 0.108763 0.518161 0.627627
Si Si5 0.896627 0.281853 0.046520
Si Si6 0.691119 0.340191 0.751227
Si Si7 0.689328 0.855675 0.544203
O O1 0.735489 0.686932 0.842934
O O2 0.617209 0.362860 0.875001
O O3 0.647956 0.382009 0.794993
O O4 0.500000 0.500000 0.337067
O O5 0.645803 0.757850 0.344004
O O6 0.630092 0.400427 0.286958
O O7 0.645277 0.258739 0.360827
O O8 0.500470 0.749574 0.064633
O O9 0.354137 0.492619 0.053067
O O10 0.352514 0.990107 0.070870
O O11 0.126435 0.596820 0.582242
O O12 0.000000 0.500000 0.634019
O O13 0.901651 0.344763 0.000000
O O14 0.771222 0.553937 0.749438
O O15 0.854148 0.379020 0.500000
O O16 0.765296 0.078641 0.546500
#
# Coordination Sequence:
#
# PCOD9425167 Si02
#       7
#     8   8   8   8   8   8   8
#     4  10  21  37  55  75 106 142 174 213 259 312
#     4  10  21  37  55  82 113 141 177 234 280 314
#     4  10  18  32  54  77 102 133 172 208 260 307
#     4  10  21  36  56  79 111 146 182 220 280 339
#     4  10  19  33  56  79 104 134 169 222 264 302
#     4  10  21  37  58  80 106 145 186 218 267 331
#     4  10  21  36  54  80 112 143 184 236 277 315
#
# _framework density 21.67793
#
# number of rings (size 3 to 8) (size 9 to 14) (size 15 to 20)
#    0.000    2.000    0.000    4.714    0.000    3.714 
#    2.571    0.000    6.286   19.714    0.000    0.000 
#    0.000    0.000    0.000    0.000    0.000    0.000 
#
# Total GULP energy -312611.985393 kJ/mol
# GULP energy per Si atom -5582.356882 kJ/mol
# Density = 2.162859 g / cm^3
# Si number density = 21.677930 Si / 1000 Ang^3
#
#
#
# Elastic Constant Matrix: (Units=GPa)
#
#
# Indices 1 2 3 4 5 6 
#
# 1 34.0185 -5.2191 -6.2818 0.0000 0.0000 0.0000
# 2 -5.2191 120.7894 23.2069 0.0000 0.0000 0.0000
# 3 -6.2818 23.2069 122.1725 0.0000 0.0000 0.0000
# 4 0.0000 0.0000 0.0000 34.2362 0.0000 0.0000
# 5 0.0000 0.0000 0.0000 0.0000 24.9997 0.0000
# 6 0.0000 0.0000 0.0000 0.0000 0.0000 9.1568
#
#
#
# Elastic Compliance Matrix: (Units=1/GPa)
#
#
# Indices 1 2 3 4 5 6 
#
# 1 0.029801 0.001031 0.001336 0.000000 0.000000 0.000000
# 2 0.001031 0.008628 -0.001586 0.000000 0.000000 0.000000
# 3 0.001336 -0.001586 0.008555 0.000000 0.000000 0.000000
# 4 0.000000 0.000000 0.000000 0.029209 0.000000 0.000000
# 5 0.000000 0.000000 0.000000 0.000000 0.040000 0.000000
# 6 0.000000 0.000000 0.000000 0.000000 0.000000 0.109208
#
#
# Mechanical properties :
#
#
# Convention : Reuss Voigt Hill
#
# Bulk Modulus (GPa) = 20.59873 33.37696 26.98784
# Shear Modulus (GPa) = 20.83154 31.36350 26.09752
#
# Velocity S-wave (km/s) = 3.10329 3.80780 3.47345
# Velocity P-wave (km/s) = 4.72899 5.89598 5.34444
#
# Compressibility (1/GPa) = 0.04854669
#
# Stress axis : x y z
#
# Youngs Moduli (GPa) = 33.55627 115.90020 116.88910
#
# Poissons Ratio (x) = -0.11948 -0.15622
# Poissons Ratio (y) = -0.03459 0.18538
# Poissons Ratio (z) = -0.04485 0.18381
#
# Static dielectric constant tensor:
#      x y z
#    x 1.693580 0.000000 0.000000 
#    y 0.000000 1.913840 0.000000 
#    z 0.000000 0.000000 1.777030 
# 
# From -- ./inp_files/24178.got.cif
#   From: 2010.05.17/outbox.cif.g08.bks.cpg/sg55_13_cif.got.tgz:24178.got - 2010.06.03 13:27:54.
