data_PCOD9425393
_publ_section_title
;
Structure prediction by ZEFSAII (Michael W. Deem and Ramdas Pophale) SiO2 
 PCOD9425393
Probable space group: P B A M
;
_chemical_formula_sum "Si O2"
_cell_formula_units_Z 44
_cell_length_a 5.072898
_cell_length_b 14.819022
_cell_length_c 28.380518
_cell_angle_alpha 90.000000
_cell_angle_beta 90.000000
_cell_angle_gamma 90.000000
_cell_volume 2133.516426
_symmetry_space_group_name_H-M "P B A M"
_symmetry_group_IT_number 55
_symmetry_cell_setting 'orthorhombic'
loop_
_space_group_symop_operation_xyz
x,y,z
-x,-y,z
1/2+x,1/2-y,-z
1/2-x,1/2+y,-z
-x,-y,-z
x,y,-z
1/2-x,1/2+y,z
1/2+x,1/2-y,z
loop_
_atom_site_type_symbol
_atom_site_label
_atom_site_fract_x
_atom_site_fract_y
_atom_site_fract_z
Si Si1 0.820955 0.190051 0.552004
Si Si2 0.490718 0.108546 0.702651
Si Si3 0.009224 0.891981 0.649055
Si Si4 0.550388 0.812826 0.900879
Si Si5 0.171866 0.689751 0.198920
Si Si6 0.170756 0.686691 0.000000
O O1 0.861793 0.147919 0.500000
O O2 0.522367 0.225329 0.554278
O O3 0.896287 0.132030 0.597025
O O4 0.278008 0.141392 0.664166
O O5 0.397514 0.136329 0.754185
O O6 0.777276 0.142093 0.687044
O O7 0.500000 0.000000 0.701029
O O8 0.000000 0.000000 0.652338
O O9 0.756792 0.728068 0.901123
O O10 0.109520 0.641015 0.850850
O O11 0.612013 0.861449 0.950318
O O12 0.470726 0.724941 0.199096
O O13 0.962834 0.771011 0.000000
#
# Coordination Sequence:
#
# PCOD9425393 Si02
#       6
#     8   8   8   8   8   4
#     4  10  21  36  54  77 102 125 152 189 232 275
#     4  10  21  35  49  69  97 126 156 191 232 275
#     4  10  21  36  53  72  95 125 160 192 224 271
#     4   8  14  23  36  57  84 111 143 183 224 267
#     4  10  19  30  46  69  93 119 155 194 230 273
#     4   8  12  20  34  52  79 112 139 174 226 268
#
# _framework density 20.62323
#
# number of rings (size 3 to 8) (size 9 to 14) (size 15 to 20)
#    0.000    2.545    0.000    2.182    0.000    4.727 
#    0.000    0.000    0.000    6.545    0.000    0.636 
#    0.000    0.000    0.000   48.909    0.000    1.818 
#
# Total GULP energy -245314.214369 kJ/mol
# GULP energy per Si atom -5575.323054 kJ/mol
# Density = 2.057629 g / cm^3
# Si number density = 20.623230 Si / 1000 Ang^3
#
#
#
# Elastic Constant Matrix: (Units=GPa)
#
#
# Indices 1 2 3 4 5 6 
#
# 1 76.0858 -1.0477 0.1653 0.0000 0.0000 0.0000
# 2 -1.0477 12.7626 -2.3682 0.0000 0.0000 0.0000
# 3 0.1653 -2.3682 130.2333 0.0000 0.0000 0.0000
# 4 0.0000 0.0000 0.0000 -17.3106 0.0000 0.0000
# 5 0.0000 0.0000 0.0000 0.0000 33.8548 0.0000
# 6 0.0000 0.0000 0.0000 0.0000 0.0000 122.4015
#
#
#
# Elastic Compliance Matrix: (Units=1/GPa)
#
#
# Indices 1 2 3 4 5 6 
#
# 1 0.013158 0.001081 0.000003 0.000000 0.000000 0.000000
# 2 0.001081 0.078708 0.001430 0.000000 0.000000 0.000000
# 3 0.000003 0.001430 0.007705 0.000000 0.000000 0.000000
# 4 0.000000 0.000000 0.000000 -0.057768 0.000000 0.000000
# 5 0.000000 0.000000 0.000000 0.000000 0.029538 0.000000
# 6 0.000000 0.000000 0.000000 0.000000 0.000000 0.008170
#
#
# Mechanical properties :
#
#
# Convention : Reuss Voigt Hill
#
# Bulk Modulus (GPa) = 9.56049 23.62007 16.59028
# Shear Modulus (GPa) = 45.72536 42.61130 44.16833
#
# Velocity S-wave (km/s) = 4.71380 4.55046 4.63285
# Velocity P-wave (km/s) = 5.85426 6.25195 6.05637
#
# Compressibility (1/GPa) = 0.10459715
#
# Stress axis : x y z
#
# Youngs Moduli (GPa) = 75.99976 12.70524 129.79388
#
# Poissons Ratio (x) = -0.01373 -0.00038
# Poissons Ratio (y) = -0.08213 -0.18559
# Poissons Ratio (z) = -0.00022 -0.01817
#
# Static dielectric constant tensor:
#      x y z
#    x 1.730690 0.000000 0.000000 
#    y 0.000000 1.695070 0.000000 
#    z 0.000000 0.000000 1.808700 
# 
# From -- ./inp_files/23297.got.cif
#   From: 2010.05.17/outbox.cif.g08.bks.cpg/sg55_12_cif.got.tgz:23297.got - 2010.06.03 13:27:54.
