data_PCOD9425688
_publ_section_title
;
Structure prediction by ZEFSAII (Michael W. Deem and Ramdas Pophale) SiO2 
 PCOD9425688
Probable space group: P B A M
;
_chemical_formula_sum "Si O2"
_cell_formula_units_Z 52
_cell_length_a 12.191519
_cell_length_b 16.620859
_cell_length_c 12.707682
_cell_angle_alpha 90.000000
_cell_angle_beta 90.000000
_cell_angle_gamma 90.000000
_cell_volume 2575.002313
_symmetry_space_group_name_H-M "P B A M"
_symmetry_group_IT_number 55
_symmetry_cell_setting 'orthorhombic'
loop_
_space_group_symop_operation_xyz
x,y,z
-x,-y,z
1/2+x,1/2-y,-z
1/2-x,1/2+y,-z
-x,-y,-z
x,y,-z
1/2-x,1/2+y,z
1/2+x,1/2-y,z
loop_
_atom_site_type_symbol
_atom_site_label
_atom_site_fract_x
_atom_site_fract_y
_atom_site_fract_z
Si Si1 0.003554 0.630856 0.000000
Si Si2 0.113966 0.142839 0.380696
Si Si3 0.242243 0.720243 0.778349
Si Si4 0.825409 0.222455 0.000000
Si Si5 0.135751 0.838441 0.379911
Si Si6 0.784889 0.505908 0.381763
Si Si7 0.266173 0.932940 0.000000
Si Si8 0.143124 0.547651 0.826871
O O1 0.043695 0.579726 0.101501
O O2 0.873673 0.624626 0.000000
O O3 0.068506 0.716728 0.000000
O O4 0.128908 0.175002 0.500000
O O5 0.150508 0.207666 0.293335
O O6 0.985767 0.125328 0.366822
O O7 0.190131 0.063351 0.374759
O O8 0.240803 0.759374 0.892895
O O9 0.159301 0.769648 0.704542
O O10 0.203854 0.630544 0.802069
O O11 0.838516 0.125648 0.000000
O O12 0.142577 0.806999 0.500000
O O13 0.224530 0.908925 0.368302
O O14 0.831142 0.500972 0.500000
O O15 0.869126 0.492955 0.286625
O O16 0.281674 0.990010 0.899044
#
# Coordination Sequence:
#
# PCOD9425688 Si02
#       8
#     4   8   8   4   8   8   4   8
#     4   9  20  37  57  81 106 141 184 227 269 319
#     4   9  18  33  53  77 107 144 182 225 277 332
#     4  10  20  34  51  77 112 141 180 234 279 324
#     4  10  22  36  54  82 108 136 180 229 277 322
#     4  10  19  32  53  80 109 144 186 229 278 334
#     4   9  17  31  53  79 109 145 183 224 273 331
#     4  11  20  37  63  79 104 147 187 224 266 325
#     4   9  18  33  53  77 105 143 185 218 262 322
#
# _framework density 20.194154999999999
#
# number of rings (size 3 to 8) (size 9 to 14) (size 15 to 20)
#    0.000    2.462    0.000    3.231    0.000    4.923 
#    0.000    1.538    0.000    1.846    0.000   12.923 
#    0.000    0.000    0.000    0.000    0.000    0.000 
#
# Total GULP energy -289660.348032 kJ/mol
# GULP energy per Si atom -5570.391308 kJ/mol
# Density = 2.014819 g / cm^3
# Si number density = 20.194155 Si / 1000 Ang^3
#
#
#
# Elastic Constant Matrix: (Units=GPa)
#
#
# Indices 1 2 3 4 5 6 
#
# 1 46.2510 18.5221 34.2599 0.0000 0.0000 0.0000
# 2 18.5221 89.2949 48.0507 0.0000 0.0000 0.0000
# 3 34.2599 48.0507 157.3105 0.0000 0.0000 0.0000
# 4 0.0000 0.0000 0.0000 10.9047 0.0000 0.0000
# 5 0.0000 0.0000 0.0000 0.0000 4.8999 0.0000
# 6 0.0000 0.0000 0.0000 0.0000 0.0000 29.7258
#
#
#
# Elastic Compliance Matrix: (Units=1/GPa)
#
#
# Indices 1 2 3 4 5 6 
#
# 1 0.026372 -0.002848 -0.004874 0.000000 0.000000 0.000000
# 2 -0.002848 0.013709 -0.003567 0.000000 0.000000 0.000000
# 3 -0.004874 -0.003567 0.008508 0.000000 0.000000 0.000000
# 4 0.000000 0.000000 0.000000 0.091703 0.000000 0.000000
# 5 0.000000 0.000000 0.000000 0.000000 0.204085 0.000000
# 6 0.000000 0.000000 0.000000 0.000000 0.000000 0.033641
#
#
# Mechanical properties :
#
#
# Convention : Reuss Voigt Hill
#
# Bulk Modulus (GPa) = 38.44434 54.94685 46.69560
# Shear Modulus (GPa) = 12.21702 21.90769 17.06236
#
# Velocity S-wave (km/s) = 2.46230 3.29728 2.90990
# Velocity P-wave (km/s) = 5.21177 6.46254 5.87056
#
# Compressibility (1/GPa) = 0.02601163
#
# Stress axis : x y z
#
# Youngs Moduli (GPa) = 37.91970 72.94414 117.53827
#
# Poissons Ratio (x) = 0.20772 0.57282
# Poissons Ratio (y) = 0.10798 0.41929
# Poissons Ratio (z) = 0.18480 0.26021
#
# Static dielectric constant tensor:
#      x y z
#    x 1.693000 0.000000 0.000000 
#    y 0.000000 1.733240 0.000000 
#    z 0.000000 0.000000 1.766600 
# 
# From -- ./inp_files/14335.got.cif
#   From: 2010.05.17/outbox.cif.g08.bks.cpg/sg55_8_cif.got.tgz:14335.got - 2010.06.03 13:27:54.
