data_PCOD9425923
_publ_section_title
;
Structure prediction by ZEFSAII (Michael W. Deem and Ramdas Pophale) SiO2 
 PCOD9425923
Probable space group: P B A M
;
_chemical_formula_sum "Si O2"
_cell_formula_units_Z 64
_cell_length_a 12.809586
_cell_length_b 29.353208
_cell_length_c 7.595752
_cell_angle_alpha 90.000000
_cell_angle_beta 90.000000
_cell_angle_gamma 90.000000
_cell_volume 2856.021303
_symmetry_space_group_name_H-M "P B A M"
_symmetry_group_IT_number 55
_symmetry_cell_setting 'orthorhombic'
loop_
_space_group_symop_operation_xyz
x,y,z
-x,-y,z
1/2+x,1/2-y,-z
1/2-x,1/2+y,-z
-x,-y,-z
x,y,-z
1/2-x,1/2+y,z
1/2+x,1/2-y,z
loop_
_atom_site_type_symbol
_atom_site_label
_atom_site_fract_x
_atom_site_fract_y
_atom_site_fract_z
Si Si1 0.640272 0.376648 0.798524
Si Si2 0.433668 0.803300 0.715882
Si Si3 0.387513 0.520418 0.784692
Si Si4 0.256588 0.939152 0.789858
Si Si5 0.496236 0.294284 0.703961
Si Si6 0.489171 0.947110 0.212690
Si Si7 0.873528 0.364890 0.297804
Si Si8 0.209995 0.839954 0.712197
O O1 0.627227 0.427710 0.723789
O O2 0.572846 0.337313 0.710511
O O3 0.762188 0.363967 0.793716
O O4 0.603661 0.378254 0.000000
O O5 0.430652 0.805429 0.500000
O O6 0.451325 0.751453 0.775768
O O7 0.533570 0.832974 0.772834
O O8 0.323312 0.823635 0.777059
O O9 0.500000 0.500000 0.737150
O O10 0.299854 0.484594 0.723295
O O11 0.382045 0.521362 0.000000
O O12 0.374448 0.932276 0.723433
O O13 0.193707 0.893059 0.755142
O O14 0.265652 0.944685 0.000000
O O15 0.475337 0.283268 0.500000
O O16 0.385272 0.309607 0.781538
O O17 0.578920 0.915512 0.288534
O O18 0.500000 0.000000 0.255842
O O19 0.495497 0.942699 0.000000
O O20 0.854708 0.351714 0.500000
O O21 0.210606 0.836639 0.500000
#
# Coordination Sequence:
#
# PCOD9425923 Si02
#       8
#     8   8   8   8   8   8   8   8
#     4  11  23  40  61  88 123 156 193 246 301 355
#     4   9  20  38  61  86 113 152 196 242 296 351
#     4   9  18  34  57  82 112 156 201 233 281 353
#     4  10  19  33  56  83 112 151 194 239 289 351
#     4  10  22  39  63  88 113 152 201 244 290 354
#     4  10  20  35  55  81 116 157 199 243 298 356
#     4  11  22  38  61  86 117 156 202 248 295 357
#     4  10  20  37  60  87 117 148 191 246 294 343
#
# _framework density 22.408795000000001
#
# number of rings (size 3 to 8) (size 9 to 14) (size 15 to 20)
#    0.000    2.000    1.250    2.250    1.750    3.750 
#    0.000    4.375    0.000    3.375    0.000    0.000 
#    0.000    0.000    0.000    0.000    0.000    0.000 
#
# Total GULP energy -357700.331547 kJ/mol
# GULP energy per Si atom -5589.067680 kJ/mol
# Density = 2.235779 g / cm^3
# Si number density = 22.408795 Si / 1000 Ang^3
#
#
#
# Elastic Constant Matrix: (Units=GPa)
#
#
# Indices 1 2 3 4 5 6 
#
# 1 107.4239 43.0000 -5.7191 0.0000 0.0000 0.0000
# 2 43.0000 136.5553 -6.3760 0.0000 0.0000 0.0000
# 3 -5.7191 -6.3760 46.7185 0.0000 0.0000 0.0000
# 4 0.0000 0.0000 0.0000 20.8392 0.0000 0.0000
# 5 0.0000 0.0000 0.0000 0.0000 10.9472 0.0000
# 6 0.0000 0.0000 0.0000 0.0000 0.0000 33.7786
#
#
#
# Elastic Compliance Matrix: (Units=1/GPa)
#
#
# Indices 1 2 3 4 5 6 
#
# 1 0.010685 -0.003325 0.000854 0.000000 0.000000 0.000000
# 2 -0.003325 0.008405 0.000740 0.000000 0.000000 0.000000
# 3 0.000854 0.000740 0.021610 0.000000 0.000000 0.000000
# 4 0.000000 0.000000 0.000000 0.047986 0.000000 0.000000
# 5 0.000000 0.000000 0.000000 0.000000 0.091348 0.000000
# 6 0.000000 0.000000 0.000000 0.000000 0.000000 0.029605
#
#
# Mechanical properties :
#
#
# Convention : Reuss Voigt Hill
#
# Bulk Modulus (GPa) = 26.85343 39.16749 33.01046
# Shear Modulus (GPa) = 22.17170 30.43252 26.30211
#
# Velocity S-wave (km/s) = 3.14892 3.68919 3.42971
# Velocity P-wave (km/s) = 5.02298 5.97188 5.51787
#
# Compressibility (1/GPa) = 0.03723919
#
# Stress axis : x y z
#
# Youngs Moduli (GPa) = 93.58682 118.98325 46.27409
#
# Poissons Ratio (x) = 0.39560 -0.03953
# Poissons Ratio (y) = 0.31116 -0.03424
# Poissons Ratio (z) = -0.07995 -0.08805
#
# Static dielectric constant tensor:
#      x y z
#    x 1.805410 0.000000 0.000000 
#    y 0.000000 1.806170 0.000000 
#    z 0.000000 0.000000 1.871340 
# 
# From -- ./inp_files/4494.got.cif
#   From: 2010.05.17/outbox.cif.g08.bks.cpg/sg55_3_cif.got.tgz:4494.got - 2010.06.03 13:27:54.
