data_PCOD9425963
_publ_section_title
;
Structure prediction by ZEFSAII (Michael W. Deem and Ramdas Pophale) SiO2 
 PCOD9425963
Probable space group: P B A M
;
_chemical_formula_sum "Si O2"
_cell_formula_units_Z 56
_cell_length_a 15.029356
_cell_length_b 21.286700
_cell_length_c 7.451453
_cell_angle_alpha 90.000000
_cell_angle_beta 90.000000
_cell_angle_gamma 90.000000
_cell_volume 2383.909025
_symmetry_space_group_name_H-M "P B A M"
_symmetry_group_IT_number 55
_symmetry_cell_setting 'orthorhombic'
loop_
_space_group_symop_operation_xyz
x,y,z
-x,-y,z
1/2+x,1/2-y,-z
1/2-x,1/2+y,-z
-x,-y,-z
x,y,-z
1/2-x,1/2+y,z
1/2+x,1/2-y,z
loop_
_atom_site_type_symbol
_atom_site_label
_atom_site_fract_x
_atom_site_fract_y
_atom_site_fract_z
Si Si1 0.106907 0.726416 0.293295
Si Si2 0.299623 0.710096 0.281048
Si Si3 0.581763 0.176465 0.719461
Si Si4 0.422548 0.592711 0.717585
Si Si5 0.908447 0.532207 0.719845
Si Si6 0.379743 0.370808 0.204937
Si Si7 0.282390 0.492971 0.293251
O O1 0.105141 0.705146 0.500000
O O2 0.199260 0.701229 0.214784
O O3 0.113172 0.802061 0.290537
O O4 0.013234 0.703660 0.217151
O O5 0.296084 0.710687 0.500000
O O6 0.340552 0.776462 0.222938
O O7 0.367360 0.654983 0.233272
O O8 0.582393 0.177910 0.500000
O O9 0.592728 0.104883 0.774418
O O10 0.431280 0.589786 0.500000
O O11 0.522427 0.598231 0.785997
O O12 0.362755 0.534506 0.782610
O O13 0.907174 0.530761 0.500000
O O14 0.816603 0.500521 0.782895
O O15 0.000000 0.500000 0.776823
O O16 0.311453 0.420248 0.288775
O O17 0.353693 0.361526 0.000000
O O18 0.275888 0.513657 0.500000
#
# Coordination Sequence:
#
# PCOD9425963 Si02
#       7
#     8   8   8   8   8   8   8
#     4  10  19  33  58  83 110 144 184 230 278 334
#     4   9  17  30  53  84 111 140 183 230 279 332
#     4   9  16  28  49  78 111 143 172 217 275 328
#     4  10  20  36  58  85 112 144 189 238 287 338
#     4   9  18  31  52  87 122 145 178 229 283 335
#     4  12  24  38  56  81 114 152 192 235 285 337
#     4  10  21  36  58  84 115 152 189 233 283 338
#
# _framework density 23.490829999999999
#
# number of rings (size 3 to 8) (size 9 to 14) (size 15 to 20)
#    0.000    2.143    1.429    2.571    2.000    4.571 
#    0.000    0.714    0.000    0.429    0.000    0.000 
#    0.000    0.000    0.000    0.000    0.000    0.000 
#
# Total GULP energy -313084.306976 kJ/mol
# GULP energy per Si atom -5590.791196 kJ/mol
# Density = 2.343736 g / cm^3
# Si number density = 23.490830 Si / 1000 Ang^3
#
#
#
# Elastic Constant Matrix: (Units=GPa)
#
#
# Indices 1 2 3 4 5 6 
#
# 1 124.3652 -5.2565 -5.4014 0.0000 0.0000 0.0000
# 2 -5.2565 45.7129 -10.9253 0.0000 0.0000 0.0000
# 3 -5.4014 -10.9253 73.3882 0.0000 0.0000 0.0000
# 4 0.0000 0.0000 0.0000 -27.9812 0.0000 0.0000
# 5 0.0000 0.0000 0.0000 0.0000 70.6585 0.0000
# 6 0.0000 0.0000 0.0000 0.0000 0.0000 14.3460
#
#
#
# Elastic Compliance Matrix: (Units=1/GPa)
#
#
# Indices 1 2 3 4 5 6 
#
# 1 0.008121 0.001116 0.000764 0.000000 0.000000 0.000000
# 2 0.001116 0.022836 0.003482 0.000000 0.000000 0.000000
# 3 0.000764 0.003482 0.014201 0.000000 0.000000 0.000000
# 4 0.000000 0.000000 0.000000 -0.035738 0.000000 0.000000
# 5 0.000000 0.000000 0.000000 0.000000 0.014153 0.000000
# 6 0.000000 0.000000 0.000000 0.000000 0.000000 0.069706
#
#
# Mechanical properties :
#
#
# Convention : Reuss Voigt Hill
#
# Bulk Modulus (GPa) = 17.89473 22.25555 20.07514
# Shear Modulus (GPa) = 49.41613 29.07462 39.24538
#
# Velocity S-wave (km/s) = 4.59152 3.52191 4.09181
# Velocity P-wave (km/s) = 5.97860 5.10228 5.55774
#
# Compressibility (1/GPa) = 0.05588238
#
# Stress axis : x y z
#
# Youngs Moduli (GPa) = 123.13451 43.79014 70.41895
#
# Poissons Ratio (x) = -0.04889 -0.05379
# Poissons Ratio (y) = -0.13747 -0.24518
# Poissons Ratio (z) = -0.09407 -0.15247
#
# Static dielectric constant tensor:
#      x y z
#    x 1.869540 0.000000 0.000000 
#    y 0.000000 1.841020 0.000000 
#    z 0.000000 0.000000 1.935420 
# 
# From -- ./inp_files/6066.got.cif
#   From: 2010.05.17/outbox.cif.g08.bks.cpg/sg55_4_cif.got.tgz:6066.got - 2010.06.03 13:27:54.
