data_PCOD9425394
_publ_section_title
;
Structure prediction by ZEFSAII (Michael W. Deem and Ramdas Pophale) SiO2 
 PCOD9425394
Probable space group: P B A M
;
_chemical_formula_sum "Si O2"
_cell_formula_units_Z 64
_cell_length_a 21.195427
_cell_length_b 20.240361
_cell_length_c 8.494651
_cell_angle_alpha 90.000000
_cell_angle_beta 90.000000
_cell_angle_gamma 90.000000
_cell_volume 3644.231562
_symmetry_space_group_name_H-M "P B A M"
_symmetry_group_IT_number 55
_symmetry_cell_setting 'orthorhombic'
loop_
_space_group_symop_operation_xyz
x,y,z
-x,-y,z
1/2+x,1/2-y,-z
1/2-x,1/2+y,-z
-x,-y,-z
x,y,-z
1/2-x,1/2+y,z
1/2+x,1/2-y,z
loop_
_atom_site_type_symbol
_atom_site_label
_atom_site_fract_x
_atom_site_fract_y
_atom_site_fract_z
Si Si1 0.560013 0.540452 0.689641
Si Si2 0.348833 0.839787 0.312549
Si Si3 0.077360 0.810912 0.809379
Si Si4 0.516947 0.196838 0.809738
Si Si5 0.666043 0.006389 0.311086
Si Si6 0.544491 0.940315 0.189433
Si Si7 0.697830 0.531123 0.310258
Si Si8 0.284301 0.321396 0.185824
O O1 0.500000 0.500000 0.749771
O O2 0.556004 0.543272 0.500000
O O3 0.562479 0.615436 0.750486
O O4 0.627661 0.506901 0.728561
O O5 0.351959 0.840940 0.500000
O O6 0.411020 0.805452 0.245859
O O7 0.347354 0.917338 0.259092
O O8 0.282887 0.805949 0.263512
O O9 0.148856 0.790806 0.759162
O O10 0.024564 0.759094 0.756615
O O11 0.078132 0.812275 0.000000
O O12 0.482845 0.129411 0.754833
O O13 0.516899 0.196814 0.000000
O O14 0.659854 0.004948 0.500000
O O15 0.739031 0.991024 0.270800
O O16 0.615138 0.957598 0.239202
O O17 0.500000 0.000000 0.247496
O O18 0.541669 0.939916 0.000000
O O19 0.700119 0.543119 0.500000
O O20 0.705484 0.601133 0.224243
O O21 0.278314 0.310948 0.000000
#
# Coordination Sequence:
#
# PCOD9425394 Si02
#       8
#     8   8   8   8   8   8   8   8
#     4   9  17  31  54  79 101 129 161 200 249 297
#     4  10  19  30  47  73  98 125 162 204 245 287
#     4   9  19  34  52  74  99 130 164 204 251 297
#     4  10  20  34  50  70  99 132 165 205 249 292
#     4   9  17  28  44  66  95 126 158 200 241 281
#     4  10  19  30  46  69  95 127 166 203 239 283
#     4   8  15  28  45  70  98 124 156 196 239 285
#     4   9  16  28  48  71  93 122 160 200 242 290
#
# _framework density 17.562002
#
# number of rings (size 3 to 8) (size 9 to 14) (size 15 to 20)
#    0.000    2.750    1.250    1.500    0.000    4.000 
#    0.000    0.000    2.750    0.000    0.000    0.000 
#    0.000    0.000    0.000    0.000    0.000    0.000 
#
# Total GULP energy -356376.700171 kJ/mol
# GULP energy per Si atom -5568.385940 kJ/mol
# Density = 1.752203 g / cm^3
# Si number density = 17.562002 Si / 1000 Ang^3
#
#
#
# Elastic Constant Matrix: (Units=GPa)
#
#
# Indices 1 2 3 4 5 6 
#
# 1 191.5382 64.3770 22.5656 0.0000 0.0000 0.0000
# 2 64.3770 51.5818 8.2499 0.0000 0.0000 0.0000
# 3 22.5656 8.2499 3.8822 0.0000 0.0000 0.0000
# 4 0.0000 0.0000 0.0000 9.5337 0.0000 0.0000
# 5 0.0000 0.0000 0.0000 0.0000 25.7312 0.0000
# 6 0.0000 0.0000 0.0000 0.0000 0.0000 27.3351
#
#
#
# Elastic Compliance Matrix: (Units=1/GPa)
#
#
# Indices 1 2 3 4 5 6 
#
# 1 0.019065 -0.009196 -0.091278 0.000000 0.000000 0.000000
# 2 -0.009196 0.033804 -0.018386 0.000000 0.000000 0.000000
# 3 -0.091278 -0.018386 0.827230 0.000000 0.000000 0.000000
# 4 0.000000 0.000000 0.000000 0.104892 0.000000 0.000000
# 5 0.000000 0.000000 0.000000 0.000000 0.038863 0.000000
# 6 0.000000 0.000000 0.000000 0.000000 0.000000 0.036583
#
#
# Mechanical properties :
#
#
# Convention : Reuss Voigt Hill
#
# Bulk Modulus (GPa) = 1.55671 48.59857 25.07764
# Shear Modulus (GPa) = 3.30626 22.64064 12.97345
#
# Velocity S-wave (km/s) = 1.37357 3.59441 2.72089
# Velocity P-wave (km/s) = 1.84498 6.70515 4.91747
#
# Compressibility (1/GPa) = 0.64237995
#
# Stress axis : x y z
#
# Youngs Moduli (GPa) = 52.45125 29.58238 1.20885
#
# Poissons Ratio (x) = 0.27203 0.11034
# Poissons Ratio (y) = 0.48232 0.02223
# Poissons Ratio (z) = 4.78767 0.54389
#
# Static dielectric constant tensor:
#      x y z
#    x 1.645610 0.000000 0.000000 
#    y 0.000000 1.572860 0.000000 
#    z 0.000000 0.000000 1.600680 
# 
# From -- ./inp_files/8047.got.cif
#   From: 2010.05.17/outbox.cif.g08.bks.cpg/sg55_5_cif.got.tgz:8047.got - 2010.06.03 13:27:54.
