data_PCOD9425008
_publ_section_title
;
Structure prediction by ZEFSAII (Michael W. Deem and Ramdas Pophale) SiO2 
 PCOD9425008
Probable space group: P B A M
;
_chemical_formula_sum "Si O2"
_cell_formula_units_Z 48
_cell_length_a 15.558054
_cell_length_b 20.292610
_cell_length_c 7.446825
_cell_angle_alpha 90.000000
_cell_angle_beta 90.000000
_cell_angle_gamma 90.000000
_cell_volume 2351.063350
_symmetry_space_group_name_H-M "P B A M"
_symmetry_group_IT_number 55
_symmetry_cell_setting 'orthorhombic'
loop_
_space_group_symop_operation_xyz
x,y,z
-x,-y,z
1/2+x,1/2-y,-z
1/2-x,1/2+y,-z
-x,-y,-z
x,y,-z
1/2-x,1/2+y,z
1/2+x,1/2-y,z
loop_
_atom_site_type_symbol
_atom_site_label
_atom_site_fract_x
_atom_site_fract_y
_atom_site_fract_z
Si Si1 0.190656 0.661100 0.719501
Si Si2 0.490814 0.203907 0.293418
Si Si3 0.776050 0.489247 0.716718
Si Si4 0.619705 0.313737 0.719273
Si Si5 0.585923 0.463805 0.718898
Si Si6 0.554782 0.061603 0.792165
O O1 0.188448 0.660796 0.500000
O O2 0.104415 0.695821 0.785433
O O3 0.193267 0.584055 0.772685
O O4 0.280895 0.692890 0.775198
O O5 0.477978 0.224528 0.500000
O O6 0.556160 0.257128 0.214585
O O7 0.532412 0.131316 0.293024
O O8 0.776883 0.490587 0.500000
O O9 0.676889 0.495918 0.774720
O O10 0.845567 0.541855 0.779473
O O11 0.621084 0.312047 0.500000
O O12 0.589317 0.386998 0.770833
O O13 0.500000 0.500000 0.780838
O O14 0.585478 0.465180 0.500000
O O15 0.500000 0.000000 0.715827
O O16 0.529943 0.068193 0.000000
#
# Coordination Sequence:
#
# PCOD9425008 Si02
#       6
#     8   8   8   8   8   8
#     4   8  14  26  45  68  95 124 154 191 235 281
#     4  10  18  30  50  71  96 129 162 198 239 291
#     4   9  16  29  50  72  97 127 159 196 240 294
#     4   8  15  27  43  69 100 126 156 195 237 283
#     4   8  14  27  48  76 104 126 156 201 246 283
#     4  11  22  33  47  70  99 127 162 208 250 289
#
# _framework density 20.416294000000001
#
# number of rings (size 3 to 8) (size 9 to 14) (size 15 to 20)
#    0.000    3.000    1.667    2.500    0.000    0.667 
#    3.000    0.000    0.000    5.500    0.000    0.000 
#    0.000    0.000    0.000    0.000    0.000    0.000 
#
# Total GULP energy -267758.792376 kJ/mol
# GULP energy per Si atom -5578.308174 kJ/mol
# Density = 2.036983 g / cm^3
# Si number density = 20.416294 Si / 1000 Ang^3
#
#
#
# Elastic Constant Matrix: (Units=GPa)
#
#
# Indices 1 2 3 4 5 6 
#
# 1 216.3357 98.7274 -0.6662 0.0000 0.0000 0.0000
# 2 98.7274 85.8588 -3.4140 0.0000 0.0000 0.0000
# 3 -0.6662 -3.4140 60.8609 0.0000 0.0000 0.0000
# 4 0.0000 0.0000 0.0000 -30.2006 0.0000 0.0000
# 5 0.0000 0.0000 0.0000 0.0000 -12.7037 0.0000
# 6 0.0000 0.0000 0.0000 0.0000 0.0000 40.7613
#
#
#
# Elastic Compliance Matrix: (Units=1/GPa)
#
#
# Indices 1 2 3 4 5 6 
#
# 1 0.009743 -0.011224 -0.000523 0.000000 0.000000 0.000000
# 2 -0.011224 0.024604 0.001257 0.000000 0.000000 0.000000
# 3 -0.000523 0.001257 0.016496 0.000000 0.000000 0.000000
# 4 0.000000 0.000000 0.000000 -0.033112 0.000000 0.000000
# 5 0.000000 0.000000 0.000000 0.000000 -0.078717 0.000000
# 6 0.000000 0.000000 0.000000 0.000000 0.000000 0.024533
#
#
# Mechanical properties :
#
#
# Convention : Reuss Voigt Hill
#
# Bulk Modulus (GPa) = 33.48681 61.37221 47.42951
# Shear Modulus (GPa) = -905.90353 17.46526 -444.21913
#
# Velocity S-wave (km/s) = -21.08742 2.92799 -14.76662
# Velocity P-wave (km/s) = 24.00975 6.44643 16.35407
#
# Compressibility (1/GPa) = 0.02986251
#
# Stress axis : x y z
#
# Youngs Moduli (GPa) = 102.63598 40.64443 60.62186
#
# Poissons Ratio (x) = 0.45620 0.03170
# Poissons Ratio (y) = 1.15202 -0.07622
# Poissons Ratio (z) = 0.05368 -0.05110
#
# Static dielectric constant tensor:
#      x y z
#    x 1.738010 0.000000 0.000000 
#    y 0.000000 1.680100 0.000000 
#    z 0.000000 0.000000 1.765630 
# 
# From -- ./inp_files/5821.got.cif
#   From: 2010.05.17/outbox.cif.g08.bks.cpg/sg55_3_cif.got.tgz:5821.got - 2010.06.03 13:27:54.
