data_PCOD9425584
_publ_section_title
;
Structure prediction by ZEFSAII (Michael W. Deem and Ramdas Pophale) SiO2 
 PCOD9425584
Probable space group: P B A M
;
_chemical_formula_sum "Si O2"
_cell_formula_units_Z 48
_cell_length_a 8.451342
_cell_length_b 24.922042
_cell_length_c 13.069867
_cell_angle_alpha 90.000000
_cell_angle_beta 90.000000
_cell_angle_gamma 90.000000
_cell_volume 2752.836820
_symmetry_space_group_name_H-M "P B A M"
_symmetry_group_IT_number 55
_symmetry_cell_setting 'orthorhombic'
loop_
_space_group_symop_operation_xyz
x,y,z
-x,-y,z
1/2+x,1/2-y,-z
1/2-x,1/2+y,-z
-x,-y,-z
x,y,-z
1/2-x,1/2+y,z
1/2+x,1/2-y,z
loop_
_atom_site_type_symbol
_atom_site_label
_atom_site_fract_x
_atom_site_fract_y
_atom_site_fract_z
Si Si1 0.828017 0.480237 0.876264
Si Si2 0.688079 0.590680 0.119078
Si Si3 0.683066 0.172069 0.500000
Si Si4 0.165858 0.328416 0.274450
Si Si5 0.327044 0.629190 0.120257
Si Si6 0.195008 0.712262 0.725025
Si Si7 0.826559 0.283948 0.500000
O O1 0.707555 0.528311 0.851523
O O2 0.777195 0.421398 0.841496
O O3 0.000000 0.500000 0.841523
O O4 0.831280 0.476168 0.000000
O O5 0.795634 0.628307 0.188823
O O6 0.508354 0.610342 0.126966
O O7 0.737423 0.595071 0.000000
O O8 0.691826 0.146154 0.612085
O O9 0.810229 0.219839 0.500000
O O10 0.509740 0.199860 0.500000
O O11 0.277562 0.275911 0.263575
O O12 0.987935 0.305345 0.265914
O O13 0.291895 0.679962 0.190482
O O14 0.292543 0.639952 0.000000
O O15 0.245897 0.697883 0.608126
#
# Coordination Sequence:
#
# PCOD9425584 Si02
#       7
#     8   8   4   8   8   8   4
#     4   9  17  31  51  72  93 122 161 199 235 279
#     4  10  20  33  49  71  99 129 160 195 236 282
#     4   8  16  30  48  69  92 121 158 198 236 278
#     4  10  19  32  50  72  98 127 160 197 239 285
#     4  10  20  33  49  71  99 129 160 195 236 282
#     4  10  19  32  50  72  98 127 160 197 239 285
#     4   8  16  30  48  69  92 121 158 198 236 278
#
# _framework density 17.436558999999999
#
# number of rings (size 3 to 8) (size 9 to 14) (size 15 to 20)
#    0.000    2.500    0.000    2.500    0.000    6.000 
#    0.000    0.000    0.000    1.000    0.000    7.000 
#    0.000    0.000    0.000    0.000    0.000    0.000 
#
# Total GULP energy -267431.136233 kJ/mol
# GULP energy per Si atom -5571.482005 kJ/mol
# Density = 1.739687 g / cm^3
# Si number density = 17.436559 Si / 1000 Ang^3
#
#
#
# Elastic Constant Matrix: (Units=GPa)
#
#
# Indices 1 2 3 4 5 6 
#
# 1 21.8544 -3.0371 13.5508 0.0000 0.0000 0.0000
# 2 -3.0371 41.3875 19.9615 0.0000 0.0000 0.0000
# 3 13.5508 19.9615 62.3480 0.0000 0.0000 0.0000
# 4 0.0000 0.0000 0.0000 1.2772 0.0000 0.0000
# 5 0.0000 0.0000 0.0000 0.0000 16.9226 0.0000
# 6 0.0000 0.0000 0.0000 0.0000 0.0000 30.3815
#
#
#
# Elastic Compliance Matrix: (Units=1/GPa)
#
#
# Indices 1 2 3 4 5 6 
#
# 1 0.057621 0.012144 -0.016411 0.000000 0.000000 0.000000
# 2 0.012144 0.031133 -0.012607 0.000000 0.000000 0.000000
# 3 -0.016411 -0.012607 0.023642 0.000000 0.000000 0.000000
# 4 0.000000 0.000000 0.000000 0.782940 0.000000 0.000000
# 5 0.000000 0.000000 0.000000 0.000000 0.059093 0.000000
# 6 0.000000 0.000000 0.000000 0.000000 0.000000 0.032915
#
#
# Mechanical properties :
#
#
# Convention : Reuss Voigt Hill
#
# Bulk Modulus (GPa) = 12.71504 20.72671 16.72088
# Shear Modulus (GPa) = 4.77414 16.05725 10.41569
#
# Velocity S-wave (km/s) = 1.65649 3.03792 2.44672
# Velocity P-wave (km/s) = 3.31159 4.92118 4.19432
#
# Compressibility (1/GPa) = 0.07864702
#
# Stress axis : x y z
#
# Youngs Moduli (GPa) = 17.35479 32.11977 42.29725
#
# Poissons Ratio (x) = -0.39005 0.69416
# Poissons Ratio (y) = -0.21075 0.53325
# Poissons Ratio (z) = 0.28482 0.40494
#
# Static dielectric constant tensor:
#      x y z
#    x 1.624440 0.000000 0.000000 
#    y 0.000000 1.563020 0.000000 
#    z 0.000000 0.000000 1.608500 
# 
# From -- ./inp_files/12278.got.cif
#   From: 2010.05.17/outbox.cif.g08.bks.cpg/sg55_7_cif.got.tgz:12278.got - 2010.06.03 13:27:54.
