data_PCOD9425633
_publ_section_title
;
Structure prediction by ZEFSAII (Michael W. Deem and Ramdas Pophale) SiO2 
 PCOD9425633
Probable space group: P B A M
;
_chemical_formula_sum "Si O2"
_cell_formula_units_Z 48
_cell_length_a 10.507149
_cell_length_b 30.355391
_cell_length_c 7.566315
_cell_angle_alpha 90.000000
_cell_angle_beta 90.000000
_cell_angle_gamma 90.000000
_cell_volume 2413.265699
_symmetry_space_group_name_H-M "P B A M"
_symmetry_group_IT_number 55
_symmetry_cell_setting 'orthorhombic'
loop_
_space_group_symop_operation_xyz
x,y,z
-x,-y,z
1/2+x,1/2-y,-z
1/2-x,1/2+y,-z
-x,-y,-z
x,y,-z
1/2-x,1/2+y,z
1/2+x,1/2-y,z
loop_
_atom_site_type_symbol
_atom_site_label
_atom_site_fract_x
_atom_site_fract_y
_atom_site_fract_z
Si Si1 0.121445 0.525472 0.291422
Si Si2 0.876054 0.027627 0.214358
Si Si3 0.729059 0.786264 0.283161
Si Si4 0.739359 0.885605 0.285725
Si Si5 0.034846 0.879761 0.206271
Si Si6 0.016336 0.780231 0.294708
O O1 0.096561 0.531841 0.500000
O O2 0.247712 0.496172 0.271554
O O3 0.154653 0.573952 0.219560
O O4 0.000000 0.500000 0.215290
O O5 0.889054 0.078090 0.276762
O O6 0.878519 0.028210 0.000000
O O7 0.000000 0.000000 0.272825
O O8 0.732997 0.785197 0.500000
O O9 0.697356 0.836581 0.232858
O O10 0.873229 0.776721 0.220198
O O11 0.624793 0.751463 0.219676
O O12 0.741843 0.886740 0.500000
O O13 0.885311 0.891243 0.226130
O O14 0.054255 0.831657 0.287402
O O15 0.064104 0.875062 0.000000
O O16 0.005335 0.767728 0.500000
#
# Coordination Sequence:
#
# PCOD9425633 Si02
#       6
#     8   8   8   8   8   8
#     4  10  21  35  51  79 111 134 166 214 261 304
#     4  10  20  35  54  75 100 136 178 211 247 304
#     4   8  15  29  50  72  94 124 164 199 239 297
#     4   9  17  32  53  74 101 135 168 203 249 304
#     4  10  19  32  52  76 100 128 170 217 251 291
#     4   9  17  32  51  73  98 129 165 203 249 302
#
# _framework density 19.890059000000001
#
# number of rings (size 3 to 8) (size 9 to 14) (size 15 to 20)
#    0.000    2.667    1.667    1.500    0.000    2.000 
#    3.000    3.333    0.000    0.000    0.000    0.000 
#    0.000    0.000    0.000    0.000    0.000    0.000 
#
# Total GULP energy -267716.499267 kJ/mol
# GULP energy per Si atom -5577.427068 kJ/mol
# Density = 1.984479 g / cm^3
# Si number density = 19.890059 Si / 1000 Ang^3
#
#
#
# Elastic Constant Matrix: (Units=GPa)
#
#
# Indices 1 2 3 4 5 6 
#
# 1 101.3629 89.0884 -4.6391 0.0000 0.0000 0.0000
# 2 89.0884 160.0615 -5.4224 0.0000 0.0000 0.0000
# 3 -4.6391 -5.4224 42.8876 0.0000 0.0000 0.0000
# 4 0.0000 0.0000 0.0000 14.6973 0.0000 0.0000
# 5 0.0000 0.0000 0.0000 0.0000 9.7808 0.0000
# 6 0.0000 0.0000 0.0000 0.0000 0.0000 37.1395
#
#
#
# Elastic Compliance Matrix: (Units=1/GPa)
#
#
# Indices 1 2 3 4 5 6 
#
# 1 0.019336 -0.010738 0.000734 0.000000 0.000000 0.000000
# 2 -0.010738 0.012237 0.000386 0.000000 0.000000 0.000000
# 3 0.000734 0.000386 0.023445 0.000000 0.000000 0.000000
# 4 0.000000 0.000000 0.000000 0.068040 0.000000 0.000000
# 5 0.000000 0.000000 0.000000 0.000000 0.102241 0.000000
# 6 0.000000 0.000000 0.000000 0.000000 0.000000 0.026926
#
#
# Mechanical properties :
#
#
# Convention : Reuss Voigt Hill
#
# Bulk Modulus (GPa) = 27.94642 51.37397 39.66020
# Shear Modulus (GPa) = 17.64366 27.34252 22.49309
#
# Velocity S-wave (km/s) = 2.98159 3.71169 3.36649
# Velocity P-wave (km/s) = 5.09255 6.65236 5.92402
#
# Compressibility (1/GPa) = 0.03578275
#
# Stress axis : x y z
#
# Youngs Moduli (GPa) = 51.71586 81.71894 42.65311
#
# Poissons Ratio (x) = 0.87746 -0.03131
# Poissons Ratio (y) = 0.55530 -0.01645
# Poissons Ratio (z) = -0.03796 -0.03152
#
# Static dielectric constant tensor:
#      x y z
#    x 1.673400 0.000000 0.000000 
#    y 0.000000 1.707420 0.000000 
#    z 0.000000 0.000000 1.737750 
# 
# From -- ./inp_files/4171.got.cif
#   From: 2010.05.17/outbox.cif.g08.bks.cpg/sg55_3_cif.got.tgz:4171.got - 2010.06.03 13:27:54.
