data_PCOD9425273
_publ_section_title
;
Structure prediction by ZEFSAII (Michael W. Deem and Ramdas Pophale) SiO2 
 PCOD9425273
Probable space group: P B A M
;
_chemical_formula_sum "Si O2"
_cell_formula_units_Z 48
_cell_length_a 17.241092
_cell_length_b 19.548891
_cell_length_c 7.498677
_cell_angle_alpha 90.000000
_cell_angle_beta 90.000000
_cell_angle_gamma 90.000000
_cell_volume 2527.385802
_symmetry_space_group_name_H-M "P B A M"
_symmetry_group_IT_number 55
_symmetry_cell_setting 'orthorhombic'
loop_
_space_group_symop_operation_xyz
x,y,z
-x,-y,z
1/2+x,1/2-y,-z
1/2-x,1/2+y,-z
-x,-y,-z
x,y,-z
1/2-x,1/2+y,z
1/2+x,1/2-y,z
loop_
_atom_site_type_symbol
_atom_site_label
_atom_site_fract_x
_atom_site_fract_y
_atom_site_fract_z
Si Si1 0.112858 0.054134 0.500000
Si Si2 0.844325 0.181510 0.782066
Si Si3 0.693710 0.101957 0.796663
Si Si4 0.622295 0.834988 0.792536
Si Si5 0.021610 0.422447 0.780536
Si Si6 0.056695 0.897127 0.500000
Si Si7 0.260491 0.047680 0.702002
O O1 0.170086 0.064525 0.669252
O O2 0.036228 0.099034 0.500000
O O3 0.088077 0.974869 0.500000
O O4 0.761580 0.149778 0.722626
O O5 0.853124 0.260617 0.726324
O O6 0.909446 0.139676 0.675254
O O7 0.850152 0.174695 0.000000
O O8 0.607377 0.098623 0.718539
O O9 0.725475 0.024120 0.796496
O O10 0.683461 0.125218 0.000000
O O11 0.545140 0.870759 0.717873
O O12 0.691209 0.889916 0.778500
O O13 0.605315 0.824071 0.000000
O O14 0.000000 0.500000 0.728110
O O15 0.022272 0.423207 0.000000
O O16 0.290311 0.036405 0.500000
#
# Coordination Sequence:
#
# PCOD9425273 Si02
#       7
#     4   8   8   8   8   4   8
#     4   9  22  37  60  84 107 151 199 239 305 336
#     4  10  22  38  61  86 113 157 200 236 301 360
#     4  10  18  34  57  82 109 149 195 237 289 355
#     4  10  20  36  56  83 116 152 191 241 294 351
#     4   9  16  29  53  79 109 145 184 233 288 342
#     4  11  20  43  64  77 119 154 188 259 291 335
#     4  10  19  34  55  81 113 145 190 234 286 350
#
# _framework density 18.991956999999999
#
# number of rings (size 3 to 8) (size 9 to 14) (size 15 to 20)
#    0.500    1.667    3.333    0.500    1.167    0.000 
#    3.000    5.000    0.000    0.000    0.000    0.000 
#    0.000    0.000    0.000    0.000    0.000    0.000 
#
# Total GULP energy -267400.789186 kJ/mol
# GULP energy per Si atom -5570.849775 kJ/mol
# Density = 1.894873 g / cm^3
# Si number density = 18.991957 Si / 1000 Ang^3
#
#
#
# Elastic Constant Matrix: (Units=GPa)
#
#
# Indices 1 2 3 4 5 6 
#
# 1 202.4066 96.5845 10.8195 0.0000 0.0000 0.0000
# 2 96.5845 142.8498 13.0046 0.0000 0.0000 0.0000
# 3 10.8195 13.0046 53.6774 0.0000 0.0000 0.0000
# 4 0.0000 0.0000 0.0000 23.8887 0.0000 0.0000
# 5 0.0000 0.0000 0.0000 0.0000 26.6615 0.0000
# 6 0.0000 0.0000 0.0000 0.0000 0.0000 25.9691
#
#
#
# Elastic Compliance Matrix: (Units=1/GPa)
#
#
# Indices 1 2 3 4 5 6 
#
# 1 0.007298 -0.004909 -0.000282 0.000000 0.000000 0.000000
# 2 -0.004909 0.010460 -0.001545 0.000000 0.000000 0.000000
# 3 -0.000282 -0.001545 0.019061 0.000000 0.000000 0.000000
# 4 0.000000 0.000000 0.000000 0.041861 0.000000 0.000000
# 5 0.000000 0.000000 0.000000 0.000000 0.037507 0.000000
# 6 0.000000 0.000000 0.000000 0.000000 0.000000 0.038507
#
#
# Mechanical properties :
#
#
# Convention : Reuss Voigt Hill
#
# Bulk Modulus (GPa) = 42.82968 71.08346 56.95657
# Shear Modulus (GPa) = 28.41763 33.87220 31.14492
#
# Velocity S-wave (km/s) = 3.87240 4.22774 4.05396
# Velocity P-wave (km/s) = 6.52644 7.83206 7.20887
#
# Compressibility (1/GPa) = 0.02334829
#
# Stress axis : x y z
#
# Youngs Moduli (GPa) = 137.02499 95.60347 52.46358
#
# Poissons Ratio (x) = 0.46929 0.01478
# Poissons Ratio (y) = 0.67261 0.08104
# Poissons Ratio (z) = 0.03861 0.14768
#
# Static dielectric constant tensor:
#      x y z
#    x 1.668420 0.000000 0.000000 
#    y 0.000000 1.641160 0.000000 
#    z 0.000000 0.000000 1.701620 
# 
# From -- ./inp_files/5726.got.cif
#   From: 2010.05.17/outbox.cif.g08.bks.cpg/sg55_3_cif.got.tgz:5726.got - 2010.06.03 13:27:54.
