data_PCOD9425642
_publ_section_title
;
Structure prediction by ZEFSAII (Michael W. Deem and Ramdas Pophale) SiO2 
 PCOD9425642
Probable space group: P B A M
;
_chemical_formula_sum "Si O2"
_cell_formula_units_Z 56
_cell_length_a 19.795477
_cell_length_b 19.732446
_cell_length_c 8.609430
_cell_angle_alpha 90.000000
_cell_angle_beta 90.000000
_cell_angle_gamma 90.000000
_cell_volume 3362.956838
_symmetry_space_group_name_H-M "P B A M"
_symmetry_group_IT_number 55
_symmetry_cell_setting 'orthorhombic'
loop_
_space_group_symop_operation_xyz
x,y,z
-x,-y,z
1/2+x,1/2-y,-z
1/2-x,1/2+y,-z
-x,-y,-z
x,y,-z
1/2-x,1/2+y,z
1/2+x,1/2-y,z
loop_
_atom_site_type_symbol
_atom_site_label
_atom_site_fract_x
_atom_site_fract_y
_atom_site_fract_z
Si Si1 0.632847 0.262957 0.813245
Si Si2 0.980672 0.207482 0.812850
Si Si3 0.444768 0.444842 0.189382
Si Si4 0.735004 0.156464 0.686264
Si Si5 0.736767 0.372684 0.313435
Si Si6 0.208308 0.979655 0.186396
Si Si7 0.152529 0.733514 0.313520
O O1 0.555247 0.270196 0.762503
O O2 0.669958 0.196400 0.748680
O O3 0.675819 0.327105 0.753058
O O4 0.635384 0.262403 0.000000
O O5 0.964190 0.130805 0.758762
O O6 0.920773 0.255888 0.757128
O O7 0.980517 0.206233 0.000000
O O8 0.500000 0.500000 0.240365
O O9 0.369140 0.464936 0.237504
O O10 0.445428 0.444624 0.000000
O O11 0.732736 0.154428 0.500000
O O12 0.746354 0.082259 0.753853
O O13 0.799406 0.203210 0.732861
O O14 0.732652 0.371831 0.500000
O O15 0.731712 0.448368 0.251355
O O16 0.805735 0.333498 0.267935
O O17 0.209229 0.981292 0.000000
O O18 0.147351 0.734259 0.500000
#
# Coordination Sequence:
#
# PCOD9425642 Si02
#       7
#     8   8   8   8   8   8   8
#     4  10  20  34  54  79 105 137 179 219 261 312
#     4  10  19  32  52  77 105 137 172 218 263 307
#     4   9  17  29  46  73 109 140 167 203 255 311
#     4  10  20  35  53  75 106 141 177 219 264 313
#     4  10  21  36  52  75 108 142 176 218 266 314
#     4  11  20  32  54  79 105 140 179 219 262 312
#     4   9  19  34  52  73 101 138 177 214 258 315
#
# _framework density 16.652011999999999
#
# number of rings (size 3 to 8) (size 9 to 14) (size 15 to 20)
#    0.000    2.143    1.429    3.429    0.000    6.286 
#    0.000    0.000    0.000    3.000    0.000    6.000 
#    0.000    0.000    0.000    0.000    0.000    0.000 
#
# Total GULP energy -312534.278847 kJ/mol
# GULP energy per Si atom -5580.969265 kJ/mol
# Density = 1.661411 g / cm^3
# Si number density = 16.652012 Si / 1000 Ang^3
#
#
#
# Elastic Constant Matrix: (Units=GPa)
#
#
# Indices 1 2 3 4 5 6 
#
# 1 133.8030 99.6369 31.9212 0.0000 0.0000 0.0000
# 2 99.6369 142.7092 33.9652 0.0000 0.0000 0.0000
# 3 31.9212 33.9652 35.0248 0.0000 0.0000 0.0000
# 4 0.0000 0.0000 0.0000 27.7435 0.0000 0.0000
# 5 0.0000 0.0000 0.0000 0.0000 14.4555 0.0000
# 6 0.0000 0.0000 0.0000 0.0000 0.0000 21.3158
#
#
#
# Elastic Compliance Matrix: (Units=1/GPa)
#
#
# Indices 1 2 3 4 5 6 
#
# 1 0.016197 -0.010134 -0.004934 0.000000 0.000000 0.000000
# 2 -0.010134 0.015451 -0.005747 0.000000 0.000000 0.000000
# 3 -0.004934 -0.005747 0.038621 0.000000 0.000000 0.000000
# 4 0.000000 0.000000 0.000000 0.036044 0.000000 0.000000
# 5 0.000000 0.000000 0.000000 0.000000 0.069178 0.000000
# 6 0.000000 0.000000 0.000000 0.000000 0.000000 0.046913
#
#
# Mechanical properties :
#
#
# Convention : Reuss Voigt Hill
#
# Bulk Modulus (GPa) = 34.91843 71.39817 53.15830
# Shear Modulus (GPa) = 18.27600 22.43721 20.35661
#
# Velocity S-wave (km/s) = 3.31649 3.67470 3.50018
# Velocity P-wave (km/s) = 5.97331 7.80860 6.95179
#
# Compressibility (1/GPa) = 0.02863817
#
# Stress axis : x y z
#
# Youngs Moduli (GPa) = 61.73812 64.72219 25.89242
#
# Poissons Ratio (x) = 0.65592 0.12776
# Poissons Ratio (y) = 0.62568 0.14880
# Poissons Ratio (z) = 0.30464 0.37195
#
# Static dielectric constant tensor:
#      x y z
#    x 1.550860 0.000000 0.000000 
#    y 0.000000 1.541510 0.000000 
#    z 0.000000 0.000000 1.564920 
# 
# From -- ./inp_files/7797.got.cif
#   From: 2010.05.17/outbox.cif.g08.bks.cpg/sg55_4_cif.got.tgz:7797.got - 2010.06.03 13:27:54.
