data_PCOD9425045
_publ_section_title
;
Structure prediction by ZEFSAII (Michael W. Deem and Ramdas Pophale) SiO2 
 PCOD9425045
Probable space group: P B A M
;
_chemical_formula_sum "Si O2"
_cell_formula_units_Z 64
_cell_length_a 14.614766
_cell_length_b 17.715958
_cell_length_c 14.163847
_cell_angle_alpha 90.000000
_cell_angle_beta 90.000000
_cell_angle_gamma 90.000000
_cell_volume 3667.226506
_symmetry_space_group_name_H-M "P B A M"
_symmetry_group_IT_number 55
_symmetry_cell_setting 'orthorhombic'
loop_
_space_group_symop_operation_xyz
x,y,z
-x,-y,z
1/2+x,1/2-y,-z
1/2-x,1/2+y,-z
-x,-y,-z
x,y,-z
1/2-x,1/2+y,z
1/2+x,1/2-y,z
loop_
_atom_site_type_symbol
_atom_site_label
_atom_site_fract_x
_atom_site_fract_y
_atom_site_fract_z
Si Si1 0.211478 0.240138 0.277111
Si Si2 0.132322 0.332498 0.894053
Si Si3 0.061130 0.162277 0.610113
Si Si4 0.323400 0.509788 0.609463
Si Si5 0.305227 0.440763 0.109092
Si Si6 0.227965 0.573761 0.776878
Si Si7 0.123441 0.856964 0.288081
Si Si8 0.448723 0.079416 0.103568
O O1 0.158669 0.279462 0.191339
O O2 0.141999 0.220142 0.361742
O O3 0.242657 0.159246 0.238387
O O4 0.297580 0.293919 0.301193
O O5 0.203873 0.402590 0.889003
O O6 0.028651 0.359999 0.883943
O O7 0.144037 0.300150 0.000000
O O8 0.035129 0.170527 0.500000
O O9 0.102329 0.077261 0.622372
O O10 0.975698 0.172409 0.680412
O O11 0.299673 0.507492 0.500000
O O12 0.239405 0.532012 0.676863
O O13 0.358943 0.429371 0.644967
O O14 0.291525 0.524061 0.152788
O O15 0.365753 0.390439 0.181404
O O16 0.335826 0.441128 0.000000
O O17 0.127057 0.576405 0.817604
O O18 0.500000 0.000000 0.101396
O O19 0.404846 0.091290 0.000000
#
# Coordination Sequence:
#
# PCOD9425045 Si02
#       8
#     8   8   8   8   8   8   8   8
#     4  10  23  36  52  81 116 145 179 226 279 333
#     4   9  18  33  51  74 108 145 182 222 261 316
#     4  10  21  38  59  81 109 142 187 238 280 333
#     4   9  19  37  60  82 101 134 186 236 279 326
#     4   9  17  33  55  81 109 141 183 228 270 317
#     4  10  19  32  54  81 110 144 176 229 277 329
#     4  10  20  35  59  84 107 148 185 230 277 332
#     4  10  18  30  55  83 105 141 191 225 258 322
#
# _framework density 17.451879999999999
#
# number of rings (size 3 to 8) (size 9 to 14) (size 15 to 20)
#    0.000    2.375    1.250    1.125    1.750    3.000 
#    0.000    0.625    0.000   10.875    0.000    0.000 
#    0.000    0.000    0.000    0.000    0.000    0.000 
#
# Total GULP energy -356658.641276 kJ/mol
# GULP energy per Si atom -5572.791270 kJ/mol
# Density = 1.741216 g / cm^3
# Si number density = 17.451880 Si / 1000 Ang^3
#
#
#
# Elastic Constant Matrix: (Units=GPa)
#
#
# Indices 1 2 3 4 5 6 
#
# 1 74.0341 12.2768 52.8059 0.0000 0.0000 0.0000
# 2 12.2768 65.2362 25.6044 0.0000 0.0000 0.0000
# 3 52.8059 25.6044 118.3397 0.0000 0.0000 0.0000
# 4 0.0000 0.0000 0.0000 17.2518 0.0000 0.0000
# 5 0.0000 0.0000 0.0000 0.0000 34.9605 0.0000
# 6 0.0000 0.0000 0.0000 0.0000 0.0000 8.4571
#
#
#
# Elastic Compliance Matrix: (Units=1/GPa)
#
#
# Indices 1 2 3 4 5 6 
#
# 1 0.019818 -0.000283 -0.008782 0.000000 0.000000 0.000000
# 2 -0.000283 0.016755 -0.003499 0.000000 0.000000 0.000000
# 3 -0.008782 -0.003499 0.013126 0.000000 0.000000 0.000000
# 4 0.000000 0.000000 0.000000 0.057965 0.000000 0.000000
# 5 0.000000 0.000000 0.000000 0.000000 0.028604 0.000000
# 6 0.000000 0.000000 0.000000 0.000000 0.000000 0.118243
#
#
# Mechanical properties :
#
#
# Convention : Reuss Voigt Hill
#
# Bulk Modulus (GPa) = 40.69703 48.77600 44.73652
# Shear Modulus (GPa) = 17.37134 23.26207 20.31671
#
# Velocity S-wave (km/s) = 3.15840 3.65489 3.41567
# Velocity P-wave (km/s) = 6.05564 6.76908 6.42228
#
# Compressibility (1/GPa) = 0.02457181
#
# Stress axis : x y z
#
# Youngs Moduli (GPa) = 50.45875 59.68198 76.18393
#
# Poissons Ratio (x) = 0.01687 0.66906
# Poissons Ratio (y) = 0.01427 0.26658
# Poissons Ratio (z) = 0.44314 0.20883
#
# Static dielectric constant tensor:
#      x y z
#    x 1.603720 0.000000 0.000000 
#    y 0.000000 1.612280 0.000000 
#    z 0.000000 0.000000 1.595460 
# 
# From -- ./inp_files/19134.got.cif
#   From: 2010.05.17/outbox.cif.g08.bks.cpg/sg55_10_cif.got.tgz:19134.got - 2010.06.03 13:27:54.
