data_PCOD9425037
_publ_section_title
;
Structure prediction by ZEFSAII (Michael W. Deem and Ramdas Pophale) SiO2 
 PCOD9425037
Probable space group: P B A M
;
_chemical_formula_sum "Si O2"
_cell_formula_units_Z 56
_cell_length_a 21.242015
_cell_length_b 15.155371
_cell_length_c 7.423298
_cell_angle_alpha 90.000000
_cell_angle_beta 90.000000
_cell_angle_gamma 90.000000
_cell_volume 2389.786914
_symmetry_space_group_name_H-M "P B A M"
_symmetry_group_IT_number 55
_symmetry_cell_setting 'orthorhombic'
loop_
_space_group_symop_operation_xyz
x,y,z
-x,-y,z
1/2+x,1/2-y,-z
1/2-x,1/2+y,-z
-x,-y,-z
x,y,-z
1/2-x,1/2+y,z
1/2+x,1/2-y,z
loop_
_atom_site_type_symbol
_atom_site_label
_atom_site_fract_x
_atom_site_fract_y
_atom_site_fract_z
Si Si1 0.986926 0.227557 0.782754
Si Si2 0.621493 0.238193 0.216461
Si Si3 0.218494 0.009691 0.702885
Si Si4 0.452823 0.077131 0.780315
Si Si5 0.848225 0.546482 0.215985
Si Si6 0.240616 0.696561 0.293585
Si Si7 0.353542 0.348255 0.286428
O O1 0.968259 0.325594 0.717721
O O2 0.927637 0.167557 0.735432
O O3 0.058833 0.210410 0.721939
O O4 0.989828 0.229968 0.000000
O O5 0.612056 0.134236 0.254534
O O6 0.689578 0.261654 0.291658
O O7 0.626562 0.248430 0.000000
O O8 0.197401 0.033780 0.500000
O O9 0.280473 0.949160 0.697429
O O10 0.167594 0.943903 0.787395
O O11 0.244277 0.100103 0.789922
O O12 0.500000 0.000000 0.723190
O O13 0.384639 0.041201 0.727221
O O14 0.455028 0.078900 0.000000
O O15 0.840268 0.544808 0.000000
O O16 0.220288 0.680706 0.500000
O O17 0.189095 0.765596 0.215578
O O18 0.339604 0.352048 0.500000
#
# Coordination Sequence:
#
# PCOD9425037 Si02
#       7
#     8   8   8   8   8   8   8
#     4  10  20  34  54  80 111 146 180 219 269 325
#     4  10  20  34  54  82 112 141 179 223 268 322
#     4  10  21  37  56  78 106 140 181 226 273 322
#     4   9  15  27  48  75 107 138 168 206 259 321
#     4  10  18  30  53  81 107 138 175 217 267 324
#     4  10  21  38  59  80 106 145 187 225 271 322
#     4  10  21  37  55  79 110 141 177 226 274 320
#
# _framework density 23.433050000000001
#
# number of rings (size 3 to 8) (size 9 to 14) (size 15 to 20)
#    0.000    2.143    2.857    0.857    0.000    2.286 
#    0.000    0.714    0.000    5.143    0.000    0.000 
#    0.000    0.000    0.000    0.000    0.000    0.000 
#
# Total GULP energy -312466.669444 kJ/mol
# GULP energy per Si atom -5579.761954 kJ/mol
# Density = 2.337972 g / cm^3
# Si number density = 23.433050 Si / 1000 Ang^3
#
#
#
# Elastic Constant Matrix: (Units=GPa)
#
#
# Indices 1 2 3 4 5 6 
#
# 1 88.7772 -11.8976 -3.7013 0.0000 0.0000 0.0000
# 2 -11.8976 50.3173 4.8408 0.0000 0.0000 0.0000
# 3 -3.7013 4.8408 72.8115 0.0000 0.0000 0.0000
# 4 0.0000 0.0000 0.0000 18.2453 0.0000 0.0000
# 5 0.0000 0.0000 0.0000 0.0000 20.1512 0.0000
# 6 0.0000 0.0000 0.0000 0.0000 0.0000 34.5958
#
#
#
# Elastic Compliance Matrix: (Units=1/GPa)
#
#
# Indices 1 2 3 4 5 6 
#
# 1 0.011645 0.002714 0.000412 0.000000 0.000000 0.000000
# 2 0.002714 0.020634 -0.001234 0.000000 0.000000 0.000000
# 3 0.000412 -0.001234 0.013837 0.000000 0.000000 0.000000
# 4 0.000000 0.000000 0.000000 0.054809 0.000000 0.000000
# 5 0.000000 0.000000 0.000000 0.000000 0.049625 0.000000
# 6 0.000000 0.000000 0.000000 0.000000 0.000000 0.028905
#
#
# Mechanical properties :
#
#
# Convention : Reuss Voigt Hill
#
# Bulk Modulus (GPa) = 20.04031 21.15442 20.59737
# Shear Modulus (GPa) = 26.00035 29.44274 27.72155
#
# Velocity S-wave (km/s) = 3.33462 3.54851 3.44322
# Velocity P-wave (km/s) = 4.83704 5.08295 4.96152
#
# Compressibility (1/GPa) = 0.04989942
#
# Stress axis : x y z
#
# Youngs Moduli (GPa) = 85.87362 48.46304 72.26981
#
# Poissons Ratio (x) = -0.13152 -0.02974
# Poissons Ratio (y) = -0.23305 0.08917
# Poissons Ratio (z) = -0.03534 0.05980
#
# Static dielectric constant tensor:
#      x y z
#    x 1.894940 0.000000 0.000000 
#    y 0.000000 1.933020 0.000000 
#    z 0.000000 0.000000 1.931120 
# 
# From -- ./inp_files/8803.got.cif
#   From: 2010.05.17/outbox.cif.g08.bks.cpg/sg55_5_cif.got.tgz:8803.got - 2010.06.03 13:27:54.
