data_PCOD9425351
_publ_section_title
;
Structure prediction by ZEFSAII (Michael W. Deem and Ramdas Pophale) SiO2 
 PCOD9425351
Probable space group: P B A M
;
_chemical_formula_sum "Si O2"
_cell_formula_units_Z 44
_cell_length_a 45.137329
_cell_length_b 5.243338
_cell_length_c 12.590495
_cell_angle_alpha 90.000000
_cell_angle_beta 90.000000
_cell_angle_gamma 90.000000
_cell_volume 2979.795881
_symmetry_space_group_name_H-M "P B A M"
_symmetry_group_IT_number 55
_symmetry_cell_setting 'orthorhombic'
loop_
_space_group_symop_operation_xyz
x,y,z
-x,-y,z
1/2+x,1/2-y,-z
1/2-x,1/2+y,-z
-x,-y,-z
x,y,-z
1/2-x,1/2+y,z
1/2+x,1/2-y,z
loop_
_atom_site_type_symbol
_atom_site_label
_atom_site_fract_x
_atom_site_fract_y
_atom_site_fract_z
Si Si1 0.363676 0.458071 0.128872
Si Si2 0.966258 0.454925 0.870608
Si Si3 0.068983 0.045003 0.129523
Si Si4 0.672415 0.042432 0.128174
Si Si5 0.269001 0.944683 0.500000
Si Si6 0.270282 0.031490 0.267543
O O1 0.397339 0.500503 0.165452
O O2 0.349461 0.188608 0.158850
O O3 0.342429 0.690570 0.160565
O O4 0.364720 0.461300 0.000000
O O5 0.945061 0.686796 0.837587
O O6 0.000000 0.500000 0.835771
O O7 0.952244 0.186761 0.837521
O O8 0.966731 0.454122 0.000000
O O9 0.069520 0.045455 0.000000
O O10 0.703983 0.000907 0.182322
O O11 0.675474 0.040696 0.000000
O O12 0.241853 0.151116 0.500000
O O13 0.283695 0.002701 0.386844
O O14 0.253596 0.302071 0.257602
#
# Coordination Sequence:
#
# PCOD9425351 Si02
#       6
#     8   8   8   8   4   8
#     4   9  17  28  39  52  72 100 132 161 190 226
#     4   9  15  21  30  46  65  85 116 160 200 224
#     4   9  15  23  34  45  62  91 122 154 191 224
#     4  10  19  29  41  58  79 101 128 163 195 228
#     4   8  16  30  46  62  78  98 124 152 185 230
#     4  10  19  31  46  62  80 101 125 157 197 236
#
# _framework density 14.766111
#
# number of rings (size 3 to 8) (size 9 to 14) (size 15 to 20)
#    0.000    2.727    0.000    2.727    0.000    7.273 
#    0.000    0.000    0.000    0.000    0.000    0.000 
#    0.000    0.000    0.000    0.000    0.000    0.000 
#
# Total GULP energy -244980.701424 kJ/mol
# GULP energy per Si atom -5567.743214 kJ/mol
# Density = 1.473250 g / cm^3
# Si number density = 14.766111 Si / 1000 Ang^3
#
#
#
# Elastic Constant Matrix: (Units=GPa)
#
#
# Indices 1 2 3 4 5 6 
#
# 1 32.3708 -22.5068 7.8318 0.0000 0.0000 0.0000
# 2 -22.5068 44.8147 -3.6871 0.0000 0.0000 0.0000
# 3 7.8318 -3.6871 19.5343 0.0000 0.0000 0.0000
# 4 0.0000 0.0000 0.0000 7.2699 0.0000 0.0000
# 5 0.0000 0.0000 0.0000 0.0000 -0.8159 0.0000
# 6 0.0000 0.0000 0.0000 0.0000 0.0000 25.1545
#
#
#
# Elastic Compliance Matrix: (Units=1/GPa)
#
#
# Indices 1 2 3 4 5 6 
#
# 1 0.052062 0.024815 -0.016189 0.000000 0.000000 0.000000
# 2 0.024815 0.034494 -0.003438 0.000000 0.000000 0.000000
# 3 -0.016189 -0.003438 0.057034 0.000000 0.000000 0.000000
# 4 0.000000 0.000000 0.000000 0.137554 0.000000 0.000000
# 5 0.000000 0.000000 0.000000 0.000000 -1.225643 0.000000
# 6 0.000000 0.000000 0.000000 0.000000 0.000000 0.039754
#
#
# Mechanical properties :
#
#
# Convention : Reuss Voigt Hill
#
# Bulk Modulus (GPa) = 6.49503 6.66617 6.58060
# Shear Modulus (GPa) = -5.78839 13.99381 4.10271
#
# Velocity S-wave (km/s) = -1.98206 3.08181 1.66868
# Velocity P-wave (km/s) = 0.91100 4.14581 2.85988
#
# Compressibility (1/GPa) = 0.15396394
#
# Stress axis : x y z
#
# Youngs Moduli (GPa) = 19.20782 28.99084 17.53345
#
# Poissons Ratio (x) = -0.71940 0.28385
# Poissons Ratio (y) = -0.47664 0.06028
# Poissons Ratio (z) = 0.31096 0.09968
#
# Static dielectric constant tensor:
#      x y z
#    x 1.476610 0.000000 0.000000 
#    y 0.000000 1.502580 0.000000 
#    z 0.000000 0.000000 1.472890 
# 
# From -- ./inp_files/20110.got.cif
#   From: 2010.05.17/outbox.cif.g08.bks.cpg/sg55_11_cif.got.tgz:20110.got - 2010.06.03 13:27:54.
