data_PCOD9425996
_publ_section_title
;
Structure prediction by ZEFSAII (Michael W. Deem and Ramdas Pophale) SiO2 
 PCOD9425996
Probable space group: P B A M
;
_chemical_formula_sum "Si O2"
_cell_formula_units_Z 48
_cell_length_a 20.666078
_cell_length_b 15.458174
_cell_length_c 7.703112
_cell_angle_alpha 90.000000
_cell_angle_beta 90.000000
_cell_angle_gamma 90.000000
_cell_volume 2460.834847
_symmetry_space_group_name_H-M "P B A M"
_symmetry_group_IT_number 55
_symmetry_cell_setting 'orthorhombic'
loop_
_space_group_symop_operation_xyz
x,y,z
-x,-y,z
1/2+x,1/2-y,-z
1/2-x,1/2+y,-z
-x,-y,-z
x,y,-z
1/2-x,1/2+y,z
1/2+x,1/2-y,z
loop_
_atom_site_type_symbol
_atom_site_label
_atom_site_fract_x
_atom_site_fract_y
_atom_site_fract_z
Si Si1 0.156635 0.697021 0.202379
Si Si2 0.305276 0.008497 0.709332
Si Si3 0.688258 0.611083 0.709189
Si Si4 0.457457 0.419145 0.286866
Si Si5 0.488013 0.231458 0.701402
Si Si6 0.556991 0.065049 0.287146
O O1 0.195308 0.609980 0.245793
O O2 0.192159 0.787153 0.245681
O O3 0.086259 0.697492 0.293825
O O4 0.142045 0.697064 0.000000
O O5 0.305180 0.003404 0.500000
O O6 0.245728 0.950240 0.773714
O O7 0.373502 0.968796 0.770931
O O8 0.688668 0.606727 0.500000
O O9 0.617471 0.578899 0.767871
O O10 0.500000 0.500000 0.231324
O O11 0.457342 0.417761 0.500000
O O12 0.486097 0.327699 0.223971
O O13 0.506246 0.240873 0.500000
O O14 0.535770 0.159746 0.775939
O O15 0.557562 0.066092 0.500000
O O16 0.500000 0.000000 0.235316
#
# Coordination Sequence:
#
# PCOD9425996 Si02
#       6
#     8   8   8   8   8   8
#     4  11  21  33  52  74 101 139 174 205 255 312
#     4  10  19  34  54  77 103 132 172 218 261 305
#     4   9  19  35  54  76 101 133 174 218 257 303
#     4   8  14  27  48  74  99 124 160 207 256 296
#     4   9  16  30  51  72  99 132 168 209 253 305
#     4   9  15  26  49  77 101 127 161 206 257 300
#
# _framework density 19.505576000000001
#
# number of rings (size 3 to 8) (size 9 to 14) (size 15 to 20)
#    0.000    2.667    1.667    2.500    0.000    0.667 
#    3.000    1.667    0.000    8.000    0.000    0.000 
#    0.000    0.000    0.000    0.000    0.000    0.000 
#
# Total GULP energy -267696.383177 kJ/mol
# GULP energy per Si atom -5577.007983 kJ/mol
# Density = 1.946118 g / cm^3
# Si number density = 19.505576 Si / 1000 Ang^3
#
#
#
# Elastic Constant Matrix: (Units=GPa)
#
#
# Indices 1 2 3 4 5 6 
#
# 1 122.5116 121.5323 6.7451 0.0000 0.0000 0.0000
# 2 121.5323 200.4481 1.8934 0.0000 0.0000 0.0000
# 3 6.7451 1.8934 35.1100 0.0000 0.0000 0.0000
# 4 0.0000 0.0000 0.0000 -20.3021 0.0000 0.0000
# 5 0.0000 0.0000 0.0000 0.0000 -12.2254 0.0000
# 6 0.0000 0.0000 0.0000 0.0000 0.0000 37.0512
#
#
#
# Elastic Compliance Matrix: (Units=1/GPa)
#
#
# Indices 1 2 3 4 5 6 
#
# 1 0.020862 -0.012617 -0.003327 0.000000 0.000000 0.000000
# 2 -0.012617 0.012622 0.001743 0.000000 0.000000 0.000000
# 3 -0.003327 0.001743 0.029027 0.000000 0.000000 0.000000
# 4 0.000000 0.000000 0.000000 -0.049256 0.000000 0.000000
# 5 0.000000 0.000000 0.000000 0.000000 -0.081797 0.000000
# 6 0.000000 0.000000 0.000000 0.000000 0.000000 0.026990
#
#
# Mechanical properties :
#
#
# Convention : Reuss Voigt Hill
#
# Bulk Modulus (GPa) = 29.31821 68.71238 49.01530
# Shear Modulus (GPa) = -2811.25646 16.09800 -1397.57923
#
# Velocity S-wave (km/s) = -38.00509 2.87592 -26.79660
# Velocity P-wave (km/s) = 43.71253 6.80672 30.53239
#
# Compressibility (1/GPa) = 0.03410850
#
# Stress axis : x y z
#
# Youngs Moduli (GPa) = 47.93348 79.22466 34.45052
#
# Poissons Ratio (x) = 0.99961 0.11463
# Poissons Ratio (y) = 0.60480 -0.06006
# Poissons Ratio (z) = 0.15950 -0.13811
#
# Static dielectric constant tensor:
#      x y z
#    x 1.657390 0.000000 0.000000 
#    y 0.000000 1.689080 0.000000 
#    z 0.000000 0.000000 1.692320 
# 
# From -- ./inp_files/5799.got.cif
#   From: 2010.05.17/outbox.cif.g08.bks.cpg/sg55_3_cif.got.tgz:5799.got - 2010.06.03 13:27:54.
