data_PCOD9425527
_publ_section_title
;
Structure prediction by ZEFSAII (Michael W. Deem and Ramdas Pophale) SiO2 
 PCOD9425527
Probable space group: P B A M
;
_chemical_formula_sum "Si O2"
_cell_formula_units_Z 48
_cell_length_a 5.102666
_cell_length_b 31.480297
_cell_length_c 15.428890
_cell_angle_alpha 90.000000
_cell_angle_beta 90.000000
_cell_angle_gamma 90.000000
_cell_volume 2478.395694
_symmetry_space_group_name_H-M "P B A M"
_symmetry_group_IT_number 55
_symmetry_cell_setting 'orthorhombic'
loop_
_space_group_symop_operation_xyz
x,y,z
-x,-y,z
1/2+x,1/2-y,-z
1/2-x,1/2+y,-z
-x,-y,-z
x,y,-z
1/2-x,1/2+y,z
1/2+x,1/2-y,z
loop_
_atom_site_type_symbol
_atom_site_label
_atom_site_fract_x
_atom_site_fract_y
_atom_site_fract_z
Si Si1 0.901612 0.279078 0.272233
Si Si2 0.025061 0.279238 0.908325
Si Si3 0.999873 0.051068 0.213745
Si Si4 0.000120 0.551955 0.898637
Si Si5 0.566629 0.406706 0.398891
Si Si6 0.431931 0.851001 0.598256
O O1 0.111758 0.240419 0.276843
O O2 0.955022 0.301962 0.179987
O O3 0.973592 0.312879 0.343313
O O4 0.817386 0.239883 0.906539
O O5 0.985785 0.301781 0.000000
O O6 0.245447 0.065550 0.155540
O O7 0.745369 0.065593 0.160131
O O8 0.014192 0.064483 0.314587
O O9 0.000000 0.000000 0.212952
O O10 0.000000 0.500000 0.900997
O O11 0.993277 0.565470 0.000000
O O12 0.528071 0.422348 0.500000
O O13 0.862902 0.389704 0.392480
O O14 0.360516 0.368108 0.387437
O O15 0.448468 0.836050 0.500000
#
# Coordination Sequence:
#
# PCOD9425527 Si02
#       6
#     8   8   8   8   8   8
#     4  10  19  31  51  77  98 122 164 212 250 291
#     4   8  14  25  42  65  91 117 147 187 236 287
#     4  10  19  32  54  81 104 134 179 223 257 295
#     4   9  17  30  50  78 109 137 169 212 261 311
#     4  10  21  37  54  73 102 141 177 210 261 321
#     4  10  21  36  52  71 101 139 170 203 259 321
#
# _framework density 19.367367000000002
#
# number of rings (size 3 to 8) (size 9 to 14) (size 15 to 20)
#    0.000    2.500    0.000    2.500    0.000    3.000 
#    0.000    0.000    0.000   12.000    0.000    0.000 
#    0.000    0.000    0.000    0.000    0.000    0.000 
#
# Total GULP energy -267299.142657 kJ/mol
# GULP energy per Si atom -5568.732139 kJ/mol
# Density = 1.932329 g / cm^3
# Si number density = 19.367367 Si / 1000 Ang^3
#
#
#
# Elastic Constant Matrix: (Units=GPa)
#
#
# Indices 1 2 3 4 5 6 
#
# 1 95.3712 -0.7399 17.9857 0.0000 0.0000 0.0000
# 2 -0.7399 7.6866 29.5640 0.0000 0.0000 0.0000
# 3 17.9857 29.5640 138.1948 0.0000 0.0000 0.0000
# 4 0.0000 0.0000 0.0000 228.8389 0.0000 0.0000
# 5 0.0000 0.0000 0.0000 0.0000 27.5788 0.0000
# 6 0.0000 0.0000 0.0000 0.0000 0.0000 6.8751
#
#
#
# Elastic Compliance Matrix: (Units=1/GPa)
#
#
# Indices 1 2 3 4 5 6 
#
# 1 0.012890 0.043418 -0.010966 0.000000 0.000000 0.000000
# 2 0.043418 0.880457 -0.194007 0.000000 0.000000 0.000000
# 3 -0.010966 -0.194007 0.050167 0.000000 0.000000 0.000000
# 4 0.000000 0.000000 0.000000 0.004370 0.000000 0.000000
# 5 0.000000 0.000000 0.000000 0.000000 0.036260 0.000000
# 6 0.000000 0.000000 0.000000 0.000000 0.000000 0.145452
#
#
# Mechanical properties :
#
#
# Convention : Reuss Voigt Hill
#
# Bulk Modulus (GPa) = 1.61185 37.20802 19.40993
# Shear Modulus (GPa) = 3.01294 65.62144 34.31719
#
# Velocity S-wave (km/s) = 1.24862 5.82718 4.21397
# Velocity P-wave (km/s) = 1.70669 8.03294 5.80693
#
# Compressibility (1/GPa) = 0.62040502
#
# Stress axis : x y z
#
# Youngs Moduli (GPa) = 77.57800 1.13577 19.93332
#
# Poissons Ratio (x) = -0.04931 0.21859
# Poissons Ratio (y) = -3.36829 3.86720
# Poissons Ratio (z) = 0.85073 0.22035
#
# Static dielectric constant tensor:
#      x y z
#    x 1.697040 0.000000 0.000000 
#    y 0.000000 1.645080 0.000000 
#    z 0.000000 0.000000 1.723980 
# 
# From -- ./inp_files/16733.got.cif
#   From: 2010.05.17/outbox.cif.g08.bks.cpg/sg55_9_cif.got.tgz:16733.got - 2010.06.03 13:27:54.
