data_PCOD9425873
_publ_section_title
;
Structure prediction by ZEFSAII (Michael W. Deem and Ramdas Pophale) SiO2 
 PCOD9425873
Probable space group: P B A M
;
_chemical_formula_sum "Si O2"
_cell_formula_units_Z 48
_cell_length_a 4.875393
_cell_length_b 15.842304
_cell_length_c 30.034659
_cell_angle_alpha 90.000000
_cell_angle_beta 90.000000
_cell_angle_gamma 90.000000
_cell_volume 2319.800714
_symmetry_space_group_name_H-M "P B A M"
_symmetry_group_IT_number 55
_symmetry_cell_setting 'orthorhombic'
loop_
_space_group_symop_operation_xyz
x,y,z
-x,-y,z
1/2+x,1/2-y,-z
1/2-x,1/2+y,-z
-x,-y,-z
x,y,-z
1/2-x,1/2+y,z
1/2+x,1/2-y,z
loop_
_atom_site_type_symbol
_atom_site_label
_atom_site_fract_x
_atom_site_fract_y
_atom_site_fract_z
Si Si1 0.242636 0.439437 0.549813
Si Si2 0.946529 0.191363 0.622122
Si Si3 0.509344 0.194874 0.052907
Si Si4 0.541269 0.306458 0.718144
Si Si5 0.524259 0.689784 0.818132
Si Si6 0.748378 0.443162 0.884323
O O1 0.500000 0.500000 0.544963
O O2 0.167674 0.406594 0.500000
O O3 0.335770 0.369431 0.584401
O O4 0.000000 0.500000 0.566099
O O5 0.754169 0.274034 0.618230
O O6 0.944471 0.151749 0.672055
O O7 0.815874 0.224513 0.063665
O O8 0.396683 0.115892 0.079545
O O9 0.488409 0.180024 0.000000
O O10 0.359483 0.220042 0.717175
O O11 0.487847 0.342236 0.766943
O O12 0.826370 0.728242 0.824808
O O13 0.406171 0.616961 0.849140
O O14 0.500000 0.500000 0.903437
O O15 0.000000 0.500000 0.865459
#
# Coordination Sequence:
#
# PCOD9425873 Si02
#       6
#     8   8   8   8   8   8
#     4  10  21  36  52  74 109 149 182 216 269 334
#     4  10  19  33  55  81 105 132 178 231 272 315
#     4  10  21  39  61  82 107 146 194 231 265 327
#     4   8  16  30  52  78 100 129 171 220 265 309
#     4  10  19  36  59  77 102 145 188 218 261 331
#     4  12  24  36  54  84 118 145 177 229 286 327
#
# _framework density 20.691431999999999
#
# number of rings (size 3 to 8) (size 9 to 14) (size 15 to 20)
#    0.000    2.000    0.000    4.000    0.000    1.333 
#    0.000    0.833    0.000    2.000    0.000    0.000 
#    0.000    0.000    0.000    0.000    0.000    0.000 
#
# Total GULP energy -267733.227791 kJ/mol
# GULP energy per Si atom -5577.775579 kJ/mol
# Density = 2.064434 g / cm^3
# Si number density = 20.691432 Si / 1000 Ang^3
#
#
#
# Elastic Constant Matrix: (Units=GPa)
#
#
# Indices 1 2 3 4 5 6 
#
# 1 82.6001 1.0667 -7.0830 0.0000 0.0000 0.0000
# 2 1.0667 49.1465 35.7174 0.0000 0.0000 0.0000
# 3 -7.0830 35.7174 94.5982 0.0000 0.0000 0.0000
# 4 0.0000 0.0000 0.0000 -16.6078 0.0000 0.0000
# 5 0.0000 0.0000 0.0000 0.0000 23.9566 0.0000
# 6 0.0000 0.0000 0.0000 0.0000 0.0000 27.2578
#
#
#
# Elastic Compliance Matrix: (Units=1/GPa)
#
#
# Indices 1 2 3 4 5 6 
#
# 1 0.012243 -0.001284 0.001402 0.000000 0.000000 0.000000
# 2 -0.001284 0.028177 -0.010735 0.000000 0.000000 0.000000
# 3 0.001402 -0.010735 0.014729 0.000000 0.000000 0.000000
# 4 0.000000 0.000000 0.000000 -0.060213 0.000000 0.000000
# 5 0.000000 0.000000 0.000000 0.000000 0.041742 0.000000
# 6 0.000000 0.000000 0.000000 0.000000 0.000000 0.036687
#
#
# Mechanical properties :
#
#
# Convention : Reuss Voigt Hill
#
# Bulk Modulus (GPa) = 29.48632 31.74968 30.61800
# Shear Modulus (GPa) = 47.21186 20.03088 33.62137
#
# Velocity S-wave (km/s) = 4.78191 3.11477 4.03537
# Velocity P-wave (km/s) = 6.69106 5.32103 6.04498
#
# Compressibility (1/GPa) = 0.03391403
#
# Stress axis : x y z
#
# Youngs Moduli (GPa) = 81.67728 35.49014 67.89260
#
# Poissons Ratio (x) = 0.04558 -0.09516
# Poissons Ratio (y) = 0.10491 0.72882
# Poissons Ratio (z) = -0.11448 0.38098
#
# Static dielectric constant tensor:
#      x y z
#    x 1.719940 0.000000 0.000000 
#    y 0.000000 1.717840 0.000000 
#    z 0.000000 0.000000 1.805020 
# 
# From -- ./inp_files/24042.got.cif
#   From: 2010.05.17/outbox.cif.g08.bks.cpg/sg55_13_cif.got.tgz:24042.got - 2010.06.03 13:27:54.
