data_PCOD9425540
_publ_section_title
;
Structure prediction by ZEFSAII (Michael W. Deem and Ramdas Pophale) SiO2 
 PCOD9425540
Probable space group: P B A M
;
_chemical_formula_sum "Si O2"
_cell_formula_units_Z 54
_cell_length_a 5.534522
_cell_length_b 15.354961
_cell_length_c 25.507519
_cell_angle_alpha 90.000000
_cell_angle_beta 90.000000
_cell_angle_gamma 90.000000
_cell_volume 2167.689404
_symmetry_space_group_name_H-M "P B A M"
_symmetry_group_IT_number 55
_symmetry_cell_setting 'orthorhombic'
loop_
_space_group_symop_operation_xyz
x,y,z
-x,-y,z
1/2+x,1/2-y,-z
1/2-x,1/2+y,-z
-x,-y,-z
x,y,-z
1/2-x,1/2+y,z
1/2+x,1/2-y,z
loop_
_atom_site_type_symbol
_atom_site_label
_atom_site_fract_x
_atom_site_fract_y
_atom_site_fract_z
Si Si1 0.751637 0.035854 0.244076
Si Si2 0.089987 0.697901 0.000000
Si Si3 0.303713 0.300383 0.182893
Si Si4 0.250452 0.462176 0.367509
Si Si5 0.755013 0.803602 0.554905
Si Si6 0.245215 0.262442 0.662715
Si Si7 0.141916 0.416219 0.914018
Si Si8 0.500000 0.500000 0.000000
O O1 0.761193 0.137295 0.232619
O O2 0.752955 0.012947 0.305822
O O3 0.500000 0.000000 0.223263
O O4 0.000000 0.000000 0.220403
O O5 0.050442 0.639179 0.948576
O O6 0.857880 0.762272 0.000000
O O7 0.578965 0.266761 0.182132
O O8 0.257178 0.359023 0.131368
O O9 0.500000 0.500000 0.391493
O O10 0.247898 0.357159 0.365230
O O11 0.000000 0.500000 0.390966
O O12 0.755829 0.858855 0.500000
O O13 0.504327 0.750429 0.550832
O O14 0.755443 0.815190 0.618217
O O15 0.494671 0.248603 0.691676
O O16 0.341881 0.449025 0.954639
O O17 0.000000 0.500000 0.893430
#
# Coordination Sequence:
#
# PCOD9425540 Si02
#       8
#     8   4   8   8   8   8   8   2
#     4  10  22  42  66  89 117 161 202 232 280 357
#     4  11  24  41  62  88 124 151 188 242 285 315
#     4  12  27  44  67  98 130 156 192 249 303 330
#     4  10  21  37  57  83 117 153 190 234 291 353
#     4   8  14  25  42  67  99 136 184 238 287 339
#     4  10  19  31  52  80 108 145 192 243 294 345
#     4  11  26  42  67  92 124 163 207 232 282 347
#     4  10  24  40  68  90 116 158 214 230 264 324
#
# _framework density 24.911318999999999
#
# number of rings (size 3 to 8) (size 9 to 14) (size 15 to 20)
#    0.000    1.778    0.000    4.000    7.259    1.185 
#    0.000    0.000    0.000    0.889    0.000    0.000 
#    0.000    0.000    0.000    0.000    0.000    0.000 
#
# Total GULP energy -300804.299013 kJ/mol
# GULP energy per Si atom -5570.449982 kJ/mol
# Density = 2.485462 g / cm^3
# Si number density = 24.911319 Si / 1000 Ang^3
#
#
#
# Elastic Constant Matrix: (Units=GPa)
#
#
# Indices 1 2 3 4 5 6 
#
# 1 213.0059 52.7726 17.6156 0.0000 0.0000 0.0000
# 2 52.7726 79.1800 -9.2583 0.0000 0.0000 0.0000
# 3 17.6156 -9.2583 55.6901 0.0000 0.0000 0.0000
# 4 0.0000 0.0000 0.0000 -11.4454 0.0000 0.0000
# 5 0.0000 0.0000 0.0000 0.0000 41.6309 0.0000
# 6 0.0000 0.0000 0.0000 0.0000 0.0000 51.0772
#
#
#
# Elastic Compliance Matrix: (Units=1/GPa)
#
#
# Indices 1 2 3 4 5 6 
#
# 1 0.005971 -0.004284 -0.002601 0.000000 0.000000 0.000000
# 2 -0.004284 0.015953 0.004007 0.000000 0.000000 0.000000
# 3 -0.002601 0.004007 0.019445 0.000000 0.000000 0.000000
# 4 0.000000 0.000000 0.000000 -0.087371 0.000000 0.000000
# 5 0.000000 0.000000 0.000000 0.000000 0.024021 0.000000
# 6 0.000000 0.000000 0.000000 0.000000 0.000000 0.019578
#
#
# Mechanical properties :
#
#
# Convention : Reuss Voigt Hill
#
# Bulk Modulus (GPa) = 28.07840 52.23730 40.15785
# Shear Modulus (GPa) = 328.43691 35.36895 181.90293
#
# Velocity S-wave (km/s) = 11.49472 3.77210 8.55446
# Velocity P-wave (km/s) = 13.69187 6.32349 10.66428
#
# Compressibility (1/GPa) = 0.03561456
#
# Stress axis : x y z
#
# Youngs Moduli (GPa) = 167.47263 62.68366 51.42602
#
# Poissons Ratio (x) = 0.26852 0.13376
# Poissons Ratio (y) = 0.71742 -0.20607
# Poissons Ratio (z) = 0.43558 -0.25119
#
# Static dielectric constant tensor:
#      x y z
#    x 1.983600 0.000000 0.000000 
#    y 0.000000 2.150110 0.000000 
#    z 0.000000 0.000000 2.007680 
# 
# From -- ./inp_files/24084.got.cif
#   From: 2010.05.17/outbox.cif.g08.bks.cpg/sg55_13_cif.got.tgz:24084.got - 2010.06.03 13:27:54.
