data_PCOD9425052
_publ_section_title
;
Structure prediction by ZEFSAII (Michael W. Deem and Ramdas Pophale) SiO2 
 PCOD9425052
Probable space group: P B A M
;
_chemical_formula_sum "Si O2"
_cell_formula_units_Z 64
_cell_length_a 21.395274
_cell_length_b 19.722608
_cell_length_c 7.828971
_cell_angle_alpha 90.000000
_cell_angle_beta 90.000000
_cell_angle_gamma 90.000000
_cell_volume 3303.595607
_symmetry_space_group_name_H-M "P B A M"
_symmetry_group_IT_number 55
_symmetry_cell_setting 'orthorhombic'
loop_
_space_group_symop_operation_xyz
x,y,z
-x,-y,z
1/2+x,1/2-y,-z
1/2-x,1/2+y,-z
-x,-y,-z
x,y,-z
1/2-x,1/2+y,z
1/2+x,1/2-y,z
loop_
_atom_site_type_symbol
_atom_site_label
_atom_site_fract_x
_atom_site_fract_y
_atom_site_fract_z
Si Si1 0.563218 0.536377 0.707768
Si Si2 0.341819 0.843237 0.299827
Si Si3 0.077014 0.806425 0.796901
Si Si4 0.524126 0.203505 0.801466
Si Si5 0.668221 0.000881 0.290443
Si Si6 0.541824 0.934608 0.293333
Si Si7 0.696709 0.509214 0.303383
Si Si8 0.290834 0.336853 0.201007
O O1 0.500000 0.500000 0.763784
O O2 0.565216 0.535673 0.500000
O O3 0.564215 0.614469 0.764104
O O4 0.627325 0.500535 0.770892
O O5 0.330176 0.847976 0.500000
O O6 0.406979 0.805566 0.274035
O O7 0.346810 0.921486 0.235241
O O8 0.279274 0.810080 0.223226
O O9 0.148861 0.794457 0.738604
O O10 0.022155 0.759866 0.723248
O O11 0.076832 0.793654 0.000000
O O12 0.487994 0.132426 0.783018
O O13 0.534218 0.218903 0.000000
O O14 0.668864 0.001340 0.500000
O O15 0.737994 0.982221 0.229130
O O16 0.612430 0.951524 0.238768
O O17 0.540141 0.927680 0.500000
O O18 0.500000 0.000000 0.250253
O O19 0.694275 0.486504 0.500000
O O20 0.706397 0.590873 0.296619
O O21 0.299987 0.351395 0.000000
#
# Coordination Sequence:
#
# PCOD9425052 Si02
#       8
#     8   8   8   8   8   8   8   8
#     4   9  17  30  52  80 103 126 162 211 258 298
#     4  10  18  31  50  74  99 128 164 207 253 297
#     4   9  20  36  52  72 102 137 170 205 252 307
#     4  11  22  34  49  73 102 136 174 210 250 295
#     4   8  14  26  45  66  92 125 160 198 242 292
#     4  10  18  31  48  69  98 134 170 206 253 300
#     4   8  14  26  45  70  97 127 158 196 246 296
#     4   9  16  29  49  72  95 124 163 207 246 290
#
# _framework density 19.372831000000001
#
# number of rings (size 3 to 8) (size 9 to 14) (size 15 to 20)
#    0.000    2.750    1.250    1.875    0.000    2.000 
#    0.000    0.625    2.750    0.000    0.000    0.000 
#    0.000    0.000    0.000    0.000    0.000    0.000 
#
# Total GULP energy -356453.087774 kJ/mol
# GULP energy per Si atom -5569.579496 kJ/mol
# Density = 1.932874 g / cm^3
# Si number density = 19.372831 Si / 1000 Ang^3
#
#
#
# Elastic Constant Matrix: (Units=GPa)
#
#
# Indices 1 2 3 4 5 6 
#
# 1 204.2456 35.4470 1.0635 0.0000 0.0000 0.0000
# 2 35.4470 23.8897 -7.6289 0.0000 0.0000 0.0000
# 3 1.0635 -7.6289 24.9650 0.0000 0.0000 0.0000
# 4 0.0000 0.0000 0.0000 13.7800 0.0000 0.0000
# 5 0.0000 0.0000 0.0000 0.0000 24.3760 0.0000
# 6 0.0000 0.0000 0.0000 0.0000 0.0000 27.7947
#
#
#
# Elastic Compliance Matrix: (Units=1/GPa)
#
#
# Indices 1 2 3 4 5 6 
#
# 1 0.006904 -0.011456 -0.003795 0.000000 0.000000 0.000000
# 2 -0.011456 0.065394 0.020472 0.000000 0.000000 0.000000
# 3 -0.003795 0.020472 0.046473 0.000000 0.000000 0.000000
# 4 0.000000 0.000000 0.000000 0.072569 0.000000 0.000000
# 5 0.000000 0.000000 0.000000 0.000000 0.041024 0.000000
# 6 0.000000 0.000000 0.000000 0.000000 0.000000 0.035978
#
#
# Mechanical properties :
#
#
# Convention : Reuss Voigt Hill
#
# Bulk Modulus (GPa) = 7.73912 34.54040 21.13976
# Shear Modulus (GPa) = 16.61282 28.13805 22.37543
#
# Velocity S-wave (km/s) = 2.93154 3.81524 3.40220
# Velocity P-wave (km/s) = 3.93219 6.10541 5.13508
#
# Compressibility (1/GPa) = 0.12921361
#
# Stress axis : x y z
#
# Youngs Moduli (GPa) = 144.84343 15.29181 21.51764
#
# Poissons Ratio (x) = 0.17518 0.08166
# Poissons Ratio (y) = 1.65931 -0.44050
# Poissons Ratio (z) = 0.54966 -0.31305
#
# Static dielectric constant tensor:
#      x y z
#    x 1.755120 0.000000 0.000000 
#    y 0.000000 1.635500 0.000000 
#    z 0.000000 0.000000 1.704430 
# 
# From -- ./inp_files/9026.got.cif
#   From: 2010.05.17/outbox.cif.g08.bks.cpg/sg55_5_cif.got.tgz:9026.got - 2010.06.03 13:27:54.
