data_PCOD9425604
_publ_section_title
;
Structure prediction by ZEFSAII (Michael W. Deem and Ramdas Pophale) SiO2 
 PCOD9425604
Probable space group: P B A M
;
_chemical_formula_sum "Si O2"
_cell_formula_units_Z 64
_cell_length_a 20.850055
_cell_length_b 20.719178
_cell_length_c 7.498260
_cell_angle_alpha 90.000000
_cell_angle_beta 90.000000
_cell_angle_gamma 90.000000
_cell_volume 3239.218333
_symmetry_space_group_name_H-M "P B A M"
_symmetry_group_IT_number 55
_symmetry_cell_setting 'orthorhombic'
loop_
_space_group_symop_operation_xyz
x,y,z
-x,-y,z
1/2+x,1/2-y,-z
1/2-x,1/2+y,-z
-x,-y,-z
x,y,-z
1/2-x,1/2+y,z
1/2+x,1/2-y,z
loop_
_atom_site_type_symbol
_atom_site_label
_atom_site_fract_x
_atom_site_fract_y
_atom_site_fract_z
Si Si1 0.801586 0.717622 0.288289
Si Si2 0.386053 0.556568 0.207986
Si Si3 0.719582 0.079190 0.293265
Si Si4 0.075524 0.195234 0.215991
Si Si5 0.684217 0.803138 0.287651
Si Si6 0.435149 0.283243 0.786034
Si Si7 0.735071 0.938938 0.717417
Si Si8 0.129983 0.915742 0.782459
O O1 0.790425 0.709504 0.500000
O O2 0.808616 0.645137 0.214176
O O3 0.863498 0.762052 0.266284
O O4 0.739076 0.754811 0.215309
O O5 0.417190 0.621507 0.283023
O O6 0.309127 0.565991 0.223132
O O7 0.398700 0.484533 0.279207
O O8 0.404430 0.554333 0.000000
O O9 0.699568 0.075789 0.500000
O O10 0.796686 0.087695 0.281929
O O11 0.707823 0.007707 0.217586
O O12 0.007941 0.224387 0.276831
O O13 0.075712 0.192555 0.000000
O O14 0.694049 0.806333 0.500000
O O15 0.614829 0.772823 0.257756
O O16 0.697137 0.875584 0.222119
O O17 0.407245 0.352121 0.723223
O O18 0.437229 0.287228 0.000000
O O19 0.736311 0.940777 0.500000
O O20 0.131561 0.916719 0.000000
#
# Coordination Sequence:
#
# PCOD9425604 Si02
#       8
#     8   8   8   8   8   8   8   8
#     4  10  19  32  51  75  98 124 162 203 243 287
#     4   9  17  29  46  69  97 129 163 195 230 278
#     4   9  17  30  49  72  98 125 155 196 242 286
#     4  10  21  34  48  70 100 133 166 199 239 286
#     4  10  19  32  51  75  98 124 162 203 243 287
#     4  10  21  34  48  70 100 133 166 199 239 286
#     4   9  17  30  49  72  98 125 155 196 242 286
#     4   9  17  29  46  69  97 129 163 195 230 278
#
# _framework density 19.757853000000001
#
# number of rings (size 3 to 8) (size 9 to 14) (size 15 to 20)
#    0.000    2.500    2.500    0.000    0.000    2.500 
#    0.000    2.500    0.000    0.750    0.000   10.500 
#    0.000    0.000    0.000    0.000    0.000    0.000 
#
# Total GULP energy -356961.159815 kJ/mol
# GULP energy per Si atom -5577.518122 kJ/mol
# Density = 1.971288 g / cm^3
# Si number density = 19.757853 Si / 1000 Ang^3
#
#
#
# Elastic Constant Matrix: (Units=GPa)
#
#
# Indices 1 2 3 4 5 6 
#
# 1 25.8404 1.9964 -13.3822 0.0000 0.0000 0.0000
# 2 1.9964 98.9865 3.3145 0.0000 0.0000 0.0000
# 3 -13.3822 3.3145 53.3651 0.0000 0.0000 0.0000
# 4 0.0000 0.0000 0.0000 -1.5951 0.0000 0.0000
# 5 0.0000 0.0000 0.0000 0.0000 16.1068 0.0000
# 6 0.0000 0.0000 0.0000 0.0000 0.0000 20.8547
#
#
#
# Elastic Compliance Matrix: (Units=1/GPa)
#
#
# Indices 1 2 3 4 5 6 
#
# 1 0.044636 -0.001278 0.011273 0.000000 0.000000 0.000000
# 2 -0.001278 0.010160 -0.000951 0.000000 0.000000 0.000000
# 3 0.011273 -0.000951 0.021625 0.000000 0.000000 0.000000
# 4 0.000000 0.000000 0.000000 -0.626931 0.000000 0.000000
# 5 0.000000 0.000000 0.000000 0.000000 0.062086 0.000000
# 6 0.000000 0.000000 0.000000 0.000000 0.000000 0.047951
#
#
# Mechanical properties :
#
#
# Convention : Reuss Voigt Hill
#
# Bulk Modulus (GPa) = 10.58120 18.00549 14.29335
# Shear Modulus (GPa) = -11.70799 19.49083 3.89142
#
# Velocity S-wave (km/s) = -2.43692 3.14424 1.40493
# Velocity P-wave (km/s) = 1.59721 4.72383 3.14352
#
# Compressibility (1/GPa) = 0.09450721
#
# Stress axis : x y z
#
# Youngs Moduli (GPa) = 22.40360 98.42504 46.24338
#
# Poissons Ratio (x) = 0.12576 -0.52128
# Poissons Ratio (y) = 0.02863 0.04400
# Poissons Ratio (z) = -0.25255 0.09365
#
# Static dielectric constant tensor:
#      x y z
#    x 1.647650 0.000000 0.000000 
#    y 0.000000 1.740740 0.000000 
#    z 0.000000 0.000000 1.911270 
# 
# From -- ./inp_files/7933.got.cif
#   From: 2010.05.17/outbox.cif.g08.bks.cpg/sg55_4_cif.got.tgz:7933.got - 2010.06.03 13:27:54.
