data_PCOD9425424
_publ_section_title
;
Structure prediction by ZEFSAII (Michael W. Deem and Ramdas Pophale) SiO2 
 PCOD9425424
Probable space group: P B A M
;
_chemical_formula_sum "Si O2"
_cell_formula_units_Z 44
_cell_length_a 14.836269
_cell_length_b 5.079785
_cell_length_c 27.780016
_cell_angle_alpha 90.000000
_cell_angle_beta 90.000000
_cell_angle_gamma 90.000000
_cell_volume 2093.642482
_symmetry_space_group_name_H-M "P B A M"
_symmetry_group_IT_number 55
_symmetry_cell_setting 'orthorhombic'
loop_
_space_group_symop_operation_xyz
x,y,z
-x,-y,z
1/2+x,1/2-y,-z
1/2-x,1/2+y,-z
-x,-y,-z
x,y,-z
1/2-x,1/2+y,z
1/2+x,1/2-y,z
loop_
_atom_site_type_symbol
_atom_site_label
_atom_site_fract_x
_atom_site_fract_y
_atom_site_fract_z
Si Si1 0.609254 0.015486 0.690417
Si Si2 0.936361 0.748009 0.500000
Si Si3 0.810515 0.176663 0.846783
Si Si4 0.807890 0.621121 0.588100
Si Si5 0.891909 0.012698 0.746287
Si Si6 0.186553 0.943969 0.947934
O O1 0.639574 0.725216 0.706512
O O2 0.500000 0.000000 0.686921
O O3 0.647557 0.125622 0.640684
O O4 0.638132 0.220987 0.731788
O O5 0.875538 0.719868 0.547320
O O6 0.000000 0.500000 0.500000
O O7 0.000000 0.000000 0.500000
O O8 0.774230 0.474026 0.846821
O O9 0.863313 0.109376 0.798569
O O10 0.861236 0.114135 0.897200
O O11 0.775925 0.320056 0.582851
O O12 0.000000 0.000000 0.744590
O O13 0.268930 0.732653 0.947181
O O14 0.140023 0.909151 0.000000
#
# Coordination Sequence:
#
# PCOD9425424 Si02
#       6
#     8   4   8   8   8   8
#     4  10  22  39  58  80 111 152 190 220 270 342
#     4  12  26  46  70  92 122 164 198 226 274 346
#     4  10  19  30  49  74 100 132 175 224 271 324
#     4  12  25  42  65  95 124 149 188 245 291 320
#     4  10  21  36  53  76 109 146 182 223 271 330
#     4   8  14  25  41  64  93 125 164 213 267 321
#
# _framework density 21.016002
#
# number of rings (size 3 to 8) (size 9 to 14) (size 15 to 20)
#    0.000    1.818    0.000    4.364    0.000    6.545 
#    0.000    0.000    0.000    0.545    0.000    0.000 
#    0.000   18.909    0.000    0.000    0.000    2.909 
#
# Total GULP energy -245622.986540 kJ/mol
# GULP energy per Si atom -5582.340603 kJ/mol
# Density = 2.096817 g / cm^3
# Si number density = 21.016002 Si / 1000 Ang^3
#
#
#
# Elastic Constant Matrix: (Units=GPa)
#
#
# Indices 1 2 3 4 5 6 
#
# 1 30.8191 9.3104 24.7210 0.0000 0.0000 0.0000
# 2 9.3104 104.7274 16.5664 0.0000 0.0000 0.0000
# 3 24.7210 16.5664 164.3760 0.0000 0.0000 0.0000
# 4 0.0000 0.0000 0.0000 50.5356 0.0000 0.0000
# 5 0.0000 0.0000 0.0000 0.0000 92.8122 0.0000
# 6 0.0000 0.0000 0.0000 0.0000 0.0000 14.7159
#
#
#
# Elastic Compliance Matrix: (Units=1/GPa)
#
#
# Indices 1 2 3 4 5 6 
#
# 1 0.037523 -0.002483 -0.005393 0.000000 0.000000 0.000000
# 2 -0.002483 0.009868 -0.000621 0.000000 0.000000 0.000000
# 3 -0.005393 -0.000621 0.006957 0.000000 0.000000 0.000000
# 4 0.000000 0.000000 0.000000 0.019788 0.000000 0.000000
# 5 0.000000 0.000000 0.000000 0.000000 0.010774 0.000000
# 6 0.000000 0.000000 0.000000 0.000000 0.000000 0.067954
#
#
# Mechanical properties :
#
#
# Convention : Reuss Voigt Hill
#
# Bulk Modulus (GPa) = 26.77057 44.56866 35.66961
# Shear Modulus (GPa) = 27.42585 48.23439 37.83012
#
# Velocity S-wave (km/s) = 3.61640 4.79595 4.24732
# Velocity P-wave (km/s) = 5.49578 7.20563 6.40799
#
# Compressibility (1/GPa) = 0.03735445
#
# Stress axis : x y z
#
# Youngs Moduli (GPa) = 26.65004 101.34209 143.73427
#
# Poissons Ratio (x) = 0.25161 0.77516
# Poissons Ratio (y) = 0.06617 0.08927
# Poissons Ratio (z) = 0.14372 0.06294
#
# Static dielectric constant tensor:
#      x y z
#    x 1.746720 0.000000 0.000000 
#    y 0.000000 1.733830 0.000000 
#    z 0.000000 0.000000 1.718390 
# 
# From -- ./inp_files/23963.got.cif
#   From: 2010.05.17/outbox.cif.g08.bks.cpg/sg55_12_cif.got.tgz:23963.got - 2010.06.03 13:27:54.
