data_PCOD9425255
_publ_section_title
;
Structure prediction by ZEFSAII (Michael W. Deem and Ramdas Pophale) SiO2 
 PCOD9425255
Probable space group: P B A M
;
_chemical_formula_sum "Si O2"
_cell_formula_units_Z 48
_cell_length_a 18.104290
_cell_length_b 9.607721
_cell_length_c 13.587665
_cell_angle_alpha 90.000000
_cell_angle_beta 90.000000
_cell_angle_gamma 90.000000
_cell_volume 2363.451592
_symmetry_space_group_name_H-M "P B A M"
_symmetry_group_IT_number 55
_symmetry_cell_setting 'orthorhombic'
loop_
_space_group_symop_operation_xyz
x,y,z
-x,-y,z
1/2+x,1/2-y,-z
1/2-x,1/2+y,-z
-x,-y,-z
x,y,-z
1/2-x,1/2+y,z
1/2+x,1/2-y,z
loop_
_atom_site_type_symbol
_atom_site_label
_atom_site_fract_x
_atom_site_fract_y
_atom_site_fract_z
Si Si1 0.823434 0.999497 0.725952
Si Si2 0.917897 0.726890 0.267783
Si Si3 0.166277 0.560074 0.707757
Si Si4 0.174954 0.772757 0.886620
Si Si5 0.503675 0.654125 0.892200
Si Si6 0.933602 0.204698 0.384689
O O1 0.747243 0.978465 0.667450
O O2 0.801279 0.091627 0.822366
O O3 0.888180 0.083028 0.670130
O O4 0.857083 0.847618 0.743077
O O5 0.880053 0.580577 0.284336
O O6 0.960248 0.729478 0.164874
O O7 0.983857 0.768320 0.343069
O O8 0.181555 0.641554 0.811936
O O9 0.117493 0.662751 0.641511
O O10 0.087642 0.800302 0.896520
O O11 0.204053 0.760014 0.000000
O O12 0.500000 0.500000 0.844389
O O13 0.470665 0.636095 0.000000
O O14 0.937322 0.178342 0.500000
#
# Coordination Sequence:
#
# PCOD9425255 Si02
#       6
#     8   8   8   8   8   8
#     4  11  23  43  65  91 126 166 209 253 306 367
#     4  12  21  39  67  93 122 162 210 259 304 361
#     4  11  25  41  62  94 133 165 195 252 322 372
#     4  10  21  39  61  90 130 170 210 251 297 358
#     4  10  18  33  60  92 122 162 213 258 297 348
#     4  11  25  45  67  92 120 157 209 261 312 375
#
# _framework density 20.309279
#
# number of rings (size 3 to 8) (size 9 to 14) (size 15 to 20)
#    0.000    1.167    5.000    3.000    0.000    4.667 
#    0.000    5.000    0.000    0.000    0.000    0.000 
#    0.000    0.000    0.000    0.000    0.000    0.000 
#
# Total GULP energy -267689.211768 kJ/mol
# GULP energy per Si atom -5576.858579 kJ/mol
# Density = 2.026305 g / cm^3
# Si number density = 20.309279 Si / 1000 Ang^3
#
#
#
# Elastic Constant Matrix: (Units=GPa)
#
#
# Indices 1 2 3 4 5 6 
#
# 1 78.8956 9.9534 1.0606 0.0000 0.0000 0.0000
# 2 9.9534 85.4138 6.9058 0.0000 0.0000 0.0000
# 3 1.0606 6.9058 90.6362 0.0000 0.0000 0.0000
# 4 0.0000 0.0000 0.0000 -19.0406 0.0000 0.0000
# 5 0.0000 0.0000 0.0000 0.0000 -7.1991 0.0000
# 6 0.0000 0.0000 0.0000 0.0000 0.0000 3.8872
#
#
#
# Elastic Compliance Matrix: (Units=1/GPa)
#
#
# Indices 1 2 3 4 5 6 
#
# 1 0.012864 -0.001496 -0.000037 0.000000 0.000000 0.000000
# 2 -0.001496 0.011954 -0.000893 0.000000 0.000000 0.000000
# 3 -0.000037 -0.000893 0.011102 0.000000 0.000000 0.000000
# 4 0.000000 0.000000 0.000000 -0.052519 0.000000 0.000000
# 5 0.000000 0.000000 0.000000 0.000000 -0.138907 0.000000
# 6 0.000000 0.000000 0.000000 0.000000 0.000000 0.257253
#
#
# Mechanical properties :
#
#
# Convention : Reuss Voigt Hill
#
# Bulk Modulus (GPa) = 32.18732 32.30946 32.24839
# Shear Modulus (GPa) = 42.75154 11.33122 27.04138
#
# Velocity S-wave (km/s) = 4.59303 2.36462 3.65290
# Velocity P-wave (km/s) = 6.63407 4.83720 5.80558
#
# Compressibility (1/GPa) = 0.03106814
#
# Stress axis : x y z
#
# Youngs Moduli (GPa) = 77.73500 83.65205 90.07698
#
# Poissons Ratio (x) = 0.12515 0.00329
# Poissons Ratio (y) = 0.11630 0.08047
# Poissons Ratio (z) = 0.00284 0.07473
#
# Static dielectric constant tensor:
#      x y z
#    x 1.721780 0.000000 0.000000 
#    y 0.000000 1.885620 0.000000 
#    z 0.000000 0.000000 1.772260 
# 
# From -- ./inp_files/19351.got.cif
#   From: 2010.05.17/outbox.cif.g08.bks.cpg/sg55_10_cif.got.tgz:19351.got - 2010.06.03 13:27:54.
