data_PCOD9425081
_publ_section_title
;
Structure prediction by ZEFSAII (Michael W. Deem and Ramdas Pophale) SiO2 
 PCOD9425081
Probable space group: P B A M
;
_chemical_formula_sum "Si O2"
_cell_formula_units_Z 64
_cell_length_a 27.915329
_cell_length_b 8.885885
_cell_length_c 13.488795
_cell_angle_alpha 90.000000
_cell_angle_beta 90.000000
_cell_angle_gamma 90.000000
_cell_volume 3345.928016
_symmetry_space_group_name_H-M "P B A M"
_symmetry_group_IT_number 55
_symmetry_cell_setting 'orthorhombic'
loop_
_space_group_symop_operation_xyz
x,y,z
-x,-y,z
1/2+x,1/2-y,-z
1/2-x,1/2+y,-z
-x,-y,-z
x,y,-z
1/2-x,1/2+y,z
1/2+x,1/2-y,z
loop_
_atom_site_type_symbol
_atom_site_label
_atom_site_fract_x
_atom_site_fract_y
_atom_site_fract_z
Si Si1 0.958301 0.894000 0.292907
Si Si2 0.580484 0.591714 0.886951
Si Si3 0.373326 0.467612 0.609766
Si Si4 0.315204 0.451098 0.806318
Si Si5 0.238185 0.221987 0.746358
Si Si6 0.024472 0.640612 0.788466
Si Si7 0.092788 0.623118 0.610462
Si Si8 0.199256 0.488756 0.383048
O O1 0.912053 0.904954 0.362438
O O2 0.983225 0.740275 0.263584
O O3 0.941410 0.973245 0.190739
O O4 0.000000 0.000000 0.337206
O O5 0.637636 0.588359 0.868453
O O6 0.556514 0.749836 0.855960
O O7 0.569424 0.555398 0.000000
O O8 0.354050 0.488117 0.500000
O O9 0.332990 0.459315 0.692077
O O10 0.399387 0.304664 0.615358
O O11 0.274864 0.324248 0.808867
O O12 0.292690 0.615999 0.818967
O O13 0.268448 0.113029 0.673301
O O14 0.207479 0.334375 0.677203
O O15 0.058049 0.582710 0.699456
O O16 0.000000 0.500000 0.841407
O O17 0.074438 0.587481 0.500000
O O18 0.144535 0.546092 0.622285
O O19 0.211620 0.474672 0.500000
#
# Coordination Sequence:
#
# PCOD9425081 Si02
#       8
#     8   8   8   8   8   8   8   8
#     4   9  18  35  55  81 103 140 186 220 267 323
#     4  10  21  41  64  81 105 138 174 222 284 341
#     4  10  18  31  53  77 110 149 189 225 262 313
#     4  10  20  38  55  81 108 144 182 221 275 321
#     4  10  20  32  54  77 110 144 186 229 267 321
#     4  11  22  37  57  83 114 142 183 231 273 325
#     4  10  19  33  51  75 115 155 185 223 269 312
#     4  10  19  31  49  78 112 153 192 227 267 313
#
# _framework density 19.127727
#
# number of rings (size 3 to 8) (size 9 to 14) (size 15 to 20)
#    0.000    2.000    5.000    0.375    0.000    8.000 
#    0.000    1.875    0.000    0.000    0.000    0.000 
#    0.000    0.000    0.000    0.000    0.000    0.000 
#
# Total GULP energy -357101.993462 kJ/mol
# GULP energy per Si atom -5579.718648 kJ/mol
# Density = 1.908419 g / cm^3
# Si number density = 19.127727 Si / 1000 Ang^3
#
#
#
# Elastic Constant Matrix: (Units=GPa)
#
#
# Indices 1 2 3 4 5 6 
#
# 1 64.8525 29.7298 3.7198 0.0000 0.0000 0.0000
# 2 29.7298 80.4873 -13.4906 0.0000 0.0000 0.0000
# 3 3.7198 -13.4906 33.9825 0.0000 0.0000 0.0000
# 4 0.0000 0.0000 0.0000 3.0222 0.0000 0.0000
# 5 0.0000 0.0000 0.0000 0.0000 -0.0314 0.0000
# 6 0.0000 0.0000 0.0000 0.0000 0.0000 25.8779
#
#
#
# Elastic Compliance Matrix: (Units=1/GPa)
#
#
# Indices 1 2 3 4 5 6 
#
# 1 0.019424 -0.008068 -0.005329 0.000000 0.000000 0.000000
# 2 -0.008068 0.016661 0.007497 0.000000 0.000000 0.000000
# 3 -0.005329 0.007497 0.032987 0.000000 0.000000 0.000000
# 4 0.000000 0.000000 0.000000 0.330882 0.000000 0.000000
# 5 0.000000 0.000000 0.000000 0.000000-31.874809 0.000000
# 6 0.000000 0.000000 0.000000 0.000000 0.000000 0.038643
#
#
# Mechanical properties :
#
#
# Convention : Reuss Voigt Hill
#
# Bulk Modulus (GPa) = 17.46044 24.36004 20.91024
# Shear Modulus (GPa) = -0.15921 16.39797 8.11938
#
# Velocity S-wave (km/s) = -0.28882 2.93112 2.06253
# Velocity P-wave (km/s) = 3.00615 4.92122 4.07771
#
# Compressibility (1/GPa) = 0.05727231
#
# Stress axis : x y z
#
# Youngs Moduli (GPa) = 51.48351 60.02051 30.31540
#
# Poissons Ratio (x) = 0.48423 0.16155
# Poissons Ratio (y) = 0.41536 -0.22728
# Poissons Ratio (z) = 0.27435 -0.44999
#
# Static dielectric constant tensor:
#      x y z
#    x 1.700600 0.000000 0.000000 
#    y 0.000000 1.697790 0.000000 
#    z 0.000000 0.000000 1.630980 
# 
# From -- ./inp_files/20185.got.cif
#   From: 2010.05.17/outbox.cif.g08.bks.cpg/sg55_11_cif.got.tgz:20185.got - 2010.06.03 13:27:54.
