data_PCOD9425473
_publ_section_title
;
Structure prediction by ZEFSAII (Michael W. Deem and Ramdas Pophale) SiO2 
 PCOD9425473
Probable space group: P B A M
;
_chemical_formula_sum "Si O2"
_cell_formula_units_Z 64
_cell_length_a 19.636808
_cell_length_b 23.733393
_cell_length_c 8.844794
_cell_angle_alpha 90.000000
_cell_angle_beta 90.000000
_cell_angle_gamma 90.000000
_cell_volume 4122.099275
_symmetry_space_group_name_H-M "P B A M"
_symmetry_group_IT_number 55
_symmetry_cell_setting 'orthorhombic'
loop_
_space_group_symop_operation_xyz
x,y,z
-x,-y,z
1/2+x,1/2-y,-z
1/2-x,1/2+y,-z
-x,-y,-z
x,y,-z
1/2-x,1/2+y,z
1/2+x,1/2-y,z
loop_
_atom_site_type_symbol
_atom_site_label
_atom_site_fract_x
_atom_site_fract_y
_atom_site_fract_z
Si Si1 0.005323 0.248763 0.818415
Si Si2 0.233350 0.158578 0.681630
Si Si3 0.633582 0.777843 0.680960
Si Si4 0.778171 0.168278 0.681735
Si Si5 0.867820 0.061426 0.681275
Si Si6 0.647630 0.438791 0.818941
Si Si7 0.341984 0.767037 0.818452
Si Si8 0.001825 0.117179 0.182158
O O1 0.940292 0.280714 0.753492
O O2 0.001612 0.182844 0.771855
O O3 0.079113 0.272436 0.773370
O O4 0.002044 0.249740 0.000000
O O5 0.227931 0.159125 0.500000
O O6 0.311158 0.174601 0.722380
O O7 0.205537 0.100671 0.748037
O O8 0.187521 0.209272 0.748221
O O9 0.626588 0.777778 0.500000
O O10 0.669051 0.718277 0.724400
O O11 0.769612 0.171253 0.500000
O O12 0.811796 0.108872 0.721331
O O13 0.707212 0.183719 0.759896
O O14 0.869994 0.056624 0.500000
O O15 0.940266 0.084154 0.740516
O O16 0.851565 0.001570 0.754509
O O17 0.574466 0.410605 0.780894
O O18 0.653663 0.439242 0.000000
O O19 0.338417 0.762845 0.000000
O O20 0.993462 0.114456 0.000000
#
# Coordination Sequence:
#
# PCOD9425473 Si02
#       8
#     8   8   8   8   8   8   8   8
#     4  10  19  31  48  73 101 130 163 199 243 291
#     4  10  20  34  50  71  98 128 164 206 248 289
#     4   9  18  32  49  71  97 126 162 202 244 292
#     4   9  19  34  48  69  98 128 164 206 245 288
#     4  11  22  35  50  71  99 132 173 210 245 289
#     4  11  22  36  51  70  98 133 173 208 244 290
#     4  10  19  32  50  73  99 128 164 203 246 295
#     4  10  20  34  47  67 101 136 170 206 239 282
#
# _framework density 15.526069
#
# number of rings (size 3 to 8) (size 9 to 14) (size 15 to 20)
#    0.000    2.000    2.500    2.625    0.000    7.000 
#    0.000    0.000    0.000    0.000    0.000    0.875 
#    0.000    7.000    0.000    0.000    0.000    0.000 
#
# Total GULP energy -357137.736766 kJ/mol
# GULP energy per Si atom -5580.277137 kJ/mol
# Density = 1.549073 g / cm^3
# Si number density = 15.526069 Si / 1000 Ang^3
#
#
#
# Elastic Constant Matrix: (Units=GPa)
#
#
# Indices 1 2 3 4 5 6 
#
# 1 124.4721 48.3012 38.6336 0.0000 0.0000 0.0000
# 2 48.3012 72.8774 29.4891 0.0000 0.0000 0.0000
# 3 38.6336 29.4891 32.9006 0.0000 0.0000 0.0000
# 4 0.0000 0.0000 0.0000 25.2984 0.0000 0.0000
# 5 0.0000 0.0000 0.0000 0.0000 30.9500 0.0000
# 6 0.0000 0.0000 0.0000 0.0000 0.0000 19.7912
#
#
#
# Elastic Compliance Matrix: (Units=1/GPa)
#
#
# Indices 1 2 3 4 5 6 
#
# 1 0.013319 -0.003921 -0.012125 0.000000 0.000000 0.000000
# 2 -0.003921 0.022685 -0.015728 0.000000 0.000000 0.000000
# 3 -0.012125 -0.015728 0.058730 0.000000 0.000000 0.000000
# 4 0.000000 0.000000 0.000000 0.039528 0.000000 0.000000
# 5 0.000000 0.000000 0.000000 0.000000 0.032310 0.000000
# 6 0.000000 0.000000 0.000000 0.000000 0.000000 0.050528
#
#
# Mechanical properties :
#
#
# Convention : Reuss Voigt Hill
#
# Bulk Modulus (GPa) = 32.06712 51.45533 41.76122
# Shear Modulus (GPa) = 17.17955 22.79632 19.98794
#
# Velocity S-wave (km/s) = 3.33001 3.83595 3.59190
# Velocity P-wave (km/s) = 5.95684 7.26860 6.64516
#
# Compressibility (1/GPa) = 0.03118459
#
# Stress axis : x y z
#
# Youngs Moduli (GPa) = 75.08106 44.08264 17.02704
#
# Poissons Ratio (x) = 0.17285 0.20646
# Poissons Ratio (y) = 0.29440 0.26780
# Poissons Ratio (z) = 0.91038 0.69334
#
# Static dielectric constant tensor:
#      x y z
#    x 1.513250 0.000000 0.000000 
#    y 0.000000 1.497860 0.000000 
#    z 0.000000 0.000000 1.573090 
# 
# From -- ./inp_files/7966.got.cif
#   From: 2010.05.17/outbox.cif.g08.bks.cpg/sg55_4_cif.got.tgz:7966.got - 2010.06.03 13:27:54.
