data_PCOD9425807
_publ_section_title
;
Structure prediction by ZEFSAII (Michael W. Deem and Ramdas Pophale) SiO2 
 PCOD9425807
Probable space group: P B A M
;
_chemical_formula_sum "Si O2"
_cell_formula_units_Z 64
_cell_length_a 31.049767
_cell_length_b 11.710996
_cell_length_c 9.408606
_cell_angle_alpha 90.000000
_cell_angle_beta 90.000000
_cell_angle_gamma 90.000000
_cell_volume 3421.192099
_symmetry_space_group_name_H-M "P B A M"
_symmetry_group_IT_number 55
_symmetry_cell_setting 'orthorhombic'
loop_
_space_group_symop_operation_xyz
x,y,z
-x,-y,z
1/2+x,1/2-y,-z
1/2-x,1/2+y,-z
-x,-y,-z
x,y,-z
1/2-x,1/2+y,z
1/2+x,1/2-y,z
loop_
_atom_site_type_symbol
_atom_site_label
_atom_site_fract_x
_atom_site_fract_y
_atom_site_fract_z
Si Si1 0.689702 0.009328 0.837772
Si Si2 0.724935 0.259364 0.840691
Si Si3 0.528234 0.118556 0.169527
Si Si4 0.809622 0.197236 0.664495
Si Si5 0.724629 0.449708 0.338248
Si Si6 0.484312 0.368977 0.170845
Si Si7 0.407344 0.262760 0.331773
Si Si8 0.398760 0.003433 0.331639
O O1 0.698525 0.143828 0.847103
O O2 0.731901 0.968669 0.752266
O O3 0.646942 0.990189 0.747711
O O4 0.686489 0.964905 0.000000
O O5 0.771082 0.236165 0.766511
O O6 0.701103 0.347125 0.739029
O O7 0.730434 0.303578 0.000000
O O8 0.510152 0.247623 0.205017
O O9 0.500000 0.000000 0.192028
O O10 0.570912 0.090691 0.259869
O O11 0.536907 0.120487 0.000000
O O12 0.804087 0.236829 0.500000
O O13 0.857338 0.228068 0.712222
O O14 0.803981 0.061644 0.663349
O O15 0.735716 0.424129 0.500000
O O16 0.500000 0.500000 0.209862
O O17 0.438547 0.344187 0.244535
O O18 0.480750 0.369169 0.000000
O O19 0.409385 0.289477 0.500000
O O20 0.419529 0.129651 0.313956
O O21 0.392886 0.984423 0.500000
#
# Coordination Sequence:
#
# PCOD9425807 Si02
#       8
#     8   8   8   8   8   8   8   8
#     4  10  21  36  54  79 112 148 191 238 286 338
#     4  10  20  34  53  78 109 147 189 234 283 337
#     4  10  20  38  63  87 115 152 189 231 290 349
#     4   9  19  35  54  78 108 145 186 231 282 336
#     4  10  19  33  54  76 107 149 190 232 283 341
#     4  10  22  41  63  87 115 149 190 234 287 350
#     4  10  21  37  58  85 116 146 186 236 284 339
#     4  11  22  35  58  90 118 147 190 240 290 344
#
# _framework density 18.706928999999999
#
# number of rings (size 3 to 8) (size 9 to 14) (size 15 to 20)
#    0.000    2.000    1.250    2.250    0.000    5.000 
#    2.250    0.000    0.000    0.000    0.000    0.000 
#    0.000    0.000    0.000    0.000    0.000    0.000 
#
# Total GULP energy -356398.459529 kJ/mol
# GULP energy per Si atom -5568.725930 kJ/mol
# Density = 1.866435 g / cm^3
# Si number density = 18.706929 Si / 1000 Ang^3
#
#
#
# Elastic Constant Matrix: (Units=GPa)
#
#
# Indices 1 2 3 4 5 6 
#
# 1 70.0058 34.7259 32.0243 0.0000 0.0000 0.0000
# 2 34.7259 119.2952 39.3665 0.0000 0.0000 0.0000
# 3 32.0243 39.3665 79.8266 0.0000 0.0000 0.0000
# 4 0.0000 0.0000 0.0000 28.2179 0.0000 0.0000
# 5 0.0000 0.0000 0.0000 0.0000 32.5366 0.0000
# 6 0.0000 0.0000 0.0000 0.0000 0.0000 376.7237
#
#
#
# Elastic Compliance Matrix: (Units=1/GPa)
#
#
# Indices 1 2 3 4 5 6 
#
# 1 0.018667 -0.003538 -0.005744 0.000000 0.000000 0.000000
# 2 -0.003538 0.010683 -0.003849 0.000000 0.000000 0.000000
# 3 -0.005744 -0.003849 0.016729 0.000000 0.000000 0.000000
# 4 0.000000 0.000000 0.000000 0.035439 0.000000 0.000000
# 5 0.000000 0.000000 0.000000 0.000000 0.030735 0.000000
# 6 0.000000 0.000000 0.000000 0.000000 0.000000 0.002654
#
#
# Mechanical properties :
#
#
# Convention : Reuss Voigt Hill
#
# Bulk Modulus (GPa) = 50.46051 53.48456 51.97253
# Shear Modulus (GPa) = 33.83537 98.36305 66.09921
#
# Velocity S-wave (km/s) = 4.25750 7.25915 5.95070
# Velocity P-wave (km/s) = 7.15551 9.94551 8.66356
#
# Compressibility (1/GPa) = 0.01981748
#
# Stress axis : x y z
#
# Youngs Moduli (GPa) = 53.56966 93.61026 59.77521
#
# Poissons Ratio (x) = 0.33124 0.34334
# Poissons Ratio (y) = 0.18956 0.23005
# Poissons Ratio (z) = 0.30769 0.36027
#
# Static dielectric constant tensor:
#      x y z
#    x 1.631740 0.000000 0.000000 
#    y 0.000000 1.734940 0.000000 
#    z 0.000000 0.000000 1.651780 
# 
# From -- ./inp_files/10869.got.cif
#   From: 2010.05.17/outbox.cif.g08.bks.cpg/sg55_6_cif.got.tgz:10869.got - 2010.06.03 13:27:54.
