data_PCOD9425516
_publ_section_title
;
Structure prediction by ZEFSAII (Michael W. Deem and Ramdas Pophale) SiO2 
 PCOD9425516
Probable space group: P B A M
;
_chemical_formula_sum "Si O2"
_cell_formula_units_Z 48
_cell_length_a 9.363084
_cell_length_b 22.460215
_cell_length_c 8.547238
_cell_angle_alpha 90.000000
_cell_angle_beta 90.000000
_cell_angle_gamma 90.000000
_cell_volume 1797.457481
_symmetry_space_group_name_H-M "P B A M"
_symmetry_group_IT_number 55
_symmetry_cell_setting 'orthorhombic'
loop_
_space_group_symop_operation_xyz
x,y,z
-x,-y,z
1/2+x,1/2-y,-z
1/2-x,1/2+y,-z
-x,-y,-z
x,y,-z
1/2-x,1/2+y,z
1/2+x,1/2-y,z
loop_
_atom_site_type_symbol
_atom_site_label
_atom_site_fract_x
_atom_site_fract_y
_atom_site_fract_z
Si Si1 0.333056 0.742708 0.500000
Si Si2 0.799550 0.949935 0.823699
Si Si3 0.412194 0.142192 0.314021
Si Si4 0.871764 0.546093 0.686578
Si Si5 0.411531 0.380413 0.829147
Si Si6 0.528088 0.245159 0.169556
Si Si7 0.596177 0.662696 0.500000
O O1 0.383533 0.764377 0.328385
O O2 0.425038 0.679238 0.500000
O O3 0.175244 0.773212 0.500000
O O4 0.713980 0.904080 0.715501
O O5 0.763910 0.016716 0.769322
O O6 0.961259 0.928452 0.823978
O O7 0.744560 0.943127 0.000000
O O8 0.414818 0.154413 0.500000
O O9 0.397489 0.199612 0.204613
O O10 0.558442 0.108623 0.267297
O O11 0.858758 0.543135 0.500000
O O12 0.000000 0.500000 0.728368
O O13 0.480923 0.313495 0.836541
O O14 0.353934 0.374203 0.651893
O O15 0.337164 0.386894 0.000000
O O16 0.592666 0.230442 0.000000
#
# Coordination Sequence:
#
# PCOD9425516 Si02
#       7
#     4   8   8   8   8   8   4
#     4  10  22  40  56  89 112 151 203 238 288 352
#     4  10  19  31  50  80 117 156 200 245 301 363
#     4  10  19  32  51  80 118 155 200 248 299 360
#     4   8  16  29  46  74 113 153 192 245 301 353
#     4   9  21  36  51  80 113 150 196 239 284 345
#     4  10  20  36  54  76 113 153 192 239 287 341
#     4  10  22  38  62  81 116 157 195 240 294 346
#
# _framework density 26.704386
#
# number of rings (size 3 to 8) (size 9 to 14) (size 15 to 20)
#    0.000    2.500    0.833    2.000    2.333    9.667 
#    0.000    6.667    0.000    0.000    0.000    2.333 
#    0.000    4.000    0.000    0.000    0.000    0.000 
#
# Total GULP energy -268115.777725 kJ/mol
# GULP energy per Si atom -5585.745369 kJ/mol
# Density = 2.664361 g / cm^3
# Si number density = 26.704386 Si / 1000 Ang^3
#
#
#
# Elastic Constant Matrix: (Units=GPa)
#
#
# Indices 1 2 3 4 5 6 
#
# 1 84.9646 31.7045 36.8637 0.0000 0.0000 0.0000
# 2 31.7045 99.8977 44.9488 0.0000 0.0000 0.0000
# 3 36.8637 44.9488 217.1511 0.0000 0.0000 0.0000
# 4 0.0000 0.0000 0.0000 20.9980 0.0000 0.0000
# 5 0.0000 0.0000 0.0000 0.0000 31.0123 0.0000
# 6 0.0000 0.0000 0.0000 0.0000 0.0000 34.9688
#
#
#
# Elastic Compliance Matrix: (Units=1/GPa)
#
#
# Indices 1 2 3 4 5 6 
#
# 1 0.013829 -0.003675 -0.001587 0.000000 0.000000 0.000000
# 2 -0.003675 0.012015 -0.001863 0.000000 0.000000 0.000000
# 3 -0.001587 -0.001863 0.005260 0.000000 0.000000 0.000000
# 4 0.000000 0.000000 0.000000 0.047624 0.000000 0.000000
# 5 0.000000 0.000000 0.000000 0.000000 0.032245 0.000000
# 6 0.000000 0.000000 0.000000 0.000000 0.000000 0.028597
#
#
# Mechanical properties :
#
#
# Convention : Reuss Voigt Hill
#
# Bulk Modulus (GPa) = 59.33213 69.89415 64.61314
# Shear Modulus (GPa) = 31.36002 36.62891 33.99446
#
# Velocity S-wave (km/s) = 3.43058 3.70759 3.57177
# Velocity P-wave (km/s) = 6.16102 6.67521 6.42326
#
# Compressibility (1/GPa) = 0.01685427
#
# Stress axis : x y z
#
# Youngs Moduli (GPa) = 72.30927 83.23006 190.10845
#
# Poissons Ratio (x) = 0.30587 0.30170
# Poissons Ratio (y) = 0.26574 0.35420
# Poissons Ratio (z) = 0.11475 0.15507
#
# Static dielectric constant tensor:
#      x y z
#    x 2.242970 0.000000 0.000000 
#    y 0.000000 2.186570 0.000000 
#    z 0.000000 0.000000 2.022350 
# 
# From -- ./inp_files/4110.got.cif
#   From: 2010.05.17/outbox.cif.g08.bks.cpg/sg55_3_cif.got.tgz:4110.got - 2010.06.03 13:27:54.
