data_PCOD9425469
_publ_section_title
;
Structure prediction by ZEFSAII (Michael W. Deem and Ramdas Pophale) SiO2 
 PCOD9425469
Probable space group: P B A M
;
_chemical_formula_sum "Si O2"
_cell_formula_units_Z 64
_cell_length_a 18.127295
_cell_length_b 23.003736
_cell_length_c 8.609476
_cell_angle_alpha 90.000000
_cell_angle_beta 90.000000
_cell_angle_gamma 90.000000
_cell_volume 3590.112823
_symmetry_space_group_name_H-M "P B A M"
_symmetry_group_IT_number 55
_symmetry_cell_setting 'orthorhombic'
loop_
_space_group_symop_operation_xyz
x,y,z
-x,-y,z
1/2+x,1/2-y,-z
1/2-x,1/2+y,-z
-x,-y,-z
x,y,-z
1/2-x,1/2+y,z
1/2+x,1/2-y,z
loop_
_atom_site_type_symbol
_atom_site_label
_atom_site_fract_x
_atom_site_fract_y
_atom_site_fract_z
Si Si1 0.083001 0.776416 0.686424
Si Si2 0.577406 0.972677 0.187150
Si Si3 0.713478 0.390392 0.311520
Si Si4 0.483621 0.433075 0.171750
Si Si5 0.267120 0.984088 0.685687
Si Si6 0.131120 0.652971 0.185986
Si Si7 0.936242 0.836932 0.321961
Si Si8 0.824157 0.118927 0.822104
O O1 0.081289 0.779227 0.500000
O O2 0.100851 0.712241 0.743535
O O3 0.145734 0.821957 0.743275
O O4 0.001098 0.795964 0.745799
O O5 0.649756 0.002916 0.258222
O O6 0.582694 0.904107 0.224344
O O7 0.500000 0.000000 0.238616
O O8 0.582395 0.978451 0.000000
O O9 0.710740 0.390362 0.500000
O O10 0.718922 0.458735 0.262616
O O11 0.788379 0.361085 0.253838
O O12 0.643914 0.352255 0.253722
O O13 0.500000 0.500000 0.180912
O O14 0.523649 0.399091 0.308060
O O15 0.397381 0.420838 0.179962
O O16 0.508841 0.411424 0.000000
O O17 0.264966 0.983282 0.500000
O O18 0.237115 0.922409 0.746297
O O19 0.135234 0.657956 0.000000
O O20 0.924958 0.818653 0.500000
O O21 0.803996 0.131856 0.000000
#
# Coordination Sequence:
#
# PCOD9425469 Si02
#       8
#     8   8   8   8   8   8   8   8
#     4  10  20  35  53  73 102 139 176 213 257 307
#     4   9  19  37  59  80 103 133 170 217 271 322
#     4   9  18  33  52  75 103 134 170 212 259 311
#     4   9  17  27  41  65  97 131 164 200 243 287
#     4  10  19  31  51  79 108 137 170 213 264 314
#     4  10  20  35  56  79 101 131 172 213 260 315
#     4   9  18  31  48  70  96 130 170 209 248 296
#     4  10  19  31  48  71 102 138 173 207 245 296
#
# _framework density 17.826737000000001
#
# number of rings (size 3 to 8) (size 9 to 14) (size 15 to 20)
#    0.000    2.500    0.000    2.250    0.000    3.000 
#    0.000    1.250    0.000    3.000    0.000    0.000 
#    0.000    0.000    0.000    0.000    0.000    0.000 
#
# Total GULP energy -356381.041878 kJ/mol
# GULP energy per Si atom -5568.453779 kJ/mol
# Density = 1.778616 g / cm^3
# Si number density = 17.826737 Si / 1000 Ang^3
#
#
#
# Elastic Constant Matrix: (Units=GPa)
#
#
# Indices 1 2 3 4 5 6 
#
# 1 101.9293 76.5196 25.8462 0.0000 0.0000 0.0000
# 2 76.5196 119.0503 33.1260 0.0000 0.0000 0.0000
# 3 25.8462 33.1260 32.1222 0.0000 0.0000 0.0000
# 4 0.0000 0.0000 0.0000 30.6041 0.0000 0.0000
# 5 0.0000 0.0000 0.0000 0.0000 32.0680 0.0000
# 6 0.0000 0.0000 0.0000 0.0000 0.0000 20.3174
#
#
#
# Elastic Compliance Matrix: (Units=1/GPa)
#
#
# Indices 1 2 3 4 5 6 
#
# 1 0.019290 -0.011331 -0.003836 0.000000 0.000000 0.000000
# 2 -0.011331 0.018436 -0.009895 0.000000 0.000000 0.000000
# 3 -0.003836 -0.009895 0.044422 0.000000 0.000000 0.000000
# 4 0.000000 0.000000 0.000000 0.032675 0.000000 0.000000
# 5 0.000000 0.000000 0.000000 0.000000 0.031184 0.000000
# 6 0.000000 0.000000 0.000000 0.000000 0.000000 0.049219
#
#
# Mechanical properties :
#
#
# Convention : Reuss Voigt Hill
#
# Bulk Modulus (GPa) = 31.22676 58.23173 44.72924
# Shear Modulus (GPa) = 19.52939 24.43856 21.98398
#
# Velocity S-wave (km/s) = 3.31344 3.70658 3.51551
# Velocity P-wave (km/s) = 5.67392 7.14525 6.45166
#
# Compressibility (1/GPa) = 0.03202382
#
# Stress axis : x y z
#
# Youngs Moduli (GPa) = 51.84076 54.24082 22.51155
#
# Poissons Ratio (x) = 0.61462 0.08635
# Poissons Ratio (y) = 0.58742 0.22275
# Poissons Ratio (z) = 0.19884 0.53672
#
# Static dielectric constant tensor:
#      x y z
#    x 1.660760 0.000000 0.000000 
#    y 0.000000 1.591170 0.000000 
#    z 0.000000 0.000000 1.650390 
# 
# From -- ./inp_files/8214.got.cif
#   From: 2010.05.17/outbox.cif.g08.bks.cpg/sg55_5_cif.got.tgz:8214.got - 2010.06.03 13:27:54.
