data_PCOD9425155
_publ_section_title
;
Structure prediction by ZEFSAII (Michael W. Deem and Ramdas Pophale) SiO2 
 PCOD9425155
Probable space group: P B A M
;
_chemical_formula_sum "Si O2"
_cell_formula_units_Z 48
_cell_length_a 8.324552
_cell_length_b 24.663714
_cell_length_c 13.047234
_cell_angle_alpha 90.000000
_cell_angle_beta 90.000000
_cell_angle_gamma 90.000000
_cell_volume 2678.784625
_symmetry_space_group_name_H-M "P B A M"
_symmetry_group_IT_number 55
_symmetry_cell_setting 'orthorhombic'
loop_
_space_group_symop_operation_xyz
x,y,z
-x,-y,z
1/2+x,1/2-y,-z
1/2-x,1/2+y,-z
-x,-y,-z
x,y,-z
1/2-x,1/2+y,z
1/2+x,1/2-y,z
loop_
_atom_site_type_symbol
_atom_site_label
_atom_site_fract_x
_atom_site_fract_y
_atom_site_fract_z
Si Si1 0.175400 0.869091 0.119801
Si Si2 0.872148 0.208792 0.500000
Si Si3 0.806248 0.905054 0.118571
Si Si4 0.167480 0.671567 0.285524
Si Si5 0.823645 0.518304 0.876092
Si Si6 0.699609 0.209677 0.711725
Si Si7 0.242368 0.171510 0.500000
O O1 0.270237 0.922468 0.158758
O O2 0.215880 0.819321 0.192754
O O3 0.987994 0.884303 0.124206
O O4 0.215747 0.858491 0.000000
O O5 0.783185 0.191991 0.604759
O O6 0.853383 0.274161 0.500000
O O7 0.056794 0.190546 0.500000
O O8 0.699002 0.868191 0.191721
O O9 0.793637 0.968305 0.148266
O O10 0.751579 0.900944 0.000000
O O11 0.278231 0.725533 0.278827
O O12 0.215443 0.643500 0.393106
O O13 0.985646 0.692657 0.288371
O O14 0.000000 0.500000 0.841758
O O15 0.825604 0.522550 0.000000
#
# Coordination Sequence:
#
# PCOD9425155 Si02
#       7
#     8   4   8   8   8   8   4
#     4  10  20  34  52  75 103 135 170 208 251 298
#     4  10  18  32  52  73  98 129 168 208 247 294
#     4  10  20  34  52  75 103 135 170 208 251 298
#     4  11  21  34  52  75 103 134 169 208 252 300
#     4   9  17  31  51  74  99 130 169 209 248 293
#     4  11  21  34  52  75 103 134 169 208 252 300
#     4  10  18  32  52  73  98 129 168 208 247 294
#
# _framework density 17.918574
#
# number of rings (size 3 to 8) (size 9 to 14) (size 15 to 20)
#    0.000    1.833    0.000    8.000    0.000    4.667 
#    0.000    0.000    0.000    1.000    0.000    7.000 
#    0.000    0.000    0.000    0.000    0.000    0.000 
#
# Total GULP energy -267889.070727 kJ/mol
# GULP energy per Si atom -5581.022307 kJ/mol
# Density = 1.787779 g / cm^3
# Si number density = 17.918574 Si / 1000 Ang^3
#
#
#
# Elastic Constant Matrix: (Units=GPa)
#
#
# Indices 1 2 3 4 5 6 
#
# 1 38.1287 -10.8595 9.3706 0.0000 0.0000 0.0000
# 2 -10.8595 43.4611 31.0321 0.0000 0.0000 0.0000
# 3 9.3706 31.0321 89.6026 0.0000 0.0000 0.0000
# 4 0.0000 0.0000 0.0000 -3.3574 0.0000 0.0000
# 5 0.0000 0.0000 0.0000 0.0000 26.5937 0.0000
# 6 0.0000 0.0000 0.0000 0.0000 0.0000 30.1112
#
#
#
# Elastic Compliance Matrix: (Units=1/GPa)
#
#
# Indices 1 2 3 4 5 6 
#
# 1 0.032188 0.013878 -0.008173 0.000000 0.000000 0.000000
# 2 0.013878 0.036552 -0.014110 0.000000 0.000000 0.000000
# 3 -0.008173 -0.014110 0.016902 0.000000 0.000000 0.000000
# 4 0.000000 0.000000 0.000000 -0.297851 0.000000 0.000000
# 5 0.000000 0.000000 0.000000 0.000000 0.037603 0.000000
# 6 0.000000 0.000000 0.000000 0.000000 0.000000 0.033210
#
#
# Mechanical properties :
#
#
# Convention : Reuss Voigt Hill
#
# Bulk Modulus (GPa) = 14.52805 25.58653 20.05729
# Shear Modulus (GPa) = -49.19231 20.11278 -14.53976
#
# Velocity S-wave (km/s) = -5.24527 3.35394 -2.85166
# Velocity P-wave (km/s) = 5.34400 5.41377 0.61258
#
# Compressibility (1/GPa) = 0.06883236
#
# Stress axis : x y z
#
# Youngs Moduli (GPa) = 31.06728 27.35835 59.16472
#
# Poissons Ratio (x) = -0.37969 0.48354
# Poissons Ratio (y) = -0.43116 0.83484
# Poissons Ratio (z) = 0.25390 0.38604
#
# Static dielectric constant tensor:
#      x y z
#    x 1.637100 0.000000 0.000000 
#    y 0.000000 1.591920 0.000000 
#    z 0.000000 0.000000 1.631570 
# 
# From -- ./inp_files/12338.got.cif
#   From: 2010.05.17/outbox.cif.g08.bks.cpg/sg55_7_cif.got.tgz:12338.got - 2010.06.03 13:27:54.
