data_PCOD9425554
_publ_section_title
;
Structure prediction by ZEFSAII (Michael W. Deem and Ramdas Pophale) SiO2 
 PCOD9425554
Probable space group: P B A M
;
_chemical_formula_sum "Si O2"
_cell_formula_units_Z 48
_cell_length_a 24.127021
_cell_length_b 10.846389
_cell_length_c 10.309476
_cell_angle_alpha 90.000000
_cell_angle_beta 90.000000
_cell_angle_gamma 90.000000
_cell_volume 2697.897653
_symmetry_space_group_name_H-M "P B A M"
_symmetry_group_IT_number 55
_symmetry_cell_setting 'orthorhombic'
loop_
_space_group_symop_operation_xyz
x,y,z
-x,-y,z
1/2+x,1/2-y,-z
1/2-x,1/2+y,-z
-x,-y,-z
x,y,-z
1/2-x,1/2+y,z
1/2+x,1/2-y,z
loop_
_atom_site_type_symbol
_atom_site_label
_atom_site_fract_x
_atom_site_fract_y
_atom_site_fract_z
Si Si1 0.132749 0.713636 0.842439
Si Si2 0.735718 0.922512 0.726707
Si Si3 0.990258 0.361030 0.842782
Si Si4 0.155770 0.986600 0.150857
Si Si5 0.303683 0.816755 0.642611
Si Si6 0.605616 0.263455 0.157675
O O1 0.177849 0.619641 0.787739
O O2 0.069966 0.685299 0.801313
O O3 0.148529 0.850595 0.794173
O O4 0.135613 0.708155 0.000000
O O5 0.762326 0.800728 0.659610
O O6 0.782489 0.962191 0.830184
O O7 0.725699 0.049690 0.649643
O O8 0.000000 0.500000 0.797029
O O9 0.044047 0.280990 0.809728
O O10 0.988536 0.363122 0.000000
O O11 0.115170 0.094303 0.197399
O O12 0.143703 0.973141 0.000000
O O13 0.330044 0.804725 0.500000
O O14 0.347995 0.809008 0.760013
O O15 0.614017 0.250689 0.000000
#
# Coordination Sequence:
#
# PCOD9425554 Si02
#       6
#     8   8   8   8   8   8
#     4  10  19  31  53  83 116 145 179 228 278 325
#     4  11  20  36  53  77 110 146 186 223 274 331
#     4   9  17  30  49  78 110 144 182 223 273 324
#     4   9  18  31  49  81 112 142 182 225 275 323
#     4  11  23  37  57  80 109 146 184 227 277 330
#     4   9  19  35  56  80 110 144 183 227 271 324
#
# _framework density 17.791632
#
# number of rings (size 3 to 8) (size 9 to 14) (size 15 to 20)
#    0.000    2.167    1.667    2.000    0.000    4.000 
#    0.000    3.333    0.000    5.500    0.000    2.333 
#    0.000    0.000    0.000    0.000    0.000    0.000 
#
# Total GULP energy -267227.650127 kJ/mol
# GULP energy per Si atom -5567.242711 kJ/mol
# Density = 1.775114 g / cm^3
# Si number density = 17.791632 Si / 1000 Ang^3
#
#
#
# Elastic Constant Matrix: (Units=GPa)
#
#
# Indices 1 2 3 4 5 6 
#
# 1 113.5304 56.6104 20.1629 0.0000 0.0000 0.0000
# 2 56.6104 140.4791 17.6827 0.0000 0.0000 0.0000
# 3 20.1629 17.6827 33.1191 0.0000 0.0000 0.0000
# 4 0.0000 0.0000 0.0000 2.5519 0.0000 0.0000
# 5 0.0000 0.0000 0.0000 0.0000 5.3984 0.0000
# 6 0.0000 0.0000 0.0000 0.0000 0.0000 26.7302
#
#
#
# Elastic Compliance Matrix: (Units=1/GPa)
#
#
# Indices 1 2 3 4 5 6 
#
# 1 0.011735 -0.004106 -0.004952 0.000000 0.000000 0.000000
# 2 -0.004106 0.009068 -0.002342 0.000000 0.000000 0.000000
# 3 -0.004952 -0.002342 0.034459 0.000000 0.000000 0.000000
# 4 0.000000 0.000000 0.000000 0.391865 0.000000 0.000000
# 5 0.000000 0.000000 0.000000 0.000000 0.185241 0.000000
# 6 0.000000 0.000000 0.000000 0.000000 0.000000 0.037411
#
#
# Mechanical properties :
#
#
# Convention : Reuss Voigt Hill
#
# Bulk Modulus (GPa) = 30.80469 52.89342 41.84906
# Shear Modulus (GPa) = 7.10834 19.78094 13.44464
#
# Velocity S-wave (km/s) = 2.00100 3.33800 2.75193
# Velocity P-wave (km/s) = 4.76344 6.68208 5.80261
#
# Compressibility (1/GPa) = 0.03246259
#
# Stress axis : x y z
#
# Youngs Moduli (GPa) = 85.21583 110.28089 29.01974
#
# Poissons Ratio (x) = 0.45277 0.14371
# Poissons Ratio (y) = 0.34986 0.06796
# Poissons Ratio (z) = 0.42200 0.25827
#
# Static dielectric constant tensor:
#      x y z
#    x 1.591700 0.000000 0.000000 
#    y 0.000000 1.655900 0.000000 
#    z 0.000000 0.000000 1.599110 
# 
# From -- ./inp_files/15608.got.cif
#   From: 2010.05.17/outbox.cif.g08.bks.cpg/sg55_8_cif.got.tgz:15608.got - 2010.06.03 13:27:54.
