data_PCOD9425850
_publ_section_title
;
Structure prediction by ZEFSAII (Michael W. Deem and Ramdas Pophale) SiO2 
 PCOD9425850
Probable space group: P B A M
;
_chemical_formula_sum "Si O2"
_cell_formula_units_Z 48
_cell_length_a 21.977617
_cell_length_b 9.223751
_cell_length_c 12.879150
_cell_angle_alpha 90.000000
_cell_angle_beta 90.000000
_cell_angle_gamma 90.000000
_cell_volume 2610.810631
_symmetry_space_group_name_H-M "P B A M"
_symmetry_group_IT_number 55
_symmetry_cell_setting 'orthorhombic'
loop_
_space_group_symop_operation_xyz
x,y,z
-x,-y,z
1/2+x,1/2-y,-z
1/2-x,1/2+y,-z
-x,-y,-z
x,y,-z
1/2-x,1/2+y,z
1/2+x,1/2-y,z
loop_
_atom_site_type_symbol
_atom_site_label
_atom_site_fract_x
_atom_site_fract_y
_atom_site_fract_z
Si Si1 0.864497 0.631685 0.878501
Si Si2 0.963041 0.143440 0.119365
Si Si3 0.443070 0.085937 0.739757
Si Si4 0.347135 0.546444 0.116151
Si Si5 0.250579 0.422619 0.265290
Si Si6 0.321566 0.162752 0.621792
O O1 0.909723 0.523367 0.820210
O O2 0.882269 0.801230 0.871075
O O3 0.799710 0.622776 0.819943
O O4 0.859701 0.593877 0.000000
O O5 0.968033 0.277887 0.195302
O O6 0.893345 0.087621 0.119393
O O7 0.979780 0.180461 0.000000
O O8 0.000000 0.000000 0.150395
O O9 0.390367 0.139984 0.662562
O O10 0.500000 0.000000 0.691390
O O11 0.297870 0.524174 0.204373
O O12 0.319446 0.552043 0.000000
O O13 0.215017 0.515674 0.351250
O O14 0.287607 0.290109 0.314947
O O15 0.320570 0.193297 0.500000
#
# Coordination Sequence:
#
# PCOD9425850 Si02
#       6
#     8   8   8   8   8   8
#     4  10  21  35  57  88 124 158 192 231 283 357
#     4  10  20  34  56  85 119 158 195 231 282 353
#     4  11  23  39  60  86 119 162 200 247 295 354
#     4  10  19  33  54  84 119 153 188 231 284 352
#     4  11  20  39  59  86 116 151 192 241 303 358
#     4  11  24  41  64  86 111 152 203 260 307 348
#
# _framework density 18.385095
#
# number of rings (size 3 to 8) (size 9 to 14) (size 15 to 20)
#    0.000    1.500    3.333    2.500    0.000    3.000 
#    0.000    0.000    0.000    0.500    0.000    0.000 
#    0.000    0.000    0.000    0.000    0.000    0.000 
#
# Total GULP energy -267972.235348 kJ/mol
# GULP energy per Si atom -5582.754903 kJ/mol
# Density = 1.834325 g / cm^3
# Si number density = 18.385095 Si / 1000 Ang^3
#
#
#
# Elastic Constant Matrix: (Units=GPa)
#
#
# Indices 1 2 3 4 5 6 
#
# 1 90.7300 24.6118 33.0188 0.0000 0.0000 0.0000
# 2 24.6118 63.6528 16.4845 0.0000 0.0000 0.0000
# 3 33.0188 16.4845 75.9131 0.0000 0.0000 0.0000
# 4 0.0000 0.0000 0.0000 16.6515 0.0000 0.0000
# 5 0.0000 0.0000 0.0000 0.0000 12.9415 0.0000
# 6 0.0000 0.0000 0.0000 0.0000 0.0000 36.5697
#
#
#
# Elastic Compliance Matrix: (Units=1/GPa)
#
#
# Indices 1 2 3 4 5 6 
#
# 1 0.014024 -0.004072 -0.005216 0.000000 0.000000 0.000000
# 2 -0.004072 0.017829 -0.002100 0.000000 0.000000 0.000000
# 3 -0.005216 -0.002100 0.015898 0.000000 0.000000 0.000000
# 4 0.000000 0.000000 0.000000 0.060055 0.000000 0.000000
# 5 0.000000 0.000000 0.000000 0.000000 0.077271 0.000000
# 6 0.000000 0.000000 0.000000 0.000000 0.000000 0.027345
#
#
# Mechanical properties :
#
#
# Convention : Reuss Voigt Hill
#
# Bulk Modulus (GPa) = 40.04069 42.05845 41.04957
# Shear Modulus (GPa) = 20.53200 23.64458 22.08829
#
# Velocity S-wave (km/s) = 3.34544 3.59008 3.46992
# Velocity P-wave (km/s) = 6.06208 6.33332 6.19918
#
# Compressibility (1/GPa) = 0.02497460
#
# Stress axis : x y z
#
# Youngs Moduli (GPa) = 71.30426 56.08963 62.90219
#
# Poissons Ratio (x) = 0.22839 0.32808
# Poissons Ratio (y) = 0.29034 0.13212
# Poissons Ratio (z) = 0.37191 0.11781
#
# Static dielectric constant tensor:
#      x y z
#    x 1.667720 0.000000 0.000000 
#    y 0.000000 1.640140 0.000000 
#    z 0.000000 0.000000 1.593000 
# 
# From -- ./inp_files/12220.got.cif
#   From: 2010.05.17/outbox.cif.g08.bks.cpg/sg55_7_cif.got.tgz:12220.got - 2010.06.03 13:27:54.
