data_PCOD9425594
_publ_section_title
;
Structure prediction by ZEFSAII (Michael W. Deem and Ramdas Pophale) SiO2 
 PCOD9425594
Probable space group: P B A M
;
_chemical_formula_sum "Si O2"
_cell_formula_units_Z 64
_cell_length_a 7.655974
_cell_length_b 18.523491
_cell_length_c 19.098462
_cell_angle_alpha 90.000000
_cell_angle_beta 90.000000
_cell_angle_gamma 90.000000
_cell_volume 2708.455369
_symmetry_space_group_name_H-M "P B A M"
_symmetry_group_IT_number 55
_symmetry_cell_setting 'orthorhombic'
loop_
_space_group_symop_operation_xyz
x,y,z
-x,-y,z
1/2+x,1/2-y,-z
1/2-x,1/2+y,-z
-x,-y,-z
x,y,-z
1/2-x,1/2+y,z
1/2+x,1/2-y,z
loop_
_atom_site_type_symbol
_atom_site_label
_atom_site_fract_x
_atom_site_fract_y
_atom_site_fract_z
Si Si1 0.810966 0.463766 0.668603
Si Si2 0.774046 0.703489 0.077703
Si Si3 0.428266 0.081733 0.075847
Si Si4 0.550589 0.856812 0.220051
Si Si5 0.233608 0.655805 0.420337
Si Si6 0.319422 0.813120 0.582825
Si Si7 0.988437 0.802091 0.178834
Si Si8 0.175346 0.891825 0.282035
O O1 0.859330 0.395399 0.715966
O O2 0.715965 0.423099 0.606298
O O3 0.696179 0.523245 0.706613
O O4 0.000000 0.500000 0.650554
O O5 0.609308 0.669841 0.115722
O O6 0.920032 0.642302 0.071998
O O7 0.838967 0.765968 0.129949
O O8 0.732410 0.731027 0.000000
O O9 0.361583 0.104064 0.152491
O O10 0.500000 0.000000 0.080648
O O11 0.332743 0.086086 0.000000
O O12 0.560836 0.770802 0.216977
O O13 0.344422 0.872224 0.232915
O O14 0.289133 0.659728 0.500000
O O15 0.309606 0.730251 0.390393
O O16 0.021633 0.662429 0.416661
O O17 0.261152 0.817853 0.500000
O O18 0.210842 0.857500 0.640990
O O19 0.008622 0.860768 0.240341
#
# Coordination Sequence:
#
# PCOD9425594 Si02
#       8
#     8   8   8   8   8   8   8   8
#     4  10  19  33  53  85 110 143 184 249 273 327
#     4  10  21  35  55  83 110 144 186 230 283 342
#     4   9  16  28  47  73 102 129 169 222 270 313
#     4  10  19  32  50  78 108 138 180 229 278 331
#     4  10  20  36  57  85 113 149 190 236 288 340
#     4  10  21  35  55  83 116 151 191 234 282 339
#     4  11  20  35  54  83 110 147 183 236 287 337
#     4  11  20  33  56  83 112 141 192 235 289 324
#
# _framework density 23.629705999999999
#
# number of rings (size 3 to 8) (size 9 to 14) (size 15 to 20)
#    0.000    1.875    5.000    2.250    0.000    1.250 
#    0.000    0.000    0.000    3.000    0.000    4.375 
#    0.000    0.000    0.000    0.000    0.000    0.000 
#
# Total GULP energy -356652.636467 kJ/mol
# GULP energy per Si atom -5572.697445 kJ/mol
# Density = 2.357592 g / cm^3
# Si number density = 23.629706 Si / 1000 Ang^3
#
#
#
# Elastic Constant Matrix: (Units=GPa)
#
#
# Indices 1 2 3 4 5 6 
#
# 1 28.7530 23.7708 8.1591 0.0000 0.0000 0.0000
# 2 23.7708 70.7874 25.4906 0.0000 0.0000 0.0000
# 3 8.1591 25.4906 98.1142 0.0000 0.0000 0.0000
# 4 0.0000 0.0000 0.0000 21.6194 0.0000 0.0000
# 5 0.0000 0.0000 0.0000 0.0000 11.6752 0.0000
# 6 0.0000 0.0000 0.0000 0.0000 0.0000 25.1099
#
#
#
# Elastic Compliance Matrix: (Units=1/GPa)
#
#
# Indices 1 2 3 4 5 6 
#
# 1 0.048149 -0.016247 0.000217 0.000000 0.000000 0.000000
# 2 -0.016247 0.021067 -0.004122 0.000000 0.000000 0.000000
# 3 0.000217 -0.004122 0.011245 0.000000 0.000000 0.000000
# 4 0.000000 0.000000 0.000000 0.046255 0.000000 0.000000
# 5 0.000000 0.000000 0.000000 0.000000 0.085652 0.000000
# 6 0.000000 0.000000 0.000000 0.000000 0.000000 0.039825
#
#
# Mechanical properties :
#
#
# Convention : Reuss Voigt Hill
#
# Bulk Modulus (GPa) = 24.90230 34.72175 29.81202
# Shear Modulus (GPa) = 16.34614 21.02983 18.68798
#
# Velocity S-wave (km/s) = 2.63299 2.98648 2.81529
# Velocity P-wave (km/s) = 4.45028 5.15927 4.81783
#
# Compressibility (1/GPa) = 0.04015694
#
# Stress axis : x y z
#
# Youngs Moduli (GPa) = 20.76886 47.46758 88.92723
#
# Poissons Ratio (x) = 0.77120 -0.01929
# Poissons Ratio (y) = 0.33743 0.36658
# Poissons Ratio (z) = -0.00451 0.19567
#
# Static dielectric constant tensor:
#      x y z
#    x 2.094990 0.000000 0.000000 
#    y 0.000000 1.844950 0.000000 
#    z 0.000000 0.000000 2.141270 
# 
# From -- ./inp_files/22733.got.cif
#   From: 2010.05.17/outbox.cif.g08.bks.cpg/sg55_12_cif.got.tgz:22733.got - 2010.06.03 13:27:54.
