data_PCOD9425539
_publ_section_title
;
Structure prediction by ZEFSAII (Michael W. Deem and Ramdas Pophale) SiO2 
 PCOD9425539
Probable space group: P B A M
;
_chemical_formula_sum "Si O2"
_cell_formula_units_Z 64
_cell_length_a 13.184604
_cell_length_b 28.762544
_cell_length_c 7.860221
_cell_angle_alpha 90.000000
_cell_angle_beta 90.000000
_cell_angle_gamma 90.000000
_cell_volume 2980.774644
_symmetry_space_group_name_H-M "P B A M"
_symmetry_group_IT_number 55
_symmetry_cell_setting 'orthorhombic'
loop_
_space_group_symop_operation_xyz
x,y,z
-x,-y,z
1/2+x,1/2-y,-z
1/2-x,1/2+y,-z
-x,-y,-z
x,y,-z
1/2-x,1/2+y,z
1/2+x,1/2-y,z
loop_
_atom_site_type_symbol
_atom_site_label
_atom_site_fract_x
_atom_site_fract_y
_atom_site_fract_z
Si Si1 0.324719 0.432310 0.797533
Si Si2 0.747678 0.403372 0.710070
Si Si3 0.437121 0.342572 0.798388
Si Si4 0.227295 0.292335 0.296615
Si Si5 0.888899 0.618468 0.198919
Si Si6 0.160660 0.191599 0.296528
Si Si7 0.403510 0.523756 0.695315
Si Si8 0.551649 0.953331 0.303429
O O1 0.407648 0.394553 0.733632
O O2 0.216637 0.408423 0.775316
O O3 0.325748 0.480971 0.701978
O O4 0.338611 0.440011 0.000000
O O5 0.749584 0.403993 0.500000
O O6 0.732638 0.350421 0.764836
O O7 0.648286 0.431252 0.769546
O O8 0.844763 0.432296 0.771290
O O9 0.337234 0.310972 0.764055
O O10 0.542836 0.321588 0.734422
O O11 0.446004 0.347005 0.000000
O O12 0.233581 0.290830 0.500000
O O13 0.139549 0.329240 0.249816
O O14 0.195684 0.241648 0.229299
O O15 0.973658 0.589599 0.296120
O O16 0.915250 0.617223 0.000000
O O17 0.172281 0.193499 0.500000
O O18 0.500000 0.500000 0.781668
O O19 0.429870 0.534826 0.500000
O O20 0.574526 0.965169 0.500000
O O21 0.500000 0.000000 0.227124
#
# Coordination Sequence:
#
# PCOD9425539 Si02
#       8
#     8   8   8   8   8   8   8   8
#     4   9  19  34  51  74 105 139 174 215 263 318
#     4   9  19  35  53  79 113 144 182 232 281 333
#     4  10  21  37  57  82 113 146 180 225 282 337
#     4  10  21  37  59  85 110 144 193 241 287 342
#     4  10  21  37  56  80 110 143 184 234 286 338
#     4  10  21  38  59  81 109 146 187 233 282 333
#     4  10  19  31  52  79 104 135 175 218 266 320
#     4  10  20  35  57  84 117 157 196 236 286 346
#
# _framework density 21.470928000000001
#
# number of rings (size 3 to 8) (size 9 to 14) (size 15 to 20)
#    0.000    2.250    0.000    3.375    0.000    7.500 
#    0.000    4.375    0.000    0.000    0.000    0.000 
#    0.000    0.000    0.000    0.000    0.000    0.000 
#
# Total GULP energy -357132.327852 kJ/mol
# GULP energy per Si atom -5580.192623 kJ/mol
# Density = 2.142206 g / cm^3
# Si number density = 21.470928 Si / 1000 Ang^3
#
#
#
# Elastic Constant Matrix: (Units=GPa)
#
#
# Indices 1 2 3 4 5 6 
#
# 1 81.9134 35.3360 -3.2141 0.0000 0.0000 0.0000
# 2 35.3360 131.4383 -8.5927 0.0000 0.0000 0.0000
# 3 -3.2141 -8.5927 13.1352 0.0000 0.0000 0.0000
# 4 0.0000 0.0000 0.0000 -7.3123 0.0000 0.0000
# 5 0.0000 0.0000 0.0000 0.0000 6.4112 0.0000
# 6 0.0000 0.0000 0.0000 0.0000 0.0000 28.9896
#
#
#
# Elastic Compliance Matrix: (Units=1/GPa)
#
#
# Indices 1 2 3 4 5 6 
#
# 1 0.013822 -0.003651 0.000994 0.000000 0.000000 0.000000
# 2 -0.003651 0.008912 0.004937 0.000000 0.000000 0.000000
# 3 0.000994 0.004937 0.079604 0.000000 0.000000 0.000000
# 4 0.000000 0.000000 0.000000 -0.136757 0.000000 0.000000
# 5 0.000000 0.000000 0.000000 0.000000 0.155977 0.000000
# 6 0.000000 0.000000 0.000000 0.000000 0.000000 0.034495
#
#
# Mechanical properties :
#
#
# Convention : Reuss Voigt Hill
#
# Bulk Modulus (GPa) = 9.35470 30.39390 19.87430
# Shear Modulus (GPa) = 26.71982 19.14822 22.93402
#
# Velocity S-wave (km/s) = 3.53152 2.98958 3.27179
# Velocity P-wave (km/s) = 4.58206 5.10914 4.85276
#
# Compressibility (1/GPa) = 0.10689817
#
# Stress axis : x y z
#
# Youngs Moduli (GPa) = 72.34865 112.20318 12.56215
#
# Poissons Ratio (x) = 0.40965 -0.01248
# Poissons Ratio (y) = 0.26414 -0.06202
# Poissons Ratio (z) = -0.07190 -0.55394
#
# Static dielectric constant tensor:
#      x y z
#    x 1.824940 0.000000 0.000000 
#    y 0.000000 1.805060 0.000000 
#    z 0.000000 0.000000 1.786400 
# 
# From -- ./inp_files/4560.got.cif
#   From: 2010.05.17/outbox.cif.g08.bks.cpg/sg55_3_cif.got.tgz:4560.got - 2010.06.03 13:27:54.
