data_PCOD9425640
_publ_section_title
;
Structure prediction by ZEFSAII (Michael W. Deem and Ramdas Pophale) SiO2 
 PCOD9425640
Probable space group: P B A M
;
_chemical_formula_sum "Si O2"
_cell_formula_units_Z 56
_cell_length_a 20.059980
_cell_length_b 14.250276
_cell_length_c 7.357224
_cell_angle_alpha 90.000000
_cell_angle_beta 90.000000
_cell_angle_gamma 90.000000
_cell_volume 2103.137903
_symmetry_space_group_name_H-M "P B A M"
_symmetry_group_IT_number 55
_symmetry_cell_setting 'orthorhombic'
loop_
_space_group_symop_operation_xyz
x,y,z
-x,-y,z
1/2+x,1/2-y,-z
1/2-x,1/2+y,-z
-x,-y,-z
x,y,-z
1/2-x,1/2+y,z
1/2+x,1/2-y,z
loop_
_atom_site_type_symbol
_atom_site_label
_atom_site_fract_x
_atom_site_fract_y
_atom_site_fract_z
Si Si1 0.073727 0.603287 0.777809
Si Si2 0.292457 0.213494 0.221864
Si Si3 0.492415 0.728858 0.211487
Si Si4 0.435243 0.448019 0.285552
Si Si5 0.144594 0.428434 0.780365
Si Si6 0.853167 0.794722 0.217895
Si Si7 0.290309 0.430204 0.783255
O O1 0.143079 0.654705 0.728056
O O2 0.015495 0.671719 0.711091
O O3 0.085639 0.496655 0.717911
O O4 0.067912 0.602918 0.000000
O O5 0.219918 0.176133 0.284258
O O6 0.297533 0.322202 0.280582
O O7 0.291158 0.213546 0.000000
O O8 0.554402 0.658403 0.218724
O O9 0.426521 0.677467 0.288390
O O10 0.476965 0.745626 0.000000
O O11 0.500000 0.500000 0.206235
O O12 0.442226 0.445157 0.500000
O O13 0.360222 0.481988 0.249660
O O14 0.142336 0.317920 0.744493
O O15 0.217891 0.463355 0.717908
O O16 0.143173 0.435085 0.000000
O O17 0.850621 0.812318 0.000000
O O18 0.284430 0.427551 0.000000
#
# Coordination Sequence:
#
# PCOD9425640 Si02
#       7
#     8   8   8   8   8   8   8
#     4   9  15  24  43  73 106 134 164 203 250 295
#     4   8  13  24  43  67  99 130 159 205 252 285
#     4  10  19  32  52  77 102 134 173 209 244 300
#     4  11  24  38  51  70 100 135 167 212 269 308
#     4   8  15  26  45  78 110 134 159 202 259 297
#     4   8  15  26  42  70 107 137 163 202 250 296
#     4   9  16  31  53  74  96 126 167 207 246 300
#
# _framework density 26.626881000000001
#
# number of rings (size 3 to 8) (size 9 to 14) (size 15 to 20)
#    0.000    3.000    1.429    2.143    0.000    2.857 
#    0.000    5.714    0.000    4.286    0.000    1.000 
#    0.000    0.000    0.000    0.000    0.000    0.000 
#
# Total GULP energy -312739.284001 kJ/mol
# GULP energy per Si atom -5584.630071 kJ/mol
# Density = 2.656628 g / cm^3
# Si number density = 26.626881 Si / 1000 Ang^3
#
#
#
# Elastic Constant Matrix: (Units=GPa)
#
#
# Indices 1 2 3 4 5 6 
#
# 1 116.7125 1.5331 -0.2841 0.0000 0.0000 0.0000
# 2 1.5331 59.3751 -5.5565 0.0000 0.0000 0.0000
# 3 -0.2841 -5.5565 97.4230 0.0000 0.0000 0.0000
# 4 0.0000 0.0000 0.0000 10.8822 0.0000 0.0000
# 5 0.0000 0.0000 0.0000 0.0000 43.9169 0.0000
# 6 0.0000 0.0000 0.0000 0.0000 0.0000 51.0328
#
#
#
# Elastic Compliance Matrix: (Units=1/GPa)
#
#
# Indices 1 2 3 4 5 6 
#
# 1 0.008571 -0.000220 0.000012 0.000000 0.000000 0.000000
# 2 -0.000220 0.016938 0.000965 0.000000 0.000000 0.000000
# 3 0.000012 0.000965 0.010320 0.000000 0.000000 0.000000
# 4 0.000000 0.000000 0.000000 0.091893 0.000000 0.000000
# 5 0.000000 0.000000 0.000000 0.000000 0.022770 0.000000
# 6 0.000000 0.000000 0.000000 0.000000 0.000000 0.019595
#
#
# Mechanical properties :
#
#
# Convention : Reuss Voigt Hill
#
# Bulk Modulus (GPa) = 26.77798 29.43286 28.10542
# Shear Modulus (GPa) = 27.62124 39.68760 33.65442
#
# Velocity S-wave (km/s) = 3.22428 3.86490 3.55903
# Velocity P-wave (km/s) = 4.89284 5.56726 5.24091
#
# Compressibility (1/GPa) = 0.03734411
#
# Stress axis : x y z
#
# Youngs Moduli (GPa) = 116.67276 59.03851 96.90284
#
# Poissons Ratio (x) = 0.01300 -0.00121
# Poissons Ratio (y) = 0.02569 -0.09355
# Poissons Ratio (z) = -0.00145 -0.05700
#
# Static dielectric constant tensor:
#      x y z
#    x 2.113120 0.000000 0.000000 
#    y 0.000000 2.129550 0.000000 
#    z 0.000000 0.000000 2.024290 
# 
# From -- ./inp_files/8905.got.cif
#   From: 2010.05.17/outbox.cif.g08.bks.cpg/sg55_5_cif.got.tgz:8905.got - 2010.06.03 13:27:54.
