data_PCOD9425816
_publ_section_title
;
Structure prediction by ZEFSAII (Michael W. Deem and Ramdas Pophale) SiO2 
 PCOD9425816
Probable space group: P B A M
;
_chemical_formula_sum "Si O2"
_cell_formula_units_Z 64
_cell_length_a 23.202277
_cell_length_b 16.708221
_cell_length_c 7.480930
_cell_angle_alpha 90.000000
_cell_angle_beta 90.000000
_cell_angle_gamma 90.000000
_cell_volume 2900.122945
_symmetry_space_group_name_H-M "P B A M"
_symmetry_group_IT_number 55
_symmetry_cell_setting 'orthorhombic'
loop_
_space_group_symop_operation_xyz
x,y,z
-x,-y,z
1/2+x,1/2-y,-z
1/2-x,1/2+y,-z
-x,-y,-z
x,y,-z
1/2-x,1/2+y,z
1/2+x,1/2-y,z
loop_
_atom_site_type_symbol
_atom_site_label
_atom_site_fract_x
_atom_site_fract_y
_atom_site_fract_z
Si Si1 0.141919 0.746831 0.284543
Si Si2 0.824706 0.556070 0.296918
Si Si3 0.479764 0.585552 0.702410
Si Si4 0.201561 0.906949 0.717835
Si Si5 0.544656 0.070525 0.718923
Si Si6 0.229650 0.609744 0.792061
Si Si7 0.149644 0.078740 0.205112
Si Si8 0.012270 0.737400 0.718331
O O1 0.141512 0.746422 0.500000
O O2 0.161642 0.834186 0.226352
O O3 0.189500 0.685211 0.223254
O O4 0.078204 0.723662 0.227001
O O5 0.830862 0.585951 0.500000
O O6 0.768146 0.600413 0.219682
O O7 0.889081 0.558337 0.219631
O O8 0.802188 0.464615 0.299075
O O9 0.500000 0.500000 0.783918
O O10 0.504493 0.585134 0.500000
O O11 0.410655 0.585091 0.697417
O O12 0.496256 0.672565 0.780035
O O13 0.202957 0.910902 0.500000
O O14 0.172825 0.988172 0.784302
O O15 0.544391 0.067316 0.500000
O O16 0.524088 0.159544 0.773373
O O17 0.500000 0.000000 0.775297
O O18 0.294333 0.625544 0.723125
O O19 0.236181 0.587227 0.000000
O O20 0.138338 0.101920 0.000000
O O21 0.008560 0.739045 0.500000
#
# Coordination Sequence:
#
# PCOD9425816 Si02
#       8
#     8   8   8   8   8   8   8   8
#     4  10  19  33  54  78 103 132 170 215 263 312
#     4   9  17  31  51  73  96 126 168 213 258 307
#     4  10  20  35  56  80 108 141 176 219 267 314
#     4   9  18  32  52  77 101 128 169 220 265 309
#     4   9  16  27  47  74 101 129 164 210 261 312
#     4  10  21  35  51  74 104 137 173 213 258 310
#     4  10  21  36  53  75 105 141 178 213 258 316
#     4   9  18  31  50  78 106 133 170 215 264 319
#
# _framework density 22.06803
#
# number of rings (size 3 to 8) (size 9 to 14) (size 15 to 20)
#    0.000    2.500    0.000    2.250    0.000    7.250 
#    0.000    3.125    0.000    4.125    0.000    0.000 
#    0.000    0.000    0.000    0.000    0.000    0.000 
#
# Total GULP energy -357017.745385 kJ/mol
# GULP energy per Si atom -5578.402272 kJ/mol
# Density = 2.201780 g / cm^3
# Si number density = 22.068030 Si / 1000 Ang^3
#
#
#
# Elastic Constant Matrix: (Units=GPa)
#
#
# Indices 1 2 3 4 5 6 
#
# 1 86.8350 4.5941 0.5016 0.0000 0.0000 0.0000
# 2 4.5941 65.1065 -2.3904 0.0000 0.0000 0.0000
# 3 0.5016 -2.3904 59.9732 0.0000 0.0000 0.0000
# 4 0.0000 0.0000 0.0000 -0.9544 0.0000 0.0000
# 5 0.0000 0.0000 0.0000 0.0000 10.8752 0.0000
# 6 0.0000 0.0000 0.0000 0.0000 0.0000 32.7598
#
#
#
# Elastic Compliance Matrix: (Units=1/GPa)
#
#
# Indices 1 2 3 4 5 6 
#
# 1 0.011560 -0.000820 -0.000129 0.000000 0.000000 0.000000
# 2 -0.000820 0.015440 0.000622 0.000000 0.000000 0.000000
# 3 -0.000129 0.000622 0.016700 0.000000 0.000000 0.000000
# 4 0.000000 0.000000 0.000000 -1.047822 0.000000 0.000000
# 5 0.000000 0.000000 0.000000 0.000000 0.091953 0.000000
# 6 0.000000 0.000000 0.000000 0.000000 0.000000 0.030525
#
#
# Mechanical properties :
#
#
# Convention : Reuss Voigt Hill
#
# Bulk Modulus (GPa) = 23.23137 24.14727 23.68932
# Shear Modulus (GPa) = -5.76941 22.48342 8.35701
#
# Velocity S-wave (km/s) = -1.61866 3.19536 1.94811
# Velocity P-wave (km/s) = 2.65643 4.95780 3.97721
#
# Compressibility (1/GPa) = 0.04304524
#
# Stress axis : x y z
#
# Youngs Moduli (GPa) = 86.50333 64.76608 59.88027
#
# Poissons Ratio (x) = 0.05314 0.00775
# Poissons Ratio (y) = 0.07097 -0.03726
# Poissons Ratio (z) = 0.01119 -0.04030
#
# Static dielectric constant tensor:
#      x y z
#    x 1.804360 0.000000 0.000000 
#    y 0.000000 1.778940 0.000000 
#    z 0.000000 0.000000 1.951950 
# 
# From -- ./inp_files/8954.got.cif
#   From: 2010.05.17/outbox.cif.g08.bks.cpg/sg55_5_cif.got.tgz:8954.got - 2010.06.03 13:27:54.
