data_PCOD9425423
_publ_section_title
;
Structure prediction by ZEFSAII (Michael W. Deem and Ramdas Pophale) SiO2 
 PCOD9425423
Probable space group: P B A M
;
_chemical_formula_sum "Si O2"
_cell_formula_units_Z 64
_cell_length_a 23.826266
_cell_length_b 19.716414
_cell_length_c 8.778128
_cell_angle_alpha 90.000000
_cell_angle_beta 90.000000
_cell_angle_gamma 90.000000
_cell_volume 4123.688239
_symmetry_space_group_name_H-M "P B A M"
_symmetry_group_IT_number 55
_symmetry_cell_setting 'orthorhombic'
loop_
_space_group_symop_operation_xyz
x,y,z
-x,-y,z
1/2+x,1/2-y,-z
1/2-x,1/2+y,-z
-x,-y,-z
x,y,-z
1/2-x,1/2+y,z
1/2+x,1/2-y,z
loop_
_atom_site_type_symbol
_atom_site_label
_atom_site_fract_x
_atom_site_fract_y
_atom_site_fract_z
Si Si1 0.558652 0.355058 0.316931
Si Si2 0.247721 0.005391 0.817408
Si Si3 0.660015 0.264829 0.683685
Si Si4 0.765953 0.343687 0.816680
Si Si5 0.170229 0.787190 0.816738
Si Si6 0.224101 0.366706 0.682165
Si Si7 0.622396 0.495782 0.317698
Si Si8 0.563405 0.627512 0.817801
O O1 0.551200 0.352700 0.500000
O O2 0.599750 0.293744 0.269702
O O3 0.591419 0.425064 0.281810
O O4 0.498469 0.355180 0.239031
O O5 0.280544 0.940925 0.752543
O O6 0.272387 0.078402 0.769347
O O7 0.183775 0.002069 0.757198
O O8 0.246781 0.001572 0.000000
O O9 0.662936 0.269125 0.500000
O O10 0.708515 0.313297 0.749423
O O11 0.676729 0.188255 0.727541
O O12 0.814498 0.290105 0.774160
O O13 0.761359 0.343016 0.000000
O O14 0.217268 0.834394 0.739740
O O15 0.108946 0.814616 0.776881
O O16 0.176640 0.793554 0.000000
O O17 0.225370 0.371424 0.500000
O O18 0.628531 0.500582 0.500000
O O19 0.585456 0.558099 0.257329
O O20 0.563650 0.619416 0.000000
#
# Coordination Sequence:
#
# PCOD9425423 Si02
#       8
#     8   8   8   8   8   8   8   8
#     4  10  21  35  49  66  94 129 164 200 236 276
#     4  11  20  30  47  72  99 127 157 192 236 286
#     4   9  18  33  49  69  93 122 159 199 237 279
#     4   9  18  31  49  69  93 124 155 192 240 287
#     4   9  18  33  48  67  94 123 156 197 239 278
#     4  10  19  30  49  71  94 124 157 193 238 286
#     4  11  21  33  48  66  94 131 166 197 230 272
#     4  11  22  33  48  69  96 127 163 201 234 278
#
# _framework density 15.520087
#
# number of rings (size 3 to 8) (size 9 to 14) (size 15 to 20)
#    0.000    2.000    2.500    1.875    0.000    4.500 
#    0.000    0.000    0.000    0.000    0.000    0.875 
#    0.000    7.000    0.000    0.000    0.000    0.000 
#
# Total GULP energy -357022.163261 kJ/mol
# GULP energy per Si atom -5578.471301 kJ/mol
# Density = 1.548476 g / cm^3
# Si number density = 15.520087 Si / 1000 Ang^3
#
#
#
# Elastic Constant Matrix: (Units=GPa)
#
#
# Indices 1 2 3 4 5 6 
#
# 1 63.3240 43.2634 23.8736 0.0000 0.0000 0.0000
# 2 43.2634 124.8708 33.7310 0.0000 0.0000 0.0000
# 3 23.8736 33.7310 23.8464 0.0000 0.0000 0.0000
# 4 0.0000 0.0000 0.0000 19.6776 0.0000 0.0000
# 5 0.0000 0.0000 0.0000 0.0000 19.5375 0.0000
# 6 0.0000 0.0000 0.0000 0.0000 0.0000 19.6918
#
#
#
# Elastic Compliance Matrix: (Units=1/GPa)
#
#
# Indices 1 2 3 4 5 6 
#
# 1 0.026140 -0.003216 -0.021620 0.000000 0.000000 0.000000
# 2 -0.003216 0.013356 -0.015672 0.000000 0.000000 0.000000
# 3 -0.021620 -0.015672 0.085749 0.000000 0.000000 0.000000
# 4 0.000000 0.000000 0.000000 0.050819 0.000000 0.000000
# 5 0.000000 0.000000 0.000000 0.000000 0.051184 0.000000
# 6 0.000000 0.000000 0.000000 0.000000 0.000000 0.050782
#
#
# Mechanical properties :
#
#
# Convention : Reuss Voigt Hill
#
# Bulk Modulus (GPa) = 22.61070 45.97524 34.29297
# Shear Modulus (GPa) = 13.37646 19.19294 16.28470
#
# Velocity S-wave (km/s) = 2.93896 3.52042 3.24275
# Velocity P-wave (km/s) = 5.11048 6.79793 6.01369
#
# Compressibility (1/GPa) = 0.04422685
#
# Stress axis : x y z
#
# Youngs Moduli (GPa) = 38.25507 74.87168 11.66200
#
# Poissons Ratio (x) = 0.24082 0.25214
# Poissons Ratio (y) = 0.12305 0.18277
# Poissons Ratio (z) = 0.82709 1.17341
#
# Static dielectric constant tensor:
#      x y z
#    x 1.488790 0.000000 0.000000 
#    y 0.000000 1.538400 0.000000 
#    z 0.000000 0.000000 1.524190 
# 
# From -- ./inp_files/8141.got.cif
#   From: 2010.05.17/outbox.cif.g08.bks.cpg/sg55_5_cif.got.tgz:8141.got - 2010.06.03 13:27:54.
