data_PCOD9425242
_publ_section_title
;
Structure prediction by ZEFSAII (Michael W. Deem and Ramdas Pophale) SiO2 
 PCOD9425242
Probable space group: P B A M
;
_chemical_formula_sum "Si O2"
_cell_formula_units_Z 64
_cell_length_a 31.908791
_cell_length_b 12.235534
_cell_length_c 7.505945
_cell_angle_alpha 90.000000
_cell_angle_beta 90.000000
_cell_angle_gamma 90.000000
_cell_volume 2930.479282
_symmetry_space_group_name_H-M "P B A M"
_symmetry_group_IT_number 55
_symmetry_cell_setting 'orthorhombic'
loop_
_space_group_symop_operation_xyz
x,y,z
-x,-y,z
1/2+x,1/2-y,-z
1/2-x,1/2+y,-z
-x,-y,-z
x,y,-z
1/2-x,1/2+y,z
1/2+x,1/2-y,z
loop_
_atom_site_type_symbol
_atom_site_label
_atom_site_fract_x
_atom_site_fract_y
_atom_site_fract_z
Si Si1 0.044159 0.035115 0.706701
Si Si2 0.048332 0.501713 0.782561
Si Si3 0.212961 0.048786 0.210361
Si Si4 0.871526 0.077295 0.292039
Si Si5 0.075517 0.260924 0.215079
Si Si6 0.379465 0.166191 0.215454
Si Si7 0.330979 0.760904 0.217618
Si Si8 0.306066 0.002352 0.781737
O O1 0.043601 0.999026 0.500000
O O2 0.046113 0.165943 0.715164
O O3 0.087078 0.983597 0.785034
O O4 0.000000 0.000000 0.788930
O O5 0.066866 0.384496 0.728894
O O6 0.078710 0.600542 0.724652
O O7 0.000000 0.500000 0.725009
O O8 0.048322 0.505462 0.000000
O O9 0.173405 0.967157 0.225750
O O10 0.258266 0.014714 0.280660
O O11 0.199694 0.166970 0.282536
O O12 0.219490 0.062723 0.000000
O O13 0.870508 0.051239 0.500000
O O14 0.876727 0.207438 0.269030
O O15 0.122261 0.229787 0.270479
O O16 0.072977 0.259332 0.000000
O O17 0.338635 0.096521 0.273676
O O18 0.379836 0.164575 0.000000
O O19 0.321592 0.883253 0.275155
O O20 0.329942 0.761359 0.000000
O O21 0.306836 0.002718 0.000000
#
# Coordination Sequence:
#
# PCOD9425242 Si02
#       8
#     8   8   8   8   8   8   8   8
#     4  10  23  41  57  75 106 147 185 223 272 324
#     4   9  18  32  53  85 118 144 173 221 281 328
#     4  10  20  34  58  85 108 140 183 225 268 323
#     4  11  24  40  55  76 112 149 181 226 277 323
#     4  10  18  33  58  83 109 138 177 228 273 316
#     4  10  20  36  58  83 113 148 184 222 269 328
#     4   9  16  30  52  81 111 136 172 225 270 310
#     4   9  18  32  55  86 113 140 178 224 270 316
#
# _framework density 21.839431000000001
#
# number of rings (size 3 to 8) (size 9 to 14) (size 15 to 20)
#    0.000    2.250    2.500    0.375    3.500    0.750 
#    0.000    1.250    0.000    2.250    0.000    0.000 
#    0.000    0.000    0.000    0.000    0.000    0.000 
#
# Total GULP energy -357270.274697 kJ/mol
# GULP energy per Si atom -5582.348042 kJ/mol
# Density = 2.178972 g / cm^3
# Si number density = 21.839431 Si / 1000 Ang^3
#
#
#
# Elastic Constant Matrix: (Units=GPa)
#
#
# Indices 1 2 3 4 5 6 
#
# 1 113.6047 24.7430 2.4855 0.0000 0.0000 0.0000
# 2 24.7430 106.5157 -11.4505 0.0000 0.0000 0.0000
# 3 2.4855 -11.4505 54.8687 0.0000 0.0000 0.0000
# 4 0.0000 0.0000 0.0000 72.7255 0.0000 0.0000
# 5 0.0000 0.0000 0.0000 0.0000 9.8475 0.0000
# 6 0.0000 0.0000 0.0000 0.0000 0.0000 38.4384
#
#
#
# Elastic Compliance Matrix: (Units=1/GPa)
#
#
# Indices 1 2 3 4 5 6 
#
# 1 0.009314 -0.002260 -0.000893 0.000000 0.000000 0.000000
# 2 -0.002260 0.010152 0.002221 0.000000 0.000000 0.000000
# 3 -0.000893 0.002221 0.018729 0.000000 0.000000 0.000000
# 4 0.000000 0.000000 0.000000 0.013750 0.000000 0.000000
# 5 0.000000 0.000000 0.000000 0.000000 0.101548 0.000000
# 6 0.000000 0.000000 0.000000 0.000000 0.000000 0.026016
#
#
# Mechanical properties :
#
#
# Convention : Reuss Voigt Hill
#
# Bulk Modulus (GPa) = 27.52471 34.06056 30.79264
# Shear Modulus (GPa) = 25.84188 41.48303 33.66246
#
# Velocity S-wave (km/s) = 3.44360 4.36300 3.93028
# Velocity P-wave (km/s) = 5.33308 6.40397 5.89290
#
# Compressibility (1/GPa) = 0.03633099
#
# Stress axis : x y z
#
# Youngs Moduli (GPa) = 107.36348 98.50323 53.39231
#
# Poissons Ratio (x) = 0.22259 0.04771
# Poissons Ratio (y) = 0.24261 -0.11858
# Poissons Ratio (z) = 0.09593 -0.21877
#
# Static dielectric constant tensor:
#      x y z
#    x 1.819640 0.000000 0.000000 
#    y 0.000000 1.751680 0.000000 
#    z 0.000000 0.000000 1.858560 
# 
# From -- ./inp_files/10727.got.cif
#   From: 2010.05.17/outbox.cif.g08.bks.cpg/sg55_6_cif.got.tgz:10727.got - 2010.06.03 13:27:54.
