data_PCOD9425774
_publ_section_title
;
Structure prediction by ZEFSAII (Michael W. Deem and Ramdas Pophale) SiO2 
 PCOD9425774
Probable space group: P B A M
;
_chemical_formula_sum "Si O2"
_cell_formula_units_Z 64
_cell_length_a 23.505958
_cell_length_b 19.552423
_cell_length_c 8.812011
_cell_angle_alpha 90.000000
_cell_angle_beta 90.000000
_cell_angle_gamma 90.000000
_cell_volume 4049.986455
_symmetry_space_group_name_H-M "P B A M"
_symmetry_group_IT_number 55
_symmetry_cell_setting 'orthorhombic'
loop_
_space_group_symop_operation_xyz
x,y,z
-x,-y,z
1/2+x,1/2-y,-z
1/2-x,1/2+y,-z
-x,-y,-z
x,y,-z
1/2-x,1/2+y,z
1/2+x,1/2-y,z
loop_
_atom_site_type_symbol
_atom_site_label
_atom_site_fract_x
_atom_site_fract_y
_atom_site_fract_z
Si Si1 0.374954 0.996266 0.181279
Si Si2 0.271564 0.642768 0.180898
Si Si3 0.266354 0.349321 0.681301
Si Si4 0.063765 0.363683 0.680308
Si Si5 0.560676 0.861028 0.180568
Si Si6 0.751377 0.997262 0.681078
Si Si7 0.662721 0.781233 0.680961
Si Si8 0.841945 0.725309 0.180238
O O1 0.408577 0.930811 0.243051
O O2 0.313631 0.001192 0.260038
O O3 0.410653 0.065069 0.211902
O O4 0.367175 0.990369 0.000000
O O5 0.281678 0.566854 0.241047
O O6 0.214296 0.671295 0.259383
O O7 0.320875 0.697775 0.214550
O O8 0.262383 0.642094 0.000000
O O9 0.254459 0.344723 0.500000
O O10 0.277235 0.428320 0.717442
O O11 0.316840 0.296129 0.714459
O O12 0.210559 0.322839 0.768386
O O13 0.066074 0.371029 0.500000
O O14 0.102586 0.300302 0.733309
O O15 0.999494 0.356047 0.736896
O O16 0.605366 0.804890 0.238728
O O17 0.552641 0.855510 0.000000
O O18 0.751511 0.988263 0.500000
O O19 0.657410 0.789294 0.500000
O O20 0.850286 0.718712 0.000000
#
# Coordination Sequence:
#
# PCOD9425774 Si02
#       8
#     8   8   8   8   8   8   8   8
#     4  11  22  35  50  71 103 139 175 212 246 293
#     4  10  20  33  50  74 102 133 169 209 254 304
#     4   9  19  33  50  74 102 131 166 208 254 302
#     4  12  24  36  52  73 100 134 176 215 253 300
#     4  11  23  37  52  71 100 136 176 212 250 299
#     4  11  20  31  51  77 105 138 171 207 251 302
#     4  10  19  33  52  73  99 131 169 212 253 296
#     4  10  20  34  52  72  98 133 171 211 255 299
#
# _framework density 15.802521
#
# number of rings (size 3 to 8) (size 9 to 14) (size 15 to 20)
#    0.000    1.500    2.500    3.750    0.000    5.500 
#    0.000    0.000    0.000    0.000    0.000    0.875 
#    0.000    7.000    0.000    0.000    0.000    0.000 
#
# Total GULP energy -357458.824560 kJ/mol
# GULP energy per Si atom -5585.294134 kJ/mol
# Density = 1.576655 g / cm^3
# Si number density = 15.802521 Si / 1000 Ang^3
#
#
#
# Elastic Constant Matrix: (Units=GPa)
#
#
# Indices 1 2 3 4 5 6 
#
# 1 53.8713 34.9493 20.3985 0.0000 0.0000 0.0000
# 2 34.9493 116.0198 35.5970 0.0000 0.0000 0.0000
# 3 20.3985 35.5970 40.9401 0.0000 0.0000 0.0000
# 4 0.0000 0.0000 0.0000 24.7881 0.0000 0.0000
# 5 0.0000 0.0000 0.0000 0.0000 24.9083 0.0000
# 6 0.0000 0.0000 0.0000 0.0000 0.0000 16.5225
#
#
#
# Elastic Compliance Matrix: (Units=1/GPa)
#
#
# Indices 1 2 3 4 5 6 
#
# 1 0.024860 -0.005030 -0.008013 0.000000 0.000000 0.000000
# 2 -0.005030 0.012773 -0.008600 0.000000 0.000000 0.000000
# 3 -0.008013 -0.008600 0.035896 0.000000 0.000000 0.000000
# 4 0.000000 0.000000 0.000000 0.040342 0.000000 0.000000
# 5 0.000000 0.000000 0.000000 0.000000 0.040147 0.000000
# 6 0.000000 0.000000 0.000000 0.000000 0.000000 0.060524
#
#
# Mechanical properties :
#
#
# Convention : Reuss Voigt Hill
#
# Bulk Modulus (GPa) = 33.06520 43.63564 38.35042
# Shear Modulus (GPa) = 18.66309 21.23623 19.94966
#
# Velocity S-wave (km/s) = 3.44033 3.66983 3.55693
# Velocity P-wave (km/s) = 6.06222 6.75499 6.41796
#
# Compressibility (1/GPa) = 0.03024328
#
# Stress axis : x y z
#
# Youngs Moduli (GPa) = 40.22476 78.28981 27.85854
#
# Poissons Ratio (x) = 0.39382 0.22323
# Poissons Ratio (y) = 0.20234 0.23957
# Poissons Ratio (z) = 0.32232 0.67327
#
# Static dielectric constant tensor:
#      x y z
#    x 1.493630 0.000000 0.000000 
#    y 0.000000 1.544070 0.000000 
#    z 0.000000 0.000000 1.526260 
# 
# From -- ./inp_files/7967.got.cif
#   From: 2010.05.17/outbox.cif.g08.bks.cpg/sg55_4_cif.got.tgz:7967.got - 2010.06.03 13:27:54.
