data_PCOD9425705
_publ_section_title
;
Structure prediction by ZEFSAII (Michael W. Deem and Ramdas Pophale) SiO2 
 PCOD9425705
Probable space group: P B A M
;
_chemical_formula_sum "Si O2"
_cell_formula_units_Z 64
_cell_length_a 20.895580
_cell_length_b 19.736182
_cell_length_c 8.928504
_cell_angle_alpha 90.000000
_cell_angle_beta 90.000000
_cell_angle_gamma 90.000000
_cell_volume 3682.105852
_symmetry_space_group_name_H-M "P B A M"
_symmetry_group_IT_number 55
_symmetry_cell_setting 'orthorhombic'
loop_
_space_group_symop_operation_xyz
x,y,z
-x,-y,z
1/2+x,1/2-y,-z
1/2-x,1/2+y,-z
-x,-y,-z
x,y,-z
1/2-x,1/2+y,z
1/2+x,1/2-y,z
loop_
_atom_site_type_symbol
_atom_site_label
_atom_site_fract_x
_atom_site_fract_y
_atom_site_fract_z
Si Si1 0.109729 0.826299 0.678302
Si Si2 0.388943 0.182244 0.179767
Si Si3 0.933121 0.036162 0.179273
Si Si4 0.185675 0.462665 0.679630
Si Si5 0.261136 0.819210 0.320998
Si Si6 0.435202 0.036978 0.819225
Si Si7 0.237938 0.176535 0.821907
Si Si8 0.815149 0.955717 0.320889
O O1 0.101013 0.828508 0.500000
O O2 0.092205 0.752283 0.741504
O O3 0.073019 0.888339 0.754291
O O4 0.186056 0.834812 0.709124
O O5 0.428532 0.115823 0.226078
O O6 0.313814 0.168051 0.214333
O O7 0.393643 0.190887 0.000000
O O8 0.875286 0.992000 0.246002
O O9 0.927522 0.039423 0.000000
O O10 0.000000 0.000000 0.217427
O O11 0.177692 0.466492 0.500000
O O12 0.197250 0.384404 0.720375
O O13 0.125776 0.496761 0.758327
O O14 0.250757 0.502603 0.717171
O O15 0.266316 0.807805 0.500000
O O16 0.279141 0.751591 0.233414
O O17 0.500000 0.000000 0.769535
O O18 0.433308 0.036027 0.000000
O O19 0.197124 0.119636 0.738950
O O20 0.230666 0.169998 0.000000
O O21 0.822627 0.956517 0.500000
#
# Coordination Sequence:
#
# PCOD9425705 Si02
#       8
#     8   8   8   8   8   8   8   8
#     4  10  19  34  57  83 110 144 186 231 280 335
#     4   9  18  33  53  80 111 146 189 232 276 332
#     4  11  24  40  58  83 115 150 187 231 281 336
#     4  10  20  35  56  82 111 142 182 228 278 328
#     4   9  18  34  53  80 113 145 184 232 280 332
#     4  10  21  37  56  81 114 151 189 229 277 329
#     4  10  19  32  53  84 113 145 186 232 283 332
#     4  11  21  36  58  84 112 146 184 229 281 332
#
# _framework density 17.381357000000001
#
# number of rings (size 3 to 8) (size 9 to 14) (size 15 to 20)
#    0.000    2.000    2.500    1.500    0.000    3.750 
#    0.000    1.250    0.000    4.500    0.000    0.000 
#    0.000    0.000    0.000    0.000    0.000    0.000 
#
# Total GULP energy -357271.276631 kJ/mol
# GULP energy per Si atom -5582.363697 kJ/mol
# Density = 1.734180 g / cm^3
# Si number density = 17.381357 Si / 1000 Ang^3
#
#
#
# Elastic Constant Matrix: (Units=GPa)
#
#
# Indices 1 2 3 4 5 6 
#
# 1 105.6458 84.6963 49.1264 0.0000 0.0000 0.0000
# 2 84.6963 171.0891 55.4436 0.0000 0.0000 0.0000
# 3 49.1264 55.4436 38.1452 0.0000 0.0000 0.0000
# 4 0.0000 0.0000 0.0000 16.2998 0.0000 0.0000
# 5 0.0000 0.0000 0.0000 0.0000 21.7353 0.0000
# 6 0.0000 0.0000 0.0000 0.0000 0.0000 25.2797
#
#
#
# Elastic Compliance Matrix: (Units=1/GPa)
#
#
# Indices 1 2 3 4 5 6 
#
# 1 0.024737 -0.003633 -0.026578 0.000000 0.000000 0.000000
# 2 -0.003633 0.011583 -0.012157 0.000000 0.000000 0.000000
# 3 -0.026578 -0.012157 0.078115 0.000000 0.000000 0.000000
# 4 0.000000 0.000000 0.000000 0.061351 0.000000 0.000000
# 5 0.000000 0.000000 0.000000 0.000000 0.046008 0.000000
# 6 0.000000 0.000000 0.000000 0.000000 0.000000 0.039557
#
#
# Mechanical properties :
#
#
# Convention : Reuss Voigt Hill
#
# Bulk Modulus (GPa) = 33.67102 77.04586 55.35844
# Shear Modulus (GPa) = 14.04549 21.03721 17.54135
#
# Velocity S-wave (km/s) = 2.84575 3.48276 3.18024
# Velocity P-wave (km/s) = 5.49652 7.78433 6.73823
#
# Compressibility (1/GPa) = 0.02969913
#
# Stress axis : x y z
#
# Youngs Moduli (GPa) = 40.42484 86.33372 12.80171
#
# Poissons Ratio (x) = 0.31365 0.34024
# Poissons Ratio (y) = 0.14687 0.15563
# Poissons Ratio (z) = 1.07441 1.04954
#
# Static dielectric constant tensor:
#      x y z
#    x 1.564830 0.000000 0.000000 
#    y 0.000000 1.586650 0.000000 
#    z 0.000000 0.000000 1.578320 
# 
# From -- ./inp_files/8948.got.cif
#   From: 2010.05.17/outbox.cif.g08.bks.cpg/sg55_5_cif.got.tgz:8948.got - 2010.06.03 13:27:54.
