data_PCOD9425238
_publ_section_title
;
Structure prediction by ZEFSAII (Michael W. Deem and Ramdas Pophale) SiO2 
 PCOD9425238
Probable space group: P B A M
;
_chemical_formula_sum "Si O2"
_cell_formula_units_Z 48
_cell_length_a 13.908965
_cell_length_b 18.652100
_cell_length_c 8.770877
_cell_angle_alpha 90.000000
_cell_angle_beta 90.000000
_cell_angle_gamma 90.000000
_cell_volume 2275.440953
_symmetry_space_group_name_H-M "P B A M"
_symmetry_group_IT_number 55
_symmetry_cell_setting 'orthorhombic'
loop_
_space_group_symop_operation_xyz
x,y,z
-x,-y,z
1/2+x,1/2-y,-z
1/2-x,1/2+y,-z
-x,-y,-z
x,y,-z
1/2-x,1/2+y,z
1/2+x,1/2-y,z
loop_
_atom_site_type_symbol
_atom_site_label
_atom_site_fract_x
_atom_site_fract_y
_atom_site_fract_z
Si Si1 0.758122 0.613081 0.176040
Si Si2 0.418227 0.774523 0.817599
Si Si3 0.889054 0.011239 0.316454
Si Si4 0.178779 0.145227 0.684340
Si Si5 0.387512 0.166619 0.675567
Si Si6 0.608543 0.973769 0.165833
O O1 0.829143 0.675004 0.238305
O O2 0.662189 0.583489 0.256850
O O3 0.825572 0.542774 0.179282
O O4 0.735083 0.630515 0.000000
O O5 0.403260 0.695466 0.751584
O O6 0.521091 0.804645 0.765446
O O7 0.414665 0.775022 0.000000
O O8 0.886166 0.013914 0.500000
O O9 0.834360 0.937653 0.267570
O O10 0.000000 0.000000 0.269736
O O11 0.176434 0.146242 0.500000
O O12 0.279749 0.181649 0.733394
O O13 0.396230 0.188211 0.500000
O O14 0.386109 0.080769 0.695623
O O15 0.500000 0.000000 0.159617
O O16 0.630020 0.938195 0.000000
#
# Coordination Sequence:
#
# PCOD9425238 Si02
#       6
#     8   8   8   8   8   8
#     4  10  21  37  59  88 120 152 196 250 298 356
#     4  11  24  41  61  90 125 162 204 251 309 368
#     4  10  22  41  64  88 119 160 206 255 306 363
#     4  10  23  42  60  87 122 159 205 252 305 364
#     4  11  22  37  60  88 119 154 197 248 303 367
#     4  10  18  33  57  86 120 150 186 240 296 351
#
# _framework density 21.094812999999998
#
# number of rings (size 3 to 8) (size 9 to 14) (size 15 to 20)
#    0.000    1.667    3.333    1.000    0.000    5.333 
#    0.000    5.000    0.000    0.000    0.000    0.000 
#    0.000    0.000    0.000    0.000    0.000    0.000 
#
# Total GULP energy -267711.875904 kJ/mol
# GULP energy per Si atom -5577.330748 kJ/mol
# Density = 2.104680 g / cm^3
# Si number density = 21.094813 Si / 1000 Ang^3
#
#
#
# Elastic Constant Matrix: (Units=GPa)
#
#
# Indices 1 2 3 4 5 6 
#
# 1 98.4765 12.5026 17.9606 0.0000 0.0000 0.0000
# 2 12.5026 49.6901 8.2710 0.0000 0.0000 0.0000
# 3 17.9606 8.2710 11.5761 0.0000 0.0000 0.0000
# 4 0.0000 0.0000 0.0000 29.1379 0.0000 0.0000
# 5 0.0000 0.0000 0.0000 0.0000 -15.9438 0.0000
# 6 0.0000 0.0000 0.0000 0.0000 0.0000 29.6994
#
#
#
# Elastic Compliance Matrix: (Units=1/GPa)
#
#
# Indices 1 2 3 4 5 6 
#
# 1 0.014163 0.000107 -0.022050 0.000000 0.000000 0.000000
# 2 0.000107 0.022842 -0.016486 0.000000 0.000000 0.000000
# 3 -0.022050 -0.016486 0.132375 0.000000 0.000000 0.000000
# 4 0.000000 0.000000 0.000000 0.034320 0.000000 0.000000
# 5 0.000000 0.000000 0.000000 0.000000 -0.062720 0.000000
# 6 0.000000 0.000000 0.000000 0.000000 0.000000 0.033671
#
#
# Mechanical properties :
#
#
# Convention : Reuss Voigt Hill
#
# Bulk Modulus (GPa) = 10.80835 26.35680 18.58257
# Shear Modulus (GPa) = 17.70863 16.64595 17.17729
#
# Velocity S-wave (km/s) = 2.90052 2.81214 2.85667
# Velocity P-wave (km/s) = 4.04378 4.80268 4.43948
#
# Compressibility (1/GPa) = 0.09252109
#
# Stress axis : x y z
#
# Youngs Moduli (GPa) = 70.60783 43.77906 7.55431
#
# Poissons Ratio (x) = -0.00467 0.16657
# Poissons Ratio (y) = -0.00754 0.12454
# Poissons Ratio (z) = 1.55691 0.72174
#
# Static dielectric constant tensor:
#      x y z
#    x 1.803870 0.000000 0.000000 
#    y 0.000000 1.760450 0.000000 
#    z 0.000000 0.000000 1.765780 
# 
# From -- ./inp_files/5662.got.cif
#   From: 2010.05.17/outbox.cif.g08.bks.cpg/sg55_3_cif.got.tgz:5662.got - 2010.06.03 13:27:54.
