data_PCOD9425150
_publ_section_title
;
Structure prediction by ZEFSAII (Michael W. Deem and Ramdas Pophale) SiO2 
 PCOD9425150
Probable space group: P B A M
;
_chemical_formula_sum "Si O2"
_cell_formula_units_Z 56
_cell_length_a 17.028439
_cell_length_b 19.343094
_cell_length_c 7.446259
_cell_angle_alpha 90.000000
_cell_angle_beta 90.000000
_cell_angle_gamma 90.000000
_cell_volume 2452.668866
_symmetry_space_group_name_H-M "P B A M"
_symmetry_group_IT_number 55
_symmetry_cell_setting 'orthorhombic'
loop_
_space_group_symop_operation_xyz
x,y,z
-x,-y,z
1/2+x,1/2-y,-z
1/2-x,1/2+y,-z
-x,-y,-z
x,y,-z
1/2-x,1/2+y,z
1/2+x,1/2-y,z
loop_
_atom_site_type_symbol
_atom_site_label
_atom_site_fract_x
_atom_site_fract_y
_atom_site_fract_z
Si Si1 0.896603 0.208686 0.784027
Si Si2 0.672298 0.853664 0.290848
Si Si3 0.075193 0.202674 0.778764
Si Si4 0.990644 0.420318 0.282577
Si Si5 0.202332 0.922274 0.219764
Si Si6 0.148310 0.339785 0.792970
Si Si7 0.668188 0.425314 0.204729
O O1 0.841605 0.271875 0.726002
O O2 0.862110 0.134754 0.730235
O O3 0.986130 0.218057 0.722316
O O4 0.897379 0.210217 0.000000
O O5 0.679760 0.871497 0.500000
O O6 0.592284 0.889159 0.221318
O O7 0.749741 0.883766 0.201631
O O8 0.132922 0.263746 0.715651
O O9 0.105553 0.128246 0.716372
O O10 0.076307 0.203314 0.000000
O O11 0.992372 0.416207 0.500000
O O12 0.064408 0.377236 0.213660
O O13 0.000000 0.500000 0.230355
O O14 0.285330 0.890326 0.282980
O O15 0.183402 0.999220 0.285274
O O16 0.205747 0.926627 0.000000
O O17 0.171669 0.328358 0.000000
O O18 0.641756 0.437525 0.000000
#
# Coordination Sequence:
#
# PCOD9425150 Si02
#       7
#     8   8   8   8   8   8   8
#     4  10  19  36  59  81 108 145 183 227 276 323
#     4  11  22  36  54  80 110 143 186 227 271 333
#     4   9  18  32  55  82 108 141 182 224 269 321
#     4  10  21  35  51  74 106 140 173 217 269 320
#     4   9  19  33  55  84 112 141 181 229 275 325
#     4  10  18  32  51  77 106 136 178 220 263 321
#     4  10  20  36  56  81 112 146 181 226 277 325
#
# _framework density 22.832272
#
# number of rings (size 3 to 8) (size 9 to 14) (size 15 to 20)
#    0.000    2.143    1.429    2.143    0.000    3.714 
#    0.000    7.143    0.000    0.000    0.000    2.000 
#    0.000    0.000    0.000    0.000    0.000    0.000 
#
# Total GULP energy -313006.141989 kJ/mol
# GULP energy per Si atom -5589.395393 kJ/mol
# Density = 2.278030 g / cm^3
# Si number density = 22.832272 Si / 1000 Ang^3
#
#
#
# Elastic Constant Matrix: (Units=GPa)
#
#
# Indices 1 2 3 4 5 6 
#
# 1 34.6575 20.4031 -8.2754 0.0000 0.0000 0.0000
# 2 20.4031 158.9081 -6.3765 0.0000 0.0000 0.0000
# 3 -8.2754 -6.3765 70.4706 0.0000 0.0000 0.0000
# 4 0.0000 0.0000 0.0000 -27.8269 0.0000 0.0000
# 5 0.0000 0.0000 0.0000 0.0000 -31.1043 0.0000
# 6 0.0000 0.0000 0.0000 0.0000 0.0000 28.5534
#
#
#
# Elastic Compliance Matrix: (Units=1/GPa)
#
#
# Indices 1 2 3 4 5 6 
#
# 1 0.032004 -0.003973 0.003399 0.000000 0.000000 0.000000
# 2 -0.003973 0.006809 0.000150 0.000000 0.000000 0.000000
# 3 0.003399 0.000150 0.014603 0.000000 0.000000 0.000000
# 4 0.000000 0.000000 0.000000 -0.035936 0.000000 0.000000
# 5 0.000000 0.000000 0.000000 0.000000 -0.032150 0.000000
# 6 0.000000 0.000000 0.000000 0.000000 0.000000 0.035022
#
#
# Mechanical properties :
#
#
# Convention : Reuss Voigt Hill
#
# Bulk Modulus (GPa) = 19.02322 30.61540 24.81931
# Shear Modulus (GPa) = 129.12170 11.14345 70.13258
#
# Velocity S-wave (km/s) = 7.52828 2.21160 5.54825
# Velocity P-wave (km/s) = 9.16060 4.46760 7.20680
#
# Compressibility (1/GPa) = 0.05256733
#
# Stress axis : x y z
#
# Youngs Moduli (GPa) = 31.24593 146.86360 68.47920
#
# Poissons Ratio (x) = 0.58346 -0.23275
# Poissons Ratio (y) = 0.12413 -0.01024
# Poissons Ratio (z) = -0.10620 -0.02197
#
# Static dielectric constant tensor:
#      x y z
#    x 1.805990 0.000000 0.000000 
#    y 0.000000 1.832680 0.000000 
#    z 0.000000 0.000000 1.901590 
# 
# From -- ./inp_files/6069.got.cif
#   From: 2010.05.17/outbox.cif.g08.bks.cpg/sg55_4_cif.got.tgz:6069.got - 2010.06.03 13:27:54.
