data_PCOD9425066
_publ_section_title
;
Structure prediction by ZEFSAII (Michael W. Deem and Ramdas Pophale) SiO2 
 PCOD9425066
Probable space group: P B A M
;
_chemical_formula_sum "Si O2"
_cell_formula_units_Z 48
_cell_length_a 14.177733
_cell_length_b 18.968870
_cell_length_c 7.273965
_cell_angle_alpha 90.000000
_cell_angle_beta 90.000000
_cell_angle_gamma 90.000000
_cell_volume 1956.227954
_symmetry_space_group_name_H-M "P B A M"
_symmetry_group_IT_number 55
_symmetry_cell_setting 'orthorhombic'
loop_
_space_group_symop_operation_xyz
x,y,z
-x,-y,z
1/2+x,1/2-y,-z
1/2-x,1/2+y,-z
-x,-y,-z
x,y,-z
1/2-x,1/2+y,z
1/2+x,1/2-y,z
loop_
_atom_site_type_symbol
_atom_site_label
_atom_site_fract_x
_atom_site_fract_y
_atom_site_fract_z
Si Si1 0.320537 0.355041 0.776541
Si Si2 0.109535 0.007795 0.775534
Si Si3 0.760486 0.386264 0.793430
Si Si4 0.891008 0.515945 0.718616
Si Si5 0.920489 0.280163 0.224048
Si Si6 0.876317 0.675748 0.795209
O O1 0.338285 0.435201 0.716610
O O2 0.404271 0.301460 0.731905
O O3 0.226313 0.314793 0.708961
O O4 0.313994 0.357090 0.000000
O O5 0.164706 0.078699 0.713661
O O6 0.112646 0.009525 0.000000
O O7 0.000000 0.000000 0.723308
O O8 0.827111 0.455107 0.799514
O O9 0.832122 0.328165 0.711720
O O10 0.736984 0.361728 0.000000
O O11 0.873906 0.519347 0.500000
O O12 0.874367 0.591342 0.804451
O O13 0.000000 0.500000 0.748420
O O14 0.023517 0.304275 0.289823
O O15 0.920798 0.288679 0.000000
O O16 0.875115 0.707475 0.000000
#
# Coordination Sequence:
#
# PCOD9425066 Si02
#       6
#     8   8   8   8   8   8
#     4   9  17  29  45  72 104 132 164 204 252 297
#     4   9  17  28  46  72 102 134 166 206 250 295
#     4  10  18  31  51  75 101 132 169 204 248 307
#     4  11  21  31  49  77 103 126 163 214 261 300
#     4   9  18  28  45  74 102 128 163 206 250 297
#     4  10  18  31  52  73  99 134 167 203 251 308
#
# _framework density 24.537018
#
# number of rings (size 3 to 8) (size 9 to 14) (size 15 to 20)
#    0.000    2.333    3.333    0.500    0.000    2.000 
#    0.000    6.667    0.000    2.500    0.000    0.000 
#    0.000    0.000    0.000    0.000    0.000    0.000 
#
# Total GULP energy -267864.174749 kJ/mol
# GULP energy per Si atom -5580.503641 kJ/mol
# Density = 2.448117 g / cm^3
# Si number density = 24.537018 Si / 1000 Ang^3
#
#
#
# Elastic Constant Matrix: (Units=GPa)
#
#
# Indices 1 2 3 4 5 6 
#
# 1 148.1965 27.0615 10.4250 0.0000 0.0000 0.0000
# 2 27.0615 72.0466 -6.3830 0.0000 0.0000 0.0000
# 3 10.4250 -6.3830 93.9601 0.0000 0.0000 0.0000
# 4 0.0000 0.0000 0.0000 -141.2026 0.0000 0.0000
# 5 0.0000 0.0000 0.0000 0.0000 -29.9459 0.0000
# 6 0.0000 0.0000 0.0000 0.0000 0.0000 41.4996
#
#
#
# Elastic Compliance Matrix: (Units=1/GPa)
#
#
# Indices 1 2 3 4 5 6 
#
# 1 0.007338 -0.002846 -0.001008 0.000000 0.000000 0.000000
# 2 -0.002846 0.015067 0.001339 0.000000 0.000000 0.000000
# 3 -0.001008 0.001339 0.010846 0.000000 0.000000 0.000000
# 4 0.000000 0.000000 0.000000 -0.007082 0.000000 0.000000
# 5 0.000000 0.000000 0.000000 0.000000 -0.033394 0.000000
# 6 0.000000 0.000000 0.000000 0.000000 0.000000 0.024097
#
#
# Mechanical properties :
#
#
# Convention : Reuss Voigt Hill
#
# Bulk Modulus (GPa) = 35.43129 41.82338 38.62734
# Shear Modulus (GPa) = 159.70460 -7.05646 76.32407
#
# Velocity S-wave (km/s) = 8.07642 -1.69767 5.58330
# Velocity P-wave (km/s) = 10.07187 3.63858 7.57238
#
# Compressibility (1/GPa) = 0.02822364
#
# Stress axis : x y z
#
# Youngs Moduli (GPa) = 136.27139 66.36842 92.20348
#
# Poissons Ratio (x) = 0.18886 0.09290
# Poissons Ratio (y) = 0.38778 -0.12349
# Poissons Ratio (z) = 0.13729 -0.08889
#
# Static dielectric constant tensor:
#      x y z
#    x 2.282750 0.000000 0.000000 
#    y 0.000000 1.898710 0.000000 
#    z 0.000000 0.000000 1.938970 
# 
# From -- ./inp_files/5806.got.cif
#   From: 2010.05.17/outbox.cif.g08.bks.cpg/sg55_3_cif.got.tgz:5806.got - 2010.06.03 13:27:54.
