data_PCOD9425831
_publ_section_title
;
Structure prediction by ZEFSAII (Michael W. Deem and Ramdas Pophale) SiO2 
 PCOD9425831
Probable space group: P B A M
;
_chemical_formula_sum "Si O2"
_cell_formula_units_Z 64
_cell_length_a 25.289666
_cell_length_b 15.351062
_cell_length_c 7.703963
_cell_angle_alpha 90.000000
_cell_angle_beta 90.000000
_cell_angle_gamma 90.000000
_cell_volume 2990.857405
_symmetry_space_group_name_H-M "P B A M"
_symmetry_group_IT_number 55
_symmetry_cell_setting 'orthorhombic'
loop_
_space_group_symop_operation_xyz
x,y,z
-x,-y,z
1/2+x,1/2-y,-z
1/2-x,1/2+y,-z
-x,-y,-z
x,y,-z
1/2-x,1/2+y,z
1/2+x,1/2-y,z
loop_
_atom_site_type_symbol
_atom_site_label
_atom_site_fract_x
_atom_site_fract_y
_atom_site_fract_z
Si Si1 0.874426 0.448002 0.710078
Si Si2 0.669232 0.503423 0.205030
Si Si3 0.763356 0.170253 0.709040
Si Si4 0.854496 0.637657 0.709805
Si Si5 0.553091 0.449991 0.213442
Si Si6 0.763381 0.369916 0.291577
Si Si7 0.013513 0.595497 0.204928
Si Si8 0.054462 0.245961 0.203141
O O1 0.874592 0.446918 0.500000
O O2 0.881722 0.548066 0.767394
O O3 0.817110 0.416277 0.770096
O O4 0.923848 0.392669 0.773609
O O5 0.692584 0.599230 0.244503
O O6 0.609727 0.488057 0.273739
O O7 0.711719 0.428801 0.257328
O O8 0.665420 0.496259 0.000000
O O9 0.763237 0.173926 0.500000
O O10 0.706186 0.134584 0.764647
O O11 0.765127 0.270079 0.773090
O O12 0.855942 0.641622 0.500000
O O13 0.885743 0.720072 0.779861
O O14 0.500000 0.500000 0.266503
O O15 0.549089 0.350250 0.274962
O O16 0.553931 0.450956 0.000000
O O17 0.766785 0.365351 0.500000
O O18 0.000000 0.500000 0.280967
O O19 0.981290 0.676690 0.280785
O O20 0.000793 0.591715 0.000000
O O21 0.040601 0.239451 0.000000
#
# Coordination Sequence:
#
# PCOD9425831 Si02
#       8
#     8   8   8   8   8   8   8   8
#     4  10  20  34  53  78 109 146 182 221 275 336
#     4  11  22  36  60  90 116 146 191 243 287 335
#     4  10  21  38  60  83 114 156 193 229 281 345
#     4  10  19  33  54  80 109 144 186 225 272 332
#     4   9  20  39  59  80 109 148 188 228 279 333
#     4  10  21  39  60  83 116 155 191 229 281 345
#     4  10  20  33  50  78 110 141 179 222 275 331
#     4  10  20  35  57  80 107 145 188 232 277 332
#
# _framework density 21.398547000000001
#
# number of rings (size 3 to 8) (size 9 to 14) (size 15 to 20)
#    0.000    2.000    2.500    1.125    0.000    3.250 
#    0.000    1.875    0.000    3.375    0.000    0.000 
#    0.000    0.000    0.000    0.000    0.000    0.000 
#
# Total GULP energy -357259.949613 kJ/mol
# GULP energy per Si atom -5582.186713 kJ/mol
# Density = 2.134984 g / cm^3
# Si number density = 21.398547 Si / 1000 Ang^3
#
#
#
# Elastic Constant Matrix: (Units=GPa)
#
#
# Indices 1 2 3 4 5 6 
#
# 1 168.5452 88.0086 -1.5643 0.0000 0.0000 0.0000
# 2 88.0086 156.3055 6.7659 0.0000 0.0000 0.0000
# 3 -1.5643 6.7659 31.5709 0.0000 0.0000 0.0000
# 4 0.0000 0.0000 0.0000 20.6317 0.0000 0.0000
# 5 0.0000 0.0000 0.0000 0.0000 19.6582 0.0000
# 6 0.0000 0.0000 0.0000 0.0000 0.0000 32.9473
#
#
#
# Elastic Compliance Matrix: (Units=1/GPa)
#
#
# Indices 1 2 3 4 5 6 
#
# 1 0.008470 -0.004832 0.001455 0.000000 0.000000 0.000000
# 2 -0.004832 0.009214 -0.002214 0.000000 0.000000 0.000000
# 3 0.001455 -0.002214 0.032221 0.000000 0.000000 0.000000
# 4 0.000000 0.000000 0.000000 0.048469 0.000000 0.000000
# 5 0.000000 0.000000 0.000000 0.000000 0.050869 0.000000
# 6 0.000000 0.000000 0.000000 0.000000 0.000000 0.030352
#
#
# Mechanical properties :
#
#
# Convention : Reuss Voigt Hill
#
# Bulk Modulus (GPa) = 25.82404 60.31577 43.06990
# Shear Modulus (GPa) = 24.54774 32.19486 28.37130
#
# Velocity S-wave (km/s) = 3.39066 3.88304 3.64518
# Velocity P-wave (km/s) = 5.23671 6.95356 6.15529
#
# Compressibility (1/GPa) = 0.03872361
#
# Stress axis : x y z
#
# Youngs Moduli (GPa) = 118.06820 108.52830 31.03534
#
# Poissons Ratio (x) = 0.52440 -0.04516
# Poissons Ratio (y) = 0.57049 0.06871
# Poissons Ratio (z) = -0.17181 0.24029
#
# Static dielectric constant tensor:
#      x y z
#    x 1.775600 0.000000 0.000000 
#    y 0.000000 1.793840 0.000000 
#    z 0.000000 0.000000 1.802210 
# 
# From -- ./inp_files/6580.got.cif
#   From: 2010.05.17/outbox.cif.g08.bks.cpg/sg55_4_cif.got.tgz:6580.got - 2010.06.03 13:27:54.
