data_PCOD9425666
_publ_section_title
;
Structure prediction by ZEFSAII (Michael W. Deem and Ramdas Pophale) SiO2 
 PCOD9425666
Probable space group: P B A M
;
_chemical_formula_sum "Si O2"
_cell_formula_units_Z 64
_cell_length_a 23.837013
_cell_length_b 19.595976
_cell_length_c 8.708261
_cell_angle_alpha 90.000000
_cell_angle_beta 90.000000
_cell_angle_gamma 90.000000
_cell_volume 4067.711743
_symmetry_space_group_name_H-M "P B A M"
_symmetry_group_IT_number 55
_symmetry_cell_setting 'orthorhombic'
loop_
_space_group_symop_operation_xyz
x,y,z
-x,-y,z
1/2+x,1/2-y,-z
1/2-x,1/2+y,-z
-x,-y,-z
x,y,-z
1/2-x,1/2+y,z
1/2+x,1/2-y,z
loop_
_atom_site_type_symbol
_atom_site_label
_atom_site_fract_x
_atom_site_fract_y
_atom_site_fract_z
Si Si1 0.122957 0.503292 0.183265
Si Si2 0.058257 0.644176 0.814909
Si Si3 0.830370 0.721087 0.683731
Si Si4 0.226433 0.863974 0.184656
Si Si5 0.340151 0.234286 0.186149
Si Si6 0.228295 0.151748 0.184429
Si Si7 0.435390 0.869670 0.316973
Si Si8 0.248398 0.506994 0.317297
O O1 0.088803 0.572216 0.218901
O O2 0.087795 0.437995 0.237011
O O3 0.183566 0.504018 0.262639
O O4 0.131824 0.500914 0.000000
O O5 0.100973 0.703427 0.761904
O O6 0.997663 0.646347 0.739191
O O7 0.052019 0.648145 0.000000
O O8 0.822781 0.721556 0.500000
O O9 0.784209 0.670417 0.757054
O O10 0.817368 0.795572 0.750790
O O11 0.891389 0.690682 0.718873
O O12 0.177952 0.810385 0.232209
O O13 0.222340 0.938897 0.253800
O O14 0.228061 0.867459 0.000000
O O15 0.288825 0.184227 0.230458
O O16 0.341224 0.233349 0.000000
O O17 0.225331 0.075990 0.249693
O O18 0.226088 0.150725 0.000000
O O19 0.434751 0.880339 0.500000
O O20 0.250339 0.507875 0.500000
#
# Coordination Sequence:
#
# PCOD9425666 Si02
#       8
#     8   8   8   8   8   8   8   8
#     4  11  21  34  51  70  98 138 180 214 245 292
#     4  10  20  35  52  71  97 133 176 213 247 293
#     4  10  20  34  49  72 103 132 166 211 256 295
#     4  10  19  32  53  74  98 133 171 208 251 304
#     4   8  16  32  51  73  96 124 165 213 249 287
#     4  10  19  34  54  74  98 130 170 208 251 307
#     4  11  23  35  48  71 104 137 172 211 251 297
#     4  12  22  32  49  76 107 136 165 207 259 307
#
# _framework density 15.733661
#
# number of rings (size 3 to 8) (size 9 to 14) (size 15 to 20)
#    0.000    1.750    2.500    4.125    0.000    4.000 
#    0.000    1.250    0.000    0.000    0.000    0.875 
#    0.000    7.000    0.000    0.000    0.000    0.000 
#
# Total GULP energy -357273.588427 kJ/mol
# GULP energy per Si atom -5582.399819 kJ/mol
# Density = 1.569785 g / cm^3
# Si number density = 15.733661 Si / 1000 Ang^3
#
#
#
# Elastic Constant Matrix: (Units=GPa)
#
#
# Indices 1 2 3 4 5 6 
#
# 1 69.5453 54.0970 36.4553 0.0000 0.0000 0.0000
# 2 54.0970 142.2568 51.3568 0.0000 0.0000 0.0000
# 3 36.4553 51.3568 65.5607 0.0000 0.0000 0.0000
# 4 0.0000 0.0000 0.0000 22.1846 0.0000 0.0000
# 5 0.0000 0.0000 0.0000 0.0000 32.8394 0.0000
# 6 0.0000 0.0000 0.0000 0.0000 0.0000 17.5641
#
#
#
# Elastic Compliance Matrix: (Units=1/GPa)
#
#
# Indices 1 2 3 4 5 6 
#
# 1 0.023320 -0.005838 -0.008395 0.000000 0.000000 0.000000
# 2 -0.005838 0.011263 -0.005577 0.000000 0.000000 0.000000
# 3 -0.008395 -0.005577 0.024289 0.000000 0.000000 0.000000
# 4 0.000000 0.000000 0.000000 0.045076 0.000000 0.000000
# 5 0.000000 0.000000 0.000000 0.000000 0.030451 0.000000
# 6 0.000000 0.000000 0.000000 0.000000 0.000000 0.056934
#
#
# Mechanical properties :
#
#
# Convention : Reuss Voigt Hill
#
# Bulk Modulus (GPa) = 51.93483 62.35344 57.14413
# Shear Modulus (GPa) = 21.06417 23.54786 22.30601
#
# Velocity S-wave (km/s) = 3.66293 3.87286 3.76935
# Velocity P-wave (km/s) = 7.13931 7.72757 7.43926
#
# Compressibility (1/GPa) = 0.01925490
#
# Stress axis : x y z
#
# Youngs Moduli (GPa) = 42.88086 88.78876 41.17052
#
# Poissons Ratio (x) = 0.51832 0.34561
# Poissons Ratio (y) = 0.25032 0.22959
# Poissons Ratio (z) = 0.35996 0.49513
#
# Static dielectric constant tensor:
#      x y z
#    x 1.503720 0.000000 0.000000 
#    y 0.000000 1.527980 0.000000 
#    z 0.000000 0.000000 1.528430 
# 
# From -- ./inp_files/8185.got.cif
#   From: 2010.05.17/outbox.cif.g08.bks.cpg/sg55_5_cif.got.tgz:8185.got - 2010.06.03 13:27:54.
