data_PCOD9425966
_publ_section_title
;
Structure prediction by ZEFSAII (Michael W. Deem and Ramdas Pophale) SiO2 
 PCOD9425966
Probable space group: P B A M
;
_chemical_formula_sum "Si O2"
_cell_formula_units_Z 64
_cell_length_a 29.244384
_cell_length_b 12.614017
_cell_length_c 7.652713
_cell_angle_alpha 90.000000
_cell_angle_beta 90.000000
_cell_angle_gamma 90.000000
_cell_volume 2823.002847
_symmetry_space_group_name_H-M "P B A M"
_symmetry_group_IT_number 55
_symmetry_cell_setting 'orthorhombic'
loop_
_space_group_symop_operation_xyz
x,y,z
-x,-y,z
1/2+x,1/2-y,-z
1/2-x,1/2+y,-z
-x,-y,-z
x,y,-z
1/2-x,1/2+y,z
1/2+x,1/2-y,z
loop_
_atom_site_type_symbol
_atom_site_label
_atom_site_fract_x
_atom_site_fract_y
_atom_site_fract_z
Si Si1 0.692462 0.137944 0.700611
Si Si2 0.526607 0.272111 0.710214
Si Si3 0.388029 0.307763 0.795172
Si Si4 0.664870 0.368964 0.792626
Si Si5 0.292247 0.412939 0.709426
Si Si6 0.928269 0.977197 0.208003
Si Si7 0.594352 0.091055 0.714884
Si Si8 0.554635 0.874336 0.700387
O O1 0.695435 0.100400 0.500000
O O2 0.680994 0.262243 0.703835
O O3 0.742554 0.120804 0.778324
O O4 0.646648 0.085470 0.777347
O O5 0.525194 0.273679 0.500000
O O6 0.530579 0.395036 0.763316
O O7 0.570228 0.201030 0.766283
O O8 0.483891 0.203144 0.777499
O O9 0.336046 0.347280 0.776074
O O10 0.420753 0.403389 0.723878
O O11 0.400040 0.197740 0.704342
O O12 0.397046 0.292267 0.000000
O O13 0.699123 0.465542 0.759841
O O14 0.616155 0.412497 0.725680
O O15 0.661078 0.349552 0.000000
O O16 0.293176 0.401799 0.500000
O O17 0.923545 0.988485 0.000000
O O18 0.595029 0.089725 0.500000
O O19 0.565168 0.989729 0.775200
O O20 0.540328 0.893608 0.500000
#
# Coordination Sequence:
#
# PCOD9425966 Si02
#       8
#     8   8   8   8   8   8   8   8
#     4  10  20  35  58  85 109 143 189 234 280 331
#     4  10  19  33  58  86 111 146 190 236 283 334
#     4  10  22  40  57  78 112 153 191 232 291 350
#     4  10  20  35  55  80 112 148 183 228 284 338
#     4  10  21  36  57  84 112 144 188 239 288 339
#     4   9  19  35  55  78 107 144 187 233 279 333
#     4   9  18  35  57  82 114 147 185 233 281 334
#     4  10  21  36  56  84 117 152 189 232 285 342
#
# _framework density 22.670895000000002
#
# number of rings (size 3 to 8) (size 9 to 14) (size 15 to 20)
#    0.000    2.250    1.250    2.250    0.000    7.000 
#    0.000    6.250    0.000    1.500    0.000    0.000 
#    0.000    0.000    0.000    0.000    0.000    0.000 
#
# Total GULP energy -357308.297622 kJ/mol
# GULP energy per Si atom -5582.942150 kJ/mol
# Density = 2.261929 g / cm^3
# Si number density = 22.670895 Si / 1000 Ang^3
#
#
#
# Elastic Constant Matrix: (Units=GPa)
#
#
# Indices 1 2 3 4 5 6 
#
# 1 78.0158 1.4219 -3.1407 0.0000 0.0000 0.0000
# 2 1.4219 87.5742 -5.6832 0.0000 0.0000 0.0000
# 3 -3.1407 -5.6832 55.1088 0.0000 0.0000 0.0000
# 4 0.0000 0.0000 0.0000 21.0689 0.0000 0.0000
# 5 0.0000 0.0000 0.0000 0.0000 16.6902 0.0000
# 6 0.0000 0.0000 0.0000 0.0000 0.0000 30.6221
#
#
#
# Elastic Compliance Matrix: (Units=1/GPa)
#
#
# Indices 1 2 3 4 5 6 
#
# 1 0.012850 -0.000162 0.000716 0.000000 0.000000 0.000000
# 2 -0.000162 0.011498 0.001176 0.000000 0.000000 0.000000
# 3 0.000716 0.001176 0.018308 0.000000 0.000000 0.000000
# 4 0.000000 0.000000 0.000000 0.047463 0.000000 0.000000
# 5 0.000000 0.000000 0.000000 0.000000 0.059916 0.000000
# 6 0.000000 0.000000 0.000000 0.000000 0.000000 0.032656
#
#
# Mechanical properties :
#
#
# Convention : Reuss Voigt Hill
#
# Bulk Modulus (GPa) = 21.68476 22.87721 22.28098
# Shear Modulus (GPa) = 25.69339 28.88295 27.28817
#
# Velocity S-wave (km/s) = 3.37013 3.57320 3.47315
# Velocity P-wave (km/s) = 4.97288 5.20928 5.09245
#
# Compressibility (1/GPa) = 0.04611534
#
# Stress axis : x y z
#
# Youngs Moduli (GPa) = 77.82296 86.97261 54.62087
#
# Poissons Ratio (x) = 0.01411 -0.03909
# Poissons Ratio (y) = 0.01262 -0.06426
# Poissons Ratio (z) = -0.05569 -0.10232
#
# Static dielectric constant tensor:
#      x y z
#    x 1.897680 0.000000 0.000000 
#    y 0.000000 1.807430 0.000000 
#    z 0.000000 0.000000 1.840690 
# 
# From -- ./inp_files/4578.got.cif
#   From: 2010.05.17/outbox.cif.g08.bks.cpg/sg55_3_cif.got.tgz:4578.got - 2010.06.03 13:27:54.
