data_PCOD9425215
_publ_section_title
;
Structure prediction by ZEFSAII (Michael W. Deem and Ramdas Pophale) SiO2 
 PCOD9425215
Probable space group: P B A M
;
_chemical_formula_sum "Si O2"
_cell_formula_units_Z 56
_cell_length_a 11.903420
_cell_length_b 18.556354
_cell_length_c 12.013676
_cell_angle_alpha 90.000000
_cell_angle_beta 90.000000
_cell_angle_gamma 90.000000
_cell_volume 2653.629715
_symmetry_space_group_name_H-M "P B A M"
_symmetry_group_IT_number 55
_symmetry_cell_setting 'orthorhombic'
loop_
_space_group_symop_operation_xyz
x,y,z
-x,-y,z
1/2+x,1/2-y,-z
1/2-x,1/2+y,-z
-x,-y,-z
x,y,-z
1/2-x,1/2+y,z
1/2+x,1/2-y,z
loop_
_atom_site_type_symbol
_atom_site_label
_atom_site_fract_x
_atom_site_fract_y
_atom_site_fract_z
Si Si1 0.581888 0.693179 0.619939
Si Si2 0.419874 0.565547 0.655973
Si Si3 0.617771 0.904251 0.875644
Si Si4 0.621711 0.369187 0.879425
Si Si5 0.843710 0.463999 0.626235
Si Si6 0.027719 0.281276 0.202164
Si Si7 0.176184 0.366002 0.624195
O O1 0.594482 0.729379 0.500000
O O2 0.473662 0.641128 0.617731
O O3 0.569458 0.750139 0.717250
O O4 0.689944 0.642954 0.637066
O O5 0.500000 0.500000 0.621620
O O6 0.422519 0.575713 0.788304
O O7 0.289917 0.554702 0.625247
O O8 0.743602 0.872575 0.875270
O O9 0.609590 0.938262 0.748559
O O10 0.525988 0.841420 0.874751
O O11 0.608453 0.942228 0.000000
O O12 0.580980 0.288297 0.855214
O O13 0.581584 0.391106 0.000000
O O14 0.886127 0.441066 0.500000
O O15 0.854674 0.550356 0.630359
O O16 0.116555 0.318957 0.283264
O O17 0.147188 0.339307 0.500000
#
# Coordination Sequence:
#
# PCOD9425215 Si02
#       7
#     8   8   8   8   8   8   8
#     4  10  20  33  54  84 119 151 187 238 291 347
#     4  10  18  32  58  87 116 149 189 234 295 348
#     4  10  22  41  62  83 116 154 193 240 289 346
#     4   9  20  37  56  81 112 148 192 240 286 340
#     4  10  21  37  60  88 119 153 194 241 291 345
#     4  11  21  36  57  81 111 154 197 233 284 348
#     4  10  21  36  55  83 117 148 188 243 292 341
#
# _framework density 21.103169999999999
#
# number of rings (size 3 to 8) (size 9 to 14) (size 15 to 20)
#    0.000    2.000    1.429    2.143    0.000    2.571 
#    0.000    7.143    0.000    0.857    0.000    0.000 
#    0.000    0.000    0.000    0.000    0.000    0.000 
#
# Total GULP energy -312150.407719 kJ/mol
# GULP energy per Si atom -5574.114424 kJ/mol
# Density = 2.105514 g / cm^3
# Si number density = 21.103170 Si / 1000 Ang^3
#
#
#
# Elastic Constant Matrix: (Units=GPa)
#
#
# Indices 1 2 3 4 5 6 
#
# 1 52.8810 8.3162 21.9438 0.0000 0.0000 0.0000
# 2 8.3162 34.3980 27.3997 0.0000 0.0000 0.0000
# 3 21.9438 27.3997 184.7343 0.0000 0.0000 0.0000
# 4 0.0000 0.0000 0.0000 15.3256 0.0000 0.0000
# 5 0.0000 0.0000 0.0000 0.0000 11.4174 0.0000
# 6 0.0000 0.0000 0.0000 0.0000 0.0000 29.9116
#
#
#
# Elastic Compliance Matrix: (Units=1/GPa)
#
#
# Indices 1 2 3 4 5 6 
#
# 1 0.020231 -0.003376 -0.001902 0.000000 0.000000 0.000000
# 2 -0.003376 0.033529 -0.004572 0.000000 0.000000 0.000000
# 3 -0.001902 -0.004572 0.006317 0.000000 0.000000 0.000000
# 4 0.000000 0.000000 0.000000 0.065250 0.000000 0.000000
# 5 0.000000 0.000000 0.000000 0.000000 0.087585 0.000000
# 6 0.000000 0.000000 0.000000 0.000000 0.000000 0.033432
#
#
# Mechanical properties :
#
#
# Convention : Reuss Voigt Hill
#
# Bulk Modulus (GPa) = 24.76656 43.03697 33.90176
# Shear Modulus (GPa) = 17.88882 25.62117 21.75500
#
# Velocity S-wave (km/s) = 2.91466 3.48816 3.21423
# Velocity P-wave (km/s) = 4.80504 6.05482 5.46577
#
# Compressibility (1/GPa) = 0.04037703
#
# Stress axis : x y z
#
# Youngs Moduli (GPa) = 49.42979 29.82450 158.29562
#
# Poissons Ratio (x) = 0.10068 0.30115
# Poissons Ratio (y) = 0.16686 0.72374
# Poissons Ratio (z) = 0.09404 0.13636
#
# Static dielectric constant tensor:
#      x y z
#    x 1.759270 0.000000 0.000000 
#    y 0.000000 1.722500 0.000000 
#    z 0.000000 0.000000 1.843050 
# 
# From -- ./inp_files/13365.got.cif
#   From: 2010.05.17/outbox.cif.g08.bks.cpg/sg55_7_cif.got.tgz:13365.got - 2010.06.03 13:27:54.
