data_PCOD9425309
_publ_section_title
;
Structure prediction by ZEFSAII (Michael W. Deem and Ramdas Pophale) SiO2 
 PCOD9425309
Probable space group: P B A M
;
_chemical_formula_sum "Si O2"
_cell_formula_units_Z 40
_cell_length_a 9.249032
_cell_length_b 13.310801
_cell_length_c 14.780911
_cell_angle_alpha 90.000000
_cell_angle_beta 90.000000
_cell_angle_gamma 90.000000
_cell_volume 1819.707876
_symmetry_space_group_name_H-M "P B A M"
_symmetry_group_IT_number 55
_symmetry_cell_setting 'orthorhombic'
loop_
_space_group_symop_operation_xyz
x,y,z
-x,-y,z
1/2+x,1/2-y,-z
1/2-x,1/2+y,-z
-x,-y,-z
x,y,-z
1/2-x,1/2+y,z
1/2+x,1/2-y,z
loop_
_atom_site_type_symbol
_atom_site_label
_atom_site_fract_x
_atom_site_fract_y
_atom_site_fract_z
Si Si1 0.068862 0.612190 0.396816
Si Si2 0.846677 0.440909 0.102077
Si Si3 0.203183 0.886907 0.210660
Si Si4 0.496426 0.777636 0.217732
Si Si5 0.670570 0.514745 0.398971
O O1 0.037143 0.641683 0.500000
O O2 0.019431 0.690840 0.322293
O O3 0.239715 0.588477 0.388356
O O4 0.000000 0.500000 0.380944
O O5 0.734951 0.514782 0.151606
O O6 0.890991 0.346988 0.162617
O O7 0.000000 0.500000 0.097402
O O8 0.802173 0.415351 0.000000
O O9 0.335526 0.810466 0.191258
O O10 0.048651 0.834589 0.198444
O O11 0.214410 0.915653 0.316123
O O12 0.500000 0.500000 0.394764
O O13 0.707728 0.553296 0.500000
#
# Coordination Sequence:
#
# PCOD9425309 Si02
#       5
#     8   8   8   8   8
#     4  10  18  35  60  81 113 160 201 238 289 351
#     4   9  19  40  64  84 114 154 197 247 305 363
#     4  11  23  37  60  89 122 155 200 244 302 360
#     4  11  22  37  58  89 118 158 198 246 302 360
#     4  10  21  37  59  85 119 161 202 245 292 345
#
# _framework density 21.981551
#
# number of rings (size 3 to 8) (size 9 to 14) (size 15 to 20)
#    0.000    1.800    4.000    0.600    2.800    1.600 
#    0.000    0.000    0.000    4.200    0.000    0.000 
#    0.000    0.000    0.000    0.000    0.000    0.000 
#
# Total GULP energy -223393.817005 kJ/mol
# GULP energy per Si atom -5584.845425 kJ/mol
# Density = 2.193152 g / cm^3
# Si number density = 21.981551 Si / 1000 Ang^3
#
#
#
# Elastic Constant Matrix: (Units=GPa)
#
#
# Indices 1 2 3 4 5 6 
#
# 1 75.9775 5.0602 7.2250 0.0000 0.0000 0.0000
# 2 5.0602 26.0354 24.4478 0.0000 0.0000 0.0000
# 3 7.2250 24.4478 96.2221 0.0000 0.0000 0.0000
# 4 0.0000 0.0000 0.0000 -15.1149 0.0000 0.0000
# 5 0.0000 0.0000 0.0000 0.0000 14.4319 0.0000
# 6 0.0000 0.0000 0.0000 0.0000 0.0000 39.9320
#
#
#
# Elastic Compliance Matrix: (Units=1/GPa)
#
#
# Indices 1 2 3 4 5 6 
#
# 1 0.013349 -0.002171 -0.000451 0.000000 0.000000 0.000000
# 2 -0.002171 0.050798 -0.012743 0.000000 0.000000 0.000000
# 3 -0.000451 -0.012743 0.013664 0.000000 0.000000 0.000000
# 4 0.000000 0.000000 0.000000 -0.066160 0.000000 0.000000
# 5 0.000000 0.000000 0.000000 0.000000 0.069291 0.000000
# 6 0.000000 0.000000 0.000000 0.000000 0.000000 0.025043
#
#
# Mechanical properties :
#
#
# Convention : Reuss Voigt Hill
#
# Bulk Modulus (GPa) = 21.24033 30.18899 25.71466
# Shear Modulus (GPa) = 32.80643 18.61661 25.71152
#
# Velocity S-wave (km/s) = 3.86742 2.91335 3.42378
# Velocity P-wave (km/s) = 5.44301 5.00803 5.23004
#
# Compressibility (1/GPa) = 0.04708025
#
# Stress axis : x y z
#
# Youngs Moduli (GPa) = 74.91055 19.68595 73.18351
#
# Poissons Ratio (x) = 0.04274 0.03298
# Poissons Ratio (y) = 0.16266 0.93261
# Poissons Ratio (z) = 0.03376 0.25087
#
# Static dielectric constant tensor:
#      x y z
#    x 1.833450 0.000000 0.000000 
#    y 0.000000 1.790320 0.000000 
#    z 0.000000 0.000000 1.789930 
# 
# From -- ./inp_files/17055.got.cif
#   From: 2010.05.17/outbox.cif.g08.bks.cpg/sg55_9_cif.got.tgz:17055.got - 2010.06.03 13:27:54.
