data_PCOD9425022
_publ_section_title
;
Structure prediction by ZEFSAII (Michael W. Deem and Ramdas Pophale) SiO2 
 PCOD9425022
Probable space group: P B A M
;
_chemical_formula_sum "Si O2"
_cell_formula_units_Z 64
_cell_length_a 18.701287
_cell_length_b 21.823654
_cell_length_c 9.362621
_cell_angle_alpha 90.000000
_cell_angle_beta 90.000000
_cell_angle_gamma 90.000000
_cell_volume 3821.170411
_symmetry_space_group_name_H-M "P B A M"
_symmetry_group_IT_number 55
_symmetry_cell_setting 'orthorhombic'
loop_
_space_group_symop_operation_xyz
x,y,z
-x,-y,z
1/2+x,1/2-y,-z
1/2-x,1/2+y,-z
-x,-y,-z
x,y,-z
1/2-x,1/2+y,z
1/2+x,1/2-y,z
loop_
_atom_site_type_symbol
_atom_site_label
_atom_site_fract_x
_atom_site_fract_y
_atom_site_fract_z
Si Si1 0.372003 0.236846 0.164125
Si Si2 0.329492 0.582015 0.330417
Si Si3 0.417631 0.478909 0.168282
Si Si4 0.983540 0.430284 0.329460
Si Si5 0.964893 0.684793 0.835971
Si Si6 0.419433 0.700664 0.332745
Si Si7 0.326913 0.122270 0.332000
Si Si8 0.580743 0.648430 0.668369
O O1 0.453780 0.211340 0.165516
O O2 0.326833 0.183333 0.237553
O O3 0.373462 0.298260 0.257132
O O4 0.352037 0.247958 0.000000
O O5 0.343910 0.572217 0.500000
O O6 0.368406 0.530701 0.238555
O O7 0.361910 0.648890 0.294329
O O8 0.244624 0.583814 0.307754
O O9 0.500000 0.500000 0.183768
O O10 0.408471 0.415341 0.251533
O O11 0.402876 0.471597 0.000000
O O12 0.995600 0.424490 0.500000
O O13 0.030035 0.379183 0.248141
O O14 0.900144 0.414275 0.302510
O O15 0.000000 0.500000 0.287179
O O16 0.919033 0.737496 0.758989
O O17 0.943564 0.676110 0.000000
O O18 0.411276 0.716259 0.500000
O O19 0.497506 0.668912 0.316402
O O20 0.328500 0.139627 0.500000
O O21 0.595815 0.643570 0.500000
#
# Coordination Sequence:
#
# PCOD9425022 Si02
#       8
#     8   8   8   8   8   8   8   8
#     4   9  17  30  49  73 100 126 158 203 255 304
#     4  10  20  34  52  73 100 136 177 216 257 309
#     4  11  22  33  48  74 107 140 176 216 260 310
#     4   9  17  31  53  78 102 130 166 210 258 305
#     4   9  17  28  46  73 100 124 155 199 247 297
#     4   9  17  29  47  71  97 127 162 206 252 295
#     4   9  18  33  53  76 101 130 172 215 256 310
#     4  10  18  30  51  74  99 130 170 214 253 295
#
# _framework density 16.748795999999999
#
# number of rings (size 3 to 8) (size 9 to 14) (size 15 to 20)
#    0.000    2.500    1.250    1.500    0.000    5.250 
#    0.000    0.000    2.750    0.000    0.000    0.000 
#    0.000    0.000    0.000    0.000    0.000    0.000 
#
# Total GULP energy -356845.242611 kJ/mol
# GULP energy per Si atom -5575.706916 kJ/mol
# Density = 1.671067 g / cm^3
# Si number density = 16.748796 Si / 1000 Ang^3
#
#
#
# Elastic Constant Matrix: (Units=GPa)
#
#
# Indices 1 2 3 4 5 6 
#
# 1 38.8494 33.8003 39.3062 0.0000 0.0000 0.0000
# 2 33.8003 151.8150 92.5726 0.0000 0.0000 0.0000
# 3 39.3062 92.5726 104.8497 0.0000 0.0000 0.0000
# 4 0.0000 0.0000 0.0000 12.9786 0.0000 0.0000
# 5 0.0000 0.0000 0.0000 0.0000 10.8285 0.0000
# 6 0.0000 0.0000 0.0000 0.0000 0.0000 18.0858
#
#
#
# Elastic Compliance Matrix: (Units=1/GPa)
#
#
# Indices 1 2 3 4 5 6 
#
# 1 0.041489 0.000535 -0.016026 0.000000 0.000000 0.000000
# 2 0.000535 0.014276 -0.012805 0.000000 0.000000 0.000000
# 3 -0.016026 -0.012805 0.026851 0.000000 0.000000 0.000000
# 4 0.000000 0.000000 0.000000 0.077050 0.000000 0.000000
# 5 0.000000 0.000000 0.000000 0.000000 0.092349 0.000000
# 6 0.000000 0.000000 0.000000 0.000000 0.000000 0.055292
#
#
# Mechanical properties :
#
#
# Convention : Reuss Voigt Hill
#
# Bulk Modulus (GPa) = 38.42545 69.65250 54.03897
# Shear Modulus (GPa) = 13.42019 17.03425 15.22722
#
# Velocity S-wave (km/s) = 2.83373 3.19257 3.01849
# Velocity P-wave (km/s) = 5.80506 7.43417 6.66954
#
# Compressibility (1/GPa) = 0.02602442
#
# Stress axis : x y z
#
# Youngs Moduli (GPa) = 24.10254 70.04810 37.24294
#
# Poissons Ratio (x) = -0.03747 0.59685
# Poissons Ratio (y) = -0.01289 0.47689
# Poissons Ratio (z) = 0.38626 0.89695
#
# Static dielectric constant tensor:
#      x y z
#    x 1.555840 0.000000 0.000000 
#    y 0.000000 1.541700 0.000000 
#    z 0.000000 0.000000 1.560910 
# 
# From -- ./inp_files/9173.got.cif
#   From: 2010.05.17/outbox.cif.g08.bks.cpg/sg55_5_cif.got.tgz:9173.got - 2010.06.03 13:27:54.
