data_PCOD9425580
_publ_section_title
;
Structure prediction by ZEFSAII (Michael W. Deem and Ramdas Pophale) SiO2 
 PCOD9425580
Probable space group: P B A M
;
_chemical_formula_sum "Si O2"
_cell_formula_units_Z 56
_cell_length_a 18.193660
_cell_length_b 19.416509
_cell_length_c 7.486126
_cell_angle_alpha 90.000000
_cell_angle_beta 90.000000
_cell_angle_gamma 90.000000
_cell_volume 2644.529131
_symmetry_space_group_name_H-M "P B A M"
_symmetry_group_IT_number 55
_symmetry_cell_setting 'orthorhombic'
loop_
_space_group_symop_operation_xyz
x,y,z
-x,-y,z
1/2+x,1/2-y,-z
1/2-x,1/2+y,-z
-x,-y,-z
x,y,-z
1/2-x,1/2+y,z
1/2+x,1/2-y,z
loop_
_atom_site_type_symbol
_atom_site_label
_atom_site_fract_x
_atom_site_fract_y
_atom_site_fract_z
Si Si1 0.495654 0.676571 0.718234
Si Si2 0.300799 0.913083 0.713763
Si Si3 0.260368 0.706311 0.213761
Si Si4 0.072552 0.034759 0.206678
Si Si5 0.267606 0.549854 0.785710
Si Si6 0.839333 0.170298 0.288006
Si Si7 0.598865 0.202504 0.704392
O O1 0.493563 0.675816 0.500000
O O2 0.442502 0.616225 0.784271
O O3 0.578327 0.660777 0.780089
O O4 0.465927 0.750593 0.781591
O O5 0.301043 0.902304 0.500000
O O6 0.225321 0.878469 0.785301
O O7 0.369421 0.868398 0.784070
O O8 0.294470 0.993902 0.745971
O O9 0.254858 0.627727 0.277163
O O10 0.189503 0.752311 0.257753
O O11 0.330106 0.746736 0.293854
O O12 0.270419 0.706570 0.000000
O O13 0.153257 0.022961 0.285493
O O14 0.075210 0.011873 0.000000
O O15 0.000000 0.000000 0.289536
O O16 0.274490 0.553785 0.000000
O O17 0.843156 0.158097 0.500000
O O18 0.577288 0.188032 0.500000
#
# Coordination Sequence:
#
# PCOD9425580 Si02
#       7
#     8   8   8   8   8   8   8
#     4  10  19  32  52  74  99 130 163 204 250 295
#     4   9  18  31  48  70  97 126 162 203 243 292
#     4  10  19  32  50  71  96 129 168 206 242 291
#     4  10  20  32  46  69 105 138 162 196 242 296
#     4  10  20  32  46  70 100 129 165 203 241 290
#     4   9  19  34  50  73 101 127 163 207 246 293
#     4   9  18  33  51  73  98 127 165 207 248 294
#
# _framework density 21.175792999999999
#
# number of rings (size 3 to 8) (size 9 to 14) (size 15 to 20)
#    0.000    2.429    1.429    2.143    0.000    4.857 
#    0.000    0.000    0.000    0.857    0.000    6.000 
#    0.000    0.000    0.000    0.000    0.000    0.000 
#
# Total GULP energy -312443.187497 kJ/mol
# GULP energy per Si atom -5579.342634 kJ/mol
# Density = 2.112760 g / cm^3
# Si number density = 21.175793 Si / 1000 Ang^3
#
#
#
# Elastic Constant Matrix: (Units=GPa)
#
#
# Indices 1 2 3 4 5 6 
#
# 1 14.4772 -14.0396 -1.2577 0.0000 0.0000 0.0000
# 2 -14.0396 71.5339 -16.0797 0.0000 0.0000 0.0000
# 3 -1.2577 -16.0797 62.2619 0.0000 0.0000 0.0000
# 4 0.0000 0.0000 0.0000 21.9619 0.0000 0.0000
# 5 0.0000 0.0000 0.0000 0.0000 2.5145 0.0000
# 6 0.0000 0.0000 0.0000 0.0000 0.0000 34.7108
#
#
#
# Elastic Compliance Matrix: (Units=1/GPa)
#
#
# Indices 1 2 3 4 5 6 
#
# 1 0.087800 0.018717 0.006607 0.000000 0.000000 0.000000
# 2 0.018717 0.018831 0.005241 0.000000 0.000000 0.000000
# 3 0.006607 0.005241 0.017548 0.000000 0.000000 0.000000
# 4 0.000000 0.000000 0.000000 0.045533 0.000000 0.000000
# 5 0.000000 0.000000 0.000000 0.000000 0.397686 0.000000
# 6 0.000000 0.000000 0.000000 0.000000 0.000000 0.028809
#
#
# Mechanical properties :
#
#
# Convention : Reuss Voigt Hill
#
# Bulk Modulus (GPa) = 5.39632 9.50211 7.44922
# Shear Modulus (GPa) = 8.37736 23.81412 16.09574
#
# Velocity S-wave (km/s) = 1.99115 3.35713 2.75998
# Velocity P-wave (km/s) = 2.80002 4.41861 3.69893
#
# Compressibility (1/GPa) = 0.18531138
#
# Stress axis : x y z
#
# Youngs Moduli (GPa) = 11.38955 53.10359 56.98560
#
# Poissons Ratio (x) = -0.99395 -0.37653
# Poissons Ratio (y) = -0.21318 -0.29868
# Poissons Ratio (z) = -0.07526 -0.27834
#
# Static dielectric constant tensor:
#      x y z
#    x 1.764800 0.000000 0.000000 
#    y 0.000000 1.793700 0.000000 
#    z 0.000000 0.000000 1.944250 
# 
# From -- ./inp_files/7802.got.cif
#   From: 2010.05.17/outbox.cif.g08.bks.cpg/sg55_4_cif.got.tgz:7802.got - 2010.06.03 13:27:54.
