data_PCOD9425941
_publ_section_title
;
Structure prediction by ZEFSAII (Michael W. Deem and Ramdas Pophale) SiO2 
 PCOD9425941
Probable space group: P B A M
;
_chemical_formula_sum "Si O2"
_cell_formula_units_Z 48
_cell_length_a 13.255838
_cell_length_b 14.789072
_cell_length_c 11.275673
_cell_angle_alpha 90.000000
_cell_angle_beta 90.000000
_cell_angle_gamma 90.000000
_cell_volume 2210.500329
_symmetry_space_group_name_H-M "P B A M"
_symmetry_group_IT_number 55
_symmetry_cell_setting 'orthorhombic'
loop_
_space_group_symop_operation_xyz
x,y,z
-x,-y,z
1/2+x,1/2-y,-z
1/2-x,1/2+y,-z
-x,-y,-z
x,y,-z
1/2-x,1/2+y,z
1/2+x,1/2-y,z
loop_
_atom_site_type_symbol
_atom_site_label
_atom_site_fract_x
_atom_site_fract_y
_atom_site_fract_z
Si Si1 0.309423 0.697802 0.128575
Si Si2 0.256365 0.944145 0.631872
Si Si3 0.424681 0.186291 0.133810
Si Si4 0.628748 0.091701 0.133465
Si Si5 0.574592 0.429038 0.698575
Si Si6 0.911004 0.202365 0.626700
O O1 0.193827 0.666579 0.136492
O O2 0.323707 0.806093 0.135797
O O3 0.373655 0.646043 0.222984
O O4 0.347685 0.670345 0.000000
O O5 0.304018 0.949667 0.500000
O O6 0.326178 0.953839 0.748336
O O7 0.196619 0.848129 0.638984
O O8 0.166215 0.017024 0.639682
O O9 0.508246 0.107939 0.141322
O O10 0.435882 0.244613 0.253294
O O11 0.441292 0.227106 0.000000
O O12 0.651563 0.054402 0.000000
O O13 0.500000 0.500000 0.764551
O O14 0.495402 0.375320 0.619298
O O15 0.911249 0.253221 0.500000
#
# Coordination Sequence:
#
# PCOD9425941 Si02
#       6
#     8   8   8   8   8   8
#     4  10  20  36  58  87 120 153 196 246 293 348
#     4  10  21  37  56  84 119 154 193 240 293 348
#     4  10  20  36  57  83 118 151 186 240 295 343
#     4  10  20  36  59  84 114 155 197 241 294 350
#     4  10  21  37  58  86 121 157 193 244 297 345
#     4  10  19  33  56  86 117 149 189 234 289 347
#
# _framework density 21.71454
#
# number of rings (size 3 to 8) (size 9 to 14) (size 15 to 20)
#    0.000    2.000    3.333    0.500    0.000    3.667 
#    0.000    5.833    0.000    4.000    0.000    0.000 
#    0.000    0.000    0.000    0.000    0.000    0.000 
#
# Total GULP energy -267399.830566 kJ/mol
# GULP energy per Si atom -5570.829803 kJ/mol
# Density = 2.166512 g / cm^3
# Si number density = 21.714540 Si / 1000 Ang^3
#
#
#
# Elastic Constant Matrix: (Units=GPa)
#
#
# Indices 1 2 3 4 5 6 
#
# 1 97.3491 -10.2076 26.2984 0.0000 0.0000 0.0000
# 2 -10.2076 20.2522 20.1010 0.0000 0.0000 0.0000
# 3 26.2984 20.1010 152.3043 0.0000 0.0000 0.0000
# 4 0.0000 0.0000 0.0000 3.6179 0.0000 0.0000
# 5 0.0000 0.0000 0.0000 0.0000 -11.3449 0.0000
# 6 0.0000 0.0000 0.0000 0.0000 0.0000 15.3562
#
#
#
# Elastic Compliance Matrix: (Units=1/GPa)
#
#
# Indices 1 2 3 4 5 6 
#
# 1 0.012169 0.009458 -0.003349 0.000000 0.000000 0.000000
# 2 0.009458 0.064171 -0.010102 0.000000 0.000000 0.000000
# 3 -0.003349 -0.010102 0.008477 0.000000 0.000000 0.000000
# 4 0.000000 0.000000 0.000000 0.276401 0.000000 0.000000
# 5 0.000000 0.000000 0.000000 0.000000 -0.088145 0.000000
# 6 0.000000 0.000000 0.000000 0.000000 0.000000 0.065120
#
#
# Mechanical properties :
#
#
# Convention : Reuss Voigt Hill
#
# Bulk Modulus (GPa) = 13.01578 38.03212 25.52395
# Shear Modulus (GPa) = 13.44839 17.10677 15.27758
#
# Velocity S-wave (km/s) = 2.49133 2.80983 2.65536
# Velocity P-wave (km/s) = 3.77924 5.29900 4.60229
#
# Compressibility (1/GPa) = 0.07682981
#
# Stress axis : x y z
#
# Youngs Moduli (GPa) = 82.17694 15.58327 117.96000
#
# Poissons Ratio (x) = -0.14738 0.39510
# Poissons Ratio (y) = -0.77722 1.19168
# Poissons Ratio (z) = 0.27525 0.15743
#
# Static dielectric constant tensor:
#      x y z
#    x 1.776170 0.000000 0.000000 
#    y 0.000000 1.831950 0.000000 
#    z 0.000000 0.000000 1.814280 
# 
# From -- ./inp_files/14124.got.cif
#   From: 2010.05.17/outbox.cif.g08.bks.cpg/sg55_8_cif.got.tgz:14124.got - 2010.06.03 13:27:54.
