data_PCOD9425125
_publ_section_title
;
Structure prediction by ZEFSAII (Michael W. Deem and Ramdas Pophale) SiO2 
 PCOD9425125
Probable space group: P B A M
;
_chemical_formula_sum "Si O2"
_cell_formula_units_Z 64
_cell_length_a 8.712922
_cell_length_b 22.221616
_cell_length_c 18.754128
_cell_angle_alpha 90.000000
_cell_angle_beta 90.000000
_cell_angle_gamma 90.000000
_cell_volume 3631.084373
_symmetry_space_group_name_H-M "P B A M"
_symmetry_group_IT_number 55
_symmetry_cell_setting 'orthorhombic'
loop_
_space_group_symop_operation_xyz
x,y,z
-x,-y,z
1/2+x,1/2-y,-z
1/2-x,1/2+y,-z
-x,-y,-z
x,y,-z
1/2-x,1/2+y,z
1/2+x,1/2-y,z
loop_
_atom_site_type_symbol
_atom_site_label
_atom_site_fract_x
_atom_site_fract_y
_atom_site_fract_z
Si Si1 0.421561 0.641017 0.730997
Si Si2 0.609895 0.170583 0.415788
Si Si3 0.409007 0.260637 0.809147
Si Si4 0.162065 0.465843 0.079981
Si Si5 0.370915 0.839797 0.843823
Si Si6 0.299121 0.221040 0.650818
Si Si7 0.678380 0.482060 0.217320
Si Si8 0.234016 0.406017 0.297131
O O1 0.458446 0.690534 0.791471
O O2 0.335264 0.673275 0.666391
O O3 0.317759 0.587645 0.762459
O O4 0.587848 0.615370 0.707624
O O5 0.612860 0.162580 0.500000
O O6 0.728329 0.222746 0.391111
O O7 0.443110 0.192359 0.389152
O O8 0.661134 0.111813 0.371772
O O9 0.480033 0.202224 0.846226
O O10 0.275647 0.295688 0.850334
O O11 0.351460 0.242301 0.729843
O O12 0.137955 0.396630 0.104104
O O13 0.262420 0.499127 0.139736
O O14 0.000000 0.500000 0.080210
O O15 0.226499 0.468300 0.000000
O O16 0.353878 0.868115 0.764277
O O17 0.500000 0.500000 0.220443
O O18 0.767111 0.524675 0.273306
#
# Coordination Sequence:
#
# PCOD9425125 Si02
#       8
#     8   8   8   8   8   8   8   8
#     4  10  18  31  56  82 107 133 178 240 278 317
#     4  12  22  33  51  76 112 150 182 222 282 335
#     4  11  17  31  56  82 109 136 176 238 276 321
#     4  10  23  40  56  81 119 152 182 221 270 331
#     4  10  19  33  57  80 108 144 181 224 278 320
#     4  12  19  33  50  79 110 140 180 229 277 324
#     4   9  20  35  61  88 104 138 190 231 275 316
#     4   9  17  36  52  78 108 139 185 232 267 322
#
# _framework density 17.625589999999999
#
# number of rings (size 3 to 8) (size 9 to 14) (size 15 to 20)
#    0.000    1.625    6.250    1.125    1.750    0.250 
#    0.000    1.250    0.000    6.375    0.000    0.000 
#    0.000    0.000    0.000    0.000    0.000    0.000 
#
# Total GULP energy -357054.342194 kJ/mol
# GULP energy per Si atom -5578.974097 kJ/mol
# Density = 1.758547 g / cm^3
# Si number density = 17.625590 Si / 1000 Ang^3
#
#
#
# Elastic Constant Matrix: (Units=GPa)
#
#
# Indices 1 2 3 4 5 6 
#
# 1 33.9073 12.5250 17.4276 0.0000 0.0000 0.0000
# 2 12.5250 59.8529 28.3452 0.0000 0.0000 0.0000
# 3 17.4276 28.3452 87.0219 0.0000 0.0000 0.0000
# 4 0.0000 0.0000 0.0000 10.4884 0.0000 0.0000
# 5 0.0000 0.0000 0.0000 0.0000 15.5780 0.0000
# 6 0.0000 0.0000 0.0000 0.0000 0.0000 27.3386
#
#
#
# Elastic Compliance Matrix: (Units=1/GPa)
#
#
# Indices 1 2 3 4 5 6 
#
# 1 0.033909 -0.004588 -0.005297 0.000000 0.000000 0.000000
# 2 -0.004588 0.020376 -0.005718 0.000000 0.000000 0.000000
# 3 -0.005297 -0.005718 0.014415 0.000000 0.000000 0.000000
# 4 0.000000 0.000000 0.000000 0.095343 0.000000 0.000000
# 5 0.000000 0.000000 0.000000 0.000000 0.064193 0.000000
# 6 0.000000 0.000000 0.000000 0.000000 0.000000 0.036578
#
#
# Mechanical properties :
#
#
# Convention : Reuss Voigt Hill
#
# Bulk Modulus (GPa) = 26.67037 33.04197 29.85617
# Shear Modulus (GPa) = 16.20658 18.84663 17.52660
#
# Velocity S-wave (km/s) = 3.03560 3.27353 3.15681
# Velocity P-wave (km/s) = 5.23937 5.75111 5.50119
#
# Compressibility (1/GPa) = 0.03749480
#
# Stress axis : x y z
#
# Youngs Moduli (GPa) = 29.49063 49.07823 69.37406
#
# Poissons Ratio (x) = 0.22515 0.36744
# Poissons Ratio (y) = 0.13529 0.39669
# Poissons Ratio (z) = 0.15620 0.28063
#
# Static dielectric constant tensor:
#      x y z
#    x 1.633500 0.000000 0.000000 
#    y 0.000000 1.630530 0.000000 
#    z 0.000000 0.000000 1.564000 
# 
# From -- ./inp_files/21079.got.cif
#   From: 2010.05.17/outbox.cif.g08.bks.cpg/sg55_11_cif.got.tgz:21079.got - 2010.06.03 13:27:54.
