data_PCOD9425258
_publ_section_title
;
Structure prediction by ZEFSAII (Michael W. Deem and Ramdas Pophale) SiO2 
 PCOD9425258
Probable space group: P B A M
;
_chemical_formula_sum "Si O2"
_cell_formula_units_Z 40
_cell_length_a 10.543389
_cell_length_b 12.282681
_cell_length_c 11.731367
_cell_angle_alpha 90.000000
_cell_angle_beta 90.000000
_cell_angle_gamma 90.000000
_cell_volume 1519.224740
_symmetry_space_group_name_H-M "P B A M"
_symmetry_group_IT_number 55
_symmetry_cell_setting 'orthorhombic'
loop_
_space_group_symop_operation_xyz
x,y,z
-x,-y,z
1/2+x,1/2-y,-z
1/2-x,1/2+y,-z
-x,-y,-z
x,y,-z
1/2-x,1/2+y,z
1/2+x,1/2-y,z
loop_
_atom_site_type_symbol
_atom_site_label
_atom_site_fract_x
_atom_site_fract_y
_atom_site_fract_z
Si Si1 0.886282 0.413854 0.873724
Si Si2 0.755939 0.716231 0.670331
Si Si3 0.851216 0.477884 0.374339
Si Si4 0.416993 0.722747 0.127808
Si Si5 0.983807 0.873732 0.659754
O O1 0.818396 0.423945 0.749471
O O2 0.000000 0.500000 0.869926
O O3 0.962576 0.301811 0.873447
O O4 0.826516 0.431468 0.000000
O O5 0.791339 0.596404 0.628221
O O6 0.801462 0.719869 0.803415
O O7 0.604989 0.707838 0.643648
O O8 0.858712 0.804602 0.622229
O O9 0.826275 0.428518 0.500000
O O10 0.000000 0.500000 0.370601
O O11 0.460698 0.622490 0.204404
O O12 0.381723 0.700724 0.000000
O O13 0.000000 0.000000 0.621094
#
# Coordination Sequence:
#
# PCOD9425258 Si02
#       5
#     8   8   8   8   8
#     4   9  14  28  54  91 133 178 230 290 357 427
#     4  10  22  41  62  94 138 179 237 300 364 432
#     4  10  18  33  62  99 136 183 241 298 360 432
#     4   9  19  36  59  92 135 184 236 299 363 435
#     4  10  23  42  68  96 138 190 239 299 369 444
#
# _framework density 26.329218000000001
#
# number of rings (size 3 to 8) (size 9 to 14) (size 15 to 20)
#    1.200    1.200    4.000    0.000    0.000    4.400 
#    0.000    1.000    0.000    4.800    0.000    0.000 
#    0.000    0.000    0.000    0.000    0.000    0.000 
#
# Total GULP energy -222765.576225 kJ/mol
# GULP energy per Si atom -5569.139406 kJ/mol
# Density = 2.626929 g / cm^3
# Si number density = 26.329218 Si / 1000 Ang^3
#
#
#
# Elastic Constant Matrix: (Units=GPa)
#
#
# Indices 1 2 3 4 5 6 
#
# 1 138.6561 49.2156 59.2027 0.0000 0.0000 0.0000
# 2 49.2156 97.6341 58.6948 0.0000 0.0000 0.0000
# 3 59.2027 58.6948 288.8945 0.0000 0.0000 0.0000
# 4 0.0000 0.0000 0.0000 8.1202 0.0000 0.0000
# 5 0.0000 0.0000 0.0000 0.0000 -176.7502 0.0000
# 6 0.0000 0.0000 0.0000 0.0000 0.0000 48.2385
#
#
#
# Elastic Compliance Matrix: (Units=1/GPa)
#
#
# Indices 1 2 3 4 5 6 
#
# 1 0.009059 -0.003930 -0.001058 0.000000 0.000000 0.000000
# 2 -0.003930 0.013373 -0.001911 0.000000 0.000000 0.000000
# 3 -0.001058 -0.001911 0.004067 0.000000 0.000000 0.000000
# 4 0.000000 0.000000 0.000000 0.123149 0.000000 0.000000
# 5 0.000000 0.000000 0.000000 0.000000 -0.005658 0.000000
# 6 0.000000 0.000000 0.000000 0.000000 0.000000 0.020730
#
#
# Mechanical properties :
#
#
# Convention : Reuss Voigt Hill
#
# Bulk Modulus (GPa) = 78.74880 95.49009 87.11945
# Shear Modulus (GPa) = 27.35943 -0.20685 13.57629
#
# Velocity S-wave (km/s) = 3.22705 -0.28059 2.27323
# Velocity P-wave (km/s) = 6.62264 6.02009 6.32854
#
# Compressibility (1/GPa) = 0.01269861
#
# Stress axis : x y z
#
# Youngs Moduli (GPa) = 110.38902 74.77911 245.90487
#
# Poissons Ratio (x) = 0.29392 0.26013
# Poissons Ratio (y) = 0.43388 0.47004
# Poissons Ratio (z) = 0.11678 0.14294
#
# Static dielectric constant tensor:
#      x y z
#    x 2.020930 0.000000 0.000000 
#    y 0.000000 2.070990 0.000000 
#    z 0.000000 0.000000 2.093420 
# 
# From -- ./inp_files/13015.got.cif
#   From: 2010.05.17/outbox.cif.g08.bks.cpg/sg55_7_cif.got.tgz:13015.got - 2010.06.03 13:27:54.
