data_PCOD9425391
_publ_section_title
;
Structure prediction by ZEFSAII (Michael W. Deem and Ramdas Pophale) SiO2 
 PCOD9425391
Probable space group: P B A M
;
_chemical_formula_sum "Si O2"
_cell_formula_units_Z 48
_cell_length_a 4.996546
_cell_length_b 29.319337
_cell_length_c 18.649285
_cell_angle_alpha 90.000000
_cell_angle_beta 90.000000
_cell_angle_gamma 90.000000
_cell_volume 2732.034764
_symmetry_space_group_name_H-M "P B A M"
_symmetry_group_IT_number 55
_symmetry_cell_setting 'orthorhombic'
loop_
_space_group_symop_operation_xyz
x,y,z
-x,-y,z
1/2+x,1/2-y,-z
1/2-x,1/2+y,-z
-x,-y,-z
x,y,-z
1/2-x,1/2+y,z
1/2+x,1/2-y,z
loop_
_atom_site_type_symbol
_atom_site_label
_atom_site_fract_x
_atom_site_fract_y
_atom_site_fract_z
Si Si1 0.545528 0.353614 0.723596
Si Si2 0.045169 0.352468 0.623374
Si Si3 0.576492 0.780994 0.500000
Si Si4 0.532275 0.280944 0.000000
Si Si5 0.567639 0.547705 0.719430
Si Si6 0.932563 0.451844 0.620933
Si Si7 0.412531 0.281671 0.154636
O O1 0.839959 0.349740 0.690234
O O2 0.498278 0.404297 0.755418
O O3 0.479073 0.315753 0.781666
O O4 0.340590 0.349791 0.656565
O O5 0.983945 0.312254 0.568720
O O6 0.995473 0.402481 0.588182
O O7 0.376473 0.738010 0.500000
O O8 0.464536 0.303473 0.076019
O O9 0.837143 0.263680 0.000000
O O10 0.500000 0.500000 0.757357
O O11 0.869559 0.547676 0.690424
O O12 0.370501 0.547684 0.649528
O O13 0.000000 0.500000 0.583615
O O14 0.615710 0.238748 0.159020
#
# Coordination Sequence:
#
# PCOD9425391 Si02
#       7
#     8   8   4   4   8   8   8
#     4  10  19  31  50  72  91 115 151 192 224 257
#     4  10  21  35  49  68  91 116 154 192 223 268
#     4  12  26  40  51  62  87 128 160 186 228 272
#     4   8  16  30  44  62  91 122 147 176 222 274
#     4   8  14  25  42  65  91 115 139 173 220 267
#     4   8  14  27  47  67  87 109 135 178 230 271
#     4  10  19  30  46  68  94 121 149 184 225 266
#
# _framework density 17.569323000000001
#
# number of rings (size 3 to 8) (size 9 to 14) (size 15 to 20)
#    0.000    2.667    0.000    2.000    0.000    4.000 
#    0.000    0.417    0.000    0.000    0.000   13.417 
#    0.000    0.000    0.000   38.500    0.000    0.000 
#
# Total GULP energy -267378.580437 kJ/mol
# GULP energy per Si atom -5570.387092 kJ/mol
# Density = 1.752933 g / cm^3
# Si number density = 17.569323 Si / 1000 Ang^3
#
#
#
# Elastic Constant Matrix: (Units=GPa)
#
#
# Indices 1 2 3 4 5 6 
#
# 1 62.8576 -11.8242 -8.8098 0.0000 0.0000 0.0000
# 2 -11.8242 75.9100 28.5865 0.0000 0.0000 0.0000
# 3 -8.8098 28.5865 46.7764 0.0000 0.0000 0.0000
# 4 0.0000 0.0000 0.0000 -13.0147 0.0000 0.0000
# 5 0.0000 0.0000 0.0000 0.0000 10.1703 0.0000
# 6 0.0000 0.0000 0.0000 0.0000 0.0000 25.3548
#
#
#
# Elastic Compliance Matrix: (Units=1/GPa)
#
#
# Indices 1 2 3 4 5 6 
#
# 1 0.016532 0.001822 0.002000 0.000000 0.000000 0.000000
# 2 0.001822 0.017312 -0.010237 0.000000 0.000000 0.000000
# 3 0.002000 -0.010237 0.028011 0.000000 0.000000 0.000000
# 4 0.000000 0.000000 0.000000 -0.076836 0.000000 0.000000
# 5 0.000000 0.000000 0.000000 0.000000 0.098326 0.000000
# 6 0.000000 0.000000 0.000000 0.000000 0.000000 0.039440
#
#
# Mechanical properties :
#
#
# Convention : Reuss Voigt Hill
#
# Bulk Modulus (GPa) = 20.39746 22.38325 21.39035
# Shear Modulus (GPa) = 32.90405 16.34152 24.62278
#
# Velocity S-wave (km/s) = 4.33230 3.05309 3.74768
# Velocity P-wave (km/s) = 6.05475 5.01957 5.56130
#
# Compressibility (1/GPa) = 0.04902572
#
# Stress axis : x y z
#
# Youngs Moduli (GPa) = 60.48868 57.76218 35.70004
#
# Poissons Ratio (x) = -0.10523 -0.07141
# Poissons Ratio (y) = -0.11020 0.36546
# Poissons Ratio (z) = -0.12099 0.59131
#
# Static dielectric constant tensor:
#      x y z
#    x 1.593110 0.000000 0.000000 
#    y 0.000000 1.655130 0.000000 
#    z 0.000000 0.000000 1.580580 
# 
# From -- ./inp_files/20478.got.cif
#   From: 2010.05.17/outbox.cif.g08.bks.cpg/sg55_11_cif.got.tgz:20478.got - 2010.06.03 13:27:54.
