data_PCOD9425747
_publ_section_title
;
Structure prediction by ZEFSAII (Michael W. Deem and Ramdas Pophale) SiO2 
 PCOD9425747
Probable space group: P B A M
;
_chemical_formula_sum "Si O2"
_cell_formula_units_Z 64
_cell_length_a 12.963447
_cell_length_b 29.350688
_cell_length_c 7.516580
_cell_angle_alpha 90.000000
_cell_angle_beta 90.000000
_cell_angle_gamma 90.000000
_cell_volume 2859.954122
_symmetry_space_group_name_H-M "P B A M"
_symmetry_group_IT_number 55
_symmetry_cell_setting 'orthorhombic'
loop_
_space_group_symop_operation_xyz
x,y,z
-x,-y,z
1/2+x,1/2-y,-z
1/2-x,1/2+y,-z
-x,-y,-z
x,y,-z
1/2-x,1/2+y,z
1/2+x,1/2-y,z
loop_
_atom_site_type_symbol
_atom_site_label
_atom_site_fract_x
_atom_site_fract_y
_atom_site_fract_z
Si Si1 0.426755 0.040114 0.215305
Si Si2 0.682550 0.831894 0.288480
Si Si3 0.526069 0.132787 0.788047
Si Si4 0.501837 0.551298 0.800655
Si Si5 0.782514 0.684201 0.782080
Si Si6 0.779243 0.927639 0.294659
Si Si7 0.445205 0.347161 0.217721
Si Si8 0.123368 0.223018 0.798866
O O1 0.477668 0.086587 0.285553
O O2 0.309912 0.035197 0.278460
O O3 0.500000 0.000000 0.271464
O O4 0.423610 0.041588 0.000000
O O5 0.694942 0.827382 0.500000
O O6 0.561686 0.829114 0.246597
O O7 0.723634 0.881620 0.231942
O O8 0.762722 0.798791 0.197749
O O9 0.640728 0.143716 0.727490
O O10 0.532264 0.127987 0.000000
O O11 0.500000 0.500000 0.717143
O O12 0.381158 0.562696 0.810577
O O13 0.546885 0.599342 0.724269
O O14 0.547206 0.545900 0.000000
O O15 0.664271 0.675395 0.728842
O O16 0.846392 0.728405 0.715940
O O17 0.779844 0.687196 0.000000
O O18 0.808895 0.921885 0.500000
O O19 0.541130 0.314192 0.275324
O O20 0.449923 0.349176 0.000000
O O21 0.086024 0.232024 0.000000
#
# Coordination Sequence:
#
# PCOD9425747 Si02
#       8
#     8   8   8   8   8   8   8   8
#     4   9  18  32  53  80 108 140 179 222 269 318
#     4  10  20  34  53  76 104 139 176 222 269 315
#     4   9  18  33  54  79 108 139 173 218 266 318
#     4  10  20  34  55  80 106 142 184 226 275 325
#     4   9  19  32  52  82 110 138 176 221 275 327
#     4  10  20  34  52  75 105 140 180 225 270 321
#     4   9  18  33  52  81 114 138 173 229 276 319
#     4  10  19  32  56  80 102 135 178 223 267 322
#
# _framework density 22.377983
#
# number of rings (size 3 to 8) (size 9 to 14) (size 15 to 20)
#    0.000    2.500    1.250    0.750    1.750    2.500 
#    0.000    4.375    0.000    2.250    0.000    0.000 
#    0.000    0.000    0.000    0.000    0.000    0.000 
#
# Total GULP energy -356537.594177 kJ/mol
# GULP energy per Si atom -5570.899909 kJ/mol
# Density = 2.232705 g / cm^3
# Si number density = 22.377983 Si / 1000 Ang^3
#
#
#
# Elastic Constant Matrix: (Units=GPa)
#
#
# Indices 1 2 3 4 5 6 
#
# 1 119.5421 43.7825 -2.0958 0.0000 0.0000 0.0000
# 2 43.7825 103.0382 3.0276 0.0000 0.0000 0.0000
# 3 -2.0958 3.0276 54.5213 0.0000 0.0000 0.0000
# 4 0.0000 0.0000 0.0000 -12.9195 0.0000 0.0000
# 5 0.0000 0.0000 0.0000 0.0000 -56.0240 0.0000
# 6 0.0000 0.0000 0.0000 0.0000 0.0000 31.7091
#
#
#
# Elastic Compliance Matrix: (Units=1/GPa)
#
#
# Indices 1 2 3 4 5 6 
#
# 1 0.009928 -0.004237 0.000617 0.000000 0.000000 0.000000
# 2 -0.004237 0.011529 -0.000803 0.000000 0.000000 0.000000
# 3 0.000617 -0.000803 0.018410 0.000000 0.000000 0.000000
# 4 0.000000 0.000000 0.000000 -0.077403 0.000000 0.000000
# 5 0.000000 0.000000 0.000000 0.000000 -0.017849 0.000000
# 6 0.000000 0.000000 0.000000 0.000000 0.000000 0.031537
#
#
# Mechanical properties :
#
#
# Convention : Reuss Voigt Hill
#
# Bulk Modulus (GPa) = 32.23632 40.72557 36.48094
# Shear Modulus (GPa) = -1072.24820 8.04560 -532.10130
#
# Velocity S-wave (km/s) = -21.91332 1.89819 -15.43681
# Velocity P-wave (km/s) = 25.01642 4.80027 17.36057
#
# Compressibility (1/GPa) = 0.03102091
#
# Stress axis : x y z
#
# Youngs Moduli (GPa) = 100.72804 86.73845 54.31901
#
# Poissons Ratio (x) = 0.36747 -0.03351
# Poissons Ratio (y) = 0.42674 0.04362
# Poissons Ratio (z) = -0.06214 0.06966
#
# Static dielectric constant tensor:
#      x y z
#    x 1.803270 0.000000 0.000000 
#    y 0.000000 1.911550 0.000000 
#    z 0.000000 0.000000 1.871080 
# 
# From -- ./inp_files/4600.got.cif
#   From: 2010.05.17/outbox.cif.g08.bks.cpg/sg55_3_cif.got.tgz:4600.got - 2010.06.03 13:27:54.
