data_PCOD9425887
_publ_section_title
;
Structure prediction by ZEFSAII (Michael W. Deem and Ramdas Pophale) SiO2 
 PCOD9425887
Probable space group: P B A M
;
_chemical_formula_sum "Si O2"
_cell_formula_units_Z 64
_cell_length_a 24.272866
_cell_length_b 15.603661
_cell_length_c 7.365516
_cell_angle_alpha 90.000000
_cell_angle_beta 90.000000
_cell_angle_gamma 90.000000
_cell_volume 2789.656575
_symmetry_space_group_name_H-M "P B A M"
_symmetry_group_IT_number 55
_symmetry_cell_setting 'orthorhombic'
loop_
_space_group_symop_operation_xyz
x,y,z
-x,-y,z
1/2+x,1/2-y,-z
1/2-x,1/2+y,-z
-x,-y,-z
x,y,-z
1/2-x,1/2+y,z
1/2+x,1/2-y,z
loop_
_atom_site_type_symbol
_atom_site_label
_atom_site_fract_x
_atom_site_fract_y
_atom_site_fract_z
Si Si1 0.239137 0.744074 0.706954
Si Si2 0.357855 0.495007 0.218628
Si Si3 0.040081 0.571541 0.709430
Si Si4 0.532733 0.584903 0.778654
Si Si5 0.639193 0.311528 0.781287
Si Si6 0.526478 0.241414 0.779896
Si Si7 0.260388 0.931160 0.706056
Si Si8 0.665250 0.913692 0.723152
O O1 0.219777 0.759015 0.500000
O O2 0.300559 0.705790 0.706210
O O3 0.198117 0.671841 0.784106
O O4 0.247403 0.838427 0.791880
O O5 0.403964 0.427439 0.276612
O O6 0.377392 0.590985 0.262621
O O7 0.298097 0.478634 0.296887
O O8 0.352843 0.490624 0.000000
O O9 0.049306 0.545467 0.500000
O O10 0.101750 0.584154 0.782608
O O11 0.000000 0.500000 0.792945
O O12 0.006490 0.659476 0.715533
O O13 0.500000 0.500000 0.721401
O O14 0.504566 0.672296 0.720019
O O15 0.531504 0.584948 0.000000
O O16 0.590277 0.248690 0.722408
O O17 0.643568 0.305852 0.000000
O O18 0.526283 0.240224 0.000000
O O19 0.279677 0.913281 0.500000
O O20 0.303543 0.999533 0.783908
O O21 0.668253 0.912533 0.500000
#
# Coordination Sequence:
#
# PCOD9425887 Si02
#       8
#     8   8   8   8   8   8   8   8
#     4  10  21  36  58  82 108 146 185 227 282 339
#     4  10  19  33  55  82 112 145 182 222 267 330
#     4  10  23  41  61  81 108 151 198 240 280 330
#     4   9  16  31  54  79 111 149 181 210 264 338
#     4  10  20  35  56  83 114 143 181 231 279 330
#     4  10  21  37  58  84 113 148 186 230 279 329
#     4  10  21  36  57  80 107 145 183 223 281 340
#     4   9  19  38  56  79 113 143 182 234 278 326
#
# _framework density 22.941893
#
# number of rings (size 3 to 8) (size 9 to 14) (size 15 to 20)
#    0.000    2.250    2.500    0.000    3.500    1.250 
#    0.000    1.250    0.000    0.750    0.000    0.000 
#    0.000    0.000    0.000    0.000    0.000    0.000 
#
# Total GULP energy -357467.178869 kJ/mol
# GULP energy per Si atom -5585.424670 kJ/mol
# Density = 2.288968 g / cm^3
# Si number density = 22.941893 Si / 1000 Ang^3
#
#
#
# Elastic Constant Matrix: (Units=GPa)
#
#
# Indices 1 2 3 4 5 6 
#
# 1 176.2553 76.0891 -0.5258 0.0000 0.0000 0.0000
# 2 76.0891 164.5921 3.4005 0.0000 0.0000 0.0000
# 3 -0.5258 3.4005 79.2210 0.0000 0.0000 0.0000
# 4 0.0000 0.0000 0.0000 105.1018 0.0000 0.0000
# 5 0.0000 0.0000 0.0000 0.0000 8.9036 0.0000
# 6 0.0000 0.0000 0.0000 0.0000 0.0000 31.7487
#
#
#
# Elastic Compliance Matrix: (Units=1/GPa)
#
#
# Indices 1 2 3 4 5 6 
#
# 1 0.007091 -0.003282 0.000188 0.000000 0.000000 0.000000
# 2 -0.003282 0.007600 -0.000348 0.000000 0.000000 0.000000
# 3 0.000188 -0.000348 0.012639 0.000000 0.000000 0.000000
# 4 0.000000 0.000000 0.000000 0.009515 0.000000 0.000000
# 5 0.000000 0.000000 0.000000 0.000000 0.112314 0.000000
# 6 0.000000 0.000000 0.000000 0.000000 0.000000 0.031497
#
#
# Mechanical properties :
#
#
# Convention : Reuss Voigt Hill
#
# Bulk Modulus (GPa) = 48.90923 64.22178 56.56551
# Shear Modulus (GPa) = 25.72613 51.89113 38.80863
#
# Velocity S-wave (km/s) = 3.35230 4.76105 4.11738
# Velocity P-wave (km/s) = 6.02901 7.63397 6.87846
#
# Compressibility (1/GPa) = 0.02044604
#
# Stress axis : x y z
#
# Youngs Moduli (GPa) = 141.02450 131.57840 79.11957
#
# Poissons Ratio (x) = 0.43183 -0.01487
# Poissons Ratio (y) = 0.46284 0.02753
# Poissons Ratio (z) = -0.02650 0.04579
#
# Static dielectric constant tensor:
#      x y z
#    x 1.815020 0.000000 0.000000 
#    y 0.000000 1.841490 0.000000 
#    z 0.000000 0.000000 1.909890 
# 
# From -- ./inp_files/6483.got.cif
#   From: 2010.05.17/outbox.cif.g08.bks.cpg/sg55_4_cif.got.tgz:6483.got - 2010.06.03 13:27:54.
