data_PCOD9425504
_publ_section_title
;
Structure prediction by ZEFSAII (Michael W. Deem and Ramdas Pophale) SiO2 
 PCOD9425504
Probable space group: P B A M
;
_chemical_formula_sum "Si O2"
_cell_formula_units_Z 56
_cell_length_a 24.802571
_cell_length_b 13.891770
_cell_length_c 7.667948
_cell_angle_alpha 90.000000
_cell_angle_beta 90.000000
_cell_angle_gamma 90.000000
_cell_volume 2642.003842
_symmetry_space_group_name_H-M "P B A M"
_symmetry_group_IT_number 55
_symmetry_cell_setting 'orthorhombic'
loop_
_space_group_symop_operation_xyz
x,y,z
-x,-y,z
1/2+x,1/2-y,-z
1/2-x,1/2+y,-z
-x,-y,-z
x,y,-z
1/2-x,1/2+y,z
1/2+x,1/2-y,z
loop_
_atom_site_type_symbol
_atom_site_label
_atom_site_fract_x
_atom_site_fract_y
_atom_site_fract_z
Si Si1 0.058817 0.227550 0.702225
Si Si2 0.166946 0.528071 0.295766
Si Si3 0.945930 0.554275 0.714402
Si Si4 0.164299 0.746820 0.792426
Si Si5 0.724187 0.563097 0.290142
Si Si6 0.056035 0.852954 0.792625
Si Si7 0.883067 0.956485 0.710915
O O1 0.074483 0.239373 0.500000
O O2 0.056368 0.335050 0.775224
O O3 0.099291 0.147872 0.778609
O O4 0.999512 0.180987 0.710524
O O5 0.164916 0.502527 0.500000
O O6 0.108369 0.499137 0.225764
O O7 0.175577 0.641936 0.280664
O O8 0.218371 0.471941 0.220691
O O9 0.947679 0.553714 0.500000
O O10 0.000000 0.500000 0.772115
O O11 0.208704 0.827238 0.750047
O O12 0.106877 0.789351 0.728278
O O13 0.160551 0.738424 0.000000
O O14 0.724762 0.553071 0.500000
O O15 0.674295 0.497326 0.225547
O O16 0.072493 0.963056 0.757310
O O17 0.051068 0.840272 0.000000
O O18 0.881158 0.952328 0.500000
#
# Coordination Sequence:
#
# PCOD9425504 Si02
#       7
#     8   8   8   8   8   8   8
#     4  10  19  31  50  74 102 136 171 211 261 312
#     4  10  20  35  58  83 104 133 175 219 260 305
#     4   9  18  32  51  77 106 134 167 210 259 309
#     4  10  21  36  54  76 105 141 175 211 259 313
#     4   9  19  35  55  79 105 134 173 219 261 305
#     4  10  20  33  50  74 104 138 176 213 251 302
#     4   9  18  32  50  75 105 135 168 210 260 309
#
# _framework density 21.196033
#
# number of rings (size 3 to 8) (size 9 to 14) (size 15 to 20)
#    0.000    2.429    0.000    2.143    0.000    6.857 
#    0.000    5.000    0.000    4.286    0.000    0.000 
#    0.000    0.000    0.000    0.000    0.000    0.000 
#
# Total GULP energy -312704.857115 kJ/mol
# GULP energy per Si atom -5584.015306 kJ/mol
# Density = 2.114779 g / cm^3
# Si number density = 21.196033 Si / 1000 Ang^3
#
#
#
# Elastic Constant Matrix: (Units=GPa)
#
#
# Indices 1 2 3 4 5 6 
#
# 1 145.7943 94.3228 -3.0324 0.0000 0.0000 0.0000
# 2 94.3228 148.6578 -10.7701 0.0000 0.0000 0.0000
# 3 -3.0324 -10.7701 36.7633 0.0000 0.0000 0.0000
# 4 0.0000 0.0000 0.0000 105.2733 0.0000 0.0000
# 5 0.0000 0.0000 0.0000 0.0000 -3.9761 0.0000
# 6 0.0000 0.0000 0.0000 0.0000 0.0000 19.2801
#
#
#
# Elastic Compliance Matrix: (Units=1/GPa)
#
#
# Indices 1 2 3 4 5 6 
#
# 1 0.011690 -0.007507 -0.001235 0.000000 0.000000 0.000000
# 2 -0.007507 0.011693 0.002806 0.000000 0.000000 0.000000
# 3 -0.001235 0.002806 0.027921 0.000000 0.000000 0.000000
# 4 0.000000 0.000000 0.000000 0.009499 0.000000 0.000000
# 5 0.000000 0.000000 0.000000 0.000000 -0.251505 0.000000
# 6 0.000000 0.000000 0.000000 0.000000 0.000000 0.051867
#
#
# Mechanical properties :
#
#
# Convention : Reuss Voigt Hill
#
# Bulk Modulus (GPa) = 25.35879 54.69511 40.02695
# Shear Modulus (GPa) = -43.92882 40.82847 -1.55017
#
# Velocity S-wave (km/s) = -4.55741 4.39365 -0.85612
# Velocity P-wave (km/s) = 3.96276 7.18326 4.23650
#
# Compressibility (1/GPa) = 0.03943406
#
# Stress axis : x y z
#
# Youngs Moduli (GPa) = 85.54536 85.52088 35.81488
#
# Poissons Ratio (x) = 0.64197 0.04423
# Poissons Ratio (y) = 0.64215 -0.10051
# Poissons Ratio (z) = 0.10564 -0.24001
#
# Static dielectric constant tensor:
#      x y z
#    x 1.757400 0.000000 0.000000 
#    y 0.000000 1.741510 0.000000 
#    z 0.000000 0.000000 1.774150 
# 
# From -- ./inp_files/8727.got.cif
#   From: 2010.05.17/outbox.cif.g08.bks.cpg/sg55_5_cif.got.tgz:8727.got - 2010.06.03 13:27:54.
