data_PCOD9425557
_publ_section_title
;
Structure prediction by ZEFSAII (Michael W. Deem and Ramdas Pophale) SiO2 
 PCOD9425557
Probable space group: P B A M
;
_chemical_formula_sum "Si O2"
_cell_formula_units_Z 48
_cell_length_a 20.455343
_cell_length_b 15.415406
_cell_length_c 8.571986
_cell_angle_alpha 90.000000
_cell_angle_beta 90.000000
_cell_angle_gamma 90.000000
_cell_volume 2702.982206
_symmetry_space_group_name_H-M "P B A M"
_symmetry_group_IT_number 55
_symmetry_cell_setting 'orthorhombic'
loop_
_space_group_symop_operation_xyz
x,y,z
-x,-y,z
1/2+x,1/2-y,-z
1/2-x,1/2+y,-z
-x,-y,-z
x,y,-z
1/2-x,1/2+y,z
1/2+x,1/2-y,z
loop_
_atom_site_type_symbol
_atom_site_label
_atom_site_fract_x
_atom_site_fract_y
_atom_site_fract_z
Si Si1 0.335612 0.803056 0.187149
Si Si2 0.980958 0.724302 0.686939
Si Si3 0.556580 0.932902 0.188266
Si Si4 0.040568 0.082267 0.310200
Si Si5 0.697756 0.005993 0.188554
Si Si6 0.811297 0.883463 0.313089
O O1 0.410719 0.804808 0.245327
O O2 0.304084 0.714798 0.251194
O O3 0.301387 0.892833 0.236326
O O4 0.336224 0.800002 0.000000
O O5 0.977251 0.720414 0.500000
O O6 0.989684 0.824739 0.734078
O O7 0.036559 0.660506 0.747482
O O8 0.627630 0.966408 0.237201
O O9 0.500000 0.000000 0.238947
O O10 0.555486 0.930292 0.000000
O O11 0.040437 0.079074 0.500000
O O12 0.116464 0.084552 0.261525
O O13 0.000000 0.000000 0.252479
O O14 0.755879 0.948043 0.254229
O O15 0.700244 0.003450 0.000000
O O16 0.810943 0.880492 0.500000
#
# Coordination Sequence:
#
# PCOD9425557 Si02
#       6
#     8   8   8   8   8   8
#     4  10  19  36  59  77 104 148 188 221 270 331
#     4  10  19  31  53  84 110 137 179 228 278 325
#     4  10  19  35  55  78 108 145 185 220 270 331
#     4   8  16  34  56  76 105 141 175 213 267 328
#     4  10  21  37  57  78 107 148 186 225 274 332
#     4  10  21  36  56  83 110 140 182 231 280 331
#
# _framework density 17.758163
#
# number of rings (size 3 to 8) (size 9 to 14) (size 15 to 20)
#    0.000    2.333    1.667    2.500    0.000    2.333 
#    3.000    0.000    0.000   17.000    0.000    0.000 
#    0.000    0.000    0.000    0.000    0.000    0.000 
#
# Total GULP energy -267776.066387 kJ/mol
# GULP energy per Si atom -5578.668050 kJ/mol
# Density = 1.771774 g / cm^3
# Si number density = 17.758163 Si / 1000 Ang^3
#
#
#
# Elastic Constant Matrix: (Units=GPa)
#
#
# Indices 1 2 3 4 5 6 
#
# 1 98.6855 105.8327 26.3046 0.0000 0.0000 0.0000
# 2 105.8327 197.1491 37.1486 0.0000 0.0000 0.0000
# 3 26.3046 37.1486 25.5100 0.0000 0.0000 0.0000
# 4 0.0000 0.0000 0.0000 28.0206 0.0000 0.0000
# 5 0.0000 0.0000 0.0000 0.0000 22.4858 0.0000
# 6 0.0000 0.0000 0.0000 0.0000 0.0000 36.5793
#
#
#
# Elastic Compliance Matrix: (Units=1/GPa)
#
#
# Indices 1 2 3 4 5 6 
#
# 1 0.025198 -0.011895 -0.008662 0.000000 0.000000 0.000000
# 2 -0.011895 0.012605 -0.006091 0.000000 0.000000 0.000000
# 3 -0.008662 -0.006091 0.057002 0.000000 0.000000 0.000000
# 4 0.000000 0.000000 0.000000 0.035688 0.000000 0.000000
# 5 0.000000 0.000000 0.000000 0.000000 0.044472 0.000000
# 6 0.000000 0.000000 0.000000 0.000000 0.000000 0.027338
#
#
# Mechanical properties :
#
#
# Convention : Reuss Voigt Hill
#
# Bulk Modulus (GPa) = 24.09027 73.32405 48.70716
# Shear Modulus (GPa) = 18.55738 27.55440 23.05589
#
# Velocity S-wave (km/s) = 3.23616 3.94337 3.60714
# Velocity P-wave (km/s) = 5.24965 7.88121 6.69598
#
# Compressibility (1/GPa) = 0.04151054
#
# Stress axis : x y z
#
# Youngs Moduli (GPa) = 39.68584 79.33220 17.54328
#
# Poissons Ratio (x) = 0.94362 0.15195
# Poissons Ratio (y) = 0.47204 0.10686
# Poissons Ratio (z) = 0.34374 0.48323
#
# Static dielectric constant tensor:
#      x y z
#    x 1.579680 0.000000 0.000000 
#    y 0.000000 1.612530 0.000000 
#    z 0.000000 0.000000 1.607000 
# 
# From -- ./inp_files/5819.got.cif
#   From: 2010.05.17/outbox.cif.g08.bks.cpg/sg55_3_cif.got.tgz:5819.got - 2010.06.03 13:27:54.
