data_PCOD9425202
_publ_section_title
;
Structure prediction by ZEFSAII (Michael W. Deem and Ramdas Pophale) SiO2 
 PCOD9425202
Probable space group: P B A M
;
_chemical_formula_sum "Si O2"
_cell_formula_units_Z 48
_cell_length_a 20.381684
_cell_length_b 15.401369
_cell_length_c 8.619007
_cell_angle_alpha 90.000000
_cell_angle_beta 90.000000
_cell_angle_gamma 90.000000
_cell_volume 2705.556599
_symmetry_space_group_name_H-M "P B A M"
_symmetry_group_IT_number 55
_symmetry_cell_setting 'orthorhombic'
loop_
_space_group_symop_operation_xyz
x,y,z
-x,-y,z
1/2+x,1/2-y,-z
1/2-x,1/2+y,-z
-x,-y,-z
x,y,-z
1/2-x,1/2+y,z
1/2+x,1/2-y,z
loop_
_atom_site_type_symbol
_atom_site_label
_atom_site_fract_x
_atom_site_fract_y
_atom_site_fract_z
Si Si1 0.336184 0.805289 0.685981
Si Si2 0.980981 0.728723 0.185973
Si Si3 0.558374 0.935690 0.188814
Si Si4 0.038571 0.085410 0.312833
Si Si5 0.697645 0.012342 0.185888
Si Si6 0.810293 0.889190 0.313199
O O1 0.339848 0.807459 0.500000
O O2 0.410356 0.803595 0.751865
O O3 0.299891 0.890378 0.747305
O O4 0.304178 0.712641 0.730855
O O5 0.990806 0.825788 0.246476
O O6 0.036801 0.660793 0.236141
O O7 0.977937 0.728667 0.000000
O O8 0.500000 0.000000 0.238422
O O9 0.628970 0.969298 0.241234
O O10 0.559464 0.937453 0.000000
O O11 0.035701 0.090120 0.500000
O O12 0.115455 0.083676 0.269612
O O13 0.000000 0.000000 0.261431
O O14 0.757035 0.951568 0.238355
O O15 0.696028 0.017755 0.000000
O O16 0.804901 0.894892 0.500000
#
# Coordination Sequence:
#
# PCOD9425202 Si02
#       6
#     8   8   8   8   8   8
#     4  10  20  36  57  78 107 145 183 219 270 328
#     4  10  18  32  56  81 108 139 178 225 272 321
#     4   9  17  32  52  78 112 142 169 214 275 319
#     4   9  19  38  60  79 106 144 184 226 276 330
#     4  11  21  35  57  81 109 144 183 225 270 325
#     4   9  20  38  56  77 108 143 179 224 274 323
#
# _framework density 17.741264999999999
#
# number of rings (size 3 to 8) (size 9 to 14) (size 15 to 20)
#    0.000    2.333    1.667    2.500    0.000    3.667 
#    3.000    4.167    0.000    0.000    0.000    0.000 
#    0.000    0.000    0.000    0.000    0.000    0.000 
#
# Total GULP energy -267780.475426 kJ/mol
# GULP energy per Si atom -5578.759905 kJ/mol
# Density = 1.770088 g / cm^3
# Si number density = 17.741265 Si / 1000 Ang^3
#
#
#
# Elastic Constant Matrix: (Units=GPa)
#
#
# Indices 1 2 3 4 5 6 
#
# 1 84.8863 93.4601 27.6639 0.0000 0.0000 0.0000
# 2 93.4601 188.9267 41.7364 0.0000 0.0000 0.0000
# 3 27.6639 41.7364 28.1319 0.0000 0.0000 0.0000
# 4 0.0000 0.0000 0.0000 31.1269 0.0000 0.0000
# 5 0.0000 0.0000 0.0000 0.0000 16.3243 0.0000
# 6 0.0000 0.0000 0.0000 0.0000 0.0000 34.3244
#
#
#
# Elastic Compliance Matrix: (Units=1/GPa)
#
#
# Indices 1 2 3 4 5 6 
#
# 1 0.027740 -0.011449 -0.010293 0.000000 0.000000 0.000000
# 2 -0.011449 0.012599 -0.007433 0.000000 0.000000 0.000000
# 3 -0.010293 -0.007433 0.056696 0.000000 0.000000 0.000000
# 4 0.000000 0.000000 0.000000 0.032127 0.000000 0.000000
# 5 0.000000 0.000000 0.000000 0.000000 0.061259 0.000000
# 6 0.000000 0.000000 0.000000 0.000000 0.000000 0.029134
#
#
# Mechanical properties :
#
#
# Convention : Reuss Voigt Hill
#
# Bulk Modulus (GPa) = 25.84972 69.74063 47.79518
# Shear Modulus (GPa) = 17.19398 25.62743 21.41070
#
# Velocity S-wave (km/s) = 3.11650 3.80479 3.47772
# Velocity P-wave (km/s) = 5.24901 7.66140 6.56693
#
# Compressibility (1/GPa) = 0.03868513
#
# Stress axis : x y z
#
# Youngs Moduli (GPa) = 36.04878 79.37280 17.63781
#
# Poissons Ratio (x) = 0.90873 0.18155
# Poissons Ratio (y) = 0.41272 0.13110
# Poissons Ratio (z) = 0.37105 0.58998
#
# Static dielectric constant tensor:
#      x y z
#    x 1.580910 0.000000 0.000000 
#    y 0.000000 1.609030 0.000000 
#    z 0.000000 0.000000 1.604340 
# 
# From -- ./inp_files/8555.got.cif
#   From: 2010.05.17/outbox.cif.g08.bks.cpg/sg55_5_cif.got.tgz:8555.got - 2010.06.03 13:27:54.
