data_PCOD9425011
_publ_section_title
;
Structure prediction by ZEFSAII (Michael W. Deem and Ramdas Pophale) SiO2 
 PCOD9425011
Probable space group: P B A M
;
_chemical_formula_sum "Si O2"
_cell_formula_units_Z 64
_cell_length_a 22.642782
_cell_length_b 8.922943
_cell_length_c 15.138022
_cell_angle_alpha 90.000000
_cell_angle_beta 90.000000
_cell_angle_gamma 90.000000
_cell_volume 3058.489797
_symmetry_space_group_name_H-M "P B A M"
_symmetry_group_IT_number 55
_symmetry_cell_setting 'orthorhombic'
loop_
_space_group_symop_operation_xyz
x,y,z
-x,-y,z
1/2+x,1/2-y,-z
1/2-x,1/2+y,-z
-x,-y,-z
x,y,-z
1/2-x,1/2+y,z
1/2+x,1/2-y,z
loop_
_atom_site_type_symbol
_atom_site_label
_atom_site_fract_x
_atom_site_fract_y
_atom_site_fract_z
Si Si1 0.345493 0.565834 0.899316
Si Si2 0.466799 0.753559 0.900556
Si Si3 0.862188 0.015786 0.600181
Si Si4 0.829972 0.780637 0.731754
Si Si5 0.099071 0.755972 0.100731
Si Si6 0.581790 0.016320 0.228283
Si Si7 0.389012 0.136942 0.397479
Si Si8 0.275932 0.924129 0.402231
O O1 0.410370 0.645123 0.893383
O O2 0.308519 0.634934 0.819233
O O3 0.356395 0.391023 0.882972
O O4 0.324235 0.589024 0.000000
O O5 0.531582 0.682079 0.894010
O O6 0.463821 0.879066 0.824955
O O7 0.463111 0.820730 0.000000
O O8 0.882041 0.976580 0.500000
O O9 0.884164 0.184643 0.620141
O O10 0.790987 0.022566 0.599283
O O11 0.872805 0.891453 0.675194
O O12 0.865742 0.634987 0.760730
O O13 0.782335 0.708513 0.667531
O O14 0.102784 0.619627 0.167171
O O15 0.107393 0.703640 0.000000
O O16 0.570783 0.945930 0.324849
O O17 0.407266 0.118199 0.500000
O O18 0.324550 0.055566 0.389722
O O19 0.288271 0.860563 0.500000
#
# Coordination Sequence:
#
# PCOD9425011 Si02
#       8
#     8   8   8   8   8   8   8   8
#     4   9  18  31  48  72 101 131 161 193 232 281
#     4   9  17  30  49  73  97 121 154 199 246 284
#     4  10  18  30  50  73  95 120 154 197 243 287
#     4  10  19  30  46  70 101 130 155 189 237 288
#     4  10  18  30  50  73  96 122 156 200 245 283
#     4  10  19  29  43  67  98 128 156 190 236 289
#     4   9  18  30  44  65  93 122 153 189 229 280
#     4   9  17  30  49  74  98 119 149 192 240 283
#
# _framework density 20.925360000000001
#
# number of rings (size 3 to 8) (size 9 to 14) (size 15 to 20)
#    0.000    2.500    0.000    3.000    0.000    5.500 
#    0.000    0.000    0.000    2.250    0.000    7.000 
#    0.000   23.000    0.000    0.000    0.000    0.000 
#
# Total GULP energy -356765.895745 kJ/mol
# GULP energy per Si atom -5574.467121 kJ/mol
# Density = 2.087773 g / cm^3
# Si number density = 20.925360 Si / 1000 Ang^3
#
#
#
# Elastic Constant Matrix: (Units=GPa)
#
#
# Indices 1 2 3 4 5 6 
#
# 1 10.8644 -1.5966 5.3393 0.0000 0.0000 0.0000
# 2 -1.5966 81.6922 54.6031 0.0000 0.0000 0.0000
# 3 5.3393 54.6031 97.0937 0.0000 0.0000 0.0000
# 4 0.0000 0.0000 0.0000 40.5351 0.0000 0.0000
# 5 0.0000 0.0000 0.0000 0.0000 2.0876 0.0000
# 6 0.0000 0.0000 0.0000 0.0000 0.0000 22.4150
#
#
#
# Elastic Compliance Matrix: (Units=1/GPa)
#
#
# Indices 1 2 3 4 5 6 
#
# 1 0.098465 0.008882 -0.010410 0.000000 0.000000 0.000000
# 2 0.008882 0.020415 -0.011969 0.000000 0.000000 0.000000
# 3 -0.010410 -0.011969 0.017603 0.000000 0.000000 0.000000
# 4 0.000000 0.000000 0.000000 0.024670 0.000000 0.000000
# 5 0.000000 0.000000 0.000000 0.000000 0.479030 0.000000
# 6 0.000000 0.000000 0.000000 0.000000 0.000000 0.044613
#
#
# Mechanical properties :
#
#
# Convention : Reuss Voigt Hill
#
# Bulk Modulus (GPa) = 9.13329 34.03799 21.58564
# Shear Modulus (GPa) = 6.68193 21.76117 14.22155
#
# Velocity S-wave (km/s) = 1.78890 3.22831 2.60980
# Velocity P-wave (km/s) = 2.93957 5.49524 4.40674
#
# Compressibility (1/GPa) = 0.10948962
#
# Stress axis : x y z
#
# Youngs Moduli (GPa) = 10.15585 48.98371 56.80840
#
# Poissons Ratio (x) = -0.43509 0.59137
# Poissons Ratio (y) = -0.09021 0.67996
# Poissons Ratio (z) = 0.10572 0.58630
#
# Static dielectric constant tensor:
#      x y z
#    x 1.743490 0.000000 0.000000 
#    y 0.000000 1.751310 0.000000 
#    z 0.000000 0.000000 1.820710 
# 
# From -- ./inp_files/12609.got.cif
#   From: 2010.05.17/outbox.cif.g08.bks.cpg/sg55_7_cif.got.tgz:12609.got - 2010.06.03 13:27:54.
