data_PCOD9425184
_publ_section_title
;
Structure prediction by ZEFSAII (Michael W. Deem and Ramdas Pophale) SiO2 
 PCOD9425184
Probable space group: P B A M
;
_chemical_formula_sum "Si O2"
_cell_formula_units_Z 56
_cell_length_a 19.572076
_cell_length_b 14.519182
_cell_length_c 7.584563
_cell_angle_alpha 90.000000
_cell_angle_beta 90.000000
_cell_angle_gamma 90.000000
_cell_volume 2155.309315
_symmetry_space_group_name_H-M "P B A M"
_symmetry_group_IT_number 55
_symmetry_cell_setting 'orthorhombic'
loop_
_space_group_symop_operation_xyz
x,y,z
-x,-y,z
1/2+x,1/2-y,-z
1/2-x,1/2+y,-z
-x,-y,-z
x,y,-z
1/2-x,1/2+y,z
1/2+x,1/2-y,z
loop_
_atom_site_type_symbol
_atom_site_label
_atom_site_fract_x
_atom_site_fract_y
_atom_site_fract_z
Si Si1 0.706200 0.232318 0.785381
Si Si2 0.717225 0.448563 0.704623
Si Si3 0.079595 0.388731 0.208322
Si Si4 0.854416 0.222137 0.787512
Si Si5 0.570645 0.452539 0.283535
Si Si6 0.501603 0.276845 0.294811
Si Si7 0.367010 0.070191 0.202444
O O1 0.707236 0.337437 0.719290
O O2 0.642320 0.173049 0.721741
O O3 0.779651 0.188880 0.732048
O O4 0.704456 0.236763 0.000000
O O5 0.724248 0.473148 0.500000
O O6 0.644964 0.486829 0.776608
O O7 0.789199 0.469357 0.795253
O O8 0.012887 0.325681 0.224411
O O9 0.085097 0.491480 0.282759
O O10 0.091213 0.400215 0.000000
O O11 0.860993 0.328132 0.718572
O O12 0.926340 0.181127 0.729593
O O13 0.854395 0.221792 0.000000
O O14 0.500000 0.500000 0.230575
O O15 0.572918 0.454000 0.500000
O O16 0.557031 0.347737 0.220338
O O17 0.514109 0.269942 0.500000
O O18 0.387114 0.085654 0.000000
#
# Coordination Sequence:
#
# PCOD9425184 Si02
#       7
#     8   8   8   8   8   8   8
#     4   9  18  34  57  79 104 141 183 228 276 329
#     4  10  18  32  55  79 105 139 179 225 273 325
#     4  10  20  36  59  82 108 146 187 228 279 332
#     4   9  19  36  54  76 110 147 181 222 275 332
#     4   9  19  35  53  76 110 147 178 217 276 333
#     4  11  22  36  55  81 111 145 185 229 274 330
#     4   9  20  37  56  80 109 144 184 228 276 327
#
# _framework density 25.98235
#
# number of rings (size 3 to 8) (size 9 to 14) (size 15 to 20)
#    0.000    2.429    1.429    1.714    0.000    4.571 
#    0.000    2.857    0.000    6.000    0.000    0.000 
#    0.000    0.000    0.000    0.000    0.000    0.000 
#
# Total GULP energy -312918.085496 kJ/mol
# GULP energy per Si atom -5587.822955 kJ/mol
# Density = 2.592321 g / cm^3
# Si number density = 25.982350 Si / 1000 Ang^3
#
#
#
# Elastic Constant Matrix: (Units=GPa)
#
#
# Indices 1 2 3 4 5 6 
#
# 1 137.5407 5.7791 -2.8786 0.0000 0.0000 0.0000
# 2 5.7791 48.6828 -0.9099 0.0000 0.0000 0.0000
# 3 -2.8786 -0.9099 73.2821 0.0000 0.0000 0.0000
# 4 0.0000 0.0000 0.0000 10.0910 0.0000 0.0000
# 5 0.0000 0.0000 0.0000 0.0000 41.7994 0.0000
# 6 0.0000 0.0000 0.0000 0.0000 0.0000 45.6143
#
#
#
# Elastic Compliance Matrix: (Units=1/GPa)
#
#
# Indices 1 2 3 4 5 6 
#
# 1 0.007313 -0.000863 0.000277 0.000000 0.000000 0.000000
# 2 -0.000863 0.020648 0.000222 0.000000 0.000000 0.000000
# 3 0.000277 0.000222 0.013660 0.000000 0.000000 0.000000
# 4 0.000000 0.000000 0.000000 0.099098 0.000000 0.000000
# 5 0.000000 0.000000 0.000000 0.000000 0.023924 0.000000
# 6 0.000000 0.000000 0.000000 0.000000 0.000000 0.021923
#
#
# Mechanical properties :
#
#
# Convention : Reuss Voigt Hill
#
# Bulk Modulus (GPa) = 24.45461 29.27630 26.86545
# Shear Modulus (GPa) = 24.88515 36.66861 30.77688
#
# Velocity S-wave (km/s) = 3.09815 3.76079 3.44543
# Velocity P-wave (km/s) = 4.71492 5.49093 5.11765
#
# Compressibility (1/GPa) = 0.04089209
#
# Stress axis : x y z
#
# Youngs Moduli (GPa) = 136.74987 48.43152 73.20898
#
# Poissons Ratio (x) = 0.04179 -0.02024
# Poissons Ratio (y) = 0.11800 -0.01629
# Poissons Ratio (z) = -0.03782 -0.01078
#
# Static dielectric constant tensor:
#      x y z
#    x 2.054370 0.000000 0.000000 
#    y 0.000000 2.129390 0.000000 
#    z 0.000000 0.000000 1.938770 
# 
# From -- ./inp_files/8791.got.cif
#   From: 2010.05.17/outbox.cif.g08.bks.cpg/sg55_5_cif.got.tgz:8791.got - 2010.06.03 13:27:54.
