data_PCOD9425870
_publ_section_title
;
Structure prediction by ZEFSAII (Michael W. Deem and Ramdas Pophale) SiO2 
 PCOD9425870
Probable space group: P B A M
;
_chemical_formula_sum "Si O2"
_cell_formula_units_Z 64
_cell_length_a 20.430169
_cell_length_b 8.890011
_cell_length_c 17.992228
_cell_angle_alpha 90.000000
_cell_angle_beta 90.000000
_cell_angle_gamma 90.000000
_cell_volume 3267.828104
_symmetry_space_group_name_H-M "P B A M"
_symmetry_group_IT_number 55
_symmetry_cell_setting 'orthorhombic'
loop_
_space_group_symop_operation_xyz
x,y,z
-x,-y,z
1/2+x,1/2-y,-z
1/2-x,1/2+y,-z
-x,-y,-z
x,y,-z
1/2-x,1/2+y,z
1/2+x,1/2-y,z
loop_
_atom_site_type_symbol
_atom_site_label
_atom_site_fract_x
_atom_site_fract_y
_atom_site_fract_z
Si Si1 0.659162 0.695316 0.200042
Si Si2 0.928067 0.457200 0.815064
Si Si3 0.172771 0.115610 0.409937
Si Si4 0.304847 0.953113 0.411588
Si Si5 0.438066 0.094489 0.637585
Si Si6 0.236083 0.090884 0.861400
Si Si7 0.839875 0.627372 0.080972
Si Si8 0.566819 0.576160 0.669043
O O1 0.603339 0.797729 0.159284
O O2 0.689864 0.542794 0.167720
O O3 0.719726 0.816441 0.199745
O O4 0.620151 0.637577 0.271992
O O5 0.929801 0.446125 0.725484
O O6 0.884223 0.589423 0.848261
O O7 0.000000 0.500000 0.840645
O O8 0.172049 0.115504 0.500000
O O9 0.181037 0.286250 0.382239
O O10 0.236956 0.023406 0.383801
O O11 0.106765 0.040435 0.380862
O O12 0.296644 0.939367 0.500000
O O13 0.368265 0.054226 0.397157
O O14 0.452907 0.270218 0.627741
O O15 0.500000 0.000000 0.609045
O O16 0.195341 0.215556 0.904599
O O17 0.286358 0.004856 0.914680
O O18 0.872414 0.624980 0.000000
O O19 0.500000 0.500000 0.699004
#
# Coordination Sequence:
#
# PCOD9425870 Si02
#       8
#     8   8   8   8   8   8   8   8
#     4   9  20  36  56  83 111 143 183 229 282 334
#     4   9  20  37  55  78 110 148 186 223 270 332
#     4  10  22  38  56  80 110 146 186 231 281 333
#     4  10  21  38  59  83 111 144 185 231 281 336
#     4  10  21  38  58  82 111 145 186 230 281 336
#     4   9  19  35  55  82 111 139 178 229 283 335
#     4  10  19  33  55  80 108 143 183 229 278 329
#     4  11  23  37  56  81 110 147 188 230 280 339
#
# _framework density 19.584873999999999
#
# number of rings (size 3 to 8) (size 9 to 14) (size 15 to 20)
#    0.000    2.250    0.000    1.875    0.000   11.250 
#    0.000    0.625    0.000    0.750    0.000    0.000 
#    0.000    0.000    0.000    0.000    0.000    0.000 
#
# Total GULP energy -356430.779984 kJ/mol
# GULP energy per Si atom -5569.230937 kJ/mol
# Density = 1.954030 g / cm^3
# Si number density = 19.584874 Si / 1000 Ang^3
#
#
#
# Elastic Constant Matrix: (Units=GPa)
#
#
# Indices 1 2 3 4 5 6 
#
# 1 74.4182 27.8135 11.4011 0.0000 0.0000 0.0000
# 2 27.8135 113.4435 9.9132 0.0000 0.0000 0.0000
# 3 11.4011 9.9132 10.3281 0.0000 0.0000 0.0000
# 4 0.0000 0.0000 0.0000 1.3971 0.0000 0.0000
# 5 0.0000 0.0000 0.0000 0.0000 4.7797 0.0000
# 6 0.0000 0.0000 0.0000 0.0000 0.0000 34.1822
#
#
#
# Elastic Compliance Matrix: (Units=1/GPa)
#
#
# Indices 1 2 3 4 5 6 
#
# 1 0.016922 -0.002747 -0.016044 0.000000 0.000000 0.000000
# 2 -0.002747 0.010068 -0.006631 0.000000 0.000000 0.000000
# 3 -0.016044 -0.006631 0.120898 0.000000 0.000000 0.000000
# 4 0.000000 0.000000 0.000000 0.715786 0.000000 0.000000
# 5 0.000000 0.000000 0.000000 0.000000 0.209219 0.000000
# 6 0.000000 0.000000 0.000000 0.000000 0.000000 0.029255
#
#
# Mechanical properties :
#
#
# Convention : Reuss Voigt Hill
#
# Bulk Modulus (GPa) = 10.30450 32.93836 21.62143
# Shear Modulus (GPa) = 4.21820 18.00925 11.11373
#
# Velocity S-wave (km/s) = 1.46918 3.03570 2.38474
# Velocity P-wave (km/s) = 2.85497 5.39834 4.31815
#
# Compressibility (1/GPa) = 0.09704495
#
# Stress axis : x y z
#
# Youngs Moduli (GPa) = 59.09412 99.32557 8.27142
#
# Poissons Ratio (x) = 0.27284 0.13270
# Poissons Ratio (y) = 0.16233 0.05485
# Poissons Ratio (z) = 0.94808 0.65865
#
# Static dielectric constant tensor:
#      x y z
#    x 1.855360 0.000000 0.000000 
#    y 0.000000 1.695640 0.000000 
#    z 0.000000 0.000000 1.704140 
# 
# From -- ./inp_files/21981.got.cif
#   From: 2010.05.17/outbox.cif.g08.bks.cpg/sg55_11_cif.got.tgz:21981.got - 2010.06.03 13:27:54.
