data_PCOD9425959
_publ_section_title
;
Structure prediction by ZEFSAII (Michael W. Deem and Ramdas Pophale) SiO2 
 PCOD9425959
Probable space group: P B A M
;
_chemical_formula_sum "Si O2"
_cell_formula_units_Z 52
_cell_length_a 7.986997
_cell_length_b 14.419380
_cell_length_c 19.231767
_cell_angle_alpha 90.000000
_cell_angle_beta 90.000000
_cell_angle_gamma 90.000000
_cell_volume 2214.875388
_symmetry_space_group_name_H-M "P B A M"
_symmetry_group_IT_number 55
_symmetry_cell_setting 'orthorhombic'
loop_
_space_group_symop_operation_xyz
x,y,z
-x,-y,z
1/2+x,1/2-y,-z
1/2-x,1/2+y,-z
-x,-y,-z
x,y,-z
1/2-x,1/2+y,z
1/2+x,1/2-y,z
loop_
_atom_site_type_symbol
_atom_site_label
_atom_site_fract_x
_atom_site_fract_y
_atom_site_fract_z
Si Si1 0.319048 0.258940 0.500000
Si Si2 0.571889 0.324245 0.387757
Si Si3 0.231150 0.031398 0.295798
Si Si4 0.649699 0.390797 0.000000
Si Si5 0.774848 0.191241 0.000000
Si Si6 0.755453 0.188802 0.150993
Si Si7 0.867517 0.892430 0.152071
Si Si8 0.923202 0.643856 0.291094
O O1 0.414834 0.317721 0.438631
O O2 0.225924 0.197116 0.560625
O O3 0.602688 0.416807 0.345337
O O4 0.569344 0.240258 0.331655
O O5 0.171748 0.040852 0.216059
O O6 0.399876 0.093462 0.298062
O O7 0.284860 0.929037 0.318492
O O8 0.463835 0.345770 0.000000
O O9 0.661455 0.437581 0.075669
O O10 0.773793 0.303148 0.000000
O O11 0.694203 0.163863 0.926749
O O12 0.749564 0.300932 0.156191
O O13 0.634278 0.156390 0.211879
O O14 0.943677 0.149033 0.158079
#
# Coordination Sequence:
#
# PCOD9425959 Si02
#       8
#     4   8   8   4   4   8   8   8
#     4  10  24  42  74  92 122 154 200 236 308 366
#     4  11  22  46  66  97 120 160 192 251 296 366
#     4  11  24  41  63  92 127 166 205 248 303 363
#     4   8  16  30  49  80 119 158 206 256 305 351
#     4   8  16  30  49  80 119 158 206 256 305 351
#     4  10  19  33  57  87 121 164 209 257 305 356
#     4  10  19  33  57  87 121 164 209 257 305 356
#     4  11  24  41  63  92 127 166 205 248 303 363
#
# _framework density 23.477618
#
# number of rings (size 3 to 8) (size 9 to 14) (size 15 to 20)
#    0.000    1.846    3.077    0.923    2.154    1.846 
#    0.000    5.385    0.000    4.615    0.000    0.000 
#    0.000    0.000    0.000    0.000    0.000    0.000 
#
# Total GULP energy -289665.755129 kJ/mol
# GULP energy per Si atom -5570.495291 kJ/mol
# Density = 2.342418 g / cm^3
# Si number density = 23.477618 Si / 1000 Ang^3
#
#
#
# Elastic Constant Matrix: (Units=GPa)
#
#
# Indices 1 2 3 4 5 6 
#
# 1 58.8442 27.6046 35.6952 0.0000 0.0000 0.0000
# 2 27.6046 89.8424 24.8439 0.0000 0.0000 0.0000
# 3 35.6952 24.8439 152.5304 0.0000 0.0000 0.0000
# 4 0.0000 0.0000 0.0000 -26.3598 0.0000 0.0000
# 5 0.0000 0.0000 0.0000 0.0000 -44.3300 0.0000
# 6 0.0000 0.0000 0.0000 0.0000 0.0000 43.5064
#
#
#
# Elastic Compliance Matrix: (Units=1/GPa)
#
#
# Indices 1 2 3 4 5 6 
#
# 1 0.022244 -0.005650 -0.004285 0.000000 0.000000 0.000000
# 2 -0.005650 0.013090 -0.000810 0.000000 0.000000 0.000000
# 3 -0.004285 -0.000810 0.007691 0.000000 0.000000 0.000000
# 4 0.000000 0.000000 0.000000 -0.037937 0.000000 0.000000
# 5 0.000000 0.000000 0.000000 0.000000 -0.022558 0.000000
# 6 0.000000 0.000000 0.000000 0.000000 0.000000 0.022985
#
#
# Mechanical properties :
#
#
# Convention : Reuss Voigt Hill
#
# Bulk Modulus (GPa) = 46.43531 53.05604 49.74568
# Shear Modulus (GPa) = 146.26813 8.76821 77.51817
#
# Velocity S-wave (km/s) = 7.90167 1.93464 5.75235
# Velocity P-wave (km/s) = 10.15234 5.25719 8.08418
#
# Compressibility (1/GPa) = 0.02153533
#
# Stress axis : x y z
#
# Youngs Moduli (GPa) = 44.95638 76.39154 130.02451
#
# Poissons Ratio (x) = 0.43158 0.55720
# Poissons Ratio (y) = 0.25398 0.10533
# Poissons Ratio (z) = 0.19265 0.06188
#
# Static dielectric constant tensor:
#      x y z
#    x 1.926240 0.000000 0.000000 
#    y 0.000000 1.567840 0.000000 
#    z 0.000000 0.000000 1.886630 
# 
# From -- ./inp_files/20971.got.cif
#   From: 2010.05.17/outbox.cif.g08.bks.cpg/sg55_11_cif.got.tgz:20971.got - 2010.06.03 13:27:54.
