data_PCOD9425382
_publ_section_title
;
Structure prediction by ZEFSAII (Michael W. Deem and Ramdas Pophale) SiO2 
 PCOD9425382
Probable space group: P B A M
;
_chemical_formula_sum "Si O2"
_cell_formula_units_Z 40
_cell_length_a 13.624678
_cell_length_b 5.046183
_cell_length_c 25.282840
_cell_angle_alpha 90.000000
_cell_angle_beta 90.000000
_cell_angle_gamma 90.000000
_cell_volume 1738.261453
_symmetry_space_group_name_H-M "P B A M"
_symmetry_group_IT_number 55
_symmetry_cell_setting 'orthorhombic'
loop_
_space_group_symop_operation_xyz
x,y,z
-x,-y,z
1/2+x,1/2-y,-z
1/2-x,1/2+y,-z
-x,-y,-z
x,y,-z
1/2-x,1/2+y,z
1/2+x,1/2-y,z
loop_
_atom_site_type_symbol
_atom_site_label
_atom_site_fract_x
_atom_site_fract_y
_atom_site_fract_z
Si Si1 0.815213 0.716165 0.667347
Si Si2 0.615884 0.026036 0.779723
Si Si3 0.619526 0.528492 0.837377
Si Si4 0.071122 0.747541 0.941653
Si Si5 0.180169 0.411129 0.442938
O O1 0.721090 0.517920 0.666293
O O2 0.872022 0.648018 0.612781
O O3 0.633797 0.142205 0.721930
O O4 0.652780 0.233184 0.823961
O O5 0.500000 0.000000 0.786487
O O6 0.651091 0.728510 0.790813
O O7 0.500000 0.500000 0.836503
O O8 0.640969 0.668601 0.893392
O O9 0.000000 0.500000 0.928043
O O10 0.115510 0.695261 0.000000
O O11 0.000000 0.000000 0.947040
O O12 0.129126 0.375370 0.500000
O O13 0.229468 0.700383 0.442208
#
# Coordination Sequence:
#
# PCOD9425382 Si02
#       5
#     8   8   8   8   8
#     4  10  19  31  47  68  92 116 149 190 224 261
#     4  10  19  30  45  64  91 123 150 179 221 273
#     4   9  16  27  41  60  87 119 149 177 218 270
#     4   9  15  23  37  58  85 115 145 180 222 263
#     4   8  14  25  42  63  85 110 141 179 222 263
#
# _framework density 23.011496999999999
#
# number of rings (size 3 to 8) (size 9 to 14) (size 15 to 20)
#    0.000    2.800    0.000    4.200    0.000    0.000 
#    0.000    0.000    0.000    0.600    0.000    0.000 
#    0.000   36.800    0.000    0.000    0.000    3.800 
#
# Total GULP energy -222924.443933 kJ/mol
# GULP energy per Si atom -5573.111098 kJ/mol
# Density = 2.295912 g / cm^3
# Si number density = 23.011497 Si / 1000 Ang^3
#
#
#
# Elastic Constant Matrix: (Units=GPa)
#
#
# Indices 1 2 3 4 5 6 
#
# 1 42.7423 -5.3101 -0.4137 0.0000 0.0000 0.0000
# 2 -5.3101 117.6030 37.4835 0.0000 0.0000 0.0000
# 3 -0.4137 37.4835 192.1927 0.0000 0.0000 0.0000
# 4 0.0000 0.0000 0.0000 34.2288 0.0000 0.0000
# 5 0.0000 0.0000 0.0000 0.0000 -10.2296 0.0000
# 6 0.0000 0.0000 0.0000 0.0000 0.0000 15.3169
#
#
#
# Elastic Compliance Matrix: (Units=1/GPa)
#
#
# Indices 1 2 3 4 5 6 
#
# 1 0.023533 0.001116 -0.000167 0.000000 0.000000 0.000000
# 2 0.001116 0.009120 -0.001776 0.000000 0.000000 0.000000
# 3 -0.000167 -0.001776 0.005549 0.000000 0.000000 0.000000
# 4 0.000000 0.000000 0.000000 0.029215 0.000000 0.000000
# 5 0.000000 0.000000 0.000000 0.000000 -0.097755 0.000000
# 6 0.000000 0.000000 0.000000 0.000000 0.000000 0.065288
#
#
# Mechanical properties :
#
#
# Convention : Reuss Voigt Hill
#
# Bulk Modulus (GPa) = 27.36192 46.22860 36.79526
# Shear Modulus (GPa) = 102.48751 29.24843 65.86797
#
# Velocity S-wave (km/s) = 6.68088 3.56903 5.35594
# Velocity P-wave (km/s) = 8.45155 6.09236 7.36701
#
# Compressibility (1/GPa) = 0.03654714
#
# Stress axis : x y z
#
# Youngs Moduli (GPa) = 42.49345 109.65276 180.20716
#
# Poissons Ratio (x) = -0.12235 0.03009
# Poissons Ratio (y) = -0.04741 0.32009
# Poissons Ratio (z) = 0.00709 0.19477
#
# Static dielectric constant tensor:
#      x y z
#    x 1.510610 0.000000 0.000000 
#    y 0.000000 1.828540 0.000000 
#    z 0.000000 0.000000 2.000700 
# 
# From -- ./inp_files/23579.got.cif
#   From: 2010.05.17/outbox.cif.g08.bks.cpg/sg55_12_cif.got.tgz:23579.got - 2010.06.03 13:27:54.
