data_PCOD9425993
_publ_section_title
;
Structure prediction by ZEFSAII (Michael W. Deem and Ramdas Pophale) SiO2 
 PCOD9425993
Probable space group: P B A M
;
_chemical_formula_sum "Si O2"
_cell_formula_units_Z 48
_cell_length_a 7.801550
_cell_length_b 21.413938
_cell_length_c 13.090046
_cell_angle_alpha 90.000000
_cell_angle_beta 90.000000
_cell_angle_gamma 90.000000
_cell_volume 2186.848061
_symmetry_space_group_name_H-M "P B A M"
_symmetry_group_IT_number 55
_symmetry_cell_setting 'orthorhombic'
loop_
_space_group_symop_operation_xyz
x,y,z
-x,-y,z
1/2+x,1/2-y,-z
1/2-x,1/2+y,-z
-x,-y,-z
x,y,-z
1/2-x,1/2+y,z
1/2+x,1/2-y,z
loop_
_atom_site_type_symbol
_atom_site_label
_atom_site_fract_x
_atom_site_fract_y
_atom_site_fract_z
Si Si1 0.819909 0.962298 0.619735
Si Si2 0.625449 0.277549 0.500000
Si Si3 0.627902 0.079960 0.309315
Si Si4 0.127618 0.775118 0.883664
Si Si5 0.991977 0.152770 0.305792
Si Si6 0.015378 0.351107 0.883915
Si Si7 0.516234 0.850924 0.500000
O O1 0.783411 0.949115 0.500000
O O2 0.863639 0.900352 0.682693
O O3 0.683756 0.009028 0.669320
O O4 0.000000 0.000000 0.618393
O O5 0.526995 0.300564 0.600988
O O6 0.629005 0.203105 0.500000
O O7 0.808917 0.311537 0.500000
O O8 0.542475 0.096487 0.201159
O O9 0.512625 0.107396 0.400113
O O10 0.807804 0.118618 0.315720
O O11 0.015852 0.810104 0.799374
O O12 0.127707 0.701209 0.860503
O O13 0.311634 0.808626 0.881062
O O14 0.061851 0.781454 0.000000
O O15 0.993492 0.374545 0.000000
#
# Coordination Sequence:
#
# PCOD9425993 Si02
#       7
#     8   4   8   8   8   8   4
#     4   9  16  30  53  75  99 136 175 206 249 303
#     4  12  24  35  50  75 105 132 166 212 261 306
#     4  10  19  34  54  75 102 136 173 208 251 305
#     4   9  18  32  51  75 102 132 168 210 255 302
#     4  10  19  34  54  75 102 136 173 208 251 305
#     4   9  18  32  51  75 102 132 168 210 255 302
#     4  12  24  35  50  75 105 132 166 212 261 306
#
# _framework density 21.949400000000001
#
# number of rings (size 3 to 8) (size 9 to 14) (size 15 to 20)
#    0.000    2.167    1.667    2.500    0.000    4.000 
#    0.000    2.500    0.000    5.000    0.000    0.000 
#    0.000    8.000    0.000    0.000    0.000    0.000 
#
# Total GULP energy -268524.298164 kJ/mol
# GULP energy per Si atom -5594.256212 kJ/mol
# Density = 2.189944 g / cm^3
# Si number density = 21.949400 Si / 1000 Ang^3
#
#
#
# Elastic Constant Matrix: (Units=GPa)
#
#
# Indices 1 2 3 4 5 6 
#
# 1 82.9019 5.8745 34.5892 0.0000 0.0000 0.0000
# 2 5.8745 73.5248 35.2492 0.0000 0.0000 0.0000
# 3 34.5892 35.2492 89.5581 0.0000 0.0000 0.0000
# 4 0.0000 0.0000 0.0000 38.5431 0.0000 0.0000
# 5 0.0000 0.0000 0.0000 0.0000 15.8503 0.0000
# 6 0.0000 0.0000 0.0000 0.0000 0.0000 34.8309
#
#
#
# Elastic Compliance Matrix: (Units=1/GPa)
#
#
# Indices 1 2 3 4 5 6 
#
# 1 0.014590 0.001893 -0.006380 0.000000 0.000000 0.000000
# 2 0.001893 0.017010 -0.007426 0.000000 0.000000 0.000000
# 3 -0.006380 -0.007426 0.016553 0.000000 0.000000 0.000000
# 4 0.000000 0.000000 0.000000 0.025945 0.000000 0.000000
# 5 0.000000 0.000000 0.000000 0.000000 0.063090 0.000000
# 6 0.000000 0.000000 0.000000 0.000000 0.000000 0.028710
#
#
# Mechanical properties :
#
#
# Convention : Reuss Voigt Hill
#
# Bulk Modulus (GPa) = 41.10711 44.15674 42.63193
# Shear Modulus (GPa) = 25.27377 29.19631 27.23504
#
# Velocity S-wave (km/s) = 3.39699 3.65110 3.52633
# Velocity P-wave (km/s) = 5.84422 6.15916 6.00375
#
# Compressibility (1/GPa) = 0.02432669
#
# Stress axis : x y z
#
# Youngs Moduli (GPa) = 68.53874 58.78972 60.41246
#
# Poissons Ratio (x) = -0.11129 0.38544
# Poissons Ratio (y) = -0.12975 0.44862
# Poissons Ratio (z) = 0.43729 0.43657
#
# Static dielectric constant tensor:
#      x y z
#    x 1.905220 0.000000 0.000000 
#    y 0.000000 1.779520 0.000000 
#    z 0.000000 0.000000 1.744940 
# 
# From -- ./inp_files/12265.got.cif
#   From: 2010.05.17/outbox.cif.g08.bks.cpg/sg55_7_cif.got.tgz:12265.got - 2010.06.03 13:27:54.
