data_PCOD9425000
_publ_section_title
;
Structure prediction by ZEFSAII (Michael W. Deem and Ramdas Pophale) SiO2 
 PCOD9425000
Probable space group: P B A M
;
_chemical_formula_sum "Si O2"
_cell_formula_units_Z 64
_cell_length_a 14.927708
_cell_length_b 29.077735
_cell_length_c 8.602860
_cell_angle_alpha 90.000000
_cell_angle_beta 90.000000
_cell_angle_gamma 90.000000
_cell_volume 3734.191284
_symmetry_space_group_name_H-M "P B A M"
_symmetry_group_IT_number 55
_symmetry_cell_setting 'orthorhombic'
loop_
_space_group_symop_operation_xyz
x,y,z
-x,-y,z
1/2+x,1/2-y,-z
1/2-x,1/2+y,-z
-x,-y,-z
x,y,-z
1/2-x,1/2+y,z
1/2+x,1/2-y,z
loop_
_atom_site_type_symbol
_atom_site_label
_atom_site_fract_x
_atom_site_fract_y
_atom_site_fract_z
Si Si1 0.103510 0.278651 0.186332
Si Si2 0.396644 0.320568 0.313547
Si Si3 0.100662 0.178257 0.686933
Si Si4 0.106024 0.719342 0.814254
Si Si5 0.720440 0.865091 0.685887
Si Si6 0.274283 0.864573 0.811793
Si Si7 0.397678 0.053146 0.812343
Si Si8 0.602020 0.052138 0.810730
O O1 0.126385 0.229715 0.260612
O O2 0.166154 0.320477 0.236527
O O3 0.999219 0.288757 0.221312
O O4 0.111287 0.274123 0.000000
O O5 0.395365 0.318788 0.500000
O O6 0.498714 0.330415 0.259972
O O7 0.371719 0.270117 0.248162
O O8 0.324484 0.356844 0.253471
O O9 0.099419 0.177515 0.500000
O O10 0.177350 0.143256 0.740444
O O11 0.164677 0.679472 0.739684
O O12 0.117594 0.718624 0.000000
O O13 0.720047 0.867132 0.500000
O O14 0.672289 0.910175 0.750278
O O15 0.325757 0.910474 0.759281
O O16 0.270861 0.864845 0.000000
O O17 0.500149 0.064454 0.763679
O O18 0.379512 0.000444 0.763465
O O19 0.396083 0.054511 0.000000
O O20 0.601956 0.052612 0.000000
#
# Coordination Sequence:
#
# PCOD9425000 Si02
#       8
#     8   8   8   8   8   8   8   8
#     4   9  18  30  47  71  98 124 155 192 232 278
#     4  10  20  34  48  66  94 129 165 201 237 277
#     4   9  20  35  47  61  92 132 164 194 234 277
#     4  10  19  32  49  71  98 129 161 194 233 284
#     4  11  21  32  48  72  98 126 159 199 241 283
#     4  10  18  30  49  73  97 124 157 195 235 281
#     4   9  17  33  55  76  97 126 157 189 233 288
#     4   8  16  32  54  76 100 126 155 190 234 286
#
# _framework density 17.138918
#
# number of rings (size 3 to 8) (size 9 to 14) (size 15 to 20)
#    0.000    2.500    0.000    3.375    0.000    6.500 
#    0.000    3.750    0.000    0.750    0.000    5.250 
#    0.000    0.000    0.000    0.000    0.000    0.000 
#
# Total GULP energy -357056.123758 kJ/mol
# GULP energy per Si atom -5579.001934 kJ/mol
# Density = 1.709991 g / cm^3
# Si number density = 17.138918 Si / 1000 Ang^3
#
#
#
# Elastic Constant Matrix: (Units=GPa)
#
#
# Indices 1 2 3 4 5 6 
#
# 1 117.7985 97.0881 22.7537 0.0000 0.0000 0.0000
# 2 97.0881 112.6520 19.9826 0.0000 0.0000 0.0000
# 3 22.7537 19.9826 13.1240 0.0000 0.0000 0.0000
# 4 0.0000 0.0000 0.0000 -96.4379 0.0000 0.0000
# 5 0.0000 0.0000 0.0000 0.0000 22.5171 0.0000
# 6 0.0000 0.0000 0.0000 0.0000 0.0000 33.3441
#
#
#
# Elastic Compliance Matrix: (Units=1/GPa)
#
#
# Indices 1 2 3 4 5 6 
#
# 1 0.032332 -0.024553 -0.018670 0.000000 0.000000 0.000000
# 2 -0.024553 0.030807 -0.004339 0.000000 0.000000 0.000000
# 3 -0.018670 -0.004339 0.115172 0.000000 0.000000 0.000000
# 4 0.000000 0.000000 0.000000 -0.010369 0.000000 0.000000
# 5 0.000000 0.000000 0.000000 0.000000 0.044411 0.000000
# 6 0.000000 0.000000 0.000000 0.000000 0.000000 0.029990
#
#
# Mechanical properties :
#
#
# Convention : Reuss Voigt Hill
#
# Bulk Modulus (GPa) = 12.02113 58.13592 35.07853
# Shear Modulus (GPa) = 13.69130 -1.19867 6.24632
#
# Velocity S-wave (km/s) = 2.82945 -0.83720 1.91113
# Velocity P-wave (km/s) = 4.20756 5.74974 5.03801
#
# Compressibility (1/GPa) = 0.08318684
#
# Stress axis : x y z
#
# Youngs Moduli (GPa) = 30.92952 32.45998 8.68266
#
# Poissons Ratio (x) = 0.79698 0.16211
# Poissons Ratio (y) = 0.75941 0.03767
# Poissons Ratio (z) = 0.57747 0.14083
#
# Static dielectric constant tensor:
#      x y z
#    x 1.603300 0.000000 0.000000 
#    y 0.000000 1.556830 0.000000 
#    z 0.000000 0.000000 1.583300 
# 
# From -- ./inp_files/6915.got.cif
#   From: 2010.05.17/outbox.cif.g08.bks.cpg/sg55_4_cif.got.tgz:6915.got - 2010.06.03 13:27:54.
