data_PCOD9425821
_publ_section_title
;
Structure prediction by ZEFSAII (Michael W. Deem and Ramdas Pophale) SiO2 
 PCOD9425821
Probable space group: P B A M
;
_chemical_formula_sum "Si O2"
_cell_formula_units_Z 64
_cell_length_a 18.394901
_cell_length_b 18.035805
_cell_length_c 9.589965
_cell_angle_alpha 90.000000
_cell_angle_beta 90.000000
_cell_angle_gamma 90.000000
_cell_volume 3181.632455
_symmetry_space_group_name_H-M "P B A M"
_symmetry_group_IT_number 55
_symmetry_cell_setting 'orthorhombic'
loop_
_space_group_symop_operation_xyz
x,y,z
-x,-y,z
1/2+x,1/2-y,-z
1/2-x,1/2+y,-z
-x,-y,-z
x,y,-z
1/2-x,1/2+y,z
1/2+x,1/2-y,z
loop_
_atom_site_type_symbol
_atom_site_label
_atom_site_fract_x
_atom_site_fract_y
_atom_site_fract_z
Si Si1 0.082236 0.758607 0.160408
Si Si2 0.682606 0.603767 0.830835
Si Si3 0.929691 0.461828 0.343944
Si Si4 0.319797 0.108627 0.159864
Si Si5 0.159437 0.340654 0.831696
Si Si6 0.334792 0.666194 0.831143
Si Si7 0.974458 0.679546 0.344572
Si Si8 0.078681 0.028929 0.170045
O O1 0.131574 0.826822 0.210128
O O2 0.132910 0.684808 0.157727
O O3 0.011181 0.743617 0.252283
O O4 0.059596 0.772992 0.000000
O O5 0.765898 0.618868 0.789933
O O6 0.642379 0.528463 0.787923
O O7 0.683897 0.604652 0.000000
O O8 0.917387 0.493157 0.500000
O O9 0.859857 0.453728 0.249142
O O10 0.000000 0.500000 0.277540
O O11 0.959965 0.378587 0.360546
O O12 0.240957 0.129882 0.215654
O O13 0.313233 0.082961 0.000000
O O14 0.165142 0.252687 0.797089
O O15 0.089253 0.361048 0.741381
O O16 0.148674 0.348547 0.000000
O O17 0.399334 0.611785 0.785369
O O18 0.333507 0.664505 0.000000
O O19 0.950611 0.701662 0.500000
O O20 0.076924 0.028597 0.000000
O O21 0.000000 0.000000 0.217106
#
# Coordination Sequence:
#
# PCOD9425821 Si02
#       8
#     8   8   8   8   8   8   8   8
#     4   9  16  30  52  75  98 130 169 211 261 312
#     4   9  17  30  49  75 105 134 173 218 262 314
#     4   9  19  35  51  69 100 138 170 204 252 316
#     4   9  16  29  50  75 101 127 163 212 259 299
#     4  10  19  33  54  78 105 138 173 215 263 311
#     4   9  17  30  47  73 106 136 167 211 262 307
#     4  10  21  34  49  75 105 132 171 216 258 308
#     4   9  18  29  44  74 110 140 171 211 260 313
#
# _framework density 20.115459000000001
#
# number of rings (size 3 to 8) (size 9 to 14) (size 15 to 20)
#    0.000    2.750    1.250    0.375    1.750    1.750 
#    0.000    2.500    0.000    0.000    0.000    3.500 
#    0.000    0.000    0.000    0.000    0.000    0.000 
#
# Total GULP energy -356634.259543 kJ/mol
# GULP energy per Si atom -5572.410305 kJ/mol
# Density = 2.006967 g / cm^3
# Si number density = 20.115459 Si / 1000 Ang^3
#
#
#
# Elastic Constant Matrix: (Units=GPa)
#
#
# Indices 1 2 3 4 5 6 
#
# 1 94.6646 25.8123 27.1153 0.0000 0.0000 0.0000
# 2 25.8123 50.5398 7.5765 0.0000 0.0000 0.0000
# 3 27.1153 7.5765 36.3577 0.0000 0.0000 0.0000
# 4 0.0000 0.0000 0.0000 6.6235 0.0000 0.0000
# 5 0.0000 0.0000 0.0000 0.0000 -7.6226 0.0000
# 6 0.0000 0.0000 0.0000 0.0000 0.0000 35.0524
#
#
#
# Elastic Compliance Matrix: (Units=1/GPa)
#
#
# Indices 1 2 3 4 5 6 
#
# 1 0.015120 -0.006226 -0.009979 0.000000 0.000000 0.000000
# 2 -0.006226 0.022988 -0.000147 0.000000 0.000000 0.000000
# 3 -0.009979 -0.000147 0.034977 0.000000 0.000000 0.000000
# 4 0.000000 0.000000 0.000000 0.150978 0.000000 0.000000
# 5 0.000000 0.000000 0.000000 0.000000 -0.131189 0.000000
# 6 0.000000 0.000000 0.000000 0.000000 0.000000 0.028529
#
#
# Mechanical properties :
#
#
# Convention : Reuss Voigt Hill
#
# Bulk Modulus (GPa) = 24.76390 33.61890 29.19140
# Shear Modulus (GPa) = 29.83888 14.88119 22.36003
#
# Velocity S-wave (km/s) = 3.85565 2.72286 3.33766
# Velocity P-wave (km/s) = 5.67089 5.16086 5.42188
#
# Compressibility (1/GPa) = 0.04038136
#
# Stress axis : x y z
#
# Youngs Moduli (GPa) = 66.13972 43.50032 28.59018
#
# Poissons Ratio (x) = 0.27084 0.28529
# Poissons Ratio (y) = 0.41179 0.00421
# Poissons Ratio (z) = 0.65998 0.00640
#
# Static dielectric constant tensor:
#      x y z
#    x 1.724310 0.000000 0.000000 
#    y 0.000000 1.784470 0.000000 
#    z 0.000000 0.000000 1.712780 
# 
# From -- ./inp_files/7945.got.cif
#   From: 2010.05.17/outbox.cif.g08.bks.cpg/sg55_4_cif.got.tgz:7945.got - 2010.06.03 13:27:54.
