data_PCOD9425952
_publ_section_title
;
Structure prediction by ZEFSAII (Michael W. Deem and Ramdas Pophale) SiO2 
 PCOD9425952
Probable space group: P B A M
;
_chemical_formula_sum "Si O2"
_cell_formula_units_Z 58
_cell_length_a 15.514457
_cell_length_b 10.825487
_cell_length_c 14.753533
_cell_angle_alpha 90.000000
_cell_angle_beta 90.000000
_cell_angle_gamma 90.000000
_cell_volume 2477.878773
_symmetry_space_group_name_H-M "P B A M"
_symmetry_group_IT_number 55
_symmetry_cell_setting 'orthorhombic'
loop_
_space_group_symop_operation_xyz
x,y,z
-x,-y,z
1/2+x,1/2-y,-z
1/2-x,1/2+y,-z
-x,-y,-z
x,y,-z
1/2-x,1/2+y,z
1/2+x,1/2-y,z
loop_
_atom_site_type_symbol
_atom_site_label
_atom_site_fract_x
_atom_site_fract_y
_atom_site_fract_z
Si Si1 0.742217 0.112910 0.898940
Si Si2 0.000000 0.500000 0.500000
Si Si3 0.730422 0.355064 0.794195
Si Si4 0.946722 0.615947 0.151296
Si Si5 0.770764 0.942064 0.602152
Si Si6 0.618492 0.086732 0.357837
Si Si7 0.457639 0.648878 0.598316
Si Si8 0.977810 0.866085 0.796232
O O1 0.769496 0.235232 0.843295
O O2 0.639525 0.131711 0.904914
O O3 0.753179 0.983898 0.845931
O O4 0.779906 0.106815 0.000000
O O5 0.072881 0.516050 0.580637
O O6 0.757730 0.361663 0.689195
O O7 0.625949 0.348923 0.792169
O O8 0.912293 0.586194 0.254212
O O9 0.003635 0.740381 0.154286
O O10 0.000000 0.500000 0.119450
O O11 0.750054 0.900912 0.500000
O O12 0.874751 0.941539 0.604073
O O13 0.719735 0.068240 0.624829
O O14 0.583713 0.214307 0.399122
O O15 0.500376 0.636204 0.500000
O O16 0.509062 0.636997 0.691708
O O17 0.000000 0.000000 0.835346
#
# Coordination Sequence:
#
# PCOD9425952 Si02
#       8
#     8   2   8   8   8   8   8   8
#     4  11  23  42  67  91 120 159 205 262 326 376
#     4  12  20  28  56  80 112 164 198 236 298 368
#     4  10  22  40  63  92 126 156 203 260 311 369
#     4  10  21  37  60  87 119 156 200 257 309 356
#     4  10  19  33  57  85 117 160 202 243 300 360
#     4  11  19  34  53  80 119 155 205 248 297 362
#     4   9  18  32  52  73 112 160 197 249 291 336
#     4   9  20  37  55  82 118 162 195 237 307 371
#
# _framework density 23.407118000000001
#
# number of rings (size 3 to 8) (size 9 to 14) (size 15 to 20)
#    0.000    1.931    3.448    1.241    0.000    1.655 
#    0.000    0.000    0.000   10.345    0.000    0.000 
#    0.000    0.000    0.000    0.000    0.000    0.000 
#
# Total GULP energy -322988.939817 kJ/mol
# GULP energy per Si atom -5568.774824 kJ/mol
# Density = 2.335384 g / cm^3
# Si number density = 23.407118 Si / 1000 Ang^3
#
#
#
# Elastic Constant Matrix: (Units=GPa)
#
#
# Indices 1 2 3 4 5 6 
#
# 1 14.2366 4.0207 -5.1845 0.0000 0.0000 0.0000
# 2 4.0207 139.8509 43.3205 0.0000 0.0000 0.0000
# 3 -5.1845 43.3205 142.2482 0.0000 0.0000 0.0000
# 4 0.0000 0.0000 0.0000-2389.6920 0.0000 0.0000
# 5 0.0000 0.0000 0.0000 0.0000 13.7819 0.0000
# 6 0.0000 0.0000 0.0000 0.0000 0.0000 34.5077
#
#
#
# Elastic Compliance Matrix: (Units=1/GPa)
#
#
# Indices 1 2 3 4 5 6 
#
# 1 0.072463 -0.003204 0.003617 0.000000 0.000000 0.000000
# 2 -0.003204 0.008037 -0.002564 0.000000 0.000000 0.000000
# 3 0.003617 -0.002564 0.007943 0.000000 0.000000 0.000000
# 4 0.000000 0.000000 0.000000 -0.000418 0.000000 0.000000
# 5 0.000000 0.000000 0.000000 0.000000 0.072559 0.000000
# 6 0.000000 0.000000 0.000000 0.000000 0.000000 0.028979
#
#
# Mechanical properties :
#
#
# Convention : Reuss Voigt Hill
#
# Bulk Modulus (GPa) = 11.88493 42.29435 27.08964
# Shear Modulus (GPa) = 22.53148 -451.33523 -214.40187
#
# Velocity S-wave (km/s) = 3.10593 -13.90102 -9.58101
# Velocity P-wave (km/s) = 4.23685 15.47717 10.52596
#
# Compressibility (1/GPa) = 0.08414017
#
# Stress axis : x y z
#
# Youngs Moduli (GPa) = 13.80013 124.42591 125.90128
#
# Poissons Ratio (x) = 0.39861 -0.45534
# Poissons Ratio (y) = 0.04421 0.32285
# Poissons Ratio (z) = -0.04991 0.31907
#
# Static dielectric constant tensor:
#      x y z
#    x 1.943300 0.000000 0.000000 
#    y 0.000000 2.017440 0.000000 
#    z 0.000000 0.000000 1.884550 
# 
# From -- ./inp_files/19479.got.cif
#   From: 2010.05.17/outbox.cif.g08.bks.cpg/sg55_10_cif.got.tgz:19479.got - 2010.06.03 13:27:54.
