data_PCOD9425883
_publ_section_title
;
Structure prediction by ZEFSAII (Michael W. Deem and Ramdas Pophale) SiO2 
 PCOD9425883
Probable space group: P B A M
;
_chemical_formula_sum "Si O2"
_cell_formula_units_Z 40
_cell_length_a 10.698477
_cell_length_b 19.448705
_cell_length_c 7.793531
_cell_angle_alpha 90.000000
_cell_angle_beta 90.000000
_cell_angle_gamma 90.000000
_cell_volume 1621.611866
_symmetry_space_group_name_H-M "P B A M"
_symmetry_group_IT_number 55
_symmetry_cell_setting 'orthorhombic'
loop_
_space_group_symop_operation_xyz
x,y,z
-x,-y,z
1/2+x,1/2-y,-z
1/2-x,1/2+y,-z
-x,-y,-z
x,y,-z
1/2-x,1/2+y,z
1/2+x,1/2-y,z
loop_
_atom_site_type_symbol
_atom_site_label
_atom_site_fract_x
_atom_site_fract_y
_atom_site_fract_z
Si Si1 0.710910 0.422991 0.695883
Si Si2 0.377024 0.959380 0.711033
Si Si3 0.133516 0.694886 0.192915
Si Si4 0.280840 0.820883 0.702389
Si Si5 0.999600 0.825862 0.701017
O O1 0.673622 0.438338 0.500000
O O2 0.761253 0.493693 0.771267
O O3 0.828814 0.369888 0.693709
O O4 0.599006 0.379095 0.778748
O O5 0.374270 0.957651 0.500000
O O6 0.500000 0.000000 0.763664
O O7 0.370269 0.880522 0.769080
O O8 0.251624 0.747998 0.211062
O O9 0.020278 0.746720 0.238285
O O10 0.122660 0.671135 0.000000
O O11 0.302917 0.808378 0.500000
O O12 0.140736 0.854221 0.714978
O O13 0.968952 0.819898 0.500000
#
# Coordination Sequence:
#
# PCOD9425883 Si02
#       5
#     8   8   8   8   8
#     4  10  19  33  55  82 109 138 178 223 269 321
#     4   9  18  32  54  84 110 135 171 221 275 323
#     4  10  20  34  52  77 109 143 178 221 270 317
#     4   8  16  34  54  76 105 138 176 216 264 318
#     4   8  17  33  53  76 101 136 179 220 262 311
#
# _framework density 24.666816000000001
#
# number of rings (size 3 to 8) (size 9 to 14) (size 15 to 20)
#    1.200    1.800    0.000    1.200    0.000    3.200 
#    0.000    9.000    0.000    2.400    0.000    0.000 
#    0.000    0.000    0.000    0.000    0.000    0.000 
#
# Total GULP energy -222962.866457 kJ/mol
# GULP energy per Si atom -5574.071661 kJ/mol
# Density = 2.461067 g / cm^3
# Si number density = 24.666816 Si / 1000 Ang^3
#
#
#
# Elastic Constant Matrix: (Units=GPa)
#
#
# Indices 1 2 3 4 5 6 
#
# 1 46.2816 9.2417 -10.8115 0.0000 0.0000 0.0000
# 2 9.2417 118.9041 -5.0708 0.0000 0.0000 0.0000
# 3 -10.8115 -5.0708 54.8904 0.0000 0.0000 0.0000
# 4 0.0000 0.0000 0.0000 57.6652 0.0000 0.0000
# 5 0.0000 0.0000 0.0000 0.0000 2.1566 0.0000
# 6 0.0000 0.0000 0.0000 0.0000 0.0000 36.9726
#
#
#
# Elastic Compliance Matrix: (Units=1/GPa)
#
#
# Indices 1 2 3 4 5 6 
#
# 1 0.022947 -0.001597 0.004372 0.000000 0.000000 0.000000
# 2 -0.001597 0.008555 0.000476 0.000000 0.000000 0.000000
# 3 0.004372 0.000476 0.019123 0.000000 0.000000 0.000000
# 4 0.000000 0.000000 0.000000 0.017341 0.000000 0.000000
# 5 0.000000 0.000000 0.000000 0.000000 0.463687 0.000000
# 6 0.000000 0.000000 0.000000 0.000000 0.000000 0.027047
#
#
# Mechanical properties :
#
#
# Convention : Reuss Voigt Hill
#
# Bulk Modulus (GPa) = 17.50496 22.97721 20.24108
# Shear Modulus (GPa) = 8.75287 34.47332 21.61309
#
# Velocity S-wave (km/s) = 1.88577 3.74245 2.96328
# Velocity P-wave (km/s) = 3.44289 5.29243 4.46449
#
# Compressibility (1/GPa) = 0.05712667
#
# Stress axis : x y z
#
# Youngs Moduli (GPa) = 43.57841 116.89670 52.29240
#
# Poissons Ratio (x) = 0.18669 -0.22864
# Poissons Ratio (y) = 0.06960 -0.02488
# Poissons Ratio (z) = -0.19054 -0.05561
#
# Static dielectric constant tensor:
#      x y z
#    x 2.133990 0.000000 0.000000 
#    y 0.000000 1.937710 0.000000 
#    z 0.000000 0.000000 1.916770 
# 
# From -- ./inp_files/3852.got.cif
#   From: 2010.05.17/outbox.cif.g08.bks.cpg/sg55_2_cif.got.tgz:3852.got - 2010.06.03 13:27:54.
