data_PCOD9425689
_publ_section_title
;
Structure prediction by ZEFSAII (Michael W. Deem and Ramdas Pophale) SiO2 
 PCOD9425689
Probable space group: P B A M
;
_chemical_formula_sum "Si O2"
_cell_formula_units_Z 48
_cell_length_a 19.882659
_cell_length_b 11.656164
_cell_length_c 9.582139
_cell_angle_alpha 90.000000
_cell_angle_beta 90.000000
_cell_angle_gamma 90.000000
_cell_volume 2220.713741
_symmetry_space_group_name_H-M "P B A M"
_symmetry_group_IT_number 55
_symmetry_cell_setting 'orthorhombic'
loop_
_space_group_symop_operation_xyz
x,y,z
-x,-y,z
1/2+x,1/2-y,-z
1/2-x,1/2+y,-z
-x,-y,-z
x,y,-z
1/2-x,1/2+y,z
1/2+x,1/2-y,z
loop_
_atom_site_type_symbol
_atom_site_label
_atom_site_fract_x
_atom_site_fract_y
_atom_site_fract_z
Si Si1 0.812996 0.169295 0.159335
Si Si2 0.510715 0.128475 0.158125
Si Si3 0.691088 0.880057 0.657951
Si Si4 0.335026 0.914140 0.848476
Si Si5 0.154843 0.054382 0.661134
Si Si6 0.468817 0.626988 0.168152
O O1 0.833261 0.284588 0.235656
O O2 0.731096 0.164207 0.157783
O O3 0.836139 0.061967 0.250917
O O4 0.836891 0.159832 0.000000
O O5 0.490482 0.256378 0.209627
O O6 0.500000 0.000000 0.222427
O O7 0.591715 0.139995 0.150687
O O8 0.482691 0.118695 0.000000
O O9 0.668941 0.859634 0.500000
O O10 0.668097 0.000975 0.718758
O O11 0.772312 0.885522 0.659714
O O12 0.327821 0.976427 0.000000
O O13 0.136263 0.032230 0.500000
O O14 0.098925 0.125617 0.741625
O O15 0.500000 0.500000 0.193815
O O16 0.457959 0.633918 0.000000
#
# Coordination Sequence:
#
# PCOD9425689 Si02
#       6
#     8   8   8   8   8   8
#     4  10  19  32  53  80 110 144 185 232 279 336
#     4   9  18  34  56  81 110 144 185 234 284 334
#     4  10  20  33  51  78 111 144 180 227 283 340
#     4   9  18  32  52  77 104 140 183 224 271 331
#     4  10  21  36  54  78 111 149 186 229 285 345
#     4  10  21  37  58  84 112 146 193 244 290 339
#
# _framework density 21.614673
#
# number of rings (size 3 to 8) (size 9 to 14) (size 15 to 20)
#    0.000    2.333    0.000    2.500    0.000    5.667 
#    0.000    4.167    0.000    2.000    0.000    0.000 
#    0.000    0.000    0.000    0.000    0.000    0.000 
#
# Total GULP energy -267616.897042 kJ/mol
# GULP energy per Si atom -5575.352022 kJ/mol
# Density = 2.156548 g / cm^3
# Si number density = 21.614673 Si / 1000 Ang^3
#
#
#
# Elastic Constant Matrix: (Units=GPa)
#
#
# Indices 1 2 3 4 5 6 
#
# 1 56.7502 3.2228 17.0057 0.0000 0.0000 0.0000
# 2 3.2228 115.9727 40.2125 0.0000 0.0000 0.0000
# 3 17.0057 40.2125 112.6752 0.0000 0.0000 0.0000
# 4 0.0000 0.0000 0.0000 2.6893 0.0000 0.0000
# 5 0.0000 0.0000 0.0000 0.0000 12.5185 0.0000
# 6 0.0000 0.0000 0.0000 0.0000 0.0000 9.3694
#
#
#
# Elastic Compliance Matrix: (Units=1/GPa)
#
#
# Indices 1 2 3 4 5 6 
#
# 1 0.018483 0.000518 -0.002974 0.000000 0.000000 0.000000
# 2 0.000518 0.009855 -0.003595 0.000000 0.000000 0.000000
# 3 -0.002974 -0.003595 0.010607 0.000000 0.000000 0.000000
# 4 0.000000 0.000000 0.000000 0.371841 0.000000 0.000000
# 5 0.000000 0.000000 0.000000 0.000000 0.079882 0.000000
# 6 0.000000 0.000000 0.000000 0.000000 0.000000 0.106730
#
#
# Mechanical properties :
#
#
# Convention : Reuss Voigt Hill
#
# Bulk Modulus (GPa) = 37.25613 45.14222 41.19918
# Shear Modulus (GPa) = 8.08475 19.91259 13.99867
#
# Velocity S-wave (km/s) = 1.93611 3.03851 2.54765
# Velocity P-wave (km/s) = 4.71932 5.76545 5.26841
#
# Compressibility (1/GPa) = 0.02684122
#
# Stress axis : x y z
#
# Youngs Moduli (GPa) = 54.10387 101.47177 94.27671
#
# Poissons Ratio (x) = -0.05253 0.28041
# Poissons Ratio (y) = -0.02801 0.33895
# Poissons Ratio (z) = 0.16092 0.36482
#
# Static dielectric constant tensor:
#      x y z
#    x 1.834840 0.000000 0.000000 
#    y 0.000000 1.846610 0.000000 
#    z 0.000000 0.000000 1.731640 
# 
# From -- ./inp_files/4065.got.cif
#   From: 2010.05.17/outbox.cif.g08.bks.cpg/sg55_3_cif.got.tgz:4065.got - 2010.06.03 13:27:54.
