data_PCOD9425179
_publ_section_title
;
Structure prediction by ZEFSAII (Michael W. Deem and Ramdas Pophale) SiO2 
 PCOD9425179
Probable space group: P B A M
;
_chemical_formula_sum "Si O2"
_cell_formula_units_Z 40
_cell_length_a 8.938352
_cell_length_b 22.879800
_cell_length_c 10.671578
_cell_angle_alpha 90.000000
_cell_angle_beta 90.000000
_cell_angle_gamma 90.000000
_cell_volume 2182.419937
_symmetry_space_group_name_H-M "P B A M"
_symmetry_group_IT_number 55
_symmetry_cell_setting 'orthorhombic'
loop_
_space_group_symop_operation_xyz
x,y,z
-x,-y,z
1/2+x,1/2-y,-z
1/2-x,1/2+y,-z
-x,-y,-z
x,y,-z
1/2-x,1/2+y,z
1/2+x,1/2-y,z
loop_
_atom_site_type_symbol
_atom_site_label
_atom_site_fract_x
_atom_site_fract_y
_atom_site_fract_z
Si Si1 0.658641 0.575208 0.149982
Si Si2 0.696809 0.444956 0.149827
Si Si3 0.676256 0.826062 0.147886
Si Si4 0.930173 0.755114 0.274476
Si Si5 0.692172 0.666777 0.636288
O O1 0.724156 0.511799 0.188013
O O2 0.478804 0.569732 0.168352
O O3 0.713944 0.624943 0.243829
O O4 0.684583 0.585805 0.000000
O O5 0.797147 0.391800 0.199014
O O6 0.716709 0.445525 0.000000
O O7 0.828545 0.790419 0.175701
O O8 0.542976 0.790326 0.210085
O O9 0.650662 0.828902 0.000000
O O10 0.815831 0.717544 0.356239
O O11 0.032488 0.801448 0.346946
O O12 0.699223 0.637337 0.500000
#
# Coordination Sequence:
#
# PCOD9425179 Si02
#       5
#     8   8   8   8   8
#     4   9  17  32  56  81 107 140 179 222 267 315
#     4   8  15  30  53  80 112 141 171 218 273 317
#     4  10  18  32  54  84 112 139 175 223 270 319
#     4  10  22  34  52  77 110 145 180 217 270 324
#     4  11  22  38  56  77 108 145 182 222 268 322
#
# _framework density 18.328278000000001
#
# number of rings (size 3 to 8) (size 9 to 14) (size 15 to 20)
#    0.000    2.400    2.000    2.400    0.000    4.000 
#    0.000    3.000    0.000    4.800    0.000    0.000 
#    0.000    0.000    0.000    0.000    0.000    0.000 
#
# Total GULP energy -222857.898923 kJ/mol
# GULP energy per Si atom -5571.447473 kJ/mol
# Density = 1.828656 g / cm^3
# Si number density = 18.328278 Si / 1000 Ang^3
#
#
#
# Elastic Constant Matrix: (Units=GPa)
#
#
# Indices 1 2 3 4 5 6 
#
# 1 40.1219 5.0530 3.1895 0.0000 0.0000 0.0000
# 2 5.0530 91.0047 28.6594 0.0000 0.0000 0.0000
# 3 3.1895 28.6594 70.6458 0.0000 0.0000 0.0000
# 4 0.0000 0.0000 0.0000 5.2034 0.0000 0.0000
# 5 0.0000 0.0000 0.0000 0.0000 -1.2331 0.0000
# 6 0.0000 0.0000 0.0000 0.0000 0.0000 20.5029
#
#
#
# Elastic Compliance Matrix: (Units=1/GPa)
#
#
# Indices 1 2 3 4 5 6 
#
# 1 0.025126 -0.001190 -0.000652 0.000000 0.000000 0.000000
# 2 -0.001190 0.012654 -0.005080 0.000000 0.000000 0.000000
# 3 -0.000652 -0.005080 0.016245 0.000000 0.000000 0.000000
# 4 0.000000 0.000000 0.000000 0.192182 0.000000 0.000000
# 5 0.000000 0.000000 0.000000 0.000000 -0.810932 0.000000
# 6 0.000000 0.000000 0.000000 0.000000 0.000000 0.048774
#
#
# Mechanical properties :
#
#
# Convention : Reuss Voigt Hill
#
# Bulk Modulus (GPa) = 24.88646 30.61960 27.75303
# Shear Modulus (GPa) = -10.23093 15.88599 2.82753
#
# Velocity S-wave (km/s) = -2.36520 2.94725 1.24341
# Velocity P-wave (km/s) = 2.47967 5.32205 4.15168
#
# Compressibility (1/GPa) = 0.04018250
#
# Stress axis : x y z
#
# Youngs Moduli (GPa) = 39.79991 79.02476 61.55620
#
# Poissons Ratio (x) = 0.09403 0.04011
# Poissons Ratio (y) = 0.04736 0.31269
# Poissons Ratio (z) = 0.02594 0.40143
#
# Static dielectric constant tensor:
#      x y z
#    x 1.629370 0.000000 0.000000 
#    y 0.000000 1.675330 0.000000 
#    z 0.000000 0.000000 1.616000 
# 
# From -- ./inp_files/9308.got.cif
#   From: 2010.05.17/outbox.cif.g08.bks.cpg/sg55_5_cif.got.tgz:9308.got - 2010.06.03 13:27:54.
