data_PCOD9425048
_publ_section_title
;
Structure prediction by ZEFSAII (Michael W. Deem and Ramdas Pophale) SiO2 
 PCOD9425048
Probable space group: P B A M
;
_chemical_formula_sum "Si O2"
_cell_formula_units_Z 44
_cell_length_a 14.556122
_cell_length_b 14.218160
_cell_length_c 10.877106
_cell_angle_alpha 90.000000
_cell_angle_beta 90.000000
_cell_angle_gamma 90.000000
_cell_volume 2251.139689
_symmetry_space_group_name_H-M "P B A M"
_symmetry_group_IT_number 55
_symmetry_cell_setting 'orthorhombic'
loop_
_space_group_symop_operation_xyz
x,y,z
-x,-y,z
1/2+x,1/2-y,-z
1/2-x,1/2+y,-z
-x,-y,-z
x,y,-z
1/2-x,1/2+y,z
1/2+x,1/2-y,z
loop_
_atom_site_type_symbol
_atom_site_label
_atom_site_fract_x
_atom_site_fract_y
_atom_site_fract_z
Si Si1 0.641084 0.799035 0.500000
Si Si2 0.083193 0.268520 0.767348
Si Si3 0.768818 0.615000 0.500000
Si Si4 0.718382 0.062129 0.226899
Si Si5 0.645209 0.551110 0.000000
Si Si6 0.959311 0.854664 0.000000
Si Si7 0.571806 0.920910 0.288971
Si Si8 0.428971 0.750787 0.500000
O O1 0.713250 0.714324 0.500000
O O2 0.638500 0.868008 0.383845
O O3 0.538465 0.756115 0.500000
O O4 0.169273 0.336870 0.785419
O O5 0.070708 0.199839 0.878995
O O6 0.094788 0.215118 0.636146
O O7 0.994770 0.338934 0.761391
O O8 0.751044 0.561749 0.628662
O O9 0.876403 0.647604 0.500000
O O10 0.640447 0.982274 0.205857
O O11 0.795029 0.054941 0.123809
O O12 0.568809 0.632152 0.000000
O O13 0.590180 0.454231 0.000000
O O14 0.500000 0.000000 0.340436
#
# Coordination Sequence:
#
# PCOD9425048 Si02
#       8
#     4   8   4   8   4   4   8   4
#     4  10  18  30  58  92 123 163 192 235 312 366
#     4   9  19  39  66  91 118 153 200 253 304 373
#     4  10  21  34  61  94 127 157 206 249 296 373
#     4  10  21  40  61  93 125 155 198 257 307 362
#     4  11  27  43  58  77 124 171 202 251 309 362
#     4  11  25  45  58  81 120 167 214 249 299 366
#     4   9  18  34  61  92 122 150 191 256 319 354
#     4   8  18  34  56  94 121 143 192 254 294 346
#
# _framework density 19.545655
#
# number of rings (size 3 to 8) (size 9 to 14) (size 15 to 20)
#    0.000    2.364    0.000    2.455    5.091    5.091 
#    3.273    3.636    0.000    2.182    0.000    0.000 
#    0.000    0.000    0.000    0.000    0.000    0.000 
#
# Total GULP energy -245066.762267 kJ/mol
# GULP energy per Si atom -5569.699142 kJ/mol
# Density = 1.950117 g / cm^3
# Si number density = 19.545655 Si / 1000 Ang^3
#
#
#
# Elastic Constant Matrix: (Units=GPa)
#
#
# Indices 1 2 3 4 5 6 
#
# 1 85.1499 20.2306 44.4602 0.0000 0.0000 0.0000
# 2 20.2306 55.7318 36.4094 0.0000 0.0000 0.0000
# 3 44.4602 36.4094 152.2123 0.0000 0.0000 0.0000
# 4 0.0000 0.0000 0.0000 -143.1960 0.0000 0.0000
# 5 0.0000 0.0000 0.0000 0.0000 -84.0628 0.0000
# 6 0.0000 0.0000 0.0000 0.0000 0.0000 22.9041
#
#
#
# Elastic Compliance Matrix: (Units=1/GPa)
#
#
# Indices 1 2 3 4 5 6 
#
# 1 0.014244 -0.002907 -0.003465 0.000000 0.000000 0.000000
# 2 -0.002907 0.021860 -0.004380 0.000000 0.000000 0.000000
# 3 -0.003465 -0.004380 0.008630 0.000000 0.000000 0.000000
# 4 0.000000 0.000000 0.000000 -0.006983 0.000000 0.000000
# 5 0.000000 0.000000 0.000000 0.000000 -0.011896 0.000000
# 6 0.000000 0.000000 0.000000 0.000000 0.000000 0.043660
#
#
# Mechanical properties :
#
#
# Convention : Reuss Voigt Hill
#
# Bulk Modulus (GPa) = 43.04864 55.03272 49.04068
# Shear Modulus (GPa) = 50.62732 -28.07137 11.27797
#
# Velocity S-wave (km/s) = 5.09493 -3.79383 2.40470
# Velocity P-wave (km/s) = 7.52885 3.00438 5.73192
#
# Compressibility (1/GPa) = 0.02322954
#
# Stress axis : x y z
#
# Youngs Moduli (GPa) = 70.20528 45.74664 115.88004
#
# Poissons Ratio (x) = 0.13297 0.40156
# Poissons Ratio (y) = 0.20406 0.50753
# Poissons Ratio (z) = 0.24328 0.20036
#
# Static dielectric constant tensor:
#      x y z
#    x 1.691580 0.000000 0.000000 
#    y 0.000000 1.666910 0.000000 
#    z 0.000000 0.000000 1.708000 
# 
# From -- ./inp_files/14114.got.cif
#   From: 2010.05.17/outbox.cif.g08.bks.cpg/sg55_8_cif.got.tgz:14114.got - 2010.06.03 13:27:54.
