data_PCOD9425036
_publ_section_title
;
Structure prediction by ZEFSAII (Michael W. Deem and Ramdas Pophale) SiO2 
 PCOD9425036
Probable space group: P B A M
;
_chemical_formula_sum "Si O2"
_cell_formula_units_Z 58
_cell_length_a 16.080316
_cell_length_b 17.891130
_cell_length_c 7.811907
_cell_angle_alpha 90.000000
_cell_angle_beta 90.000000
_cell_angle_gamma 90.000000
_cell_volume 2247.446772
_symmetry_space_group_name_H-M "P B A M"
_symmetry_group_IT_number 55
_symmetry_cell_setting 'orthorhombic'
loop_
_space_group_symop_operation_xyz
x,y,z
-x,-y,z
1/2+x,1/2-y,-z
1/2-x,1/2+y,-z
-x,-y,-z
x,y,-z
1/2-x,1/2+y,z
1/2+x,1/2-y,z
loop_
_atom_site_type_symbol
_atom_site_label
_atom_site_fract_x
_atom_site_fract_y
_atom_site_fract_z
Si Si1 0.301776 0.551050 0.686347
Si Si2 0.871451 0.419125 0.805025
Si Si3 0.500000 0.500000 0.000000
Si Si4 0.374432 0.698223 0.796032
Si Si5 0.480037 0.201323 0.193697
Si Si6 0.261638 0.321562 0.705065
Si Si7 0.580856 0.592005 0.295483
Si Si8 0.392122 0.918327 0.302503
O O1 0.261609 0.542718 0.500000
O O2 0.226835 0.570541 0.809100
O O3 0.358947 0.623064 0.695549
O O4 0.355310 0.478390 0.716959
O O5 0.903857 0.493822 0.716655
O O6 0.900120 0.339816 0.726483
O O7 0.900659 0.419889 0.000000
O O8 0.483944 0.435058 0.847954
O O9 0.460604 0.735244 0.730184
O O10 0.294089 0.752487 0.770068
O O11 0.380805 0.686557 0.000000
O O12 0.544556 0.131091 0.195281
O O13 0.460580 0.224440 0.000000
O O14 0.264559 0.316140 0.500000
O O15 0.357408 0.338726 0.755264
O O16 0.200989 0.392195 0.747983
O O17 0.557496 0.596636 0.500000
O O18 0.404391 0.896891 0.500000
#
# Coordination Sequence:
#
# PCOD9425036 Si02
#       8
#     8   8   2   8   8   8   8   8
#     4  11  23  41  63  89 123 164 207 260 320 374
#     4  11  21  33  55  84 119 156 198 245 298 362
#     4  12  26  40  72  94 124 162 222 266 356 378
#     4  10  21  37  61  88 121 162 212 253 309 386
#     4   9  20  36  51  80 121 158 193 245 296 355
#     4   9  18  36  60  87 122 159 199 252 312 375
#     4  10  23  43  67  97 130 161 213 277 325 387
#     4  10  18  30  52  85 119 155 191 233 290 359
#
# _framework density 25.807061999999998
#
# number of rings (size 3 to 8) (size 9 to 14) (size 15 to 20)
#    0.000    1.931    1.379    2.276    2.897    3.862 
#    0.000    1.379    3.034    1.655    0.000    0.000 
#    0.000    0.000    0.000    0.000    0.000    0.000 
#
# Total GULP energy -323612.791164 kJ/mol
# GULP energy per Si atom -5579.530882 kJ/mol
# Density = 2.574832 g / cm^3
# Si number density = 25.807062 Si / 1000 Ang^3
#
#
#
# Elastic Constant Matrix: (Units=GPa)
#
#
# Indices 1 2 3 4 5 6 
#
# 1 75.8280 0.1387 46.7646 0.0000 0.0000 0.0000
# 2 0.1387 75.1564 5.5684 0.0000 0.0000 0.0000
# 3 46.7646 5.5684 79.1464 0.0000 0.0000 0.0000
# 4 0.0000 0.0000 0.0000 -2.6390 0.0000 0.0000
# 5 0.0000 0.0000 0.0000 0.0000 26.8912 0.0000
# 6 0.0000 0.0000 0.0000 0.0000 0.0000 38.0287
#
#
#
# Elastic Compliance Matrix: (Units=1/GPa)
#
#
# Indices 1 2 3 4 5 6 
#
# 1 0.020806 0.000877 -0.012355 0.000000 0.000000 0.000000
# 2 0.000877 0.013412 -0.001462 0.000000 0.000000 0.000000
# 3 -0.012355 -0.001462 0.020038 0.000000 0.000000 0.000000
# 4 0.000000 0.000000 0.000000 -0.378936 0.000000 0.000000
# 5 0.000000 0.000000 0.000000 0.000000 0.037187 0.000000
# 6 0.000000 0.000000 0.000000 0.000000 0.000000 0.026296
#
#
# Mechanical properties :
#
#
# Convention : Reuss Voigt Hill
#
# Bulk Modulus (GPa) = 35.24092 37.23047 36.23570
# Shear Modulus (GPa) = -22.13769 24.30011 1.08121
#
# Velocity S-wave (km/s) = -2.93203 3.07189 0.64797
# Velocity P-wave (km/s) = 1.49091 5.19998 3.82509
#
# Compressibility (1/GPa) = 0.02837610
#
# Stress axis : x y z
#
# Youngs Moduli (GPa) = 48.06368 74.55855 49.90570
#
# Poissons Ratio (x) = -0.06539 0.61659
# Poissons Ratio (y) = -0.04215 0.07295
# Poissons Ratio (z) = 0.59383 0.10899
#
# Static dielectric constant tensor:
#      x y z
#    x 2.205850 0.000000 0.000000 
#    y 0.000000 2.082890 0.000000 
#    z 0.000000 0.000000 1.943540 
# 
# From -- ./inp_files/7713.got.cif
#   From: 2010.05.17/outbox.cif.g08.bks.cpg/sg55_4_cif.got.tgz:7713.got - 2010.06.03 13:27:54.
