data_PCOD9425901
_publ_section_title
;
Structure prediction by ZEFSAII (Michael W. Deem and Ramdas Pophale) SiO2 
 PCOD9425901
Probable space group: P B A M
;
_chemical_formula_sum "Si O2"
_cell_formula_units_Z 40
_cell_length_a 5.154343
_cell_length_b 10.285359
_cell_length_c 28.728395
_cell_angle_alpha 90.000000
_cell_angle_beta 90.000000
_cell_angle_gamma 90.000000
_cell_volume 1523.014836
_symmetry_space_group_name_H-M "P B A M"
_symmetry_group_IT_number 55
_symmetry_cell_setting 'orthorhombic'
loop_
_space_group_symop_operation_xyz
x,y,z
-x,-y,z
1/2+x,1/2-y,-z
1/2-x,1/2+y,-z
-x,-y,-z
x,y,-z
1/2-x,1/2+y,z
1/2+x,1/2-y,z
loop_
_atom_site_type_symbol
_atom_site_label
_atom_site_fract_x
_atom_site_fract_y
_atom_site_fract_z
Si Si1 0.318421 0.162772 0.000000
Si Si2 0.709815 0.840650 0.101634
Si Si3 0.500000 0.500000 0.173936
Si Si4 0.774374 0.157953 0.549513
Si Si5 0.756206 0.076920 0.258886
Si Si6 0.882884 0.678354 0.357956
O O1 0.272268 0.096947 0.049807
O O2 0.609128 0.219582 0.000000
O O3 0.436085 0.768311 0.105309
O O4 0.780049 0.942786 0.141158
O O5 0.607362 0.611756 0.209672
O O6 0.753001 0.084840 0.500000
O O7 0.546886 0.266848 0.549120
O O8 0.725590 0.090455 0.599431
O O9 0.654756 0.153010 0.303251
O O10 0.500000 0.000000 0.243766
O O11 0.000000 0.000000 0.280739
O O12 0.686286 0.799189 0.364036
#
# Coordination Sequence:
#
# PCOD9425901 Si02
#       6
#     4   8   4   8   8   8
#     4   8  16  35  56  85 116 144 184 229 276 333
#     4  10  22  38  62  87 117 152 187 233 283 339
#     4  10  26  39  60  84 117 150 196 234 288 324
#     4   8  14  25  44  73 102 124 161 219 270 320
#     4  10  23  39  51  73 110 143 175 229 274 319
#     4  10  19  33  56  79  99 137 184 222 273 334
#
# _framework density 26.263698000000002
#
# number of rings (size 3 to 8) (size 9 to 14) (size 15 to 20)
#    0.600    2.000    0.000    1.200    2.800    2.000 
#    0.000    0.000    0.000    8.400    0.000    0.000 
#    0.000    0.000    0.000    0.000    0.000    0.000 
#
# Total GULP energy -222839.848760 kJ/mol
# GULP energy per Si atom -5570.996219 kJ/mol
# Density = 2.620392 g / cm^3
# Si number density = 26.263698 Si / 1000 Ang^3
#
#
#
# Elastic Constant Matrix: (Units=GPa)
#
#
# Indices 1 2 3 4 5 6 
#
# 1 150.1833 34.6076 3.6072 0.0000 0.0000 0.0000
# 2 34.6076 35.9341 36.5310 0.0000 0.0000 0.0000
# 3 3.6072 36.5310 257.2396 0.0000 0.0000 0.0000
# 4 0.0000 0.0000 0.0000 10.7875 0.0000 0.0000
# 5 0.0000 0.0000 0.0000 0.0000 -8.9322 0.0000
# 6 0.0000 0.0000 0.0000 0.0000 0.0000 38.1177
#
#
#
# Elastic Compliance Matrix: (Units=1/GPa)
#
#
# Indices 1 2 3 4 5 6 
#
# 1 0.008903 -0.009873 0.001277 0.000000 0.000000 0.000000
# 2 -0.009873 0.043472 -0.006035 0.000000 0.000000 0.000000
# 3 0.001277 -0.006035 0.004727 0.000000 0.000000 0.000000
# 4 0.000000 0.000000 0.000000 0.092700 0.000000 0.000000
# 5 0.000000 0.000000 0.000000 0.000000 -0.111954 0.000000
# 6 0.000000 0.000000 0.000000 0.000000 0.000000 0.026235
#
#
# Mechanical properties :
#
#
# Convention : Reuss Voigt Hill
#
# Bulk Modulus (GPa) = 35.91879 65.87205 50.89542
# Shear Modulus (GPa) = 48.72222 32.56869 40.64545
#
# Velocity S-wave (km/s) = 4.31178 3.52528 3.93821
# Velocity P-wave (km/s) = 6.20439 6.45798 6.33246
#
# Compressibility (1/GPa) = 0.02784058
#
# Stress axis : x y z
#
# Youngs Moduli (GPa) = 112.32357 23.00321 211.56983
#
# Poissons Ratio (x) = 0.22710 -0.27021
# Poissons Ratio (y) = 1.10892 1.27685
# Poissons Ratio (z) = -0.14346 0.13883
#
# Static dielectric constant tensor:
#      x y z
#    x 1.981920 0.000000 0.000000 
#    y 0.000000 2.312150 0.000000 
#    z 0.000000 0.000000 2.189010 
# 
# From -- ./inp_files/23288.got.cif
#   From: 2010.05.17/outbox.cif.g08.bks.cpg/sg55_12_cif.got.tgz:23288.got - 2010.06.03 13:27:54.
