data_PCOD9425783
_publ_section_title
;
Structure prediction by ZEFSAII (Michael W. Deem and Ramdas Pophale) SiO2 
 PCOD9425783
Probable space group: P B A M
;
_chemical_formula_sum "Si O2"
_cell_formula_units_Z 48
_cell_length_a 16.875973
_cell_length_b 18.999199
_cell_length_c 8.673701
_cell_angle_alpha 90.000000
_cell_angle_beta 90.000000
_cell_angle_gamma 90.000000
_cell_volume 2781.048486
_symmetry_space_group_name_H-M "P B A M"
_symmetry_group_IT_number 55
_symmetry_cell_setting 'orthorhombic'
loop_
_space_group_symop_operation_xyz
x,y,z
-x,-y,z
1/2+x,1/2-y,-z
1/2-x,1/2+y,-z
-x,-y,-z
x,y,-z
1/2-x,1/2+y,z
1/2+x,1/2-y,z
loop_
_atom_site_type_symbol
_atom_site_label
_atom_site_fract_x
_atom_site_fract_y
_atom_site_fract_z
Si Si1 0.832017 0.840756 0.186188
Si Si2 0.511419 0.918917 0.812482
Si Si3 0.413010 0.794617 0.176361
Si Si4 0.984926 0.918999 0.315166
Si Si5 0.338095 0.163299 0.683316
Si Si6 0.078153 0.793448 0.823337
O O1 0.852079 0.761233 0.245452
O O2 0.901839 0.890850 0.247113
O O3 0.745189 0.859304 0.243933
O O4 0.835392 0.840257 0.000000
O O5 0.438621 0.869483 0.756144
O O6 0.591705 0.886521 0.745295
O O7 0.500000 0.000000 0.772649
O O8 0.514709 0.912679 0.000000
O O9 0.495724 0.750985 0.173675
O O10 0.387427 0.807369 0.000000
O O11 0.981895 0.913827 0.500000
O O12 0.053706 0.866882 0.253831
O O13 0.000000 0.000000 0.271778
O O14 0.334795 0.160349 0.500000
O O15 0.360730 0.242626 0.736973
O O16 0.103336 0.803804 0.000000
#
# Coordination Sequence:
#
# PCOD9425783 Si02
#       6
#     8   8   8   8   8   8
#     4  10  19  33  53  74 100 136 179 219 254 302
#     4   9  17  32  54  77 102 133 169 207 252 312
#     4   7  13  27  48  72  93 119 160 206 243 283
#     4  10  20  34  53  79 110 139 169 210 262 315
#     4  11  21  33  51  75 104 135 171 218 269 310
#     4   9  17  32  53  74  97 130 174 212 246 300
#
# _framework density 17.259677
#
# number of rings (size 3 to 8) (size 9 to 14) (size 15 to 20)
#    0.000    2.667    0.000    5.000    0.000    1.667 
#    0.000    2.500    0.000    6.000    0.000    0.000 
#    0.000    0.000    0.000    0.000    0.000    0.000 
#
# Total GULP energy -267353.889108 kJ/mol
# GULP energy per Si atom -5569.872690 kJ/mol
# Density = 1.722039 g / cm^3
# Si number density = 17.259677 Si / 1000 Ang^3
#
#
#
# Elastic Constant Matrix: (Units=GPa)
#
#
# Indices 1 2 3 4 5 6 
#
# 1 77.0163 46.6187 28.1307 0.0000 0.0000 0.0000
# 2 46.6187 152.2387 46.2509 0.0000 0.0000 0.0000
# 3 28.1307 46.2509 67.0473 0.0000 0.0000 0.0000
# 4 0.0000 0.0000 0.0000 23.2912 0.0000 0.0000
# 5 0.0000 0.0000 0.0000 0.0000 20.1244 0.0000
# 6 0.0000 0.0000 0.0000 0.0000 0.0000 16.3353
#
#
#
# Elastic Compliance Matrix: (Units=1/GPa)
#
#
# Indices 1 2 3 4 5 6 
#
# 1 0.016932 -0.003829 -0.004463 0.000000 0.000000 0.000000
# 2 -0.003829 0.009176 -0.004723 0.000000 0.000000 0.000000
# 3 -0.004463 -0.004723 0.020046 0.000000 0.000000 0.000000
# 4 0.000000 0.000000 0.000000 0.042935 0.000000 0.000000
# 5 0.000000 0.000000 0.000000 0.000000 0.049691 0.000000
# 6 0.000000 0.000000 0.000000 0.000000 0.000000 0.061217
#
#
# Mechanical properties :
#
#
# Convention : Reuss Voigt Hill
#
# Bulk Modulus (GPa) = 49.69342 59.81144 54.75243
# Shear Modulus (GPa) = 21.48366 23.63697 22.56031
#
# Velocity S-wave (km/s) = 3.53190 3.70468 3.61932
# Velocity P-wave (km/s) = 6.74437 7.28207 7.01838
#
# Compressibility (1/GPa) = 0.02012339
#
# Stress axis : x y z
#
# Youngs Moduli (GPa) = 59.05937 108.97761 49.88641
#
# Poissons Ratio (x) = 0.41730 0.22263
# Poissons Ratio (y) = 0.22615 0.23563
# Poissons Ratio (z) = 0.26356 0.51474
#
# Static dielectric constant tensor:
#      x y z
#    x 1.577790 0.000000 0.000000 
#    y 0.000000 1.606330 0.000000 
#    z 0.000000 0.000000 1.580320 
# 
# From -- ./inp_files/7565.got.cif
#   From: 2010.05.17/outbox.cif.g08.bks.cpg/sg55_4_cif.got.tgz:7565.got - 2010.06.03 13:27:54.
