data_PCOD9425955
_publ_section_title
;
Structure prediction by ZEFSAII (Michael W. Deem and Ramdas Pophale) SiO2 
 PCOD9425955
Probable space group: P B A M
;
_chemical_formula_sum "Si O2"
_cell_formula_units_Z 64
_cell_length_a 29.091296
_cell_length_b 13.198223
_cell_length_c 8.146047
_cell_angle_alpha 90.000000
_cell_angle_beta 90.000000
_cell_angle_gamma 90.000000
_cell_volume 3127.702540
_symmetry_space_group_name_H-M "P B A M"
_symmetry_group_IT_number 55
_symmetry_cell_setting 'orthorhombic'
loop_
_space_group_symop_operation_xyz
x,y,z
-x,-y,z
1/2+x,1/2-y,-z
1/2-x,1/2+y,-z
-x,-y,-z
x,y,-z
1/2-x,1/2+y,z
1/2+x,1/2-y,z
loop_
_atom_site_type_symbol
_atom_site_label
_atom_site_fract_x
_atom_site_fract_y
_atom_site_fract_z
Si Si1 0.383552 0.958654 0.195493
Si Si2 0.566936 0.408871 0.307549
Si Si3 0.196272 0.936583 0.304524
Si Si4 0.674506 0.346906 0.692658
Si Si5 0.707879 0.134594 0.809354
Si Si6 0.405000 0.376348 0.701530
Si Si7 0.938129 0.345278 0.301627
Si Si8 0.538133 0.195417 0.301385
O O1 0.332196 0.937931 0.261568
O O2 0.417865 0.870144 0.253655
O O3 0.405219 0.065889 0.242326
O O4 0.380955 0.951600 0.000000
O O5 0.553721 0.416773 0.500000
O O6 0.620430 0.374091 0.299575
O O7 0.566757 0.523826 0.241791
O O8 0.540167 0.311659 0.238550
O O9 0.190502 0.945357 0.500000
O O10 0.242396 0.876517 0.270102
O O11 0.148119 0.889798 0.244893
O O12 0.199907 0.052400 0.244183
O O13 0.685224 0.328930 0.500000
O O14 0.688107 0.247219 0.788637
O O15 0.714266 0.110735 0.000000
O O16 0.406327 0.378755 0.500000
O O17 0.423167 0.267086 0.752027
O O18 0.937137 0.347596 0.500000
O O19 0.991069 0.358429 0.248864
O O20 0.537928 0.201012 0.500000
#
# Coordination Sequence:
#
# PCOD9425955 Si02
#       8
#     8   8   8   8   8   8   8   8
#     4  11  24  39  53  73 107 149 188 227 273 323
#     4   8  14  28  54  82 108 135 169 217 265 314
#     4   9  19  35  57  82 107 140 180 219 271 332
#     4   9  17  33  56  78 103 137 175 220 268 319
#     4  11  23  36  53  79 107 139 182 230 276 323
#     4   8  16  33  54  81 114 142 172 216 272 330
#     4  10  21  35  55  83 114 145 179 222 270 325
#     4  10  19  33  57  86 109 138 181 227 273 319
#
# _framework density 20.462304
#
# number of rings (size 3 to 8) (size 9 to 14) (size 15 to 20)
#    0.000    2.500    1.250    2.625    0.000    5.500 
#    0.000    6.875    0.000    1.500    0.000    1.750 
#    0.000    0.000    0.000    0.000    0.000    0.000 
#
# Total GULP energy -356996.800106 kJ/mol
# GULP energy per Si atom -5578.075002 kJ/mol
# Density = 2.041573 g / cm^3
# Si number density = 20.462304 Si / 1000 Ang^3
#
#
#
# Elastic Constant Matrix: (Units=GPa)
#
#
# Indices 1 2 3 4 5 6 
#
# 1 33.6776 3.8394 7.3053 0.0000 0.0000 0.0000
# 2 3.8394 85.1653 1.0292 0.0000 0.0000 0.0000
# 3 7.3053 1.0292 6.2208 0.0000 0.0000 0.0000
# 4 0.0000 0.0000 0.0000 -30.0146 0.0000 0.0000
# 5 0.0000 0.0000 0.0000 0.0000 -5.5130 0.0000
# 6 0.0000 0.0000 0.0000 0.0000 0.0000 19.1164
#
#
#
# Elastic Compliance Matrix: (Units=1/GPa)
#
#
# Indices 1 2 3 4 5 6 
#
# 1 0.039972 -0.001237 -0.046736 0.000000 0.000000 0.000000
# 2 -0.001237 0.011804 -0.000500 0.000000 0.000000 0.000000
# 3 -0.046736 -0.000500 0.215718 0.000000 0.000000 0.000000
# 4 0.000000 0.000000 0.000000 -0.033317 0.000000 0.000000
# 5 0.000000 0.000000 0.000000 0.000000 -0.181388 0.000000
# 6 0.000000 0.000000 0.000000 0.000000 0.000000 0.052311
#
#
# Mechanical properties :
#
#
# Convention : Reuss Voigt Hill
#
# Bulk Modulus (GPa) = 5.86350 16.60129 11.23239
# Shear Modulus (GPa) = 19.31279 4.24374 11.77827
#
# Velocity S-wave (km/s) = 3.07550 1.44168 2.40179
# Velocity P-wave (km/s) = 3.93489 3.30181 3.63217
#
# Compressibility (1/GPa) = 0.17054666
#
# Stress axis : x y z
#
# Youngs Moduli (GPa) = 25.01728 84.71926 4.63569
#
# Poissons Ratio (x) = 0.10482 0.21666
# Poissons Ratio (y) = 0.03095 0.00232
# Poissons Ratio (z) = 1.16922 0.04236
#
# Static dielectric constant tensor:
#      x y z
#    x 1.727590 0.000000 0.000000 
#    y 0.000000 1.733110 0.000000 
#    z 0.000000 0.000000 1.732310 
# 
# From -- ./inp_files/10790.got.cif
#   From: 2010.05.17/outbox.cif.g08.bks.cpg/sg55_6_cif.got.tgz:10790.got - 2010.06.03 13:27:54.
