data_PCOD9425031
_publ_section_title
;
Structure prediction by ZEFSAII (Michael W. Deem and Ramdas Pophale) SiO2 
 PCOD9425031
Probable space group: P B A M
;
_chemical_formula_sum "Si O2"
_cell_formula_units_Z 48
_cell_length_a 18.329303
_cell_length_b 14.035361
_cell_length_c 7.528634
_cell_angle_alpha 90.000000
_cell_angle_beta 90.000000
_cell_angle_gamma 90.000000
_cell_volume 1936.804220
_symmetry_space_group_name_H-M "P B A M"
_symmetry_group_IT_number 55
_symmetry_cell_setting 'orthorhombic'
loop_
_space_group_symop_operation_xyz
x,y,z
-x,-y,z
1/2+x,1/2-y,-z
1/2-x,1/2+y,-z
-x,-y,-z
x,y,-z
1/2-x,1/2+y,z
1/2+x,1/2-y,z
loop_
_atom_site_type_symbol
_atom_site_label
_atom_site_fract_x
_atom_site_fract_y
_atom_site_fract_z
Si Si1 0.972380 0.398810 0.292829
Si Si2 0.618459 0.727799 0.713866
Si Si3 0.980123 0.890433 0.704041
Si Si4 0.262411 0.433973 0.212463
Si Si5 0.629009 0.174065 0.783854
Si Si6 0.820864 0.868740 0.197295
O O1 0.956262 0.417076 0.500000
O O2 0.046467 0.335221 0.280504
O O3 0.000000 0.500000 0.212728
O O4 0.903770 0.335300 0.222756
O O5 0.617619 0.733728 0.500000
O O6 0.548990 0.666222 0.774517
O O7 0.686606 0.658720 0.755026
O O8 0.965199 0.860083 0.500000
O O9 0.907420 0.883297 0.814690
O O10 0.000000 0.000000 0.697458
O O11 0.179480 0.414526 0.268488
O O12 0.290650 0.535327 0.284918
O O13 0.263614 0.444266 0.000000
O O14 0.675939 0.264798 0.716570
O O15 0.626613 0.179440 0.000000
O O16 0.787720 0.857872 0.000000
#
# Coordination Sequence:
#
# PCOD9425031 Si02
#       6
#     8   8   8   8   8   8
#     4  10  22  40  61  84 112 148 192 238 282 334
#     4  10  20  35  56  83 112 142 183 231 279 334
#     4  10  18  30  52  81 108 134 171 220 272 326
#     4  10  22  37  55  83 117 150 187 234 284 335
#     4  10  22  39  57  81 114 152 191 230 280 338
#     4  10  20  34  54  79 108 143 182 225 275 329
#
# _framework density 24.783092
#
# number of rings (size 3 to 8) (size 9 to 14) (size 15 to 20)
#    0.000    2.000    3.333    0.000    0.000    4.000 
#    0.000    1.667    0.000    0.000    0.000    0.000 
#    0.000    0.000    0.000    0.000    0.000    0.000 
#
# Total GULP energy -267605.065884 kJ/mol
# GULP energy per Si atom -5575.105539 kJ/mol
# Density = 2.472668 g / cm^3
# Si number density = 24.783092 Si / 1000 Ang^3
#
#
#
# Elastic Constant Matrix: (Units=GPa)
#
#
# Indices 1 2 3 4 5 6 
#
# 1 47.4795 -1.5629 -14.3307 0.0000 0.0000 0.0000
# 2 -1.5629 110.7228 -1.5782 0.0000 0.0000 0.0000
# 3 -14.3307 -1.5782 67.6784 0.0000 0.0000 0.0000
# 4 0.0000 0.0000 0.0000 10.6926 0.0000 0.0000
# 5 0.0000 0.0000 0.0000 0.0000 19.1670 0.0000
# 6 0.0000 0.0000 0.0000 0.0000 0.0000 34.0089
#
#
#
# Elastic Compliance Matrix: (Units=1/GPa)
#
#
# Indices 1 2 3 4 5 6 
#
# 1 0.022516 0.000386 0.004777 0.000000 0.000000 0.000000
# 2 0.000386 0.009041 0.000293 0.000000 0.000000 0.000000
# 3 0.004777 0.000293 0.015794 0.000000 0.000000 0.000000
# 4 0.000000 0.000000 0.000000 0.093523 0.000000 0.000000
# 5 0.000000 0.000000 0.000000 0.000000 0.052173 0.000000
# 6 0.000000 0.000000 0.000000 0.000000 0.000000 0.029404
#
#
# Mechanical properties :
#
#
# Convention : Reuss Voigt Hill
#
# Bulk Modulus (GPa) = 17.16388 21.21522 19.18955
# Shear Modulus (GPa) = 21.64861 28.99718 25.32290
#
# Velocity S-wave (km/s) = 2.95875 3.42429 3.20000
# Velocity P-wave (km/s) = 4.31427 4.92070 4.62743
#
# Compressibility (1/GPa) = 0.05826188
#
# Stress axis : x y z
#
# Youngs Moduli (GPa) = 44.41246 110.60502 63.31494
#
# Poissons Ratio (x) = -0.04268 -0.30244
# Poissons Ratio (y) = -0.01714 -0.01852
# Poissons Ratio (z) = -0.21215 -0.03236
#
# Static dielectric constant tensor:
#      x y z
#    x 1.911730 0.000000 0.000000 
#    y 0.000000 2.304800 0.000000 
#    z 0.000000 0.000000 2.027190 
# 
# From -- ./inp_files/7442.got.cif
#   From: 2010.05.17/outbox.cif.g08.bks.cpg/sg55_4_cif.got.tgz:7442.got - 2010.06.03 13:27:54.
