data_PCOD9425432
_publ_section_title
;
Structure prediction by ZEFSAII (Michael W. Deem and Ramdas Pophale) SiO2 
 PCOD9425432
Probable space group: P B A M
;
_chemical_formula_sum "Si O2"
_cell_formula_units_Z 48
_cell_length_a 22.772158
_cell_length_b 9.127023
_cell_length_c 10.838079
_cell_angle_alpha 90.000000
_cell_angle_beta 90.000000
_cell_angle_gamma 90.000000
_cell_volume 2252.608122
_symmetry_space_group_name_H-M "P B A M"
_symmetry_group_IT_number 55
_symmetry_cell_setting 'orthorhombic'
loop_
_space_group_symop_operation_xyz
x,y,z
-x,-y,z
1/2+x,1/2-y,-z
1/2-x,1/2+y,-z
-x,-y,-z
x,y,-z
1/2-x,1/2+y,z
1/2+x,1/2-y,z
loop_
_atom_site_type_symbol
_atom_site_label
_atom_site_fract_x
_atom_site_fract_y
_atom_site_fract_z
Si Si1 0.753792 0.025061 0.208971
Si Si2 0.214272 0.722758 0.364736
Si Si3 0.620578 0.475352 0.866397
Si Si4 0.084736 0.578743 0.360843
Si Si5 0.553850 0.612187 0.638642
Si Si6 0.376550 0.874939 0.141065
O O1 0.771895 0.110660 0.333658
O O2 0.692503 0.082946 0.155857
O O3 0.743938 0.859862 0.251639
O O4 0.811842 0.026478 0.128643
O O5 0.237678 0.687730 0.500000
O O6 0.147438 0.665491 0.361153
O O7 0.592684 0.560114 0.752576
O O8 0.617243 0.300329 0.844720
O O9 0.592702 0.507059 0.000000
O O10 0.077402 0.515892 0.500000
O O11 0.039809 0.714632 0.344463
O O12 0.089650 0.463874 0.249258
O O13 0.500000 0.500000 0.639113
O O14 0.580654 0.600531 0.500000
O O15 0.394461 0.913156 0.000000
#
# Coordination Sequence:
#
# PCOD9425432 Si02
#       6
#     8   8   8   8   8   8
#     4  11  19  35  50  80 118 156 192 232 270 334
#     4  10  19  30  50  79 114 151 187 229 278 332
#     4  11  23  38  57  85 118 154 196 237 282 341
#     4   9  19  37  58  84 112 144 188 235 283 339
#     4  10  22  42  66  89 112 142 187 245 301 350
#     4  10  22  38  55  83 120 159 196 229 273 336
#
# _framework density 21.308633
#
# number of rings (size 3 to 8) (size 9 to 14) (size 15 to 20)
#    0.000    1.833    3.333    1.000    0.000    3.000 
#    0.000    0.833    0.000    5.000    0.000    0.000 
#    0.000    0.000    0.000    0.000    0.000    0.000 
#
# Total GULP energy -267539.975677 kJ/mol
# GULP energy per Si atom -5573.749493 kJ/mol
# Density = 2.126013 g / cm^3
# Si number density = 21.308633 Si / 1000 Ang^3
#
#
#
# Elastic Constant Matrix: (Units=GPa)
#
#
# Indices 1 2 3 4 5 6 
#
# 1 23.5553 -2.8709 25.6672 0.0000 0.0000 0.0000
# 2 -2.8709 60.9531 58.2428 0.0000 0.0000 0.0000
# 3 25.6672 58.2428 171.9850 0.0000 0.0000 0.0000
# 4 0.0000 0.0000 0.0000 21.1688 0.0000 0.0000
# 5 0.0000 0.0000 0.0000 0.0000 -15.7284 0.0000
# 6 0.0000 0.0000 0.0000 0.0000 0.0000 22.5353
#
#
#
# Elastic Compliance Matrix: (Units=1/GPa)
#
#
# Indices 1 2 3 4 5 6 
#
# 1 0.060674 0.017017 -0.014818 0.000000 0.000000 0.000000
# 2 0.017017 0.029027 -0.012370 0.000000 0.000000 0.000000
# 3 -0.014818 -0.012370 0.012215 0.000000 0.000000 0.000000
# 4 0.000000 0.000000 0.000000 0.047239 0.000000 0.000000
# 5 0.000000 0.000000 0.000000 0.000000 -0.063579 0.000000
# 6 0.000000 0.000000 0.000000 0.000000 0.000000 0.044375
#
#
# Mechanical properties :
#
#
# Convention : Reuss Voigt Hill
#
# Bulk Modulus (GPa) = 12.25880 46.50795 29.38337
# Shear Modulus (GPa) = 28.17164 17.29208 22.73186
#
# Velocity S-wave (km/s) = 3.63998 2.85178 3.26972
# Velocity P-wave (km/s) = 4.84060 5.71986 5.29850
#
# Compressibility (1/GPa) = 0.08157408
#
# Stress axis : x y z
#
# Youngs Moduli (GPa) = 16.48165 34.45047 81.86758
#
# Poissons Ratio (x) = -0.58623 1.21308
# Poissons Ratio (y) = -0.28046 1.01267
# Poissons Ratio (z) = 0.24422 0.42614
#
# Static dielectric constant tensor:
#      x y z
#    x 1.808720 0.000000 0.000000 
#    y 0.000000 1.738220 0.000000 
#    z 0.000000 0.000000 1.761090 
# 
# From -- ./inp_files/15615.got.cif
#   From: 2010.05.17/outbox.cif.g08.bks.cpg/sg55_8_cif.got.tgz:15615.got - 2010.06.03 13:27:54.
