data_PCOD9425598
_publ_section_title
;
Structure prediction by ZEFSAII (Michael W. Deem and Ramdas Pophale) SiO2 
 PCOD9425598
Probable space group: P B A M
;
_chemical_formula_sum "Si O2"
_cell_formula_units_Z 56
_cell_length_a 24.350075
_cell_length_b 7.115531
_cell_length_c 13.860397
_cell_angle_alpha 90.000000
_cell_angle_beta 90.000000
_cell_angle_gamma 90.000000
_cell_volume 2401.503855
_symmetry_space_group_name_H-M "P B A M"
_symmetry_group_IT_number 55
_symmetry_cell_setting 'orthorhombic'
loop_
_space_group_symop_operation_xyz
x,y,z
-x,-y,z
1/2+x,1/2-y,-z
1/2-x,1/2+y,-z
-x,-y,-z
x,y,-z
1/2-x,1/2+y,z
1/2+x,1/2-y,z
loop_
_atom_site_type_symbol
_atom_site_label
_atom_site_fract_x
_atom_site_fract_y
_atom_site_fract_z
Si Si1 0.177306 0.386270 0.890957
Si Si2 0.919394 0.706195 0.754073
Si Si3 0.705409 0.678521 0.109458
Si Si4 0.980441 0.219522 0.885158
Si Si5 0.794366 0.053508 0.611257
Si Si6 0.669839 0.117048 0.389184
Si Si7 0.382367 0.394330 0.756580
O O1 0.124382 0.324867 0.837145
O O2 0.182524 0.611631 0.890098
O O3 0.234269 0.315252 0.847258
O O4 0.173935 0.320300 0.000000
O O5 0.887639 0.591231 0.669199
O O6 0.975686 0.682443 0.813309
O O7 0.917152 0.925813 0.722508
O O8 0.664059 0.548468 0.165877
O O9 0.711194 0.611756 0.000000
O O10 0.924227 0.226345 0.822262
O O11 0.975773 0.279915 0.000000
O O12 0.000000 0.000000 0.891076
O O13 0.792468 0.119410 0.500000
O O14 0.730240 0.040969 0.643401
O O15 0.840296 0.170886 0.671896
O O16 0.817818 0.841815 0.613912
O O17 0.661874 0.060026 0.500000
#
# Coordination Sequence:
#
# PCOD9425598 Si02
#       7
#     8   8   8   8   8   8   8
#     4  10  20  32  47  70  99 128 159 200 251 303
#     4  10  19  32  51  72  96 130 170 207 245 293
#     4  10  20  32  47  70  99 128 159 200 251 303
#     4   9  18  32  50  72  98 131 171 211 250 293
#     4   9  18  32  50  74 102 129 160 202 252 302
#     4   9  18  32  50  74 102 129 160 202 252 302
#     4  10  19  32  51  72  96 130 170 207 245 293
#
# _framework density 23.318722999999999
#
# number of rings (size 3 to 8) (size 9 to 14) (size 15 to 20)
#    0.000    2.429    0.000    2.571    0.000    6.286 
#    0.000    1.429    0.000    6.857    0.000    0.000 
#    0.000    6.857    0.000    0.000    0.000    0.000 
#
# Total GULP energy -312068.051640 kJ/mol
# GULP energy per Si atom -5572.643779 kJ/mol
# Density = 2.326565 g / cm^3
# Si number density = 23.318723 Si / 1000 Ang^3
#
#
#
# Elastic Constant Matrix: (Units=GPa)
#
#
# Indices 1 2 3 4 5 6 
#
# 1 150.0996 17.3801 64.7847 0.0000 0.0000 0.0000
# 2 17.3801 55.0659 -3.9932 0.0000 0.0000 0.0000
# 3 64.7847 -3.9932 130.4184 0.0000 0.0000 0.0000
# 4 0.0000 0.0000 0.0000 20.7015 0.0000 0.0000
# 5 0.0000 0.0000 0.0000 0.0000 45.7552 0.0000
# 6 0.0000 0.0000 0.0000 0.0000 0.0000 22.3807
#
#
#
# Elastic Compliance Matrix: (Units=1/GPa)
#
#
# Indices 1 2 3 4 5 6 
#
# 1 0.009001 -0.003172 -0.004569 0.000000 0.000000 0.000000
# 2 -0.003172 0.019319 0.002167 0.000000 0.000000 0.000000
# 3 -0.004569 0.002167 0.010003 0.000000 0.000000 0.000000
# 4 0.000000 0.000000 0.000000 0.048306 0.000000 0.000000
# 5 0.000000 0.000000 0.000000 0.000000 0.021855 0.000000
# 6 0.000000 0.000000 0.000000 0.000000 0.000000 0.044681
#
#
# Mechanical properties :
#
#
# Convention : Reuss Voigt Hill
#
# Bulk Modulus (GPa) = 36.79688 54.65858 45.72773
# Shear Modulus (GPa) = 28.83982 34.92831 31.88406
#
# Velocity S-wave (km/s) = 3.52058 3.87443 3.70174
# Velocity P-wave (km/s) = 5.68685 6.59587 6.15816
#
# Compressibility (1/GPa) = 0.02717622
#
# Stress axis : x y z
#
# Youngs Moduli (GPa) = 111.09382 51.76382 99.96619
#
# Poissons Ratio (x) = 0.16421 0.45670
# Poissons Ratio (y) = 0.35243 -0.21666
# Poissons Ratio (z) = 0.50754 -0.11219
#
# Static dielectric constant tensor:
#      x y z
#    x 3.261140 0.000000 0.000000 
#    y 0.000000 2.014120 0.000000 
#    z 0.000000 0.000000 1.879400 
# 
# From -- ./inp_files/17653.got.cif
#   From: 2010.05.17/outbox.cif.g08.bks.cpg/sg55_9_cif.got.tgz:17653.got - 2010.06.03 13:27:54.
