data_PCOD9425566
_publ_section_title
;
Structure prediction by ZEFSAII (Michael W. Deem and Ramdas Pophale) SiO2 
 PCOD9425566
Probable space group: P B A M
;
_chemical_formula_sum "Si O2"
_cell_formula_units_Z 52
_cell_length_a 9.726820
_cell_length_b 15.093458
_cell_length_c 15.914550
_cell_angle_alpha 90.000000
_cell_angle_beta 90.000000
_cell_angle_gamma 90.000000
_cell_volume 2336.436557
_symmetry_space_group_name_H-M "P B A M"
_symmetry_group_IT_number 55
_symmetry_cell_setting 'orthorhombic'
loop_
_space_group_symop_operation_xyz
x,y,z
-x,-y,z
1/2+x,1/2-y,-z
1/2-x,1/2+y,-z
-x,-y,-z
x,y,-z
1/2-x,1/2+y,z
1/2+x,1/2-y,z
loop_
_atom_site_type_symbol
_atom_site_label
_atom_site_fract_x
_atom_site_fract_y
_atom_site_fract_z
Si Si1 0.494833 0.608606 0.404280
Si Si2 0.859088 0.233630 0.000000
Si Si3 0.699534 0.583329 0.736407
Si Si4 0.471228 0.635449 0.863353
Si Si5 0.101069 0.397499 0.000000
Si Si6 0.722960 0.426413 0.000000
Si Si7 0.267231 0.629761 0.276338
Si Si8 0.014855 0.393818 0.807571
O O1 0.500000 0.500000 0.404843
O O2 0.509932 0.638566 0.500000
O O3 0.623900 0.627891 0.343151
O O4 0.352838 0.645194 0.362736
O O5 0.954470 0.206655 0.921693
O O6 0.729740 0.168465 0.000000
O O7 0.794102 0.330448 0.000000
O O8 0.590491 0.590381 0.810961
O O9 0.723987 0.478284 0.725230
O O10 0.840697 0.627992 0.763929
O O11 0.363785 0.670818 0.795620
O O12 0.378332 0.572400 0.921066
O O13 0.028410 0.384365 0.909042
O O14 0.831755 0.504657 0.000000
O O15 0.112558 0.649413 0.243626
O O16 0.000000 0.500000 0.797347
#
# Coordination Sequence:
#
# PCOD9425566 Si02
#       8
#     8   4   8   8   4   4   8   8
#     4   8  14  26  46  74 113 152 188 241 300 358
#     4  11  25  40  55  84 112 153 206 263 303 355
#     4   9  16  29  53  79 107 139 198 239 292 367
#     4  10  20  38  57  73 103 147 195 253 296 343
#     4  12  23  38  62  79 111 169 204 247 316 343
#     4  11  25  39  53  87 114 147 209 265 299 364
#     4   9  18  30  52  84 107 144 202 248 290 369
#     4  10  19  32  47  87 106 148 204 248 290 366
#
# _framework density 22.256115000000001
#
# number of rings (size 3 to 8) (size 9 to 14) (size 15 to 20)
#    0.000    2.308    1.538    3.462    2.154    1.846 
#   11.077    0.769    0.000    4.615    0.000    0.000 
#    0.000   19.692    0.000    4.923    1.846    2.615 
#
# Total GULP energy -290392.049861 kJ/mol
# GULP energy per Si atom -5584.462497 kJ/mol
# Density = 2.220546 g / cm^3
# Si number density = 22.256115 Si / 1000 Ang^3
#
#
#
# Elastic Constant Matrix: (Units=GPa)
#
#
# Indices 1 2 3 4 5 6 
#
# 1 186.6223 13.1662 101.0247 0.0000 0.0000 0.0000
# 2 13.1662 38.5312 21.1331 0.0000 0.0000 0.0000
# 3 101.0247 21.1331 192.1845 0.0000 0.0000 0.0000
# 4 0.0000 0.0000 0.0000 -35.7009 0.0000 0.0000
# 5 0.0000 0.0000 0.0000 0.0000 -3.2893 0.0000
# 6 0.0000 0.0000 0.0000 0.0000 0.0000 22.3757
#
#
#
# Elastic Compliance Matrix: (Units=1/GPa)
#
#
# Indices 1 2 3 4 5 6 
#
# 1 0.007496 -0.000426 -0.003894 0.000000 0.000000 0.000000
# 2 -0.000426 0.027643 -0.002816 0.000000 0.000000 0.000000
# 3 -0.003894 -0.002816 0.007560 0.000000 0.000000 0.000000
# 4 0.000000 0.000000 0.000000 -0.028011 0.000000 0.000000
# 5 0.000000 0.000000 0.000000 0.000000 -0.304014 0.000000
# 6 0.000000 0.000000 0.000000 0.000000 0.000000 0.044691
#
#
# Mechanical properties :
#
#
# Convention : Reuss Voigt Hill
#
# Bulk Modulus (GPa) = 35.17644 76.44288 55.80966
# Shear Modulus (GPa) = -22.63592 15.47803 -3.57894
#
# Velocity S-wave (km/s) = -3.19261 2.64000 -1.26947
# Velocity P-wave (km/s) = 1.49977 6.61168 4.79393
#
# Compressibility (1/GPa) = 0.02842812
#
# Stress axis : x y z
#
# Youngs Moduli (GPa) = 133.40015 36.17562 132.27970
#
# Poissons Ratio (x) = 0.01541 0.51505
# Poissons Ratio (y) = 0.05682 0.37247
# Poissons Ratio (z) = 0.51942 0.10186
#
# Static dielectric constant tensor:
#      x y z
#    x 1.862140 0.000000 0.000000 
#    y 0.000000 1.870630 0.000000 
#    z 0.000000 0.000000 1.848330 
# 
# From -- ./inp_files/17603.got.cif
#   From: 2010.05.17/outbox.cif.g08.bks.cpg/sg55_9_cif.got.tgz:17603.got - 2010.06.03 13:27:54.
