data_PCOD9425409
_publ_section_title
;
Structure prediction by ZEFSAII (Michael W. Deem and Ramdas Pophale) SiO2 
 PCOD9425409
Probable space group: P B A M
;
_chemical_formula_sum "Si O2"
_cell_formula_units_Z 56
_cell_length_a 18.715046
_cell_length_b 20.844769
_cell_length_c 8.934697
_cell_angle_alpha 90.000000
_cell_angle_beta 90.000000
_cell_angle_gamma 90.000000
_cell_volume 3485.521890
_symmetry_space_group_name_H-M "P B A M"
_symmetry_group_IT_number 55
_symmetry_cell_setting 'orthorhombic'
loop_
_space_group_symop_operation_xyz
x,y,z
-x,-y,z
1/2+x,1/2-y,-z
1/2-x,1/2+y,-z
-x,-y,-z
x,y,-z
1/2-x,1/2+y,z
1/2+x,1/2-y,z
loop_
_atom_site_type_symbol
_atom_site_label
_atom_site_fract_x
_atom_site_fract_y
_atom_site_fract_z
Si Si1 0.210946 0.679770 0.672404
Si Si2 0.423356 0.751319 0.680274
Si Si3 0.847770 0.872898 0.821393
Si Si4 0.715946 0.178973 0.328698
Si Si5 0.415132 0.501765 0.322913
Si Si6 0.422417 0.239485 0.821862
Si Si7 0.347739 0.377478 0.823973
O O1 0.202490 0.659592 0.500000
O O2 0.267337 0.635791 0.759380
O O3 0.248048 0.750236 0.671005
O O4 0.135688 0.690805 0.753390
O O5 0.423699 0.744677 0.500000
O O6 0.394484 0.685158 0.751635
O O7 0.365250 0.806514 0.718091
O O8 0.501397 0.765885 0.742618
O O9 0.880462 0.939548 0.766338
O O10 0.848589 0.867821 0.000000
O O11 0.717558 0.155189 0.500000
O O12 0.766268 0.136200 0.225419
O O13 0.500000 0.500000 0.295330
O O14 0.403622 0.511115 0.500000
O O15 0.381056 0.435171 0.269411
O O16 0.391571 0.311554 0.796033
O O17 0.428542 0.230752 0.000000
O O18 0.351785 0.391602 0.000000
#
# Coordination Sequence:
#
# PCOD9425409 Si02
#       7
#     8   8   8   8   8   8   8
#     4   9  17  31  49  68  93 125 160 195 235 286
#     4  10  19  31  48  71  98 128 161 196 239 287
#     4  11  21  33  49  69  96 127 161 201 241 282
#     4   8  16  30  47  66  90 122 158 194 232 279
#     4  11  23  36  50  68  93 128 166 198 231 278
#     4  10  19  30  47  73 101 127 157 197 244 285
#     4  10  20  32  47  68  95 126 159 196 237 280
#
# _framework density 16.066461
#
# number of rings (size 3 to 8) (size 9 to 14) (size 15 to 20)
#    0.000    2.143    0.000    5.143    0.000    9.143 
#    0.000    0.000    0.000    0.000    0.000    1.000 
#    0.000    8.000    0.000    0.000    0.000    0.000 
#
# Total GULP energy -312427.966868 kJ/mol
# GULP energy per Si atom -5579.070837 kJ/mol
# Density = 1.602989 g / cm^3
# Si number density = 16.066461 Si / 1000 Ang^3
#
#
#
# Elastic Constant Matrix: (Units=GPa)
#
#
# Indices 1 2 3 4 5 6 
#
# 1 144.1602 37.0953 72.7298 0.0000 0.0000 0.0000
# 2 37.0953 40.0578 41.2132 0.0000 0.0000 0.0000
# 3 72.7298 41.2132 104.1663 0.0000 0.0000 0.0000
# 4 0.0000 0.0000 0.0000 23.3722 0.0000 0.0000
# 5 0.0000 0.0000 0.0000 0.0000 20.1328 0.0000
# 6 0.0000 0.0000 0.0000 0.0000 0.0000 22.2715
#
#
#
# Elastic Compliance Matrix: (Units=1/GPa)
#
#
# Indices 1 2 3 4 5 6 
#
# 1 0.011054 -0.003872 -0.006186 0.000000 0.000000 0.000000
# 2 -0.003872 0.043458 -0.014491 0.000000 0.000000 0.000000
# 3 -0.006186 -0.014491 0.019652 0.000000 0.000000 0.000000
# 4 0.000000 0.000000 0.000000 0.042786 0.000000 0.000000
# 5 0.000000 0.000000 0.000000 0.000000 0.049670 0.000000
# 6 0.000000 0.000000 0.000000 0.000000 0.000000 0.044900
#
#
# Mechanical properties :
#
#
# Convention : Reuss Voigt Hill
#
# Bulk Modulus (GPa) = 39.89291 65.60675 52.74983
# Shear Modulus (GPa) = 18.58914 22.31170 20.45042
#
# Velocity S-wave (km/s) = 3.40518 3.73059 3.57159
# Velocity P-wave (km/s) = 6.35171 7.71230 7.06484
#
# Compressibility (1/GPa) = 0.02506711
#
# Stress axis : x y z
#
# Youngs Moduli (GPa) = 90.46535 23.01063 50.88448
#
# Poissons Ratio (x) = 0.08910 0.31477
# Poissons Ratio (y) = 0.35028 0.73735
# Poissons Ratio (z) = 0.55962 0.33344
#
# Static dielectric constant tensor:
#      x y z
#    x 1.540220 0.000000 0.000000 
#    y 0.000000 1.510140 0.000000 
#    z 0.000000 0.000000 1.535130 
# 
# From -- ./inp_files/7843.got.cif
#   From: 2010.05.17/outbox.cif.g08.bks.cpg/sg55_4_cif.got.tgz:7843.got - 2010.06.03 13:27:54.
