data_PCOD9425928
_publ_section_title
;
Structure prediction by ZEFSAII (Michael W. Deem and Ramdas Pophale) SiO2 
 PCOD9425928
Probable space group: P B A M
;
_chemical_formula_sum "Si O2"
_cell_formula_units_Z 64
_cell_length_a 24.927925
_cell_length_b 14.379234
_cell_length_c 7.634194
_cell_angle_alpha 90.000000
_cell_angle_beta 90.000000
_cell_angle_gamma 90.000000
_cell_volume 2736.434597
_symmetry_space_group_name_H-M "P B A M"
_symmetry_group_IT_number 55
_symmetry_cell_setting 'orthorhombic'
loop_
_space_group_symop_operation_xyz
x,y,z
-x,-y,z
1/2+x,1/2-y,-z
1/2-x,1/2+y,-z
-x,-y,-z
x,y,-z
1/2-x,1/2+y,z
1/2+x,1/2-y,z
loop_
_atom_site_type_symbol
_atom_site_label
_atom_site_fract_x
_atom_site_fract_y
_atom_site_fract_z
Si Si1 0.604723 0.556149 0.210611
Si Si2 0.278112 0.418776 0.706935
Si Si3 0.784086 0.296659 0.712706
Si Si4 0.553895 0.376859 0.199762
Si Si5 0.834459 0.800621 0.299108
Si Si6 0.162040 0.411188 0.202830
Si Si7 0.390493 0.090904 0.205027
Si Si8 0.954706 0.238843 0.214727
O O1 0.665619 0.532149 0.258176
O O2 0.563384 0.478757 0.279405
O O3 0.587667 0.658948 0.268565
O O4 0.601735 0.555195 0.000000
O O5 0.268629 0.419660 0.500000
O O6 0.287243 0.311720 0.765417
O O7 0.222687 0.451610 0.790266
O O8 0.785377 0.301111 0.500000
O O9 0.724514 0.328945 0.767823
O O10 0.834617 0.352440 0.782262
O O11 0.613425 0.334862 0.199455
O O12 0.511681 0.303011 0.273757
O O13 0.535239 0.392215 0.000000
O O14 0.839302 0.831901 0.500000
O O15 0.835774 0.688036 0.295532
O O16 0.122067 0.488749 0.278656
O O17 0.148563 0.393013 0.000000
O O18 0.435420 0.160516 0.278963
O O19 0.402567 0.076151 0.000000
O O20 0.954239 0.244791 0.000000
#
# Coordination Sequence:
#
# PCOD9425928 Si02
#       8
#     8   8   8   8   8   8   8   8
#     4  10  19  33  56  84 113 149 188 229 276 334
#     4  10  20  34  52  79 115 152 183 221 275 333
#     4   9  19  34  52  76 108 145 181 220 272 331
#     4  10  21  36  58  84 110 148 194 236 282 335
#     4  10  22  40  57  79 112 151 189 233 286 335
#     4  10  21  36  56  83 112 145 187 234 281 337
#     4  10  20  34  57  85 111 142 183 231 283 331
#     4   9  18  36  58  83 115 146 184 236 285 332
#
# _framework density 23.388097999999999
#
# number of rings (size 3 to 8) (size 9 to 14) (size 15 to 20)
#    0.000    2.250    1.250    2.250    1.750    5.500 
#    0.000    1.875    0.000    5.250    0.000    0.000 
#    0.000    0.000    0.000    0.000    0.000    0.000 
#
# Total GULP energy -357468.708307 kJ/mol
# GULP energy per Si atom -5585.448567 kJ/mol
# Density = 2.333487 g / cm^3
# Si number density = 23.388098 Si / 1000 Ang^3
#
#
#
# Elastic Constant Matrix: (Units=GPa)
#
#
# Indices 1 2 3 4 5 6 
#
# 1 49.4678 -11.0697 -5.0923 0.0000 0.0000 0.0000
# 2 -11.0697 35.0785 -5.7609 0.0000 0.0000 0.0000
# 3 -5.0923 -5.7609 52.5582 0.0000 0.0000 0.0000
# 4 0.0000 0.0000 0.0000 -1.0973 0.0000 0.0000
# 5 0.0000 0.0000 0.0000 0.0000 42.5767 0.0000
# 6 0.0000 0.0000 0.0000 0.0000 0.0000 37.2986
#
#
#
# Elastic Compliance Matrix: (Units=1/GPa)
#
#
# Indices 1 2 3 4 5 6 
#
# 1 0.022198 0.007493 0.002972 0.000000 0.000000 0.000000
# 2 0.007493 0.031559 0.004185 0.000000 0.000000 0.000000
# 3 0.002972 0.004185 0.019773 0.000000 0.000000 0.000000
# 4 0.000000 0.000000 0.000000 -0.911343 0.000000 0.000000
# 5 0.000000 0.000000 0.000000 0.000000 0.023487 0.000000
# 6 0.000000 0.000000 0.000000 0.000000 0.000000 0.026811
#
#
# Mechanical properties :
#
#
# Convention : Reuss Voigt Hill
#
# Bulk Modulus (GPa) = 9.72469 10.36209 10.04339
# Shear Modulus (GPa) = -6.38946 26.35744 9.98399
#
# Velocity S-wave (km/s) = -1.65465 3.36066 2.06836
# Velocity P-wave (km/s) = 0.71869 4.41575 3.16349
#
# Compressibility (1/GPa) = 0.10283105
#
# Stress axis : x y z
#
# Youngs Moduli (GPa) = 45.04934 31.68632 50.57341
#
# Poissons Ratio (x) = -0.23743 -0.15031
# Poissons Ratio (y) = -0.33756 -0.21166
# Poissons Ratio (z) = -0.13389 -0.13261
#
# Static dielectric constant tensor:
#      x y z
#    x 1.879380 0.000000 0.000000 
#    y 0.000000 1.931990 0.000000 
#    z 0.000000 0.000000 1.858150 
# 
# From -- ./inp_files/9701.got.cif
#   From: 2010.05.17/outbox.cif.g08.bks.cpg/sg55_5_cif.got.tgz:9701.got - 2010.06.03 13:27:54.
