data_PCOD9425631
_publ_section_title
;
Structure prediction by ZEFSAII (Michael W. Deem and Ramdas Pophale) SiO2 
 PCOD9425631
Probable space group: P B A M
;
_chemical_formula_sum "Si O2"
_cell_formula_units_Z 56
_cell_length_a 16.565131
_cell_length_b 5.105479
_cell_length_c 35.579417
_cell_angle_alpha 90.000000
_cell_angle_beta 90.000000
_cell_angle_gamma 90.000000
_cell_volume 3009.055488
_symmetry_space_group_name_H-M "P B A M"
_symmetry_group_IT_number 55
_symmetry_cell_setting 'orthorhombic'
loop_
_space_group_symop_operation_xyz
x,y,z
-x,-y,z
1/2+x,1/2-y,-z
1/2-x,1/2+y,-z
-x,-y,-z
x,y,-z
1/2-x,1/2+y,z
1/2+x,1/2-y,z
loop_
_atom_site_type_symbol
_atom_site_label
_atom_site_fract_x
_atom_site_fract_y
_atom_site_fract_z
Si Si1 0.695664 0.794357 0.815278
Si Si2 0.597076 0.500218 0.384936
Si Si3 0.305340 0.132244 0.101832
Si Si4 0.902783 0.499078 0.661107
Si Si5 0.944351 0.243803 0.043137
Si Si6 0.807079 0.430001 0.736365
Si Si7 0.695679 0.356648 0.542454
O O1 0.728021 0.496919 0.814380
O O2 0.657793 0.839562 0.856116
O O3 0.651102 0.872841 0.776800
O O4 0.500000 0.500000 0.387411
O O5 0.622259 0.283206 0.354146
O O6 0.633967 0.423352 0.424730
O O7 0.622223 0.783699 0.369776
O O8 0.232715 0.343527 0.098802
O O9 0.369990 0.202269 0.070399
O O10 0.865049 0.421613 0.700785
O O11 0.000000 0.500000 0.663972
O O12 0.000000 0.500000 0.043063
O O13 0.917491 0.192821 0.000000
O O14 0.000000 0.000000 0.055112
O O15 0.762021 0.708110 0.734935
O O16 0.662605 0.387242 0.500000
O O17 0.731488 0.065747 0.546028
#
# Coordination Sequence:
#
# PCOD9425631 Si02
#       7
#     8   8   8   8   8   8   8
#     4   8  16  30  48  72 100 127 161 209 254 291
#     4  10  21  36  53  73 100 134 166 198 242 295
#     4  10  19  33  55  78 101 134 177 220 258 305
#     4  10  21  35  50  73 104 131 161 206 250 285
#     4  10  21  36  52  74 108 142 170 212 269 318
#     4  10  19  32  52  75  98 130 170 203 243 301
#     4  10  21  36  54  77 103 128 159 204 248 285
#
# _framework density 18.610493000000002
#
# number of rings (size 3 to 8) (size 9 to 14) (size 15 to 20)
#    0.000    2.286    0.000    2.571    0.000    4.286 
#    0.000    0.714    0.000    7.714    0.000    0.000 
#    0.000    0.000    0.000    0.000    0.000    0.000 
#
# Total GULP energy -312314.006143 kJ/mol
# GULP energy per Si atom -5577.035824 kJ/mol
# Density = 1.856813 g / cm^3
# Si number density = 18.610493 Si / 1000 Ang^3
#
#
#
# Elastic Constant Matrix: (Units=GPa)
#
#
# Indices 1 2 3 4 5 6 
#
# 1 16.8191 0.7749 37.1112 0.0000 0.0000 0.0000
# 2 0.7749 76.8774 -5.3120 0.0000 0.0000 0.0000
# 3 37.1112 -5.3120 125.7918 0.0000 0.0000 0.0000
# 4 0.0000 0.0000 0.0000 28.4987 0.0000 0.0000
# 5 0.0000 0.0000 0.0000 0.0000 -45.8389 0.0000
# 6 0.0000 0.0000 0.0000 0.0000 0.0000 15.8414
#
#
#
# Elastic Compliance Matrix: (Units=1/GPa)
#
#
# Indices 1 2 3 4 5 6 
#
# 1 0.172444 -0.005269 -0.051097 0.000000 0.000000 0.000000
# 2 -0.005269 0.013207 0.002112 0.000000 0.000000 0.000000
# 3 -0.051097 0.002112 0.023114 0.000000 0.000000 0.000000
# 4 0.000000 0.000000 0.000000 0.035089 0.000000 0.000000
# 5 0.000000 0.000000 0.000000 0.000000 -0.021816 0.000000
# 6 0.000000 0.000000 0.000000 0.000000 0.000000 0.063126
#
#
# Mechanical properties :
#
#
# Convention : Reuss Voigt Hill
#
# Bulk Modulus (GPa) = 9.97436 31.62627 20.80031
# Shear Modulus (GPa) = 11.70711 12.16118 11.93415
#
# Velocity S-wave (km/s) = 2.51083 2.55906 2.53506
# Velocity P-wave (km/s) = 3.71172 5.07566 4.44630
#
# Compressibility (1/GPa) = 0.10025703
#
# Stress axis : x y z
#
# Youngs Moduli (GPa) = 5.79897 75.71876 43.26470
#
# Poissons Ratio (x) = 0.39895 2.21070
# Poissons Ratio (y) = 0.03055 -0.09138
# Poissons Ratio (z) = 0.29631 -0.15993
#
# Static dielectric constant tensor:
#      x y z
#    x 1.596250 0.000000 0.000000 
#    y 0.000000 1.635650 0.000000 
#    z 0.000000 0.000000 1.677630 
# 
# From -- ./inp_files/24179.got.cif
#   From: 2010.05.17/outbox.cif.g08.bks.cpg/sg55_13_cif.got.tgz:24179.got - 2010.06.03 13:27:54.
