data_PCOD9425662
_publ_section_title
;
Structure prediction by ZEFSAII (Michael W. Deem and Ramdas Pophale) SiO2 
 PCOD9425662
Probable space group: P B A M
;
_chemical_formula_sum "Si O2"
_cell_formula_units_Z 48
_cell_length_a 13.958532
_cell_length_b 19.016513
_cell_length_c 7.691300
_cell_angle_alpha 90.000000
_cell_angle_beta 90.000000
_cell_angle_gamma 90.000000
_cell_volume 2041.598710
_symmetry_space_group_name_H-M "P B A M"
_symmetry_group_IT_number 55
_symmetry_cell_setting 'orthorhombic'
loop_
_space_group_symop_operation_xyz
x,y,z
-x,-y,z
1/2+x,1/2-y,-z
1/2-x,1/2+y,-z
-x,-y,-z
x,y,-z
1/2-x,1/2+y,z
1/2+x,1/2-y,z
loop_
_atom_site_type_symbol
_atom_site_label
_atom_site_fract_x
_atom_site_fract_y
_atom_site_fract_z
Si Si1 0.334999 0.358871 0.800242
Si Si2 0.110873 0.010865 0.787620
Si Si3 0.759876 0.384291 0.803818
Si Si4 0.893720 0.503740 0.700664
Si Si5 0.922478 0.277786 0.209999
Si Si6 0.866564 0.669634 0.694889
O O1 0.338415 0.437954 0.726468
O O2 0.405960 0.301099 0.722283
O O3 0.231682 0.320398 0.798163
O O4 0.364132 0.369006 0.000000
O O5 0.162650 0.082651 0.723093
O O6 0.116763 0.015930 0.000000
O O7 0.000000 0.000000 0.741893
O O8 0.822954 0.455609 0.807283
O O9 0.835509 0.328329 0.725616
O O10 0.737173 0.359777 0.000000
O O11 0.894269 0.477319 0.500000
O O12 0.871979 0.585373 0.695854
O O13 0.000000 0.500000 0.773808
O O14 0.029644 0.303552 0.248879
O O15 0.914520 0.277991 0.000000
O O16 0.848998 0.695517 0.500000
#
# Coordination Sequence:
#
# PCOD9425662 Si02
#       6
#     8   8   8   8   8   8
#     4  10  21  38  58  82 113 149 188 235 287 334
#     4   9  18  33  55  80 107 144 188 231 275 329
#     4  10  19  32  54  83 109 139 183 230 274 330
#     4  10  19  32  52  80 110 141 176 220 274 327
#     4  10  22  36  55  85 116 147 186 237 290 338
#     4  11  22  36  57  82 111 148 186 229 282 341
#
# _framework density 23.510985999999999
#
# number of rings (size 3 to 8) (size 9 to 14) (size 15 to 20)
#    0.000    2.000    3.333    0.500    0.000    3.000 
#    0.000    5.000    0.000    2.000    0.000    0.000 
#    0.000    0.000    0.000    0.000    0.000    0.000 
#
# Total GULP energy -267549.086912 kJ/mol
# GULP energy per Si atom -5573.939311 kJ/mol
# Density = 2.345747 g / cm^3
# Si number density = 23.510986 Si / 1000 Ang^3
#
#
#
# Elastic Constant Matrix: (Units=GPa)
#
#
# Indices 1 2 3 4 5 6 
#
# 1 108.9576 11.7755 -8.5031 0.0000 0.0000 0.0000
# 2 11.7755 60.9282 2.8277 0.0000 0.0000 0.0000
# 3 -8.5031 2.8277 45.5593 0.0000 0.0000 0.0000
# 4 0.0000 0.0000 0.0000 -5.2074 0.0000 0.0000
# 5 0.0000 0.0000 0.0000 0.0000 -130.8732 0.0000
# 6 0.0000 0.0000 0.0000 0.0000 0.0000 32.4675
#
#
#
# Elastic Compliance Matrix: (Units=1/GPa)
#
#
# Indices 1 2 3 4 5 6 
#
# 1 0.009535 -0.001931 0.001899 0.000000 0.000000 0.000000
# 2 -0.001931 0.016851 -0.001406 0.000000 0.000000 0.000000
# 3 0.001899 -0.001406 0.022391 0.000000 0.000000 0.000000
# 4 0.000000 0.000000 0.000000 -0.192034 0.000000 0.000000
# 5 0.000000 0.000000 0.000000 0.000000 -0.007641 0.000000
# 6 0.000000 0.000000 0.000000 0.000000 0.000000 0.030800
#
#
# Mechanical properties :
#
#
# Convention : Reuss Voigt Hill
#
# Bulk Modulus (GPa) = 21.78573 25.29392 23.53983
# Shear Modulus (GPa) = -49.05730 -6.76628 -27.91179
#
# Velocity S-wave (km/s) = -4.57285 -1.69829 -3.44929
# Velocity P-wave (km/s) = 4.31219 2.63365 2.41442
#
# Compressibility (1/GPa) = 0.04590161
#
# Stress axis : x y z
#
# Youngs Moduli (GPa) = 104.87897 59.34288 44.66040
#
# Poissons Ratio (x) = 0.11459 -0.08483
# Poissons Ratio (y) = 0.20251 0.06281
# Poissons Ratio (z) = -0.19921 0.08345
#
# Static dielectric constant tensor:
#      x y z
#    x 1.945640 0.000000 0.000000 
#    y 0.000000 1.907500 0.000000 
#    z 0.000000 0.000000 1.934200 
# 
# From -- ./inp_files/5807.got.cif
#   From: 2010.05.17/outbox.cif.g08.bks.cpg/sg55_3_cif.got.tgz:5807.got - 2010.06.03 13:27:54.
