data_PCOD9425675
_publ_section_title
;
Structure prediction by ZEFSAII (Michael W. Deem and Ramdas Pophale) SiO2 
 PCOD9425675
Probable space group: P B A M
;
_chemical_formula_sum "Si O2"
_cell_formula_units_Z 64
_cell_length_a 28.607355
_cell_length_b 13.288380
_cell_length_c 7.497669
_cell_angle_alpha 90.000000
_cell_angle_beta 90.000000
_cell_angle_gamma 90.000000
_cell_volume 2850.204411
_symmetry_space_group_name_H-M "P B A M"
_symmetry_group_IT_number 55
_symmetry_cell_setting 'orthorhombic'
loop_
_space_group_symop_operation_xyz
x,y,z
-x,-y,z
1/2+x,1/2-y,-z
1/2-x,1/2+y,-z
-x,-y,-z
x,y,-z
1/2-x,1/2+y,z
1/2+x,1/2-y,z
loop_
_atom_site_type_symbol
_atom_site_label
_atom_site_fract_x
_atom_site_fract_y
_atom_site_fract_z
Si Si1 0.434002 0.682351 0.710036
Si Si2 0.690684 0.653175 0.781856
Si Si3 0.157672 0.069111 0.215044
Si Si4 0.953884 0.445645 0.204613
Si Si5 0.116996 0.384526 0.712516
Si Si6 0.708488 0.226235 0.212642
Si Si7 0.525768 0.592043 0.798798
Si Si8 0.903458 0.247633 0.219157
O O1 0.443043 0.691317 0.500000
O O2 0.396324 0.593208 0.737793
O O3 0.408919 0.783197 0.774081
O O4 0.483069 0.669997 0.805624
O O5 0.676796 0.539464 0.724661
O O6 0.741031 0.691929 0.719692
O O7 0.650147 0.732024 0.730310
O O8 0.691519 0.650102 0.000000
O O9 0.187450 0.166868 0.280357
O O10 0.159836 0.068763 0.000000
O O11 0.910402 0.522362 0.206655
O O12 0.932667 0.343428 0.284254
O O13 0.000000 0.500000 0.284346
O O14 0.966920 0.421729 0.000000
O O15 0.112187 0.392864 0.500000
O O16 0.170854 0.362061 0.753868
O O17 0.712545 0.238619 0.000000
O O18 0.500000 0.500000 0.704850
O O19 0.569636 0.647539 0.720293
O O20 0.538973 0.559488 0.000000
O O21 0.904972 0.249608 0.000000
#
# Coordination Sequence:
#
# PCOD9425675 Si02
#       8
#     8   8   8   8   8   8   8   8
#     4  10  20  33  50  73 101 133 169 210 252 296
#     4   9  17  31  52  78 105 131 166 214 264 311
#     4   9  17  31  52  76 102 133 168 208 257 311
#     4  10  20  34  54  79 108 143 180 220 267 318
#     4  10  21  36  53  74 102 137 176 216 259 307
#     4   9  18  32  53  79 102 130 172 218 261 311
#     4  10  19  32  53  78 103 133 167 204 250 304
#     4   9  18  31  49  77 108 134 167 214 263 311
#
# _framework density 22.454529999999998
#
# number of rings (size 3 to 8) (size 9 to 14) (size 15 to 20)
#    0.000    2.500    0.000    2.250    0.000    6.000 
#    0.000    5.000    0.000    5.250    0.000    0.000 
#    0.000    0.000    0.000    0.000    0.000    0.000 
#
# Total GULP energy -357247.186272 kJ/mol
# GULP energy per Si atom -5581.987286 kJ/mol
# Density = 2.240342 g / cm^3
# Si number density = 22.454530 Si / 1000 Ang^3
#
#
#
# Elastic Constant Matrix: (Units=GPa)
#
#
# Indices 1 2 3 4 5 6 
#
# 1 139.4965 37.1887 -4.5369 0.0000 0.0000 0.0000
# 2 37.1887 94.7282 -2.3988 0.0000 0.0000 0.0000
# 3 -4.5369 -2.3988 67.1317 0.0000 0.0000 0.0000
# 4 0.0000 0.0000 0.0000 -11.2828 0.0000 0.0000
# 5 0.0000 0.0000 0.0000 0.0000 -34.6496 0.0000
# 6 0.0000 0.0000 0.0000 0.0000 0.0000 32.0797
#
#
#
# Elastic Compliance Matrix: (Units=1/GPa)
#
#
# Indices 1 2 3 4 5 6 
#
# 1 0.008019 -0.003137 0.000430 0.000000 0.000000 0.000000
# 2 -0.003137 0.011793 0.000209 0.000000 0.000000 0.000000
# 3 0.000430 0.000209 0.014933 0.000000 0.000000 0.000000
# 4 0.000000 0.000000 0.000000 -0.088630 0.000000 0.000000
# 5 0.000000 0.000000 0.000000 0.000000 -0.028860 0.000000
# 6 0.000000 0.000000 0.000000 0.000000 0.000000 0.031172
#
#
# Mechanical properties :
#
#
# Convention : Reuss Voigt Hill
#
# Bulk Modulus (GPa) = 33.61453 40.20693 36.91073
# Shear Modulus (GPa) = -136.38585 15.30300 -60.54142
#
# Velocity S-wave (km/s) = -7.80196 2.61341 -5.19811
# Velocity P-wave (km/s) = 8.13377 5.20109 4.42192
#
# Compressibility (1/GPa) = 0.02974904
#
# Stress axis : x y z
#
# Youngs Moduli (GPa) = 124.70410 84.79291 66.96746
#
# Poissons Ratio (x) = 0.26601 -0.02879
# Poissons Ratio (y) = 0.39123 -0.01402
# Poissons Ratio (z) = -0.05360 -0.01775
#
# Static dielectric constant tensor:
#      x y z
#    x 1.809390 0.000000 0.000000 
#    y 0.000000 1.875920 0.000000 
#    z 0.000000 0.000000 1.875430 
# 
# From -- ./inp_files/4563.got.cif
#   From: 2010.05.17/outbox.cif.g08.bks.cpg/sg55_3_cif.got.tgz:4563.got - 2010.06.03 13:27:54.
