data_PCOD9425954
_publ_section_title
;
Structure prediction by ZEFSAII (Michael W. Deem and Ramdas Pophale) SiO2 
 PCOD9425954
Probable space group: P B A M
;
_chemical_formula_sum "Si O2"
_cell_formula_units_Z 56
_cell_length_a 11.647114
_cell_length_b 19.861222
_cell_length_c 12.052624
_cell_angle_alpha 90.000000
_cell_angle_beta 90.000000
_cell_angle_gamma 90.000000
_cell_volume 2788.084297
_symmetry_space_group_name_H-M "P B A M"
_symmetry_group_IT_number 55
_symmetry_cell_setting 'orthorhombic'
loop_
_space_group_symop_operation_xyz
x,y,z
-x,-y,z
1/2+x,1/2-y,-z
1/2-x,1/2+y,-z
-x,-y,-z
x,y,-z
1/2-x,1/2+y,z
1/2+x,1/2-y,z
loop_
_atom_site_type_symbol
_atom_site_label
_atom_site_fract_x
_atom_site_fract_y
_atom_site_fract_z
Si Si1 0.565406 0.282569 0.124436
Si Si2 0.115015 0.795877 0.678134
Si Si3 0.154456 0.347383 0.770249
Si Si4 0.721504 0.394314 0.221318
Si Si5 0.009176 0.927422 0.670440
Si Si6 0.565999 0.855757 0.373522
Si Si7 0.182116 0.959436 0.870578
O O1 0.462214 0.296309 0.209717
O O2 0.599698 0.205130 0.143547
O O3 0.674471 0.330631 0.151506
O O4 0.527346 0.295520 0.000000
O O5 0.247942 0.804423 0.706550
O O6 0.077122 0.865027 0.619890
O O7 0.085654 0.725168 0.623349
O O8 0.217428 0.409006 0.830684
O O9 0.057362 0.368906 0.682689
O O10 0.619961 0.403808 0.310330
O O11 0.838211 0.382532 0.287799
O O12 0.719724 0.463353 0.151318
O O13 0.076311 0.942653 0.787617
O O14 0.000000 0.000000 0.615860
O O15 0.574797 0.881428 0.500000
O O16 0.153793 0.949937 0.000000
#
# Coordination Sequence:
#
# PCOD9425954 Si02
#       7
#     8   8   8   8   8   8   8
#     4  10  19  33  57  85 122 157 186 234 303 366
#     4   9  19  37  57  86 118 149 203 252 296 364
#     4  10  21  39  55  86 118 150 206 249 288 364
#     4  10  20  37  56  92 122 152 204 248 287 367
#     4   8  17  33  60  89 126 153 186 243 301 358
#     4  11  24  42  62  81 112 164 209 262 315 347
#     4  10  20  36  63  91 126 165 192 236 304 369
#
# _framework density 20.085474999999999
#
# number of rings (size 3 to 8) (size 9 to 14) (size 15 to 20)
#    0.000    2.286    1.429    0.857    0.000    9.429 
#    0.000    4.286    0.000   10.286    0.000    0.000 
#    0.000    0.000    0.000    0.000    0.000    0.000 
#
# Total GULP energy -312289.532413 kJ/mol
# GULP energy per Si atom -5576.598793 kJ/mol
# Density = 2.003976 g / cm^3
# Si number density = 20.085475 Si / 1000 Ang^3
#
#
#
# Elastic Constant Matrix: (Units=GPa)
#
#
# Indices 1 2 3 4 5 6 
#
# 1 117.2898 6.3376 41.8846 0.0000 0.0000 0.0000
# 2 6.3376 69.1829 5.7711 0.0000 0.0000 0.0000
# 3 41.8846 5.7711 121.7852 0.0000 0.0000 0.0000
# 4 0.0000 0.0000 0.0000 -5.3726 0.0000 0.0000
# 5 0.0000 0.0000 0.0000 0.0000 -432.7592 0.0000
# 6 0.0000 0.0000 0.0000 0.0000 0.0000 32.4238
#
#
#
# Elastic Compliance Matrix: (Units=1/GPa)
#
#
# Indices 1 2 3 4 5 6 
#
# 1 0.009746 -0.000616 -0.003323 0.000000 0.000000 0.000000
# 2 -0.000616 0.014551 -0.000478 0.000000 0.000000 0.000000
# 3 -0.003323 -0.000478 0.009377 0.000000 0.000000 0.000000
# 4 0.000000 0.000000 0.000000 -0.186130 0.000000 0.000000
# 5 0.000000 0.000000 0.000000 0.000000 -0.002311 0.000000
# 6 0.000000 0.000000 0.000000 0.000000 0.000000 0.030842
#
#
# Mechanical properties :
#
#
# Convention : Reuss Voigt Hill
#
# Bulk Modulus (GPa) = 40.25617 46.24939 43.25278
# Shear Modulus (GPa) = -46.81036 -64.19062 -55.50049
#
# Velocity S-wave (km/s) = -4.83282 -5.65934 -5.26233
# Velocity P-wave (km/s) = 3.32500 4.43034 3.91685
#
# Compressibility (1/GPa) = 0.02484091
#
# Stress axis : x y z
#
# Youngs Moduli (GPa) = 102.60985 68.72530 106.64928
#
# Poissons Ratio (x) = 0.04231 0.35435
# Poissons Ratio (y) = 0.06317 0.05096
# Poissons Ratio (z) = 0.34093 0.03284
#
# Static dielectric constant tensor:
#      x y z
#    x 1.681560 0.000000 0.000000 
#    y 0.000000 1.755690 0.000000 
#    z 0.000000 0.000000 1.711220 
# 
# From -- ./inp_files/13388.got.cif
#   From: 2010.05.17/outbox.cif.g08.bks.cpg/sg55_7_cif.got.tgz:13388.got - 2010.06.03 13:27:54.
