data_PCOD9425354
_publ_section_title
;
Structure prediction by ZEFSAII (Michael W. Deem and Ramdas Pophale) SiO2 
 PCOD9425354
Probable space group: P B A M
;
_chemical_formula_sum "Si O2"
_cell_formula_units_Z 48
_cell_length_a 8.362636
_cell_length_b 23.435235
_cell_length_c 13.645989
_cell_angle_alpha 90.000000
_cell_angle_beta 90.000000
_cell_angle_gamma 90.000000
_cell_volume 2674.345562
_symmetry_space_group_name_H-M "P B A M"
_symmetry_group_IT_number 55
_symmetry_cell_setting 'orthorhombic'
loop_
_space_group_symop_operation_xyz
x,y,z
-x,-y,z
1/2+x,1/2-y,-z
1/2-x,1/2+y,-z
-x,-y,-z
x,y,-z
1/2-x,1/2+y,z
1/2+x,1/2-y,z
loop_
_atom_site_type_symbol
_atom_site_label
_atom_site_fract_x
_atom_site_fract_y
_atom_site_fract_z
Si Si1 0.670791 0.023830 0.112197
Si Si2 0.350508 0.387472 0.243464
Si Si3 0.760168 0.708144 0.887836
Si Si4 0.311079 0.483404 0.389420
Si Si5 0.873987 0.331470 0.889487
Si Si6 0.712651 0.428054 0.222653
O O1 0.743090 0.077339 0.166658
O O2 0.500000 0.000000 0.148611
O O3 0.791968 0.972278 0.132448
O O4 0.650014 0.038287 0.000000
O O5 0.324859 0.323666 0.203352
O O6 0.298086 0.419379 0.344500
O O7 0.537775 0.401938 0.236671
O O8 0.737043 0.775910 0.878914
O O9 0.945460 0.690910 0.883496
O O10 0.701408 0.693292 0.000000
O O11 0.500000 0.500000 0.391095
O O12 0.249418 0.486832 0.500000
O O13 0.242278 0.531065 0.314529
O O14 0.833204 0.378481 0.808613
O O15 0.850408 0.355342 0.000000
#
# Coordination Sequence:
#
# PCOD9425354 Si02
#       6
#     8   8   8   8   8   8
#     4  10  19  29  42  63  94 129 159 190 232 282
#     4  10  19  30  48  72  95 123 159 199 242 286
#     4  10  20  33  49  70  99 134 166 196 232 278
#     4   8  16  32  52  73  96 123 157 198 246 294
#     4  10  20  33  49  70  99 134 166 196 232 278
#     4  10  19  30  48  72  95 123 159 199 242 286
#
# _framework density 17.948315999999998
#
# number of rings (size 3 to 8) (size 9 to 14) (size 15 to 20)
#    0.000    2.333    0.000    4.500    0.000    7.333 
#    0.000    0.000    0.000   19.000    0.000    0.000 
#    0.000    0.000    0.000    0.000    0.000    0.000 
#
# Total GULP energy -267315.408872 kJ/mol
# GULP energy per Si atom -5569.071018 kJ/mol
# Density = 1.790746 g / cm^3
# Si number density = 17.948316 Si / 1000 Ang^3
#
#
#
# Elastic Constant Matrix: (Units=GPa)
#
#
# Indices 1 2 3 4 5 6 
#
# 1 26.7910 3.6552 21.7719 0.0000 0.0000 0.0000
# 2 3.6552 67.5578 36.0798 0.0000 0.0000 0.0000
# 3 21.7719 36.0798 89.1511 0.0000 0.0000 0.0000
# 4 0.0000 0.0000 0.0000 19.6249 0.0000 0.0000
# 5 0.0000 0.0000 0.0000 0.0000 11.5005 0.0000
# 6 0.0000 0.0000 0.0000 0.0000 0.0000 34.8679
#
#
#
# Elastic Compliance Matrix: (Units=1/GPa)
#
#
# Indices 1 2 3 4 5 6 
#
# 1 0.047683 0.004643 -0.013524 0.000000 0.000000 0.000000
# 2 0.004643 0.019336 -0.008959 0.000000 0.000000 0.000000
# 3 -0.013524 -0.008959 0.018145 0.000000 0.000000 0.000000
# 4 0.000000 0.000000 0.000000 0.050956 0.000000 0.000000
# 5 0.000000 0.000000 0.000000 0.000000 0.086953 0.000000
# 6 0.000000 0.000000 0.000000 0.000000 0.000000 0.028680
#
#
# Mechanical properties :
#
#
# Convention : Reuss Voigt Hill
#
# Bulk Modulus (GPa) = 20.20881 34.05710 27.13295
# Shear Modulus (GPa) = 16.45137 21.33153 18.89145
#
# Velocity S-wave (km/s) = 3.03082 3.45120 3.24782
# Velocity P-wave (km/s) = 4.85095 5.90740 5.40505
#
# Compressibility (1/GPa) = 0.04948337
#
# Stress axis : x y z
#
# Youngs Moduli (GPa) = 20.97204 51.71819 55.11081
#
# Poissons Ratio (x) = -0.24010 0.74529
# Poissons Ratio (y) = -0.09736 0.49373
# Poissons Ratio (z) = 0.28362 0.46334
#
# Static dielectric constant tensor:
#      x y z
#    x 1.649040 0.000000 0.000000 
#    y 0.000000 1.662480 0.000000 
#    z 0.000000 0.000000 1.632100 
# 
# From -- ./inp_files/17495.got.cif
#   From: 2010.05.17/outbox.cif.g08.bks.cpg/sg55_9_cif.got.tgz:17495.got - 2010.06.03 13:27:54.
