data_PCOD9425698
_publ_section_title
;
Structure prediction by ZEFSAII (Michael W. Deem and Ramdas Pophale) SiO2 
 PCOD9425698
Probable space group: P B A M
;
_chemical_formula_sum "Si O2"
_cell_formula_units_Z 64
_cell_length_a 25.512712
_cell_length_b 14.665708
_cell_length_c 7.577489
_cell_angle_alpha 90.000000
_cell_angle_beta 90.000000
_cell_angle_gamma 90.000000
_cell_volume 2835.208322
_symmetry_space_group_name_H-M "P B A M"
_symmetry_group_IT_number 55
_symmetry_cell_setting 'orthorhombic'
loop_
_space_group_symop_operation_xyz
x,y,z
-x,-y,z
1/2+x,1/2-y,-z
1/2-x,1/2+y,-z
-x,-y,-z
x,y,-z
1/2-x,1/2+y,z
1/2+x,1/2-y,z
loop_
_atom_site_type_symbol
_atom_site_label
_atom_site_fract_x
_atom_site_fract_y
_atom_site_fract_z
Si Si1 0.444241 0.978473 0.799968
Si Si2 0.193145 0.284200 0.216102
Si Si3 0.443873 0.464898 0.291556
Si Si4 0.401062 0.651894 0.210829
Si Si5 0.481610 0.796244 0.705638
Si Si6 0.330171 0.990270 0.217125
Si Si7 0.204311 0.681483 0.790860
Si Si8 0.591555 0.733485 0.286685
O O1 0.445326 0.868659 0.803878
O O2 0.389739 0.008107 0.719948
O O3 0.500000 0.000000 0.713411
O O4 0.446048 0.014058 0.000000
O O5 0.146540 0.216071 0.273458
O O6 0.186133 0.389069 0.272990
O O7 0.248306 0.242717 0.277907
O O8 0.192162 0.285741 0.000000
O O9 0.500000 0.500000 0.217024
O O10 0.452302 0.450026 0.500000
O O11 0.402850 0.547318 0.268922
O O12 0.421092 0.369285 0.222622
O O13 0.454997 0.698268 0.274179
O O14 0.400351 0.653167 0.000000
O O15 0.481046 0.819756 0.500000
O O16 0.541313 0.793495 0.770915
O O17 0.296814 0.077227 0.275664
O O18 0.331508 0.989426 0.000000
O O19 0.147532 0.727323 0.766489
O O20 0.213097 0.674427 0.000000
O O21 0.590462 0.733391 0.500000
#
# Coordination Sequence:
#
# PCOD9425698 Si02
#       8
#     8   8   8   8   8   8   8   8
#     4  10  19  32  53  81 113 150 188 233 288 343
#     4   9  19  36  58  84 115 149 187 239 293 336
#     4  10  20  38  58  79 116 162 193 224 292 361
#     4  11  21  35  58  87 114 145 194 247 286 330
#     4  11  21  35  55  80 113 153 190 230 287 349
#     4   9  17  33  55  81 115 148 180 228 288 336
#     4  10  21  37  61  86 109 149 197 235 282 345
#     4  10  22  39  57  79 116 155 185 232 292 343
#
# _framework density 22.573295999999999
#
# number of rings (size 3 to 8) (size 9 to 14) (size 15 to 20)
#    0.000    2.000    2.500    1.500    0.000    4.000 
#    0.000    4.375    0.000    0.000    0.000    0.000 
#    0.000    0.000    0.000    0.000    0.000    0.000 
#
# Total GULP energy -357507.448312 kJ/mol
# GULP energy per Si atom -5586.053880 kJ/mol
# Density = 2.252192 g / cm^3
# Si number density = 22.573296 Si / 1000 Ang^3
#
#
#
# Elastic Constant Matrix: (Units=GPa)
#
#
# Indices 1 2 3 4 5 6 
#
# 1 124.9294 46.3753 -9.2381 0.0000 0.0000 0.0000
# 2 46.3753 128.9526 -1.3145 0.0000 0.0000 0.0000
# 3 -9.2381 -1.3145 47.1437 0.0000 0.0000 0.0000
# 4 0.0000 0.0000 0.0000 16.3582 0.0000 0.0000
# 5 0.0000 0.0000 0.0000 0.0000 16.2594 0.0000
# 6 0.0000 0.0000 0.0000 0.0000 0.0000 36.5008
#
#
#
# Elastic Compliance Matrix: (Units=1/GPa)
#
#
# Indices 1 2 3 4 5 6 
#
# 1 0.009379 -0.003355 0.001744 0.000000 0.000000 0.000000
# 2 -0.003355 0.008957 -0.000408 0.000000 0.000000 0.000000
# 3 0.001744 -0.000408 0.021542 0.000000 0.000000 0.000000
# 4 0.000000 0.000000 0.000000 0.061131 0.000000 0.000000
# 5 0.000000 0.000000 0.000000 0.000000 0.061503 0.000000
# 6 0.000000 0.000000 0.000000 0.000000 0.000000 0.027397
#
#
# Mechanical properties :
#
#
# Convention : Reuss Voigt Hill
#
# Bulk Modulus (GPa) = 27.90081 41.40790 34.65436
# Shear Modulus (GPa) = 24.28441 31.50390 27.89415
#
# Velocity S-wave (km/s) = 3.28350 3.73986 3.51909
# Velocity P-wave (km/s) = 5.17321 6.08542 5.64776
#
# Compressibility (1/GPa) = 0.03584125
#
# Stress axis : x y z
#
# Youngs Moduli (GPa) = 106.62123 111.64129 46.42058
#
# Poissons Ratio (x) = 0.37458 -0.08097
# Poissons Ratio (y) = 0.35773 0.01893
# Poissons Ratio (z) = -0.18598 0.04552
#
# Static dielectric constant tensor:
#      x y z
#    x 1.823210 0.000000 0.000000 
#    y 0.000000 1.882840 0.000000 
#    z 0.000000 0.000000 1.843070 
# 
# From -- ./inp_files/9721.got.cif
#   From: 2010.05.17/outbox.cif.g08.bks.cpg/sg55_5_cif.got.tgz:9721.got - 2010.06.03 13:27:54.
