data_PCOD9425357
_publ_section_title
;
Structure prediction by ZEFSAII (Michael W. Deem and Ramdas Pophale) SiO2 
 PCOD9425357
Probable space group: P B A M
;
_chemical_formula_sum "Si O2"
_cell_formula_units_Z 64
_cell_length_a 18.763706
_cell_length_b 26.692347
_cell_length_c 8.906863
_cell_angle_alpha 90.000000
_cell_angle_beta 90.000000
_cell_angle_gamma 90.000000
_cell_volume 4460.978744
_symmetry_space_group_name_H-M "P B A M"
_symmetry_group_IT_number 55
_symmetry_cell_setting 'orthorhombic'
loop_
_space_group_symop_operation_xyz
x,y,z
-x,-y,z
1/2+x,1/2-y,-z
1/2-x,1/2+y,-z
-x,-y,-z
x,y,-z
1/2-x,1/2+y,z
1/2+x,1/2-y,z
loop_
_atom_site_type_symbol
_atom_site_label
_atom_site_fract_x
_atom_site_fract_y
_atom_site_fract_z
Si Si1 0.712588 0.196316 0.172608
Si Si2 0.574835 0.748016 0.678448
Si Si3 0.578103 0.448345 0.320133
Si Si4 0.923572 0.055178 0.179268
Si Si5 0.080161 0.242443 0.819361
Si Si6 0.833415 0.849657 0.679084
Si Si7 0.797979 0.302163 0.827042
Si Si8 0.339224 0.355308 0.323028
O O1 0.633139 0.211584 0.221381
O O2 0.754170 0.249627 0.173922
O O3 0.759522 0.159733 0.273481
O O4 0.711736 0.178572 0.000000
O O5 0.566517 0.753296 0.500000
O O6 0.499007 0.749752 0.759111
O O7 0.629244 0.789554 0.741583
O O8 0.611656 0.693761 0.706410
O O9 0.570937 0.454234 0.500000
O O10 0.598273 0.501169 0.245639
O O11 0.501221 0.434070 0.251325
O O12 0.633747 0.404086 0.289938
O O13 0.870178 0.098479 0.230495
O O14 0.929578 0.052680 0.000000
O O15 0.114397 0.192249 0.749486
O O16 0.081242 0.238110 0.000000
O O17 0.830966 0.842121 0.500000
O O18 0.755260 0.840805 0.747661
O O19 0.810978 0.315639 0.000000
O O20 0.342457 0.366008 0.500000
#
# Coordination Sequence:
#
# PCOD9425357 Si02
#       8
#     8   8   8   8   8   8   8   8
#     4   8  16  29  42  59  82 109 141 175 210 249
#     4  10  19  29  43  63  87 115 147 179 211 253
#     4  10  20  33  46  61  85 113 143 180 216 251
#     4  11  21  31  45  63  84 111 144 181 216 252
#     4  10  19  29  43  63  88 116 145 178 214 253
#     4  10  19  30  45  63  84 113 146 178 214 255
#     4   9  17  29  44  61  84 112 141 176 214 252
#     4  10  19  30  44  61  83 113 145 177 214 253
#
# _framework density 14.346627
#
# number of rings (size 3 to 8) (size 9 to 14) (size 15 to 20)
#    0.000    2.250    0.000    5.625    0.000   10.000 
#    0.000    0.000    0.000    0.000    0.000    0.000 
#    0.000    1.000    0.000   10.500    0.000    4.500 
#
# Total GULP energy -356892.548261 kJ/mol
# GULP energy per Si atom -5576.446067 kJ/mol
# Density = 1.431397 g / cm^3
# Si number density = 14.346627 Si / 1000 Ang^3
#
#
#
# Elastic Constant Matrix: (Units=GPa)
#
#
# Indices 1 2 3 4 5 6 
#
# 1 91.5870 41.1631 48.9336 0.0000 0.0000 0.0000
# 2 41.1631 65.6606 50.1196 0.0000 0.0000 0.0000
# 3 48.9336 50.1196 88.2187 0.0000 0.0000 0.0000
# 4 0.0000 0.0000 0.0000 18.6635 0.0000 0.0000
# 5 0.0000 0.0000 0.0000 0.0000 27.0972 0.0000
# 6 0.0000 0.0000 0.0000 0.0000 0.0000 23.1700
#
#
#
# Elastic Compliance Matrix: (Units=1/GPa)
#
#
# Indices 1 2 3 4 5 6 
#
# 1 0.016767 -0.006025 -0.005877 0.000000 0.000000 0.000000
# 2 -0.006025 0.029057 -0.013166 0.000000 0.000000 0.000000
# 3 -0.005877 -0.013166 0.022076 0.000000 0.000000 0.000000
# 4 0.000000 0.000000 0.000000 0.053581 0.000000 0.000000
# 5 0.000000 0.000000 0.000000 0.000000 0.036904 0.000000
# 6 0.000000 0.000000 0.000000 0.000000 0.000000 0.043159
#
#
# Mechanical properties :
#
#
# Convention : Reuss Voigt Hill
#
# Bulk Modulus (GPa) = 56.29870 58.43322 57.36596
# Shear Modulus (GPa) = 19.40993 20.80279 20.10636
#
# Velocity S-wave (km/s) = 3.68221 3.81203 3.74768
# Velocity P-wave (km/s) = 7.57662 7.75845 7.66807
#
# Compressibility (1/GPa) = 0.01776240
#
# Stress axis : x y z
#
# Youngs Moduli (GPa) = 59.64262 34.41543 45.29908
#
# Poissons Ratio (x) = 0.20735 0.26623
# Poissons Ratio (y) = 0.35934 0.59641
# Poissons Ratio (z) = 0.35053 0.45312
#
# Static dielectric constant tensor:
#      x y z
#    x 1.469450 0.000000 0.000000 
#    y 0.000000 1.454480 0.000000 
#    z 0.000000 0.000000 1.479460 
# 
# From -- ./inp_files/8246.got.cif
#   From: 2010.05.17/outbox.cif.g08.bks.cpg/sg55_5_cif.got.tgz:8246.got - 2010.06.03 13:27:54.
