data_PCOD9425814
_publ_section_title
;
Structure prediction by ZEFSAII (Michael W. Deem and Ramdas Pophale) SiO2 
 PCOD9425814
Probable space group: P B A M
;
_chemical_formula_sum "Si O2"
_cell_formula_units_Z 64
_cell_length_a 11.139228
_cell_length_b 29.981235
_cell_length_c 9.540853
_cell_angle_alpha 90.000000
_cell_angle_beta 90.000000
_cell_angle_gamma 90.000000
_cell_volume 3186.337805
_symmetry_space_group_name_H-M "P B A M"
_symmetry_group_IT_number 55
_symmetry_cell_setting 'orthorhombic'
loop_
_space_group_symop_operation_xyz
x,y,z
-x,-y,z
1/2+x,1/2-y,-z
1/2-x,1/2+y,-z
-x,-y,-z
x,y,-z
1/2-x,1/2+y,z
1/2+x,1/2-y,z
loop_
_atom_site_type_symbol
_atom_site_label
_atom_site_fract_x
_atom_site_fract_y
_atom_site_fract_z
Si Si1 0.514051 0.407860 0.662555
Si Si2 0.036179 0.291987 0.654329
Si Si3 0.862728 0.481834 0.330079
Si Si4 0.630219 0.526407 0.830475
Si Si5 0.749367 0.909598 0.163538
Si Si6 0.318275 0.192134 0.151953
Si Si7 0.256585 0.789779 0.845061
Si Si8 0.459314 0.305480 0.349219
O O1 0.515213 0.423783 0.500000
O O2 0.402172 0.427645 0.749001
O O3 0.631123 0.420803 0.750542
O O4 0.514902 0.354130 0.657222
O O5 0.044759 0.310052 0.500000
O O6 0.909612 0.302720 0.722228
O O7 0.042947 0.237903 0.649547
O O8 0.141304 0.309535 0.749510
O O9 0.839842 0.480317 0.500000
O O10 0.751362 0.507326 0.247690
O O11 0.854511 0.433600 0.252880
O O12 0.000000 0.500000 0.311694
O O13 0.500000 0.500000 0.813607
O O14 0.648967 0.530278 0.000000
O O15 0.739767 0.856140 0.160180
O O16 0.753488 0.924596 0.000000
O O17 0.234974 0.235692 0.152369
O O18 0.383341 0.194705 0.000000
O O19 0.128851 0.799979 0.779433
O O20 0.266299 0.807070 0.000000
O O21 0.391875 0.302564 0.500000
#
# Coordination Sequence:
#
# PCOD9425814 Si02
#       8
#     8   8   8   8   8   8   8   8
#     4  11  22  37  62  92 123 156 196 249 300 355
#     4  10  19  33  54  77 109 151 194 240 290 347
#     4  11  25  45  68  94 124 161 203 249 307 371
#     4  11  23  41  67  97 126 160 201 247 303 366
#     4  11  22  38  62  91 122 155 197 248 299 358
#     4   9  20  36  54  80 112 149 193 239 288 346
#     4  10  19  33  54  78 110 151 192 237 291 347
#     4   9  20  36  53  80 113 149 193 240 291 344
#
# _framework density 20.085754000000001
#
# number of rings (size 3 to 8) (size 9 to 14) (size 15 to 20)
#    0.000    1.750    1.250    3.000    0.000    4.500 
#    2.250    0.000    0.000    0.000    0.000    0.000 
#    0.000    0.000    0.000    0.000    0.000    0.000 
#
# Total GULP energy -356347.664601 kJ/mol
# GULP energy per Si atom -5567.932259 kJ/mol
# Density = 2.004004 g / cm^3
# Si number density = 20.085754 Si / 1000 Ang^3
#
#
#
# Elastic Constant Matrix: (Units=GPa)
#
#
# Indices 1 2 3 4 5 6 
#
# 1 63.2268 3.4133 61.1935 0.0000 0.0000 0.0000
# 2 3.4133 45.9791 16.8750 0.0000 0.0000 0.0000
# 3 61.1935 16.8750 196.5733 0.0000 0.0000 0.0000
# 4 0.0000 0.0000 0.0000 7.3200 0.0000 0.0000
# 5 0.0000 0.0000 0.0000 0.0000 32.5585 0.0000
# 6 0.0000 0.0000 0.0000 0.0000 0.0000 -0.0909
#
#
#
# Elastic Compliance Matrix: (Units=1/GPa)
#
#
# Indices 1 2 3 4 5 6 
#
# 1 0.022675 0.000937 -0.007139 0.000000 0.000000 0.000000
# 2 0.000937 0.022495 -0.002223 0.000000 0.000000 0.000000
# 3 -0.007139 -0.002223 0.007500 0.000000 0.000000 0.000000
# 4 0.000000 0.000000 0.000000 0.136613 0.000000 0.000000
# 5 0.000000 0.000000 0.000000 0.000000 0.030714 0.000000
# 6 0.000000 0.000000 0.000000 0.000000 0.000000-11.000304
#
#
# Mechanical properties :
#
#
# Convention : Reuss Voigt Hill
#
# Bulk Modulus (GPa) = 27.91691 52.08254 39.99973
# Shear Modulus (GPa) = -0.46505 22.91066 11.22280
#
# Velocity S-wave (km/s) = -0.48170 3.38100 2.36634
# Velocity P-wave (km/s) = 3.69048 6.42090 5.23677
#
# Compressibility (1/GPa) = 0.03582058
#
# Stress axis : x y z
#
# Youngs Moduli (GPa) = 44.10112 44.45383 133.32569
#
# Poissons Ratio (x) = -0.04165 0.95184
# Poissons Ratio (y) = -0.04132 0.29635
# Poissons Ratio (z) = 0.31485 0.09881
#
# Static dielectric constant tensor:
#      x y z
#    x 1.698770 0.000000 0.000000 
#    y 0.000000 1.760350 0.000000 
#    z 0.000000 0.000000 1.725010 
# 
# From -- ./inp_files/4557.got.cif
#   From: 2010.05.17/outbox.cif.g08.bks.cpg/sg55_3_cif.got.tgz:4557.got - 2010.06.03 13:27:54.
