data_PCOD9425339
_publ_section_title
;
Structure prediction by ZEFSAII (Michael W. Deem and Ramdas Pophale) SiO2 
 PCOD9425339
Probable space group: P B A M
;
_chemical_formula_sum "Si O2"
_cell_formula_units_Z 64
_cell_length_a 18.881818
_cell_length_b 26.816566
_cell_length_c 8.815979
_cell_angle_alpha 90.000000
_cell_angle_beta 90.000000
_cell_angle_gamma 90.000000
_cell_volume 4463.931459
_symmetry_space_group_name_H-M "P B A M"
_symmetry_group_IT_number 55
_symmetry_cell_setting 'orthorhombic'
loop_
_space_group_symop_operation_xyz
x,y,z
-x,-y,z
1/2+x,1/2-y,-z
1/2-x,1/2+y,-z
-x,-y,-z
x,y,-z
1/2-x,1/2+y,z
1/2+x,1/2-y,z
loop_
_atom_site_type_symbol
_atom_site_label
_atom_site_fract_x
_atom_site_fract_y
_atom_site_fract_z
Si Si1 0.287939 0.803756 0.675470
Si Si2 0.339630 0.355755 0.819520
Si Si3 0.576052 0.554477 0.318547
Si Si4 0.421828 0.553994 0.818204
Si Si5 0.920143 0.755280 0.682948
Si Si6 0.575004 0.745168 0.820018
Si Si7 0.800264 0.300089 0.325370
Si Si8 0.336473 0.644091 0.684031
O O1 0.291483 0.820479 0.500000
O O2 0.239950 0.840966 0.771760
O O3 0.365877 0.788431 0.732018
O O4 0.245919 0.750948 0.675442
O O5 0.368895 0.403585 0.732558
O O6 0.388837 0.307972 0.778066
O O7 0.344380 0.363138 0.000000
O O8 0.570731 0.551371 0.500000
O O9 0.594751 0.500528 0.249404
O O10 0.499132 0.567789 0.248877
O O11 0.366476 0.595009 0.761624
O O12 0.425498 0.551859 0.000000
O O13 0.920460 0.754313 0.500000
O O14 0.886188 0.808717 0.727057
O O15 0.998802 0.749996 0.744119
O O16 0.630022 0.787837 0.768911
O O17 0.567317 0.745815 0.000000
O O18 0.819871 0.310054 0.500000
O O19 0.744194 0.341682 0.273211
O O20 0.338847 0.639761 0.500000
#
# Coordination Sequence:
#
# PCOD9425339 Si02
#       8
#     8   8   8   8   8   8   8   8
#     4   8  15  28  43  60  80 108 143 175 207 247
#     4  10  19  30  43  62  86 112 141 176 216 254
#     4  11  21  33  47  61  81 112 147 180 209 246
#     4  11  21  32  45  63  87 111 138 178 219 252
#     4   9  17  28  43  61  84 113 146 178 207 245
#     4  10  19  27  39  61  88 114 142 174 212 254
#     4   8  15  28  44  59  80 109 142 176 207 243
#     4   9  17  30  46  63  82 111 147 177 208 251
#
# _framework density 14.337137
#
# number of rings (size 3 to 8) (size 9 to 14) (size 15 to 20)
#    0.000    2.500    0.000    6.000    0.000    5.000 
#    0.000    2.500    0.000    0.000    0.000    0.000 
#    0.000    1.000    0.000   10.500    0.000    5.000 
#
# Total GULP energy -356709.686220 kJ/mol
# GULP energy per Si atom -5573.588847 kJ/mol
# Density = 1.430451 g / cm^3
# Si number density = 14.337137 Si / 1000 Ang^3
#
#
#
# Elastic Constant Matrix: (Units=GPa)
#
#
# Indices 1 2 3 4 5 6 
#
# 1 95.7814 40.8695 35.5179 0.0000 0.0000 0.0000
# 2 40.8695 62.3240 33.7575 0.0000 0.0000 0.0000
# 3 35.5179 33.7575 61.5137 0.0000 0.0000 0.0000
# 4 0.0000 0.0000 0.0000 19.1384 0.0000 0.0000
# 5 0.0000 0.0000 0.0000 0.0000 4.1432 0.0000
# 6 0.0000 0.0000 0.0000 0.0000 0.0000 25.1564
#
#
#
# Elastic Compliance Matrix: (Units=1/GPa)
#
#
# Indices 1 2 3 4 5 6 
#
# 1 0.015423 -0.007528 -0.004774 0.000000 0.000000 0.000000
# 2 -0.007528 0.026506 -0.010199 0.000000 0.000000 0.000000
# 3 -0.004774 -0.010199 0.024610 0.000000 0.000000 0.000000
# 4 0.000000 0.000000 0.000000 0.052251 0.000000 0.000000
# 5 0.000000 0.000000 0.000000 0.000000 0.241358 0.000000
# 6 0.000000 0.000000 0.000000 0.000000 0.000000 0.039751
#
#
# Mechanical properties :
#
#
# Convention : Reuss Voigt Hill
#
# Bulk Modulus (GPa) = 46.43249 48.87878 47.65563
# Shear Modulus (GPa) = 11.05996 16.98588 14.02292
#
# Velocity S-wave (km/s) = 2.78046 3.44575 3.13083
# Velocity P-wave (km/s) = 6.53945 7.07088 6.81035
#
# Compressibility (1/GPa) = 0.02153665
#
# Stress axis : x y z
#
# Youngs Moduli (GPa) = 64.83888 37.72711 40.63340
#
# Poissons Ratio (x) = 0.28400 0.19398
# Poissons Ratio (y) = 0.48810 0.41444
# Poissons Ratio (z) = 0.30954 0.38480
#
# Static dielectric constant tensor:
#      x y z
#    x 1.474440 0.000000 0.000000 
#    y 0.000000 1.459870 0.000000 
#    z 0.000000 0.000000 1.477860 
# 
# From -- ./inp_files/8210.got.cif
#   From: 2010.05.17/outbox.cif.g08.bks.cpg/sg55_5_cif.got.tgz:8210.got - 2010.06.03 13:27:54.
