data_PCOD9425608
_publ_section_title
;
Structure prediction by ZEFSAII (Michael W. Deem and Ramdas Pophale) SiO2 
 PCOD9425608
Probable space group: P B A M
;
_chemical_formula_sum "Si O2"
_cell_formula_units_Z 56
_cell_length_a 19.775300
_cell_length_b 19.545857
_cell_length_c 8.784128
_cell_angle_alpha 90.000000
_cell_angle_beta 90.000000
_cell_angle_gamma 90.000000
_cell_volume 3395.286708
_symmetry_space_group_name_H-M "P B A M"
_symmetry_group_IT_number 55
_symmetry_cell_setting 'orthorhombic'
loop_
_space_group_symop_operation_xyz
x,y,z
-x,-y,z
1/2+x,1/2-y,-z
1/2-x,1/2+y,-z
-x,-y,-z
x,y,-z
1/2-x,1/2+y,z
1/2+x,1/2-y,z
loop_
_atom_site_type_symbol
_atom_site_label
_atom_site_fract_x
_atom_site_fract_y
_atom_site_fract_z
Si Si1 0.479221 0.289661 0.682725
Si Si2 0.296934 0.480797 0.816184
Si Si3 0.226443 0.352725 0.317876
Si Si4 0.449696 0.438088 0.816521
Si Si5 0.665629 0.764452 0.317202
Si Si6 0.771063 0.863690 0.816729
Si Si7 0.378909 0.752130 0.182634
O O1 0.482713 0.288816 0.500000
O O2 0.471191 0.367532 0.739333
O O3 0.411095 0.249590 0.730665
O O4 0.546640 0.257511 0.751950
O O5 0.245179 0.426723 0.745786
O O6 0.373173 0.458428 0.774343
O O7 0.283157 0.558627 0.766912
O O8 0.292523 0.478217 0.000000
O O9 0.221107 0.354138 0.500000
O O10 0.288470 0.301544 0.275830
O O11 0.160152 0.318057 0.246915
O O12 0.500000 0.500000 0.776708
O O13 0.452624 0.429296 0.000000
O O14 0.667267 0.770398 0.500000
O O15 0.703023 0.829460 0.246233
O O16 0.832852 0.813592 0.771246
O O17 0.768682 0.863103 0.000000
O O18 0.380710 0.754620 0.000000
#
# Coordination Sequence:
#
# PCOD9425608 Si02
#       7
#     8   8   8   8   8   8   8
#     4  11  21  34  51  76 107 139 174 215 263 315
#     4  10  19  32  51  76 105 137 173 215 260 308
#     4  10  19  34  53  75 103 137 176 216 259 312
#     4  10  20  33  50  74 108 145 178 212 256 311
#     4   9  19  34  51  73 103 135 174 215 256 309
#     4   9  19  34  53  76 103 134 175 218 258 307
#     4  10  20  35  54  77 104 137 177 219 261 309
#
# _framework density 16.493452000000001
#
# number of rings (size 3 to 8) (size 9 to 14) (size 15 to 20)
#    0.000    2.143    1.429    2.143    0.000    5.429 
#    0.000    1.429    0.000    0.857    0.000    6.000 
#    0.000    0.000    0.000    0.000    0.000    0.000 
#
# Total GULP energy -312552.246188 kJ/mol
# GULP energy per Si atom -5581.290111 kJ/mol
# Density = 1.645591 g / cm^3
# Si number density = 16.493452 Si / 1000 Ang^3
#
#
#
# Elastic Constant Matrix: (Units=GPa)
#
#
# Indices 1 2 3 4 5 6 
#
# 1 130.5735 37.5079 29.4348 0.0000 0.0000 0.0000
# 2 37.5079 40.6115 11.5917 0.0000 0.0000 0.0000
# 3 29.4348 11.5917 20.6207 0.0000 0.0000 0.0000
# 4 0.0000 0.0000 0.0000 19.9645 0.0000 0.0000
# 5 0.0000 0.0000 0.0000 0.0000 27.9157 0.0000
# 6 0.0000 0.0000 0.0000 0.0000 0.0000 25.3400
#
#
#
# Elastic Compliance Matrix: (Units=1/GPa)
#
#
# Indices 1 2 3 4 5 6 
#
# 1 0.013215 -0.008125 -0.014297 0.000000 0.000000 0.000000
# 2 -0.008125 0.034324 -0.007698 0.000000 0.000000 0.000000
# 3 -0.014297 -0.007698 0.073230 0.000000 0.000000 0.000000
# 4 0.000000 0.000000 0.000000 0.050089 0.000000 0.000000
# 5 0.000000 0.000000 0.000000 0.000000 0.035822 0.000000
# 6 0.000000 0.000000 0.000000 0.000000 0.000000 0.039463
#
#
# Mechanical properties :
#
#
# Convention : Reuss Voigt Hill
#
# Bulk Modulus (GPa) = 16.52031 38.76384 27.64207
# Shear Modulus (GPa) = 15.31115 22.19547 18.75331
#
# Velocity S-wave (km/s) = 3.05013 3.67238 3.37562
# Velocity P-wave (km/s) = 4.73735 6.44480 5.65588
#
# Compressibility (1/GPa) = 0.06053154
#
# Stress axis : x y z
#
# Youngs Moduli (GPa) = 75.67006 29.13376 13.65559
#
# Poissons Ratio (x) = 0.23670 0.19523
# Poissons Ratio (y) = 0.61479 0.10512
# Poissons Ratio (z) = 1.08185 0.22426
#
# Static dielectric constant tensor:
#      x y z
#    x 1.541820 0.000000 0.000000 
#    y 0.000000 1.533740 0.000000 
#    z 0.000000 0.000000 1.553130 
# 
# From -- ./inp_files/7799.got.cif
#   From: 2010.05.17/outbox.cif.g08.bks.cpg/sg55_4_cif.got.tgz:7799.got - 2010.06.03 13:27:54.
