data_PCOD9425355
_publ_section_title
;
Structure prediction by ZEFSAII (Michael W. Deem and Ramdas Pophale) SiO2 
 PCOD9425355
Probable space group: P B A M
;
_chemical_formula_sum "Si O2"
_cell_formula_units_Z 64
_cell_length_a 18.029343
_cell_length_b 23.414847
_cell_length_c 8.038555
_cell_angle_alpha 90.000000
_cell_angle_beta 90.000000
_cell_angle_gamma 90.000000
_cell_volume 3393.510622
_symmetry_space_group_name_H-M "P B A M"
_symmetry_group_IT_number 55
_symmetry_cell_setting 'orthorhombic'
loop_
_space_group_symop_operation_xyz
x,y,z
-x,-y,z
1/2+x,1/2-y,-z
1/2-x,1/2+y,-z
-x,-y,-z
x,y,-z
1/2-x,1/2+y,z
1/2+x,1/2-y,z
loop_
_atom_site_type_symbol
_atom_site_label
_atom_site_fract_x
_atom_site_fract_y
_atom_site_fract_z
Si Si1 0.086651 0.776502 0.798125
Si Si2 0.570934 0.966404 0.198510
Si Si3 0.705216 0.392056 0.302812
Si Si4 0.456839 0.446240 0.310130
Si Si5 0.270397 0.989147 0.696812
Si Si6 0.133802 0.651342 0.202553
Si Si7 0.947699 0.847730 0.804444
Si Si8 0.819035 0.116019 0.811154
O O1 0.106940 0.713380 0.740508
O O2 0.145580 0.825208 0.737945
O O3 0.001175 0.794101 0.762098
O O4 0.092881 0.777491 0.000000
O O5 0.648525 0.998670 0.229538
O O6 0.582677 0.901557 0.259965
O O7 0.500000 0.000000 0.267852
O O8 0.560975 0.962166 0.000000
O O9 0.691834 0.393399 0.500000
O O10 0.715748 0.458642 0.244148
O O11 0.783875 0.362980 0.264241
O O12 0.639719 0.354374 0.223174
O O13 0.500000 0.500000 0.243507
O O14 0.430575 0.457438 0.500000
O O15 0.516912 0.396622 0.308124
O O16 0.390179 0.425324 0.198534
O O17 0.275778 0.996891 0.500000
O O18 0.242564 0.924882 0.730888
O O19 0.134914 0.651282 0.000000
O O20 0.961655 0.859308 0.000000
O O21 0.796318 0.127683 0.000000
#
# Coordination Sequence:
#
# PCOD9425355 Si02
#       8
#     8   8   8   8   8   8   8   8
#     4   8  17  33  51  72  97 129 169 208 245 291
#     4   9  18  33  55  81 102 123 160 210 259 305
#     4  10  20  33  49  73 102 129 164 209 253 299
#     4  10  19  29  42  64  96 130 161 196 241 289
#     4  10  20  33  50  73 103 136 166 202 253 306
#     4   9  17  34  57  74  95 130 167 204 251 304
#     4  10  19  31  48  70  96 128 168 208 245 292
#     4  10  19  31  48  70  97 128 166 206 240 287
#
# _framework density 18.859525000000001
#
# number of rings (size 3 to 8) (size 9 to 14) (size 15 to 20)
#    0.000    2.500    0.000    3.375    0.000    5.750 
#    0.000    5.000    0.000    4.500    0.000    0.000 
#    0.000    0.000    0.000    0.000    0.000    0.000 
#
# Total GULP energy -356327.997072 kJ/mol
# GULP energy per Si atom -5567.624954 kJ/mol
# Density = 1.881660 g / cm^3
# Si number density = 18.859525 Si / 1000 Ang^3
#
#
#
# Elastic Constant Matrix: (Units=GPa)
#
#
# Indices 1 2 3 4 5 6 
#
# 1 83.9101 67.6392 -3.3058 0.0000 0.0000 0.0000
# 2 67.6392 128.5335 2.2645 0.0000 0.0000 0.0000
# 3 -3.3058 2.2645 16.8002 0.0000 0.0000 0.0000
# 4 0.0000 0.0000 0.0000 16.2154 0.0000 0.0000
# 5 0.0000 0.0000 0.0000 0.0000 115.9239 0.0000
# 6 0.0000 0.0000 0.0000 0.0000 0.0000 23.9892
#
#
#
# Elastic Compliance Matrix: (Units=1/GPa)
#
#
# Indices 1 2 3 4 5 6 
#
# 1 0.021227 -0.011271 0.005696 0.000000 0.000000 0.000000
# 2 -0.011271 0.013783 -0.004076 0.000000 0.000000 0.000000
# 3 0.005696 -0.004076 0.061193 0.000000 0.000000 0.000000
# 4 0.000000 0.000000 0.000000 0.061670 0.000000 0.000000
# 5 0.000000 0.000000 0.000000 0.000000 0.008626 0.000000
# 6 0.000000 0.000000 0.000000 0.000000 0.000000 0.041685
#
#
# Mechanical properties :
#
#
# Convention : Reuss Voigt Hill
#
# Bulk Modulus (GPa) = 13.00342 40.27107 26.63724
# Shear Modulus (GPa) = 19.75342 42.06875 30.91108
#
# Velocity S-wave (km/s) = 3.23986 4.72809 4.05287
# Velocity P-wave (km/s) = 4.57225 7.15583 6.00464
#
# Compressibility (1/GPa) = 0.07690287
#
# Stress axis : x y z
#
# Youngs Moduli (GPa) = 47.10892 72.55250 16.34165
#
# Poissons Ratio (x) = 0.81774 -0.09309
# Poissons Ratio (y) = 0.53097 0.06660
# Poissons Ratio (z) = -0.26834 0.29570
#
# Static dielectric constant tensor:
#      x y z
#    x 1.563610 0.000000 0.000000 
#    y 0.000000 1.673350 0.000000 
#    z 0.000000 0.000000 1.660800 
# 
# From -- ./inp_files/8215.got.cif
#   From: 2010.05.17/outbox.cif.g08.bks.cpg/sg55_5_cif.got.tgz:8215.got - 2010.06.03 13:27:54.
