data_PCOD9425804
_publ_section_title
;
Structure prediction by ZEFSAII (Michael W. Deem and Ramdas Pophale) SiO2 
 PCOD9425804
Probable space group: P B A M
;
_chemical_formula_sum "Si O2"
_cell_formula_units_Z 52
_cell_length_a 23.489627
_cell_length_b 4.992283
_cell_length_c 23.479538
_cell_angle_alpha 90.000000
_cell_angle_beta 90.000000
_cell_angle_gamma 90.000000
_cell_volume 2753.371826
_symmetry_space_group_name_H-M "P B A M"
_symmetry_group_IT_number 55
_symmetry_cell_setting 'orthorhombic'
loop_
_space_group_symop_operation_xyz
x,y,z
-x,-y,z
1/2+x,1/2-y,-z
1/2-x,1/2+y,-z
-x,-y,-z
x,y,-z
1/2-x,1/2+y,z
1/2+x,1/2-y,z
loop_
_atom_site_type_symbol
_atom_site_label
_atom_site_fract_x
_atom_site_fract_y
_atom_site_fract_z
Si Si1 0.288306 0.655577 0.000000
Si Si2 0.869252 0.895425 0.767981
Si Si3 0.787267 0.069917 0.665154
Si Si4 0.938697 0.381100 0.263065
Si Si5 0.130488 0.104813 0.565078
Si Si6 0.709306 0.457737 0.876342
Si Si7 0.561325 0.883428 0.399680
O O1 0.316298 0.586528 0.060344
O O2 0.267716 0.962395 0.000000
O O3 0.826710 0.995655 0.718501
O O4 0.921853 0.101893 0.765448
O O5 0.835793 0.908213 0.827046
O O6 0.891741 0.601352 0.753394
O O7 0.767458 0.375939 0.667307
O O8 0.821623 0.000138 0.608104
O O9 0.938705 0.342314 0.331474
O O10 0.000000 0.500000 0.247254
O O11 0.149825 0.112121 0.500000
O O12 0.107910 0.394173 0.584078
O O13 0.078547 0.894936 0.571848
O O14 0.761426 0.247096 0.871303
O O15 0.500000 0.000000 0.416492
#
# Coordination Sequence:
#
# PCOD9425804 Si02
#       7
#     4   8   8   8   8   8   8
#     4   8  16  30  50  76 119 154 187 224 264 314
#     4  12  21  37  59  85 111 143 184 228 272 326
#     4  12  24  39  57  78 107 142 178 221 264 314
#     4  11  22  38  60  83 110 142 178 227 285 333
#     4  12  25  41  59  82 108 141 182 220 273 339
#     4  10  19  33  53  86 119 155 187 224 269 320
#     4  11  22  41  62  83 109 136 173 229 287 335
#
# _framework density 18.885936000000001
#
# number of rings (size 3 to 8) (size 9 to 14) (size 15 to 20)
#    0.000    0.923    3.077    5.077    0.000    4.923 
#    0.000    0.000    0.000    0.000    0.000    3.231 
#    0.000    0.000    0.000    0.000    0.000    0.000 
#
# Total GULP energy -290838.634303 kJ/mol
# GULP energy per Si atom -5593.050660 kJ/mol
# Density = 1.884295 g / cm^3
# Si number density = 18.885936 Si / 1000 Ang^3
#
#
#
# Elastic Constant Matrix: (Units=GPa)
#
#
# Indices 1 2 3 4 5 6 
#
# 1 40.5547 -11.3368 28.1129 0.0000 0.0000 0.0000
# 2 -11.3368 60.9880 -17.4369 0.0000 0.0000 0.0000
# 3 28.1129 -17.4369 97.2990 0.0000 0.0000 0.0000
# 4 0.0000 0.0000 0.0000 9.8877 0.0000 0.0000
# 5 0.0000 0.0000 0.0000 0.0000 31.0541 0.0000
# 6 0.0000 0.0000 0.0000 0.0000 0.0000 35.9540
#
#
#
# Elastic Compliance Matrix: (Units=1/GPa)
#
#
# Indices 1 2 3 4 5 6 
#
# 1 0.031500 0.003429 -0.008487 0.000000 0.000000 0.000000
# 2 0.003429 0.017655 0.002173 0.000000 0.000000 0.000000
# 3 -0.008487 0.002173 0.013119 0.000000 0.000000 0.000000
# 4 0.000000 0.000000 0.000000 0.101136 0.000000 0.000000
# 5 0.000000 0.000000 0.000000 0.000000 0.032202 0.000000
# 6 0.000000 0.000000 0.000000 0.000000 0.000000 0.027813
#
#
# Mechanical properties :
#
#
# Convention : Reuss Voigt Hill
#
# Bulk Modulus (GPa) = 17.69753 21.94669 19.82211
# Shear Modulus (GPa) = 20.15888 28.67934 24.41911
#
# Velocity S-wave (km/s) = 3.27066 3.90109 3.59970
# Velocity P-wave (km/s) = 4.86354 5.65130 5.27216
#
# Compressibility (1/GPa) = 0.05650505
#
# Stress axis : x y z
#
# Youngs Moduli (GPa) = 31.74631 56.63989 76.22414
#
# Poissons Ratio (x) = -0.19421 0.64690
# Poissons Ratio (y) = -0.10886 -0.16566
# Poissons Ratio (z) = 0.26943 -0.12309
#
# Static dielectric constant tensor:
#      x y z
#    x 1.662060 0.000000 0.000000 
#    y 0.000000 1.654100 0.000000 
#    z 0.000000 0.000000 1.649630 
# 
# From -- ./inp_files/22353.got.cif
#   From: 2010.05.17/outbox.cif.g08.bks.cpg/sg55_12_cif.got.tgz:22353.got - 2010.06.03 13:27:54.
