data_PCOD9425778
_publ_section_title
;
Structure prediction by ZEFSAII (Michael W. Deem and Ramdas Pophale) SiO2 
 PCOD9425778
Probable space group: P B A M
;
_chemical_formula_sum "Si O2"
_cell_formula_units_Z 64
_cell_length_a 20.303398
_cell_length_b 21.122114
_cell_length_c 8.021074
_cell_angle_alpha 90.000000
_cell_angle_beta 90.000000
_cell_angle_gamma 90.000000
_cell_volume 3439.843097
_symmetry_space_group_name_H-M "P B A M"
_symmetry_group_IT_number 55
_symmetry_cell_setting 'orthorhombic'
loop_
_space_group_symop_operation_xyz
x,y,z
-x,-y,z
1/2+x,1/2-y,-z
1/2-x,1/2+y,-z
-x,-y,-z
x,y,-z
1/2-x,1/2+y,z
1/2+x,1/2-y,z
loop_
_atom_site_type_symbol
_atom_site_label
_atom_site_fract_x
_atom_site_fract_y
_atom_site_fract_z
Si Si1 0.429916 0.248577 0.304283
Si Si2 0.795494 0.313903 0.700703
Si Si3 0.930203 0.736168 0.803154
Si Si4 0.562596 0.607885 0.194531
Si Si5 0.206395 0.923949 0.202484
Si Si6 0.580997 0.382493 0.203968
Si Si7 0.719683 0.437170 0.799458
Si Si8 0.207904 0.303353 0.698194
O O1 0.420259 0.263098 0.500000
O O2 0.368830 0.206194 0.245898
O O3 0.501149 0.217085 0.280343
O O4 0.431571 0.315834 0.210134
O O5 0.794611 0.311811 0.500000
O O6 0.770431 0.382569 0.751949
O O7 0.745503 0.259427 0.763666
O O8 0.915021 0.808515 0.746980
O O9 0.865931 0.695214 0.767095
O O10 0.941802 0.738154 0.000000
O O11 0.630659 0.580907 0.264368
O O12 0.490018 0.591797 0.263299
O O13 0.561224 0.589520 0.000000
O O14 0.248648 0.864397 0.260445
O O15 0.235061 0.991644 0.255984
O O16 0.204770 0.921457 0.000000
O O17 0.646521 0.417636 0.261132
O O18 0.580061 0.384502 0.000000
O O19 0.716355 0.438245 0.000000
O O20 0.203257 0.297520 0.500000
#
# Coordination Sequence:
#
# PCOD9425778 Si02
#       8
#     8   8   8   8   8   8   8   8
#     4  10  19  33  52  78 108 138 175 219 264 316
#     4  10  21  35  53  78 106 140 180 219 263 314
#     4  10  19  33  54  82 108 135 173 220 271 317
#     4   9  17  30  48  73 106 143 181 217 258 307
#     4  10  21  34  51  77 108 144 183 224 268 315
#     4   8  15  28  47  73 103 137 173 211 254 304
#     4  10  20  34  52  76 107 143 182 223 269 315
#     4  11  21  35  55  79 106 142 181 220 267 316
#
# _framework density 18.605499999999999
#
# number of rings (size 3 to 8) (size 9 to 14) (size 15 to 20)
#    0.000    2.250    2.500    1.875    0.000    2.500 
#    0.000    2.500    0.000    0.750    0.000    8.750 
#    0.000    0.000    0.000    0.000    0.000    0.000 
#
# Total GULP energy -357026.645460 kJ/mol
# GULP energy per Si atom -5578.541335 kJ/mol
# Density = 1.856315 g / cm^3
# Si number density = 18.605500 Si / 1000 Ang^3
#
#
#
# Elastic Constant Matrix: (Units=GPa)
#
#
# Indices 1 2 3 4 5 6 
#
# 1 75.3448 3.7294 -3.0199 0.0000 0.0000 0.0000
# 2 3.7294 39.1629 -7.1086 0.0000 0.0000 0.0000
# 3 -3.0199 -7.1086 16.6709 0.0000 0.0000 0.0000
# 4 0.0000 0.0000 0.0000 8.6004 0.0000 0.0000
# 5 0.0000 0.0000 0.0000 0.0000 16.7644 0.0000
# 6 0.0000 0.0000 0.0000 0.0000 0.0000 20.3355
#
#
#
# Elastic Compliance Matrix: (Units=1/GPa)
#
#
# Indices 1 2 3 4 5 6 
#
# 1 0.013399 -0.000905 0.002041 0.000000 0.000000 0.000000
# 2 -0.000905 0.027738 0.011664 0.000000 0.000000 0.000000
# 3 0.002041 0.011664 0.065328 0.000000 0.000000 0.000000
# 4 0.000000 0.000000 0.000000 0.116274 0.000000 0.000000
# 5 0.000000 0.000000 0.000000 0.000000 0.059650 0.000000
# 6 0.000000 0.000000 0.000000 0.000000 0.000000 0.049175
#
#
# Mechanical properties :
#
#
# Convention : Reuss Voigt Hill
#
# Bulk Modulus (GPa) = 7.57214 13.15338 10.36276
# Shear Modulus (GPa) = 14.28625 18.31189 16.29907
#
# Velocity S-wave (km/s) = 2.77402 3.14063 2.96300
# Velocity P-wave (km/s) = 3.78668 4.49849 4.15784
#
# Compressibility (1/GPa) = 0.13206306
#
# Stress axis : x y z
#
# Youngs Moduli (GPa) = 74.63275 36.05199 15.30736
#
# Poissons Ratio (x) = 0.03264 -0.03124
# Poissons Ratio (y) = 0.06758 -0.17854
# Poissons Ratio (z) = -0.15233 -0.42049
#
# Static dielectric constant tensor:
#      x y z
#    x 1.661500 0.000000 0.000000 
#    y 0.000000 1.625670 0.000000 
#    z 0.000000 0.000000 1.680230 
# 
# From -- ./inp_files/7968.got.cif
#   From: 2010.05.17/outbox.cif.g08.bks.cpg/sg55_4_cif.got.tgz:7968.got - 2010.06.03 13:27:54.
