data_PCOD9425072
_publ_section_title
;
Structure prediction by ZEFSAII (Michael W. Deem and Ramdas Pophale) SiO2 
 PCOD9425072
Probable space group: P B A M
;
_chemical_formula_sum "Si O2"
_cell_formula_units_Z 40
_cell_length_a 26.438434
_cell_length_b 9.947068
_cell_length_c 7.803289
_cell_angle_alpha 90.000000
_cell_angle_beta 90.000000
_cell_angle_gamma 90.000000
_cell_volume 2052.147184
_symmetry_space_group_name_H-M "P B A M"
_symmetry_group_IT_number 55
_symmetry_cell_setting 'orthorhombic'
loop_
_space_group_symop_operation_xyz
x,y,z
-x,-y,z
1/2+x,1/2-y,-z
1/2-x,1/2+y,-z
-x,-y,-z
x,y,-z
1/2-x,1/2+y,z
1/2+x,1/2-y,z
loop_
_atom_site_type_symbol
_atom_site_label
_atom_site_fract_x
_atom_site_fract_y
_atom_site_fract_z
Si Si1 0.135532 0.164796 0.801001
Si Si2 0.134538 0.750451 0.710139
Si Si3 0.165196 0.457896 0.707455
Si Si4 0.280807 0.460886 0.293488
Si Si5 0.553460 0.542518 0.698452
O O1 0.137987 0.321835 0.762407
O O2 0.189140 0.095899 0.754845
O O3 0.092296 0.082231 0.703323
O O4 0.125927 0.142231 0.000000
O O5 0.134137 0.753358 0.500000
O O6 0.139495 0.596724 0.764368
O O7 0.183830 0.836859 0.763365
O O8 0.085345 0.832202 0.771601
O O9 0.166257 0.459211 0.500000
O O10 0.223483 0.455770 0.769156
O O11 0.278986 0.456255 0.500000
O O12 0.500000 0.500000 0.777762
O O13 0.543234 0.578238 0.500000
#
# Coordination Sequence:
#
# PCOD9425072 Si02
#       5
#     8   8   8   8   8
#     4  11  22  33  48  75 109 138 165 201 251 311
#     4   8  15  28  49  76  97 119 163 214 253 290
#     4  10  18  31  52  75 102 134 168 207 245 289
#     4   9  17  32  53  74  98 134 176 209 242 290
#     4   9  18  36  59  76  93 125 173 223 263 303
#
# _framework density 19.491779999999999
#
# number of rings (size 3 to 8) (size 9 to 14) (size 15 to 20)
#    0.000    2.600    0.000    4.200    0.000    4.400 
#    0.000    5.000    0.000    6.000    0.000    0.000 
#    0.000    0.000    0.000    0.000    0.000    0.000 
#
# Total GULP energy -223158.262796 kJ/mol
# GULP energy per Si atom -5578.956570 kJ/mol
# Density = 1.944742 g / cm^3
# Si number density = 19.491780 Si / 1000 Ang^3
#
#
#
# Elastic Constant Matrix: (Units=GPa)
#
#
# Indices 1 2 3 4 5 6 
#
# 1 67.3099 18.2567 -8.5254 0.0000 0.0000 0.0000
# 2 18.2567 131.9352 -13.2260 0.0000 0.0000 0.0000
# 3 -8.5254 -13.2260 24.9168 0.0000 0.0000 0.0000
# 4 0.0000 0.0000 0.0000 -19.0926 0.0000 0.0000
# 5 0.0000 0.0000 0.0000 0.0000 20.8728 0.0000
# 6 0.0000 0.0000 0.0000 0.0000 0.0000 5.3343
#
#
#
# Elastic Compliance Matrix: (Units=1/GPa)
#
#
# Indices 1 2 3 4 5 6 
#
# 1 0.015902 -0.001748 0.004513 0.000000 0.000000 0.000000
# 2 -0.001748 0.008198 0.003753 0.000000 0.000000 0.000000
# 3 0.004513 0.003753 0.043670 0.000000 0.000000 0.000000
# 4 0.000000 0.000000 0.000000 -0.052376 0.000000 0.000000
# 5 0.000000 0.000000 0.000000 0.000000 0.047909 0.000000
# 6 0.000000 0.000000 0.000000 0.000000 0.000000 0.187466
#
#
# Mechanical properties :
#
#
# Convention : Reuss Voigt Hill
#
# Bulk Modulus (GPa) = 12.37521 24.13030 18.25276
# Shear Modulus (GPa) = 18.89160 16.60001 17.74580
#
# Velocity S-wave (km/s) = 3.11659 2.92146 3.02060
# Velocity P-wave (km/s) = 4.39472 4.87714 4.64220
#
# Compressibility (1/GPa) = 0.08080672
#
# Stress axis : x y z
#
# Youngs Moduli (GPa) = 62.88347 121.98666 22.89898
#
# Poissons Ratio (x) = 0.21324 -0.10335
# Poissons Ratio (y) = 0.10993 -0.08595
# Poissons Ratio (z) = -0.28380 -0.45784
#
# Static dielectric constant tensor:
#      x y z
#    x 1.682520 0.000000 0.000000 
#    y 0.000000 1.669870 0.000000 
#    z 0.000000 0.000000 1.712650 
# 
# From -- ./inp_files/2302.got.cif
#   From: 2010.05.17/outbox.cif.g08.bks.cpg/sg55_2_cif.got.tgz:2302.got - 2010.06.03 13:27:54.
