data_PCOD9425876
_publ_section_title
;
Structure prediction by ZEFSAII (Michael W. Deem and Ramdas Pophale) SiO2 
 PCOD9425876
Probable space group: P B A M
;
_chemical_formula_sum "Si O2"
_cell_formula_units_Z 64
_cell_length_a 19.670964
_cell_length_b 20.821451
_cell_length_c 9.089760
_cell_angle_alpha 90.000000
_cell_angle_beta 90.000000
_cell_angle_gamma 90.000000
_cell_volume 3722.965840
_symmetry_space_group_name_H-M "P B A M"
_symmetry_group_IT_number 55
_symmetry_cell_setting 'orthorhombic'
loop_
_space_group_symop_operation_xyz
x,y,z
-x,-y,z
1/2+x,1/2-y,-z
1/2-x,1/2+y,-z
-x,-y,-z
x,y,-z
1/2-x,1/2+y,z
1/2+x,1/2-y,z
loop_
_atom_site_type_symbol
_atom_site_label
_atom_site_fract_x
_atom_site_fract_y
_atom_site_fract_z
Si Si1 0.321676 0.512495 0.175049
Si Si2 0.818657 0.140027 0.175064
Si Si3 0.458394 0.814098 0.176588
Si Si4 0.466938 0.318849 0.177050
Si Si5 0.954714 0.936289 0.325613
Si Si6 0.547326 0.937997 0.175078
Si Si7 0.676723 0.140470 0.324849
Si Si8 0.179340 0.511533 0.675262
O O1 0.331690 0.435958 0.203019
O O2 0.382789 0.551033 0.248540
O O3 0.249479 0.529846 0.245955
O O4 0.320836 0.521999 0.000000
O O5 0.887151 0.177454 0.217461
O O6 0.750122 0.158797 0.259230
O O7 0.807440 0.147384 0.000000
O O8 0.497411 0.748467 0.212475
O O9 0.505569 0.874690 0.217553
O O10 0.385737 0.821637 0.253654
O O11 0.448423 0.816684 0.000000
O O12 0.506613 0.376272 0.255378
O O13 0.470129 0.328243 0.000000
O O14 0.946060 0.927455 0.500000
O O15 0.000000 0.000000 0.301783
O O16 0.616556 0.948323 0.262814
O O17 0.500000 0.000000 0.200796
O O18 0.561807 0.934955 0.000000
O O19 0.676829 0.147942 0.500000
O O20 0.667039 0.064286 0.290873
O O21 0.185608 0.517761 0.500000
#
# Coordination Sequence:
#
# PCOD9425876 Si02
#       8
#     8   8   8   8   8   8   8   8
#     4  10  19  33  56  82 109 143 185 231 275 325
#     4   9  18  33  55  80 106 139 183 230 274 324
#     4  10  21  37  57  81 111 146 187 231 275 327
#     4  10  21  38  58  82 110 145 187 229 273 327
#     4  11  22  35  55  83 114 144 177 222 275 329
#     4  10  19  33  55  81 108 142 185 229 275 328
#     4  10  20  33  53  80 110 143 183 227 276 334
#     4  10  20  33  52  81 114 145 182 230 282 333
#
# _framework density 17.190595999999999
#
# number of rings (size 3 to 8) (size 9 to 14) (size 15 to 20)
#    0.000    2.000    2.500    1.500    0.000    3.750 
#    0.000    1.250    0.000    6.000    0.000    0.000 
#    0.000    0.000    0.000    0.000    0.000    0.000 
#
# Total GULP energy -357291.245137 kJ/mol
# GULP energy per Si atom -5582.675705 kJ/mol
# Density = 1.715147 g / cm^3
# Si number density = 17.190596 Si / 1000 Ang^3
#
#
#
# Elastic Constant Matrix: (Units=GPa)
#
#
# Indices 1 2 3 4 5 6 
#
# 1 186.5165 76.8889 77.0704 0.0000 0.0000 0.0000
# 2 76.8889 97.1908 53.8999 0.0000 0.0000 0.0000
# 3 77.0704 53.8999 50.0277 0.0000 0.0000 0.0000
# 4 0.0000 0.0000 0.0000 16.5039 0.0000 0.0000
# 5 0.0000 0.0000 0.0000 0.0000 9.1814 0.0000
# 6 0.0000 0.0000 0.0000 0.0000 0.0000 26.6228
#
#
#
# Elastic Compliance Matrix: (Units=1/GPa)
#
#
# Indices 1 2 3 4 5 6 
#
# 1 0.014966 0.002352 -0.025589 0.000000 0.000000 0.000000
# 2 0.002352 0.025933 -0.031563 0.000000 0.000000 0.000000
# 3 -0.025589 -0.031563 0.093416 0.000000 0.000000 0.000000
# 4 0.000000 0.000000 0.000000 0.060592 0.000000 0.000000
# 5 0.000000 0.000000 0.000000 0.000000 0.108916 0.000000
# 6 0.000000 0.000000 0.000000 0.000000 0.000000 0.037562
#
#
# Mechanical properties :
#
#
# Convention : Reuss Voigt Hill
#
# Bulk Modulus (GPa) = 40.46281 83.27258 61.86769
# Shear Modulus (GPa) = 10.88798 18.85334 14.87066
#
# Velocity S-wave (km/s) = 2.51941 3.31527 2.94436
# Velocity P-wave (km/s) = 5.66146 7.94988 6.90119
#
# Compressibility (1/GPa) = 0.02471406
#
# Stress axis : x y z
#
# Youngs Moduli (GPa) = 66.81951 38.56154 10.70482
#
# Poissons Ratio (x) = -0.09068 0.27393
# Poissons Ratio (y) = -0.15713 0.33787
# Poissons Ratio (z) = 1.70985 1.21710
#
# Static dielectric constant tensor:
#      x y z
#    x 1.561980 0.000000 0.000000 
#    y 0.000000 1.565040 0.000000 
#    z 0.000000 0.000000 1.567990 
# 
# From -- ./inp_files/9022.got.cif
#   From: 2010.05.17/outbox.cif.g08.bks.cpg/sg55_5_cif.got.tgz:9022.got - 2010.06.03 13:27:54.
