data_PCOD9425264
_publ_section_title
;
Structure prediction by ZEFSAII (Michael W. Deem and Ramdas Pophale) SiO2 
 PCOD9425264
Probable space group: P B A M
;
_chemical_formula_sum "Si O2"
_cell_formula_units_Z 58
_cell_length_a 25.306342
_cell_length_b 9.583794
_cell_length_c 12.299338
_cell_angle_alpha 90.000000
_cell_angle_beta 90.000000
_cell_angle_gamma 90.000000
_cell_volume 2982.967899
_symmetry_space_group_name_H-M "P B A M"
_symmetry_group_IT_number 55
_symmetry_cell_setting 'orthorhombic'
loop_
_space_group_symop_operation_xyz
x,y,z
-x,-y,z
1/2+x,1/2-y,-z
1/2-x,1/2+y,-z
-x,-y,-z
x,y,-z
1/2-x,1/2+y,z
1/2+x,1/2-y,z
loop_
_atom_site_type_symbol
_atom_site_label
_atom_site_fract_x
_atom_site_fract_y
_atom_site_fract_z
Si Si1 0.223190 0.884488 0.240227
Si Si2 0.611414 0.272833 0.251662
Si Si3 0.561568 0.031989 0.876847
Si Si4 0.781649 0.843650 0.875502
Si Si5 0.615169 0.557778 0.630524
Si Si6 0.415707 0.140192 0.668703
Si Si7 0.174669 0.448367 0.620483
Si Si8 0.000000 0.500000 0.500000
O O1 0.236099 0.731718 0.194932
O O2 0.172564 0.907548 0.316602
O O3 0.275337 0.934273 0.303322
O O4 0.219191 0.990848 0.140013
O O5 0.571093 0.182177 0.180087
O O6 0.662355 0.297675 0.175336
O O7 0.595502 0.417782 0.307991
O O8 0.632276 0.169745 0.345998
O O9 0.500000 0.000000 0.883998
O O10 0.583474 0.917306 0.792217
O O11 0.583905 0.028474 0.000000
O O12 0.777361 0.802965 0.000000
O O13 0.618350 0.537373 0.500000
O O14 0.580190 0.693978 0.656207
O O15 0.460276 0.065513 0.595620
O O16 0.358188 0.090795 0.626362
O O17 0.193851 0.422860 0.500000
#
# Coordination Sequence:
#
# PCOD9425264 Si02
#       8
#     8   8   8   8   8   8   8   2
#     4  10  21  33  53  82 114 156 203 245 292 358
#     4   9  21  35  56  84 116 152 197 240 307 368
#     4  10  21  41  67  88 112 153 204 255 300 363
#     4  10  19  34  51  75 114 158 198 245 295 350
#     4  11  21  38  57  89 128 161 196 253 315 374
#     4  11  22  37  64  92 121 158 206 249 307 363
#     4  10  18  34  55  82 113 156 198 241 288 352
#     4  12  20  40  62  94 124 160 202 262 304 362
#
# _framework density 19.443722000000001
#
# number of rings (size 3 to 8) (size 9 to 14) (size 15 to 20)
#    0.000    1.793    2.069    2.483    0.000    0.000 
#    0.000   13.793    0.000    5.793    0.000    0.000 
#    0.000    0.000    0.000    0.000    0.000    0.000 
#
# Total GULP energy -322937.422241 kJ/mol
# GULP energy per Si atom -5567.886590 kJ/mol
# Density = 1.939947 g / cm^3
# Si number density = 19.443722 Si / 1000 Ang^3
#
#
#
# Elastic Constant Matrix: (Units=GPa)
#
#
# Indices 1 2 3 4 5 6 
#
# 1 43.7492 27.7107 17.4857 0.0000 0.0000 0.0000
# 2 27.7107 115.4274 53.8654 0.0000 0.0000 0.0000
# 3 17.4857 53.8654 146.8752 0.0000 0.0000 0.0000
# 4 0.0000 0.0000 0.0000 16.1945 0.0000 0.0000
# 5 0.0000 0.0000 0.0000 0.0000 13.4341 0.0000
# 6 0.0000 0.0000 0.0000 0.0000 0.0000 16.2583
#
#
#
# Elastic Compliance Matrix: (Units=1/GPa)
#
#
# Indices 1 2 3 4 5 6 
#
# 1 0.027081 -0.006029 -0.001013 0.000000 0.000000 0.000000
# 2 -0.006029 0.011794 -0.003608 0.000000 0.000000 0.000000
# 3 -0.001013 -0.003608 0.008252 0.000000 0.000000 0.000000
# 4 0.000000 0.000000 0.000000 0.061749 0.000000 0.000000
# 5 0.000000 0.000000 0.000000 0.000000 0.074438 0.000000
# 6 0.000000 0.000000 0.000000 0.000000 0.000000 0.061507
#
#
# Mechanical properties :
#
#
# Convention : Reuss Voigt Hill
#
# Bulk Modulus (GPa) = 38.71669 56.01951 47.36810
# Shear Modulus (GPa) = 18.19969 22.97671 20.58820
#
# Velocity S-wave (km/s) = 3.06276 3.44132 3.25754
# Velocity P-wave (km/s) = 5.69761 6.68311 6.20994
#
# Compressibility (1/GPa) = 0.02582866
#
# Stress axis : x y z
#
# Youngs Moduli (GPa) = 36.92631 84.78641 121.17921
#
# Poissons Ratio (x) = 0.51114 0.12277
# Poissons Ratio (y) = 0.22261 0.43719
# Poissons Ratio (z) = 0.03741 0.30589
#
# Static dielectric constant tensor:
#      x y z
#    x 1.668760 0.000000 0.000000 
#    y 0.000000 1.711100 0.000000 
#    z 0.000000 0.000000 1.683360 
# 
# From -- ./inp_files/16007.got.cif
#   From: 2010.05.17/outbox.cif.g08.bks.cpg/sg55_9_cif.got.tgz:16007.got - 2010.06.03 13:27:54.
