data_PCOD9425350
_publ_section_title
;
Structure prediction by ZEFSAII (Michael W. Deem and Ramdas Pophale) SiO2 
 PCOD9425350
Probable space group: P B A M
;
_chemical_formula_sum "Si O2"
_cell_formula_units_Z 60
_cell_length_a 5.230326
_cell_length_b 26.695180
_cell_length_c 25.277667
_cell_angle_alpha 90.000000
_cell_angle_beta 90.000000
_cell_angle_gamma 90.000000
_cell_volume 3529.381465
_symmetry_space_group_name_H-M "P B A M"
_symmetry_group_IT_number 55
_symmetry_cell_setting 'orthorhombic'
loop_
_space_group_symop_operation_xyz
x,y,z
-x,-y,z
1/2+x,1/2-y,-z
1/2-x,1/2+y,-z
-x,-y,-z
x,y,-z
1/2-x,1/2+y,z
1/2+x,1/2-y,z
loop_
_atom_site_type_symbol
_atom_site_label
_atom_site_fract_x
_atom_site_fract_y
_atom_site_fract_z
Si Si1 0.903709 0.228051 0.061355
Si Si2 0.559686 0.384842 0.080317
Si Si3 0.484459 0.715422 0.271462
Si Si4 0.939445 0.556379 0.791936
Si Si5 0.550100 0.716990 0.611069
Si Si6 0.561036 0.384711 0.792049
Si Si7 0.434407 0.715959 0.500000
Si Si8 0.940598 0.556479 0.920742
O O1 0.626936 0.238050 0.086318
O O2 0.993495 0.171038 0.062635
O O3 0.867546 0.243452 0.000000
O O4 0.560406 0.383212 0.144188
O O5 0.333969 0.422281 0.063214
O O6 0.833036 0.406005 0.062952
O O7 0.725751 0.752439 0.265602
O O8 0.501298 0.693645 0.331532
O O9 0.488406 0.670001 0.230814
O O10 0.665605 0.577710 0.775615
O O11 0.940133 0.555526 0.856379
O O12 0.000000 0.500000 0.774481
O O13 0.165698 0.593480 0.775088
O O14 0.840178 0.737641 0.609902
O O15 0.488552 0.689119 0.555968
O O16 0.649538 0.760642 0.500000
O O17 0.000000 0.500000 0.938071
#
# Coordination Sequence:
#
# PCOD9425350 Si02
#       8
#     8   8   8   8   8   8   4   8
#     4  10  21  36  52  68  87 114 147 181 213 239
#     4  10  19  31  49  69  88 112 143 175 207 248
#     4  10  19  29  39  56  87 121 144 166 202 248
#     4   9  17  30  46  64  85 109 141 179 213 246
#     4   8  14  23  35  50  71 103 139 170 201 235
#     4  10  19  29  44  66  87 113 143 170 208 252
#     4   8  12  20  34  50  66  92 137 178 199 228
#     4   9  17  30  49  71  92 112 135 167 210 258
#
# _framework density 17.000145
#
# number of rings (size 3 to 8) (size 9 to 14) (size 15 to 20)
#    0.000    2.667    0.000    2.400    0.000    4.267 
#    0.000    0.000    0.000    2.400    0.000    0.000 
#    0.000    0.000    0.000    3.600    0.000    1.333 
#
# Total GULP energy -334379.148588 kJ/mol
# GULP energy per Si atom -5572.985810 kJ/mol
# Density = 1.696145 g / cm^3
# Si number density = 17.000145 Si / 1000 Ang^3
#
#
#
# Elastic Constant Matrix: (Units=GPa)
#
#
# Indices 1 2 3 4 5 6 
#
# 1 62.0811 -15.7123 4.9102 0.0000 0.0000 0.0000
# 2 -15.7123 32.3310 9.2489 0.0000 0.0000 0.0000
# 3 4.9102 9.2489 48.3641 0.0000 0.0000 0.0000
# 4 0.0000 0.0000 0.0000 5.0201 0.0000 0.0000
# 5 0.0000 0.0000 0.0000 0.0000 21.9593 0.0000
# 6 0.0000 0.0000 0.0000 0.0000 0.0000 26.3132
#
#
#
# Elastic Compliance Matrix: (Units=1/GPa)
#
#
# Indices 1 2 3 4 5 6 
#
# 1 0.019044 0.010376 -0.003918 0.000000 0.000000 0.000000
# 2 0.010376 0.038373 -0.008392 0.000000 0.000000 0.000000
# 3 -0.003918 -0.008392 0.022679 0.000000 0.000000 0.000000
# 4 0.000000 0.000000 0.000000 0.199198 0.000000 0.000000
# 5 0.000000 0.000000 0.000000 0.000000 0.045539 0.000000
# 6 0.000000 0.000000 0.000000 0.000000 0.000000 0.038004
#
#
# Mechanical properties :
#
#
# Convention : Reuss Voigt Hill
#
# Bulk Modulus (GPa) = 13.11842 15.51886 14.31864
# Shear Modulus (GPa) = 12.75143 20.28048 16.51595
#
# Velocity S-wave (km/s) = 2.74173 3.45767 3.12030
# Velocity P-wave (km/s) = 4.21380 5.00891 4.62846
#
# Compressibility (1/GPa) = 0.07622868
#
# Stress axis : x y z
#
# Youngs Moduli (GPa) = 52.51042 26.05996 44.09364
#
# Poissons Ratio (x) = -0.27039 0.17274
# Poissons Ratio (y) = -0.54483 0.37002
# Poissons Ratio (z) = 0.20572 0.21869
#
# Static dielectric constant tensor:
#      x y z
#    x 1.611390 0.000000 0.000000 
#    y 0.000000 1.535600 0.000000 
#    z 0.000000 0.000000 1.625630 
# 
# From -- ./inp_files/23348.got.cif
#   From: 2010.05.17/outbox.cif.g08.bks.cpg/sg55_12_cif.got.tgz:23348.got - 2010.06.03 13:27:54.
