data_PCOD9425754
_publ_section_title
;
Structure prediction by ZEFSAII (Michael W. Deem and Ramdas Pophale) SiO2 
 PCOD9425754
Probable space group: P B A M
;
_chemical_formula_sum "Si O2"
_cell_formula_units_Z 64
_cell_length_a 8.569829
_cell_length_b 21.606142
_cell_length_c 18.536498
_cell_angle_alpha 90.000000
_cell_angle_beta 90.000000
_cell_angle_gamma 90.000000
_cell_volume 3432.235436
_symmetry_space_group_name_H-M "P B A M"
_symmetry_group_IT_number 55
_symmetry_cell_setting 'orthorhombic'
loop_
_space_group_symop_operation_xyz
x,y,z
-x,-y,z
1/2+x,1/2-y,-z
1/2-x,1/2+y,-z
-x,-y,-z
x,y,-z
1/2-x,1/2+y,z
1/2+x,1/2-y,z
loop_
_atom_site_type_symbol
_atom_site_label
_atom_site_fract_x
_atom_site_fract_y
_atom_site_fract_z
Si Si1 0.403125 0.279472 0.149900
Si Si2 0.837222 0.411509 0.793131
Si Si3 0.322675 0.024703 0.416076
Si Si4 0.679189 0.142847 0.228095
Si Si5 0.326931 0.476958 0.277670
Si Si6 0.483951 0.753627 0.312235
Si Si7 0.781447 0.834144 0.085156
Si Si8 0.248533 0.657901 0.349415
O O1 0.252886 0.323510 0.159184
O O2 0.454156 0.265674 0.232625
O O3 0.342882 0.217582 0.111637
O O4 0.547892 0.310471 0.109652
O O5 0.794218 0.479613 0.766069
O O6 0.764338 0.394946 0.869779
O O7 0.758250 0.366668 0.733215
O O8 0.018400 0.392844 0.788807
O O9 0.289468 0.015029 0.500000
O O10 0.292790 0.097116 0.395867
O O11 0.500000 0.000000 0.402465
O O12 0.213501 0.987338 0.361376
O O13 0.802098 0.093254 0.256198
O O14 0.642225 0.193988 0.289091
O O15 0.500000 0.500000 0.262187
O O16 0.409131 0.695851 0.353924
O O17 0.614113 0.790711 0.355970
O O18 0.775100 0.842134 0.000000
#
# Coordination Sequence:
#
# PCOD9425754 Si02
#       8
#     8   8   8   8   8   8   8   8
#     4  12  19  35  52  85 117 154 197 246 302 349
#     4  10  19  38  55  83 114 151 204 247 289 354
#     4  10  22  42  61  83 122 162 201 243 295 360
#     4  11  20  34  61  84 116 151 193 255 302 343
#     4  11  23  36  63  95 114 148 202 250 299 351
#     4  11  17  31  56  85 114 142 191 249 286 350
#     4  12  22  34  54  82 122 161 197 245 307 361
#     4  10  19  32  59  83 113 154 190 244 299 345
#
# _framework density 18.646740000000001
#
# number of rings (size 3 to 8) (size 9 to 14) (size 15 to 20)
#    0.000    1.125    6.250    3.750    1.750    0.250 
#    0.000    1.250    0.000    6.375    0.000    0.000 
#    0.000    0.000    0.000    0.000    0.000    0.000 
#
# Total GULP energy -357192.594790 kJ/mol
# GULP energy per Si atom -5581.134294 kJ/mol
# Density = 1.860430 g / cm^3
# Si number density = 18.646740 Si / 1000 Ang^3
#
#
#
# Elastic Constant Matrix: (Units=GPa)
#
#
# Indices 1 2 3 4 5 6 
#
# 1 31.1419 5.3974 6.2064 0.0000 0.0000 0.0000
# 2 5.3974 59.1928 19.2175 0.0000 0.0000 0.0000
# 3 6.2064 19.2175 71.7312 0.0000 0.0000 0.0000
# 4 0.0000 0.0000 0.0000 12.5730 0.0000 0.0000
# 5 0.0000 0.0000 0.0000 0.0000 15.3166 0.0000
# 6 0.0000 0.0000 0.0000 0.0000 0.0000 32.8382
#
#
#
# Elastic Compliance Matrix: (Units=1/GPa)
#
#
# Indices 1 2 3 4 5 6 
#
# 1 0.032952 -0.002277 -0.002241 0.000000 0.000000 0.000000
# 2 -0.002277 0.018661 -0.004802 0.000000 0.000000 0.000000
# 3 -0.002241 -0.004802 0.015421 0.000000 0.000000 0.000000
# 4 0.000000 0.000000 0.000000 0.079536 0.000000 0.000000
# 5 0.000000 0.000000 0.000000 0.000000 0.065289 0.000000
# 6 0.000000 0.000000 0.000000 0.000000 0.000000 0.030452
#
#
# Mechanical properties :
#
#
# Convention : Reuss Voigt Hill
#
# Bulk Modulus (GPa) = 20.66399 24.85651 22.76025
# Shear Modulus (GPa) = 18.04509 20.89518 19.47013
#
# Velocity S-wave (km/s) = 3.11422 3.35114 3.23485
# Velocity P-wave (km/s) = 4.90276 5.32284 5.11711
#
# Compressibility (1/GPa) = 0.04839336
#
# Stress axis : x y z
#
# Youngs Moduli (GPa) = 30.34683 53.58857 64.84481
#
# Poissons Ratio (x) = 0.12203 0.14532
# Poissons Ratio (y) = 0.06910 0.31141
# Poissons Ratio (z) = 0.06801 0.25735
#
# Static dielectric constant tensor:
#      x y z
#    x 1.707130 0.000000 0.000000 
#    y 0.000000 1.674220 0.000000 
#    z 0.000000 0.000000 1.607920 
# 
# From -- ./inp_files/21086.got.cif
#   From: 2010.05.17/outbox.cif.g08.bks.cpg/sg55_11_cif.got.tgz:21086.got - 2010.06.03 13:27:54.
