data_PCOD9425449
_publ_section_title
;
Structure prediction by ZEFSAII (Michael W. Deem and Ramdas Pophale) SiO2 
 PCOD9425449
Probable space group: P B A M
;
_chemical_formula_sum "Si O2"
_cell_formula_units_Z 64
_cell_length_a 23.905891
_cell_length_b 19.736741
_cell_length_c 7.745817
_cell_angle_alpha 90.000000
_cell_angle_beta 90.000000
_cell_angle_gamma 90.000000
_cell_volume 3654.665296
_symmetry_space_group_name_H-M "P B A M"
_symmetry_group_IT_number 55
_symmetry_cell_setting 'orthorhombic'
loop_
_space_group_symop_operation_xyz
x,y,z
-x,-y,z
1/2+x,1/2-y,-z
1/2-x,1/2+y,-z
-x,-y,-z
x,y,-z
1/2-x,1/2+y,z
1/2+x,1/2-y,z
loop_
_atom_site_type_symbol
_atom_site_label
_atom_site_fract_x
_atom_site_fract_y
_atom_site_fract_z
Si Si1 0.233229 0.660209 0.208652
Si Si2 0.323748 0.294158 0.296305
Si Si3 0.120714 0.999277 0.798966
Si Si4 0.346682 0.736404 0.209364
Si Si5 0.289493 0.868525 0.798817
Si Si6 0.434564 0.363134 0.300175
Si Si7 0.250474 0.509598 0.211998
Si Si8 0.059185 0.135731 0.703666
O O1 0.188353 0.714800 0.271712
O O2 0.294261 0.688836 0.261866
O O3 0.227672 0.582777 0.266145
O O4 0.232144 0.661319 0.000000
O O5 0.321263 0.310264 0.500000
O O6 0.271991 0.334170 0.211726
O O7 0.383127 0.319647 0.225804
O O8 0.085287 0.941005 0.707618
O O9 0.184549 0.002999 0.734480
O O10 0.091763 0.072119 0.783816
O O11 0.122950 0.980022 0.000000
O O12 0.331591 0.811883 0.273601
O O13 0.403480 0.702314 0.270270
O O14 0.347053 0.737313 0.000000
O O15 0.283247 0.943851 0.725585
O O16 0.304068 0.876259 0.000000
O O17 0.439494 0.341677 0.500000
O O18 0.496497 0.357050 0.223980
O O19 0.250672 0.508923 0.000000
O O20 0.055135 0.120866 0.500000
#
# Coordination Sequence:
#
# PCOD9425449 Si02
#       8
#     8   8   8   8   8   8   8   8
#     4   9  17  31  49  68  94 121 148 186 234 282
#     4  10  19  31  46  67  92 119 156 195 229 269
#     4  11  20  32  49  69  93 124 163 197 225 269
#     4   9  17  30  47  69  93 118 154 196 229 269
#     4   9  17  31  50  69  92 121 150 186 235 280
#     4  10  22  36  46  63  94 130 162 196 233 270
#     4   9  16  29  49  71  94 122 151 181 228 283
#     4  11  22  34  47  63  93 132 163 192 234 274
#
# _framework density 17.511863999999999
#
# number of rings (size 3 to 8) (size 9 to 14) (size 15 to 20)
#    0.000    2.250    2.500    2.250    0.000    5.000 
#    0.000    0.625    0.000    0.000    0.000    0.875 
#    0.000    7.000    0.000    0.000    0.000    0.000 
#
# Total GULP energy -356961.597808 kJ/mol
# GULP energy per Si atom -5577.524966 kJ/mol
# Density = 1.747201 g / cm^3
# Si number density = 17.511864 Si / 1000 Ang^3
#
#
#
# Elastic Constant Matrix: (Units=GPa)
#
#
# Indices 1 2 3 4 5 6 
#
# 1 61.7136 25.8937 -5.2135 0.0000 0.0000 0.0000
# 2 25.8937 96.5720 -6.2898 0.0000 0.0000 0.0000
# 3 -5.2135 -6.2898 26.2552 0.0000 0.0000 0.0000
# 4 0.0000 0.0000 0.0000 19.1290 0.0000 0.0000
# 5 0.0000 0.0000 0.0000 0.0000 12.4825 0.0000
# 6 0.0000 0.0000 0.0000 0.0000 0.0000 15.8906
#
#
#
# Elastic Compliance Matrix: (Units=1/GPa)
#
#
# Indices 1 2 3 4 5 6 
#
# 1 0.018420 -0.004775 0.002514 0.000000 0.000000 0.000000
# 2 -0.004775 0.011757 0.001868 0.000000 0.000000 0.000000
# 3 0.002514 0.001868 0.039034 0.000000 0.000000 0.000000
# 4 0.000000 0.000000 0.000000 0.052277 0.000000 0.000000
# 5 0.000000 0.000000 0.000000 0.000000 0.080112 0.000000
# 6 0.000000 0.000000 0.000000 0.000000 0.000000 0.062930
#
#
# Mechanical properties :
#
#
# Convention : Reuss Voigt Hill
#
# Bulk Modulus (GPa) = 14.61454 23.70239 19.15846
# Shear Modulus (GPa) = 17.35360 20.84379 19.09870
#
# Velocity S-wave (km/s) = 3.15137 3.45377 3.30603
# Velocity P-wave (km/s) = 4.64813 5.42855 5.05343
#
# Compressibility (1/GPa) = 0.06842502
#
# Stress axis : x y z
#
# Youngs Moduli (GPa) = 54.28949 85.05567 25.61839
#
# Poissons Ratio (x) = 0.40615 -0.06440
# Poissons Ratio (y) = 0.25924 -0.04786
# Poissons Ratio (z) = -0.13647 -0.15891
#
# Static dielectric constant tensor:
#      x y z
#    x 1.589150 0.000000 0.000000 
#    y 0.000000 1.607670 0.000000 
#    z 0.000000 0.000000 1.652630 
# 
# From -- ./inp_files/9044.got.cif
#   From: 2010.05.17/outbox.cif.g08.bks.cpg/sg55_5_cif.got.tgz:9044.got - 2010.06.03 13:27:54.
