data_PCOD9425216
_publ_section_title
;
Structure prediction by ZEFSAII (Michael W. Deem and Ramdas Pophale) SiO2 
 PCOD9425216
Probable space group: P B A M
;
_chemical_formula_sum "Si O2"
_cell_formula_units_Z 64
_cell_length_a 31.368349
_cell_length_b 14.960325
_cell_length_c 8.097194
_cell_angle_alpha 90.000000
_cell_angle_beta 90.000000
_cell_angle_gamma 90.000000
_cell_volume 3799.856834
_symmetry_space_group_name_H-M "P B A M"
_symmetry_group_IT_number 55
_symmetry_cell_setting 'orthorhombic'
loop_
_space_group_symop_operation_xyz
x,y,z
-x,-y,z
1/2+x,1/2-y,-z
1/2-x,1/2+y,-z
-x,-y,-z
x,y,-z
1/2-x,1/2+y,z
1/2+x,1/2-y,z
loop_
_atom_site_type_symbol
_atom_site_label
_atom_site_fract_x
_atom_site_fract_y
_atom_site_fract_z
Si Si1 0.706203 0.195782 0.701921
Si Si2 0.825855 0.984123 0.809399
Si Si3 0.207173 0.700051 0.701083
Si Si4 0.270944 0.003011 0.700293
Si Si5 0.543214 0.608864 0.691917
Si Si6 0.628879 0.313472 0.689036
Si Si7 0.549650 0.412849 0.187422
Si Si8 0.367253 0.331123 0.299321
O O1 0.705975 0.200892 0.500000
O O2 0.749095 0.249443 0.754968
O O3 0.708904 0.091822 0.748957
O O4 0.662565 0.242221 0.760276
O O5 0.776217 0.993460 0.773298
O O6 0.847474 0.077477 0.767248
O O7 0.845163 0.906278 0.698130
O O8 0.833581 0.960387 0.000000
O O9 0.207939 0.702888 0.500000
O O10 0.207168 0.596158 0.749979
O O11 0.164796 0.752781 0.754101
O O12 0.267711 0.002577 0.500000
O O13 0.535406 0.628428 0.500000
O O14 0.498616 0.619177 0.784831
O O15 0.555531 0.503386 0.706493
O O16 0.583206 0.667443 0.751489
O O17 0.619800 0.289277 0.500000
O O18 0.584310 0.337391 0.773967
O O19 0.555065 0.442820 0.000000
O O20 0.366842 0.334251 0.500000
#
# Coordination Sequence:
#
# PCOD9425216 Si02
#       8
#     8   8   8   8   8   8   8   8
#     4   9  17  28  49  74  92 123 165 201 236 277
#     4  12  22  29  43  69  99 129 163 199 239 276
#     4   9  16  28  49  74  94 122 162 200 233 275
#     4  10  18  33  51  67  95 129 165 201 237 281
#     4  10  19  31  49  70  95 130 162 192 234 286
#     4  11  20  33  49  68  94 129 168 200 234 286
#     4  11  21  32  47  70  99 125 155 198 244 289
#     4  10  19  32  50  70  95 128 165 195 231 282
#
# _framework density 16.842741
#
# number of rings (size 3 to 8) (size 9 to 14) (size 15 to 20)
#    0.000    1.750    3.750    3.750    0.000    0.500 
#    0.000    3.125    0.000    0.000    0.000    0.875 
#    0.000    7.000    0.000    0.000    0.000    0.000 
#
# Total GULP energy -356988.843282 kJ/mol
# GULP energy per Si atom -5577.950676 kJ/mol
# Density = 1.680441 g / cm^3
# Si number density = 16.842741 Si / 1000 Ang^3
#
#
#
# Elastic Constant Matrix: (Units=GPa)
#
#
# Indices 1 2 3 4 5 6 
#
# 1 114.9619 42.3722 5.8940 0.0000 0.0000 0.0000
# 2 42.3722 88.7557 1.2589 0.0000 0.0000 0.0000
# 3 5.8940 1.2589 19.0301 0.0000 0.0000 0.0000
# 4 0.0000 0.0000 0.0000 -8.3208 0.0000 0.0000
# 5 0.0000 0.0000 0.0000 0.0000 -61.3211 0.0000
# 6 0.0000 0.0000 0.0000 0.0000 0.0000 19.7373
#
#
#
# Elastic Compliance Matrix: (Units=1/GPa)
#
#
# Indices 1 2 3 4 5 6 
#
# 1 0.010723 -0.005077 -0.002985 0.000000 0.000000 0.000000
# 2 -0.005077 0.013681 0.000667 0.000000 0.000000 0.000000
# 3 -0.002985 0.000667 0.053429 0.000000 0.000000 0.000000
# 4 0.000000 0.000000 0.000000 -0.120181 0.000000 0.000000
# 5 0.000000 0.000000 0.000000 0.000000 -0.016308 0.000000
# 6 0.000000 0.000000 0.000000 0.000000 0.000000 0.050666
#
#
# Mechanical properties :
#
#
# Convention : Reuss Voigt Hill
#
# Bulk Modulus (GPa) = 15.86209 35.75533 25.80871
# Shear Modulus (GPa) = 179.77050 1.56725 90.66888
#
# Velocity S-wave (km/s) = 10.34246 0.96568 7.34503
# Velocity P-wave (km/s) = 12.33126 4.74536 9.34287
#
# Compressibility (1/GPa) = 0.06304340
#
# Stress axis : x y z
#
# Youngs Moduli (GPa) = 93.25975 73.09375 18.71649
#
# Poissons Ratio (x) = 0.37108 0.05587
# Poissons Ratio (y) = 0.47345 -0.01249
# Poissons Ratio (z) = 0.27840 -0.04878
#
# Static dielectric constant tensor:
#      x y z
#    x 1.587210 0.000000 0.000000 
#    y 0.000000 1.561830 0.000000 
#    z 0.000000 0.000000 1.578790 
# 
# From -- ./inp_files/10903.got.cif
#   From: 2010.05.17/outbox.cif.g08.bks.cpg/sg55_6_cif.got.tgz:10903.got - 2010.06.03 13:27:54.
