data_PCOD9425461
_publ_section_title
;
Structure prediction by ZEFSAII (Michael W. Deem and Ramdas Pophale) SiO2 
 PCOD9425461
Probable space group: P B A M
;
_chemical_formula_sum "Si O2"
_cell_formula_units_Z 64
_cell_length_a 14.706445
_cell_length_b 30.916580
_cell_length_c 8.993477
_cell_angle_alpha 90.000000
_cell_angle_beta 90.000000
_cell_angle_gamma 90.000000
_cell_volume 4089.091018
_symmetry_space_group_name_H-M "P B A M"
_symmetry_group_IT_number 55
_symmetry_cell_setting 'orthorhombic'
loop_
_space_group_symop_operation_xyz
x,y,z
-x,-y,z
1/2+x,1/2-y,-z
1/2-x,1/2+y,-z
-x,-y,-z
x,y,-z
1/2-x,1/2+y,z
1/2+x,1/2-y,z
loop_
_atom_site_type_symbol
_atom_site_label
_atom_site_fract_x
_atom_site_fract_y
_atom_site_fract_z
Si Si1 0.003674 0.316190 0.168310
Si Si2 0.106165 0.451249 0.678438
Si Si3 0.894727 0.449565 0.679455
Si Si4 0.001379 0.227540 0.674564
Si Si5 0.684761 0.707643 0.178773
Si Si6 0.315254 0.132264 0.172209
Si Si7 0.710821 0.289980 0.678199
Si Si8 0.812245 0.629637 0.825255
O O1 0.998340 0.278347 0.287116
O O2 0.914455 0.345252 0.176152
O O3 0.093050 0.344484 0.191313
O O4 0.008316 0.297358 0.000000
O O5 0.107829 0.449101 0.500000
O O6 0.127183 0.500821 0.720562
O O7 0.173380 0.415562 0.743300
O O8 0.000865 0.442230 0.723368
O O9 0.890296 0.445786 0.500000
O O10 0.830155 0.414331 0.753882
O O11 0.986102 0.220255 0.500000
O O12 0.918976 0.207337 0.767227
O O13 0.103473 0.212859 0.712895
O O14 0.736078 0.749380 0.248246
O O15 0.735558 0.663476 0.225439
O O16 0.690302 0.711383 0.000000
O O17 0.250857 0.165314 0.259669
O O18 0.287464 0.128708 0.000000
O O19 0.722230 0.287395 0.500000
O O20 0.798240 0.621310 0.000000
#
# Coordination Sequence:
#
# PCOD9425461 Si02
#       8
#     8   8   8   8   8   8   8   8
#     4  10  19  31  47  70 103 136 169 205 246 295
#     4   9  18  31  49  72 100 135 169 203 248 296
#     4   9  18  32  48  71 103 135 167 205 247 296
#     4  11  23  36  51  72  99 133 173 214 254 294
#     4  11  22  35  52  73 100 135 171 209 253 300
#     4  11  21  32  50  75 100 136 173 205 250 299
#     4  11  23  36  51  73 100 133 172 212 252 297
#     4  10  20  33  49  72 101 134 170 206 246 294
#
# _framework density 15.651400000000001
#
# number of rings (size 3 to 8) (size 9 to 14) (size 15 to 20)
#    0.000    1.750    3.750    2.250    0.000    4.000 
#    0.000    1.250    0.000    0.000    0.000    0.875 
#    0.000    7.000    0.000    0.000    0.000    0.000 
#
# Total GULP energy -357064.610955 kJ/mol
# GULP energy per Si atom -5579.134546 kJ/mol
# Density = 1.561578 g / cm^3
# Si number density = 15.651400 Si / 1000 Ang^3
#
#
#
# Elastic Constant Matrix: (Units=GPa)
#
#
# Indices 1 2 3 4 5 6 
#
# 1 77.4566 42.6253 39.1661 0.0000 0.0000 0.0000
# 2 42.6253 117.4126 43.6239 0.0000 0.0000 0.0000
# 3 39.1661 43.6239 48.2590 0.0000 0.0000 0.0000
# 4 0.0000 0.0000 0.0000 30.3097 0.0000 0.0000
# 5 0.0000 0.0000 0.0000 0.0000 18.6296 0.0000
# 6 0.0000 0.0000 0.0000 0.0000 0.0000 20.1493
#
#
#
# Elastic Compliance Matrix: (Units=1/GPa)
#
#
# Indices 1 2 3 4 5 6 
#
# 1 0.022222 -0.002058 -0.016174 0.000000 0.000000 0.000000
# 2 -0.002058 0.013015 -0.010095 0.000000 0.000000 0.000000
# 3 -0.016174 -0.010095 0.042973 0.000000 0.000000 0.000000
# 4 0.000000 0.000000 0.000000 0.032993 0.000000 0.000000
# 5 0.000000 0.000000 0.000000 0.000000 0.053678 0.000000
# 6 0.000000 0.000000 0.000000 0.000000 0.000000 0.049630
#
#
# Mechanical properties :
#
#
# Convention : Reuss Voigt Hill
#
# Bulk Modulus (GPa) = 46.39076 54.88429 50.63752
# Shear Modulus (GPa) = 17.96307 21.66524 19.81416
#
# Velocity S-wave (km/s) = 3.39144 3.72457 3.56190
# Velocity P-wave (km/s) = 6.71120 7.32389 7.02423
#
# Compressibility (1/GPa) = 0.02155602
#
# Stress axis : x y z
#
# Youngs Moduli (GPa) = 45.00143 76.83688 23.27017
#
# Poissons Ratio (x) = 0.15811 0.37638
# Poissons Ratio (y) = 0.09260 0.23490
# Poissons Ratio (z) = 0.72787 0.77563
#
# Static dielectric constant tensor:
#      x y z
#    x 1.518130 0.000000 0.000000 
#    y 0.000000 1.511280 0.000000 
#    z 0.000000 0.000000 1.534830 
# 
# From -- ./inp_files/6919.got.cif
#   From: 2010.05.17/outbox.cif.g08.bks.cpg/sg55_4_cif.got.tgz:6919.got - 2010.06.03 13:27:54.
