data_PCOD9425121
_publ_section_title
;
Structure prediction by ZEFSAII (Michael W. Deem and Ramdas Pophale) SiO2 
 PCOD9425121
Probable space group: P B A M
;
_chemical_formula_sum "Si O2"
_cell_formula_units_Z 48
_cell_length_a 19.863079
_cell_length_b 9.061355
_cell_length_c 15.185012
_cell_angle_alpha 90.000000
_cell_angle_beta 90.000000
_cell_angle_gamma 90.000000
_cell_volume 2733.095799
_symmetry_space_group_name_H-M "P B A M"
_symmetry_group_IT_number 55
_symmetry_cell_setting 'orthorhombic'
loop_
_space_group_symop_operation_xyz
x,y,z
-x,-y,z
1/2+x,1/2-y,-z
1/2-x,1/2+y,-z
-x,-y,-z
x,y,-z
1/2-x,1/2+y,z
1/2+x,1/2-y,z
loop_
_atom_site_type_symbol
_atom_site_label
_atom_site_fract_x
_atom_site_fract_y
_atom_site_fract_z
Si Si1 0.733947 0.549363 0.343508
Si Si2 0.971594 0.160487 0.897329
Si Si3 0.370920 0.151642 0.206987
Si Si4 0.655806 0.826246 0.595391
Si Si5 0.212882 0.202607 0.220168
Si Si6 0.105618 0.352329 0.102828
O O1 0.781464 0.440687 0.398634
O O2 0.686541 0.661506 0.395413
O O3 0.781542 0.656654 0.285232
O O4 0.694031 0.442001 0.276590
O O5 0.033350 0.274793 0.889732
O O6 0.911683 0.215329 0.836286
O O7 0.950080 0.156938 0.000000
O O8 0.000000 0.000000 0.874388
O O9 0.382534 0.146613 0.312527
O O10 0.290656 0.174446 0.193262
O O11 0.392387 0.002817 0.157935
O O12 0.622365 0.843502 0.500000
O O13 0.162336 0.243928 0.143026
O O14 0.118721 0.382264 0.000000
#
# Coordination Sequence:
#
# PCOD9425121 Si02
#       6
#     8   8   8   8   8   8
#     4   8  17  31  51  76 114 143 175 222 271 327
#     4  10  23  39  58  81 105 145 197 233 274 335
#     4  10  21  37  56  81 115 150 177 234 277 333
#     4  10  18  31  55  84 110 146 185 227 275 330
#     4  10  18  35  53  84 112 144 182 220 285 322
#     4  11  22  36  57  82 110 150 191 224 271 337
#
# _framework density 17.562501999999999
#
# number of rings (size 3 to 8) (size 9 to 14) (size 15 to 20)
#    0.000    2.500    3.333    1.500    4.667    2.667 
#    0.000    0.000    0.000    2.500    0.000    0.000 
#    0.000    0.000    0.000    0.000    0.000    0.000 
#
# Total GULP energy -267492.456639 kJ/mol
# GULP energy per Si atom -5572.759513 kJ/mol
# Density = 1.752253 g / cm^3
# Si number density = 17.562502 Si / 1000 Ang^3
#
#
#
# Elastic Constant Matrix: (Units=GPa)
#
#
# Indices 1 2 3 4 5 6 
#
# 1 30.9242 10.8151 25.1317 0.0000 0.0000 0.0000
# 2 10.8151 109.1636 40.7731 0.0000 0.0000 0.0000
# 3 25.1317 40.7731 113.1101 0.0000 0.0000 0.0000
# 4 0.0000 0.0000 0.0000 12.8308 0.0000 0.0000
# 5 0.0000 0.0000 0.0000 0.0000 9.7619 0.0000
# 6 0.0000 0.0000 0.0000 0.0000 0.0000 19.2749
#
#
#
# Elastic Compliance Matrix: (Units=1/GPa)
#
#
# Indices 1 2 3 4 5 6 
#
# 1 0.039514 -0.000734 -0.008515 0.000000 0.000000 0.000000
# 2 -0.000734 0.010599 -0.003658 0.000000 0.000000 0.000000
# 3 -0.008515 -0.003658 0.012051 0.000000 0.000000 0.000000
# 4 0.000000 0.000000 0.000000 0.077937 0.000000 0.000000
# 5 0.000000 0.000000 0.000000 0.000000 0.102439 0.000000
# 6 0.000000 0.000000 0.000000 0.000000 0.000000 0.051881
#
#
# Mechanical properties :
#
#
# Convention : Reuss Voigt Hill
#
# Bulk Modulus (GPa) = 27.50960 45.18196 36.34578
# Shear Modulus (GPa) = 15.04428 20.13873 17.59151
#
# Velocity S-wave (km/s) = 2.92997 3.38995 3.16832
# Velocity P-wave (km/s) = 5.21000 6.41129 5.84161
#
# Compressibility (1/GPa) = 0.03635094
#
# Stress axis : x y z
#
# Youngs Moduli (GPa) = 25.30760 94.34436 82.97862
#
# Poissons Ratio (x) = 0.06929 0.70654
# Poissons Ratio (y) = 0.01859 0.30351
# Poissons Ratio (z) = 0.21549 0.34508
#
# Static dielectric constant tensor:
#      x y z
#    x 1.572640 0.000000 0.000000 
#    y 0.000000 1.625880 0.000000 
#    z 0.000000 0.000000 1.620190 
# 
# From -- ./inp_files/19651.got.cif
#   From: 2010.05.17/outbox.cif.g08.bks.cpg/sg55_10_cif.got.tgz:19651.got - 2010.06.03 13:27:54.
