data_PCOD9425042
_publ_section_title
;
Structure prediction by ZEFSAII (Michael W. Deem and Ramdas Pophale) SiO2 
 PCOD9425042
Probable space group: P B A M
;
_chemical_formula_sum "Si O2"
_cell_formula_units_Z 64
_cell_length_a 25.167799
_cell_length_b 14.654800
_cell_length_c 7.495866
_cell_angle_alpha 90.000000
_cell_angle_beta 90.000000
_cell_angle_gamma 90.000000
_cell_volume 2764.693217
_symmetry_space_group_name_H-M "P B A M"
_symmetry_group_IT_number 55
_symmetry_cell_setting 'orthorhombic'
loop_
_space_group_symop_operation_xyz
x,y,z
-x,-y,z
1/2+x,1/2-y,-z
1/2-x,1/2+y,-z
-x,-y,-z
x,y,-z
1/2-x,1/2+y,z
1/2+x,1/2-y,z
loop_
_atom_site_type_symbol
_atom_site_label
_atom_site_fract_x
_atom_site_fract_y
_atom_site_fract_z
Si Si1 0.116297 0.643135 0.702513
Si Si2 0.059565 0.470776 0.283034
Si Si3 0.297397 0.700091 0.216918
Si Si4 0.190883 0.800574 0.703418
Si Si5 0.557607 0.528551 0.783664
Si Si6 0.328700 0.509169 0.789380
Si Si7 0.087098 0.262190 0.207849
Si Si8 0.472634 0.273291 0.215126
O O1 0.135691 0.628585 0.500000
O O2 0.103549 0.544172 0.781282
O O3 0.154215 0.720126 0.788130
O O4 0.058036 0.689345 0.700834
O O5 0.059584 0.472530 0.500000
O O6 0.075227 0.369688 0.223846
O O7 0.000000 0.500000 0.224760
O O8 0.250147 0.761820 0.287799
O O9 0.293228 0.593681 0.274485
O O10 0.355340 0.735117 0.278213
O O11 0.294214 0.706848 0.000000
O O12 0.172302 0.808041 0.500000
O O13 0.188915 0.904387 0.770854
O O14 0.500000 0.500000 0.716565
O O15 0.611155 0.482733 0.716168
O O16 0.560684 0.636148 0.748145
O O17 0.556375 0.516353 0.000000
O O18 0.333048 0.524928 0.000000
O O19 0.033099 0.216541 0.279388
O O20 0.089100 0.235294 0.000000
O O21 0.473817 0.260533 0.000000
#
# Coordination Sequence:
#
# PCOD9425042 Si02
#       8
#     8   8   8   8   8   8   8   8
#     4  10  21  37  55  79 112 149 192 239 284 336
#     4  10  20  35  56  81 115 161 201 233 285 353
#     4  10  23  42  62  87 120 155 196 246 298 351
#     4  11  24  41  62  86 117 156 201 250 293 345
#     4   9  16  28  52  86 118 149 185 227 284 350
#     4  10  20  38  64  90 118 153 194 242 294 350
#     4  10  21  36  56  87 121 150 189 245 298 346
#     4  10  18  30  54  85 114 145 184 230 285 347
#
# _framework density 23.149041
#
# number of rings (size 3 to 8) (size 9 to 14) (size 15 to 20)
#    0.000    2.000    2.500    1.125    0.000    6.250 
#    0.000    2.500    0.000    3.000    0.000    0.000 
#    0.000    0.000    0.000    0.000    0.000    0.000 
#
# Total GULP energy -357301.930967 kJ/mol
# GULP energy per Si atom -5582.842671 kJ/mol
# Density = 2.309635 g / cm^3
# Si number density = 23.149041 Si / 1000 Ang^3
#
#
#
# Elastic Constant Matrix: (Units=GPa)
#
#
# Indices 1 2 3 4 5 6 
#
# 1 107.5798 35.2634 -6.4591 0.0000 0.0000 0.0000
# 2 35.2634 103.0361 -4.3653 0.0000 0.0000 0.0000
# 3 -6.4591 -4.3653 63.6920 0.0000 0.0000 0.0000
# 4 0.0000 0.0000 0.0000 25.7433 0.0000 0.0000
# 5 0.0000 0.0000 0.0000 0.0000 17.6878 0.0000
# 6 0.0000 0.0000 0.0000 0.0000 0.0000 40.4113
#
#
#
# Elastic Compliance Matrix: (Units=1/GPa)
#
#
# Indices 1 2 3 4 5 6 
#
# 1 0.010513 -0.003563 0.000822 0.000000 0.000000 0.000000
# 2 -0.003563 0.010941 0.000389 0.000000 0.000000 0.000000
# 3 0.000822 0.000389 0.015811 0.000000 0.000000 0.000000
# 4 0.000000 0.000000 0.000000 0.038845 0.000000 0.000000
# 5 0.000000 0.000000 0.000000 0.000000 0.056536 0.000000
# 6 0.000000 0.000000 0.000000 0.000000 0.000000 0.024746
#
#
# Mechanical properties :
#
#
# Convention : Reuss Voigt Hill
#
# Bulk Modulus (GPa) = 30.71327 35.90956 33.31142
# Shear Modulus (GPa) = 28.91013 33.42638 31.16826
#
# Velocity S-wave (km/s) = 3.53777 3.80408 3.67334
# Velocity P-wave (km/s) = 5.47578 5.90260 5.69319
#
# Compressibility (1/GPa) = 0.03255921
#
# Stress axis : x y z
#
# Youngs Moduli (GPa) = 95.12299 91.39733 63.24897
#
# Poissons Ratio (x) = 0.32566 -0.05198
# Poissons Ratio (y) = 0.33893 -0.02458
# Poissons Ratio (z) = -0.07818 -0.03551
#
# Static dielectric constant tensor:
#      x y z
#    x 1.867770 0.000000 0.000000 
#    y 0.000000 1.885080 0.000000 
#    z 0.000000 0.000000 1.898840 
# 
# From -- ./inp_files/9771.got.cif
#   From: 2010.05.17/outbox.cif.g08.bks.cpg/sg55_5_cif.got.tgz:9771.got - 2010.06.03 13:27:54.
