data_PCOD9425565
_publ_section_title
;
Structure prediction by ZEFSAII (Michael W. Deem and Ramdas Pophale) SiO2 
 PCOD9425565
Probable space group: P B A M
;
_chemical_formula_sum "Si O2"
_cell_formula_units_Z 40
_cell_length_a 22.295939
_cell_length_b 5.300925
_cell_length_c 18.842868
_cell_angle_alpha 90.000000
_cell_angle_beta 90.000000
_cell_angle_gamma 90.000000
_cell_volume 2227.021619
_symmetry_space_group_name_H-M "P B A M"
_symmetry_group_IT_number 55
_symmetry_cell_setting 'orthorhombic'
loop_
_space_group_symop_operation_xyz
x,y,z
-x,-y,z
1/2+x,1/2-y,-z
1/2-x,1/2+y,-z
-x,-y,-z
x,y,-z
1/2-x,1/2+y,z
1/2+x,1/2-y,z
loop_
_atom_site_type_symbol
_atom_site_label
_atom_site_fract_x
_atom_site_fract_y
_atom_site_fract_z
Si Si1 0.180652 0.355244 0.343641
Si Si2 0.218173 0.120730 0.000000
Si Si3 0.212730 0.489555 0.500000
Si Si4 0.363171 0.459818 0.869756
Si Si5 0.070283 0.445762 0.915017
Si Si6 0.181523 0.855272 0.714897
O O1 0.181126 0.432192 0.425637
O O2 0.249426 0.328605 0.312928
O O3 0.153019 0.583521 0.299457
O O4 0.153859 0.081205 0.331014
O O5 0.183217 0.036600 0.069596
O O6 0.226589 0.422151 0.000000
O O7 0.234023 0.779508 0.500000
O O8 0.393817 0.194133 0.889860
O O9 0.327631 0.430923 0.796045
O O10 0.409490 0.694443 0.873011
O O11 0.000000 0.500000 0.905532
O O12 0.080249 0.404475 0.000000
#
# Coordination Sequence:
#
# PCOD9425565 Si02
#       6
#     8   4   4   8   8   8
#     4  10  19  32  45  73  98 154 177 209 248 293
#     4  12  26  36  49  74 107 148 182 210 248 298
#     4  12  16  30  48  68 102 140 198 224 232 286
#     4  12  23  39  54  78 107 139 182 228 268 329
#     4  11  22  41  62  79  96 126 180 248 298 326
#     4  10  20  30  47  66 104 134 177 203 254 308
#
# _framework density 17.961210000000001
#
# number of rings (size 3 to 8) (size 9 to 14) (size 15 to 20)
#    0.000    1.000    6.000    3.000    5.600    1.600 
#    0.000    0.000    0.000    0.000    0.000    0.000 
#    0.000    0.000    0.000  104.400    0.000    0.000 
#
# Total GULP energy -222967.712816 kJ/mol
# GULP energy per Si atom -5574.192820 kJ/mol
# Density = 1.792033 g / cm^3
# Si number density = 17.961210 Si / 1000 Ang^3
#
#
#
# Elastic Constant Matrix: (Units=GPa)
#
#
# Indices 1 2 3 4 5 6 
#
# 1 26.1449 -7.9148 8.5465 0.0000 0.0000 0.0000
# 2 -7.9148 85.2852 -29.8628 0.0000 0.0000 0.0000
# 3 8.5465 -29.8628 69.4122 0.0000 0.0000 0.0000
# 4 0.0000 0.0000 0.0000 28.0718 0.0000 0.0000
# 5 0.0000 0.0000 0.0000 0.0000 -0.3300 0.0000
# 6 0.0000 0.0000 0.0000 0.0000 0.0000 21.7850
#
#
#
# Elastic Compliance Matrix: (Units=1/GPa)
#
#
# Indices 1 2 3 4 5 6 
#
# 1 0.040250 0.002355 -0.003943 0.000000 0.000000 0.000000
# 2 0.002355 0.013943 0.005709 0.000000 0.000000 0.000000
# 3 -0.003943 0.005709 0.017348 0.000000 0.000000 0.000000
# 4 0.000000 0.000000 0.000000 0.035623 0.000000 0.000000
# 5 0.000000 0.000000 0.000000 0.000000 -3.030670 0.000000
# 6 0.000000 0.000000 0.000000 0.000000 0.000000 0.045903
#
#
# Mechanical properties :
#
#
# Convention : Reuss Voigt Hill
#
# Bulk Modulus (GPa) = 12.53414 13.59779 13.06597
# Shear Modulus (GPa) = -1.74871 23.91025 11.08077
#
# Velocity S-wave (km/s) = -0.98778 3.65254 2.48650
# Velocity P-wave (km/s) = 2.38593 5.03738 3.94131
#
# Compressibility (1/GPa) = 0.07978209
#
# Stress axis : x y z
#
# Youngs Moduli (GPa) = 24.84471 71.72174 57.64312
#
# Poissons Ratio (x) = -0.16889 0.22727
# Poissons Ratio (y) = -0.05850 -0.32906
# Poissons Ratio (z) = 0.09796 -0.40943
#
# Static dielectric constant tensor:
#      x y z
#    x 1.716710 0.000000 0.000000 
#    y 0.000000 1.714570 0.000000 
#    z 0.000000 0.000000 1.628930 
# 
# From -- ./inp_files/21871.got.cif
#   From: 2010.05.17/outbox.cif.g08.bks.cpg/sg55_11_cif.got.tgz:21871.got - 2010.06.03 13:27:54.
