data_PCOD9425187
_publ_section_title
;
Structure prediction by ZEFSAII (Michael W. Deem and Ramdas Pophale) SiO2 
 PCOD9425187
Probable space group: P B A M
;
_chemical_formula_sum "Si O2"
_cell_formula_units_Z 58
_cell_length_a 14.395578
_cell_length_b 19.632400
_cell_length_c 9.258597
_cell_angle_alpha 90.000000
_cell_angle_beta 90.000000
_cell_angle_gamma 90.000000
_cell_volume 2616.662328
_symmetry_space_group_name_H-M "P B A M"
_symmetry_group_IT_number 55
_symmetry_cell_setting 'orthorhombic'
loop_
_space_group_symop_operation_xyz
x,y,z
-x,-y,z
1/2+x,1/2-y,-z
1/2-x,1/2+y,-z
-x,-y,-z
x,y,-z
1/2-x,1/2+y,z
1/2+x,1/2-y,z
loop_
_atom_site_type_symbol
_atom_site_label
_atom_site_fract_x
_atom_site_fract_y
_atom_site_fract_z
Si Si1 0.721937 0.567839 0.334481
Si Si2 0.062060 0.279993 0.325667
Si Si3 0.942666 0.152284 0.337132
Si Si4 0.215643 0.204788 0.172507
Si Si5 0.388382 0.565860 0.736320
Si Si6 0.000000 0.000000 0.000000
Si Si7 0.591881 0.854706 0.828781
Si Si8 0.109561 0.509877 0.328181
O O1 0.733538 0.590180 0.500000
O O2 0.648906 0.620477 0.264283
O O3 0.672004 0.493772 0.334385
O O4 0.824881 0.552518 0.278645
O O5 0.067907 0.282549 0.500000
O O6 0.998455 0.215545 0.273283
O O7 0.001305 0.340610 0.261316
O O8 0.162118 0.264531 0.257211
O O9 0.918986 0.173775 0.500000
O O10 0.020363 0.093205 0.345504
O O11 0.171618 0.133290 0.228027
O O12 0.325806 0.199816 0.199482
O O13 0.200436 0.210261 0.000000
O O14 0.431751 0.532502 0.877190
O O15 0.631767 0.925788 0.770992
O O16 0.574155 0.856300 0.000000
O O17 0.128416 0.522019 0.500000
O O18 0.000000 0.500000 0.314752
#
# Coordination Sequence:
#
# PCOD9425187 Si02
#       8
#     8   8   8   8   8   2   8   8
#     4  10  18  32  55  81 113 153 190 237 292 353
#     4  10  22  39  60  88 121 157 204 258 307 364
#     4   9  18  32  51  79 114 146 183 235 296 354
#     4  10  21  37  59  85 117 156 201 248 303 370
#     4  11  18  29  48  82 116 150 187 228 286 355
#     4  12  20  24  46  80 122 152 180 226 282 352
#     4  11  23  42  66  88 120 162 204 253 308 371
#     4  10  22  40  62  89 120 156 208 259 304 355
#
# _framework density 22.165641000000001
#
# number of rings (size 3 to 8) (size 9 to 14) (size 15 to 20)
#    0.000    1.793    3.448    1.241    0.000    3.034 
#    2.483    0.000    0.000    0.000    0.000    0.000 
#    0.000    0.000    0.000    0.000    0.000    0.000 
#
# Total GULP energy -322985.664824 kJ/mol
# GULP energy per Si atom -5568.718359 kJ/mol
# Density = 2.211519 g / cm^3
# Si number density = 22.165641 Si / 1000 Ang^3
#
#
#
# Elastic Constant Matrix: (Units=GPa)
#
#
# Indices 1 2 3 4 5 6 
#
# 1 116.4453 14.5839 32.3629 0.0000 0.0000 0.0000
# 2 14.5839 26.0868 2.2810 0.0000 0.0000 0.0000
# 3 32.3629 2.2810 68.7877 0.0000 0.0000 0.0000
# 4 0.0000 0.0000 0.0000 84.2453 0.0000 0.0000
# 5 0.0000 0.0000 0.0000 0.0000 -67.9123 0.0000
# 6 0.0000 0.0000 0.0000 0.0000 0.0000 37.6968
#
#
#
# Elastic Compliance Matrix: (Units=1/GPa)
#
#
# Indices 1 2 3 4 5 6 
#
# 1 0.010616 -0.005514 -0.004812 0.000000 0.000000 0.000000
# 2 -0.005514 0.041309 0.001224 0.000000 0.000000 0.000000
# 3 -0.004812 0.001224 0.016761 0.000000 0.000000 0.000000
# 4 0.000000 0.000000 0.000000 0.011870 0.000000 0.000000
# 5 0.000000 0.000000 0.000000 0.000000 -0.014725 0.000000
# 6 0.000000 0.000000 0.000000 0.000000 0.000000 0.026527
#
#
# Mechanical properties :
#
#
# Convention : Reuss Voigt Hill
#
# Bulk Modulus (GPa) = 19.80864 34.41949 27.11407
# Shear Modulus (GPa) = 39.25030 21.61209 30.43120
#
# Velocity S-wave (km/s) = 4.21262 3.12593 3.70929
# Velocity P-wave (km/s) = 5.71118 5.34702 5.53210
#
# Compressibility (1/GPa) = 0.05048301
#
# Stress axis : x y z
#
# Youngs Moduli (GPa) = 94.20163 24.20779 59.66382
#
# Poissons Ratio (x) = 0.13348 0.28707
# Poissons Ratio (y) = 0.51942 -0.07305
# Poissons Ratio (z) = 0.45325 -0.02964
#
# Static dielectric constant tensor:
#      x y z
#    x 1.871520 0.000000 0.000000 
#    y 0.000000 1.875200 0.000000 
#    z 0.000000 0.000000 1.764360 
# 
# From -- ./inp_files/6432.got.cif
#   From: 2010.05.17/outbox.cif.g08.bks.cpg/sg55_4_cif.got.tgz:6432.got - 2010.06.03 13:27:54.
