data_PCOD9425543
_publ_section_title
;
Structure prediction by ZEFSAII (Michael W. Deem and Ramdas Pophale) SiO2 
 PCOD9425543
Probable space group: P B A M
;
_chemical_formula_sum "Si O2"
_cell_formula_units_Z 64
_cell_length_a 10.899844
_cell_length_b 30.134147
_cell_length_c 9.837744
_cell_angle_alpha 90.000000
_cell_angle_beta 90.000000
_cell_angle_gamma 90.000000
_cell_volume 3231.280813
_symmetry_space_group_name_H-M "P B A M"
_symmetry_group_IT_number 55
_symmetry_cell_setting 'orthorhombic'
loop_
_space_group_symop_operation_xyz
x,y,z
-x,-y,z
1/2+x,1/2-y,-z
1/2-x,1/2+y,-z
-x,-y,-z
x,y,-z
1/2-x,1/2+y,z
1/2+x,1/2-y,z
loop_
_atom_site_type_symbol
_atom_site_label
_atom_site_fract_x
_atom_site_fract_y
_atom_site_fract_z
Si Si1 0.857041 0.208272 0.841537
Si Si2 0.365606 0.923332 0.352860
Si Si3 0.373720 0.375607 0.653934
Si Si4 0.934147 0.715536 0.159711
Si Si5 0.755286 0.406277 0.843345
Si Si6 0.923656 0.356165 0.659411
Si Si7 0.145858 0.499930 0.849095
Si Si8 0.486202 0.446626 0.153992
O O1 0.892958 0.167269 0.745872
O O2 0.713375 0.223308 0.812278
O O3 0.967402 0.244060 0.827841
O O4 0.855960 0.194405 0.000000
O O5 0.359899 0.945944 0.500000
O O6 0.272179 0.882583 0.354063
O O7 0.497328 0.901486 0.335083
O O8 0.326176 0.957972 0.240767
O O9 0.422013 0.371551 0.500000
O O10 0.417707 0.420514 0.727141
O O11 0.993502 0.679294 0.260089
O O12 0.939495 0.701357 0.000000
O O13 0.800669 0.367336 0.744644
O O14 0.811680 0.453059 0.794951
O O15 0.613538 0.419178 0.847519
O O16 0.796758 0.397525 0.000000
O O17 0.904152 0.344980 0.500000
O O18 0.000000 0.500000 0.858523
O O19 0.199320 0.496136 0.000000
O O20 0.500000 0.500000 0.177620
O O21 0.435071 0.441811 0.000000
#
# Coordination Sequence:
#
# PCOD9425543 Si02
#       8
#     8   8   8   8   8   8   8   8
#     4  10  22  41  66  94 123 160 206 256 314 376
#     4  10  21  35  53  80 116 154 191 239 292 348
#     4  11  23  40  62  89 121 158 205 250 299 363
#     4  10  22  41  65  93 125 162 207 261 318 377
#     4  10  21  37  56  84 120 156 201 255 306 359
#     4  11  22  37  58  86 121 158 197 243 303 369
#     4  10  19  31  52  81 110 147 196 245 293 346
#     4  10  22  41  63  87 121 165 212 259 307 363
#
# _framework density 19.806386
#
# number of rings (size 3 to 8) (size 9 to 14) (size 15 to 20)
#    0.000    1.750    2.500    1.500    0.000    5.500 
#    0.000    2.500    0.000    0.000    0.000    0.000 
#    0.000    0.000    0.000    0.000    0.000    0.000 
#
# Total GULP energy -356404.552559 kJ/mol
# GULP energy per Si atom -5568.821134 kJ/mol
# Density = 1.976131 g / cm^3
# Si number density = 19.806386 Si / 1000 Ang^3
#
#
#
# Elastic Constant Matrix: (Units=GPa)
#
#
# Indices 1 2 3 4 5 6 
#
# 1 62.9004 20.7667 21.3142 0.0000 0.0000 0.0000
# 2 20.7667 73.9040 80.5152 0.0000 0.0000 0.0000
# 3 21.3142 80.5152 113.6575 0.0000 0.0000 0.0000
# 4 0.0000 0.0000 0.0000 -2.0546 0.0000 0.0000
# 5 0.0000 0.0000 0.0000 0.0000 17.4433 0.0000
# 6 0.0000 0.0000 0.0000 0.0000 0.0000 29.0437
#
#
#
# Elastic Compliance Matrix: (Units=1/GPa)
#
#
# Indices 1 2 3 4 5 6 
#
# 1 0.017544 -0.005895 0.000886 0.000000 0.000000 0.000000
# 2 -0.005895 0.061269 -0.042297 0.000000 0.000000 0.000000
# 3 0.000886 -0.042297 0.038596 0.000000 0.000000 0.000000
# 4 0.000000 0.000000 0.000000 -0.486723 0.000000 0.000000
# 5 0.000000 0.000000 0.000000 0.000000 0.057329 0.000000
# 6 0.000000 0.000000 0.000000 0.000000 0.000000 0.034431
#
#
# Mechanical properties :
#
#
# Convention : Reuss Voigt Hill
#
# Bulk Modulus (GPa) = 43.86786 55.07265 49.47025
# Shear Modulus (GPa) = -28.51548 17.41088 -5.55230
#
# Velocity S-wave (km/s) = -3.79847 2.96810 -1.67612
# Velocity P-wave (km/s) = 1.72006 6.29381 4.61360
#
# Compressibility (1/GPa) = 0.02279573
#
# Stress axis : x y z
#
# Youngs Moduli (GPa) = 56.99887 16.32156 25.90964
#
# Poissons Ratio (x) = 0.09622 -0.02296
# Poissons Ratio (y) = 0.33602 1.09591
# Poissons Ratio (z) = -0.05051 0.69036
#
# Static dielectric constant tensor:
#      x y z
#    x 1.767860 0.000000 0.000000 
#    y 0.000000 1.673130 0.000000 
#    z 0.000000 0.000000 1.727930 
# 
# From -- ./inp_files/4663.got.cif
#   From: 2010.05.17/outbox.cif.g08.bks.cpg/sg55_3_cif.got.tgz:4663.got - 2010.06.03 13:27:54.
