data_PCOD9425772
_publ_section_title
;
Structure prediction by ZEFSAII (Michael W. Deem and Ramdas Pophale) SiO2 
 PCOD9425772
Probable space group: P B A M
;
_chemical_formula_sum "Si O2"
_cell_formula_units_Z 56
_cell_length_a 20.089265
_cell_length_b 19.305141
_cell_length_c 7.763773
_cell_angle_alpha 90.000000
_cell_angle_beta 90.000000
_cell_angle_gamma 90.000000
_cell_volume 3010.993753
_symmetry_space_group_name_H-M "P B A M"
_symmetry_group_IT_number 55
_symmetry_cell_setting 'orthorhombic'
loop_
_space_group_symop_operation_xyz
x,y,z
-x,-y,z
1/2+x,1/2-y,-z
1/2-x,1/2+y,-z
-x,-y,-z
x,y,-z
1/2-x,1/2+y,z
1/2+x,1/2-y,z
loop_
_atom_site_type_symbol
_atom_site_label
_atom_site_fract_x
_atom_site_fract_y
_atom_site_fract_z
Si Si1 0.970776 0.781255 0.793433
Si Si2 0.890586 0.272396 0.797850
Si Si3 0.324823 0.753178 0.791558
Si Si4 0.792004 0.150200 0.295621
Si Si5 0.193027 0.006320 0.706570
Si Si6 0.550516 0.440052 0.291735
Si Si7 0.724429 0.866489 0.207340
O O1 0.900341 0.751814 0.728146
O O2 0.971531 0.863525 0.760950
O O3 0.037164 0.744851 0.722634
O O4 0.970835 0.772311 0.000000
O O5 0.844569 0.203914 0.784134
O O6 0.844996 0.334652 0.726008
O O7 0.900314 0.287261 0.000000
O O8 0.281237 0.818878 0.736995
O O9 0.282872 0.685802 0.732219
O O10 0.325783 0.751768 0.000000
O O11 0.804515 0.150496 0.500000
O O12 0.799760 0.072130 0.229300
O O13 0.187660 0.002273 0.500000
O O14 0.124820 0.041674 0.771255
O O15 0.254514 0.056364 0.746621
O O16 0.500000 0.500000 0.233697
O O17 0.551187 0.441167 0.500000
O O18 0.722966 0.861665 0.000000
#
# Coordination Sequence:
#
# PCOD9425772 Si02
#       7
#     8   8   8   8   8   8   8
#     4  10  19  33  52  73  99 130 164 204 249 295
#     4   9  19  34  51  73 100 129 163 205 247 292
#     4   9  18  33  51  73  98 126 165 209 249 293
#     4  10  20  33  50  72  99 131 167 204 244 293
#     4  10  20  32  47  70  99 131 165 201 242 290
#     4  10  20  32  46  69 105 138 162 195 243 297
#     4   9  17  31  50  71  95 124 163 204 244 290
#
# _framework density 18.598510999999998
#
# number of rings (size 3 to 8) (size 9 to 14) (size 15 to 20)
#    0.000    2.429    1.429    2.143    0.000    6.000 
#    0.000    0.000    0.000    0.857    0.000    6.000 
#    0.000    0.000    0.000    0.000    0.000    0.000 
#
# Total GULP energy -312379.920077 kJ/mol
# GULP energy per Si atom -5578.212859 kJ/mol
# Density = 1.855618 g / cm^3
# Si number density = 18.598511 Si / 1000 Ang^3
#
#
#
# Elastic Constant Matrix: (Units=GPa)
#
#
# Indices 1 2 3 4 5 6 
#
# 1 98.0957 -1.7162 -0.0029 0.0000 0.0000 0.0000
# 2 -1.7162 18.3468 -9.4771 0.0000 0.0000 0.0000
# 3 -0.0029 -9.4771 24.0725 0.0000 0.0000 0.0000
# 4 0.0000 0.0000 0.0000 22.2653 0.0000 0.0000
# 5 0.0000 0.0000 0.0000 0.0000 10.0445 0.0000
# 6 0.0000 0.0000 0.0000 0.0000 0.0000 26.2317
#
#
#
# Elastic Compliance Matrix: (Units=1/GPa)
#
#
# Indices 1 2 3 4 5 6 
#
# 1 0.010215 0.001200 0.000474 0.000000 0.000000 0.000000
# 2 0.001200 0.068560 0.026992 0.000000 0.000000 0.000000
# 3 0.000474 0.026992 0.052168 0.000000 0.000000 0.000000
# 4 0.000000 0.000000 0.000000 0.044913 0.000000 0.000000
# 5 0.000000 0.000000 0.000000 0.000000 0.099557 0.000000
# 6 0.000000 0.000000 0.000000 0.000000 0.000000 0.038122
#
#
# Mechanical properties :
#
#
# Convention : Reuss Voigt Hill
#
# Bulk Modulus (GPa) = 5.31140 13.12474 9.21807
# Shear Modulus (GPa) = 15.67588 21.82239 18.74913
#
# Velocity S-wave (km/s) = 2.90635 3.42912 3.17850
# Velocity P-wave (km/s) = 3.75826 4.76977 4.29390
#
# Compressibility (1/GPa) = 0.18827438
#
# Stress axis : x y z
#
# Youngs Moduli (GPa) = 97.89394 14.58569 19.16901
#
# Poissons Ratio (x) = -0.01751 -0.00908
# Poissons Ratio (y) = -0.11750 -0.51740
# Poissons Ratio (z) = -0.04638 -0.39369
#
# Static dielectric constant tensor:
#      x y z
#    x 1.669980 0.000000 0.000000 
#    y 0.000000 1.620300 0.000000 
#    z 0.000000 0.000000 1.682780 
# 
# From -- ./inp_files/7800.got.cif
#   From: 2010.05.17/outbox.cif.g08.bks.cpg/sg55_4_cif.got.tgz:7800.got - 2010.06.03 13:27:54.
