data_PCOD9425018
_publ_section_title
;
Structure prediction by ZEFSAII (Michael W. Deem and Ramdas Pophale) SiO2 
 PCOD9425018
Probable space group: P B A M
;
_chemical_formula_sum "Si O2"
_cell_formula_units_Z 56
_cell_length_a 13.931341
_cell_length_b 15.137391
_cell_length_c 14.107681
_cell_angle_alpha 90.000000
_cell_angle_beta 90.000000
_cell_angle_gamma 90.000000
_cell_volume 2975.086399
_symmetry_space_group_name_H-M "P B A M"
_symmetry_group_IT_number 55
_symmetry_cell_setting 'orthorhombic'
loop_
_space_group_symop_operation_xyz
x,y,z
-x,-y,z
1/2+x,1/2-y,-z
1/2-x,1/2+y,-z
-x,-y,-z
x,y,-z
1/2-x,1/2+y,z
1/2+x,1/2-y,z
loop_
_atom_site_type_symbol
_atom_site_label
_atom_site_fract_x
_atom_site_fract_y
_atom_site_fract_z
Si Si1 0.131602 0.759485 0.214727
Si Si2 0.757887 0.944664 0.387553
Si Si3 0.908366 0.688510 0.604777
Si Si4 0.337542 0.694892 0.239391
Si Si5 0.683115 0.636352 0.604859
Si Si6 0.942098 0.420657 0.707560
Si Si7 0.491517 0.603967 0.113330
O O1 0.245844 0.745672 0.195618
O O2 0.132181 0.802997 0.319274
O O3 0.088202 0.660764 0.224444
O O4 0.076191 0.829978 0.149494
O O5 0.752305 0.925717 0.500000
O O6 0.799009 0.866082 0.324838
O O7 0.653025 0.957508 0.342774
O O8 0.821804 0.032279 0.374708
O O9 0.924004 0.728917 0.500000
O O10 0.910573 0.744633 0.701400
O O11 0.797721 0.655580 0.604310
O O12 0.988322 0.615457 0.624737
O O13 0.395124 0.640831 0.161681
O O14 0.646039 0.654792 0.500000
O O15 0.000000 0.500000 0.756761
O O16 0.500000 0.500000 0.140065
O O17 0.487264 0.608584 0.000000
#
# Coordination Sequence:
#
# PCOD9425018 Si02
#       7
#     8   8   8   8   8   8   8
#     4  10  22  39  60  88 119 156 196 248 292 354
#     4  10  19  31  51  81 119 159 197 239 279 335
#     4  10  18  30  50  78 116 156 191 227 268 326
#     4  10  21  38  59  84 116 155 192 240 292 349
#     4   9  18  32  50  78 118 158 194 232 278 333
#     4  11  20  32  54  84 119 162 203 236 278 336
#     4  11  24  44  68  91 113 145 195 251 312 373
#
# _framework density 18.822983000000001
#
# number of rings (size 3 to 8) (size 9 to 14) (size 15 to 20)
#    0.000    1.857    2.857    1.714    0.000    5.143 
#    0.000    0.000    0.000    3.429    0.000    0.000 
#    0.000    0.000    0.000    0.000    0.000    0.000 
#
# Total GULP energy -312105.831044 kJ/mol
# GULP energy per Si atom -5573.318412 kJ/mol
# Density = 1.878014 g / cm^3
# Si number density = 18.822983 Si / 1000 Ang^3
#
#
#
# Elastic Constant Matrix: (Units=GPa)
#
#
# Indices 1 2 3 4 5 6 
#
# 1 63.9555 37.4586 13.1203 0.0000 0.0000 0.0000
# 2 37.4586 94.7469 42.0437 0.0000 0.0000 0.0000
# 3 13.1203 42.0437 49.9101 0.0000 0.0000 0.0000
# 4 0.0000 0.0000 0.0000 19.4776 0.0000 0.0000
# 5 0.0000 0.0000 0.0000 0.0000 17.4391 0.0000
# 6 0.0000 0.0000 0.0000 0.0000 0.0000 30.3172
#
#
#
# Elastic Compliance Matrix: (Units=1/GPa)
#
#
# Indices 1 2 3 4 5 6 
#
# 1 0.020511 -0.009129 0.002298 0.000000 0.000000 0.000000
# 2 -0.009129 0.020918 -0.015221 0.000000 0.000000 0.000000
# 3 0.002298 -0.015221 0.032254 0.000000 0.000000 0.000000
# 4 0.000000 0.000000 0.000000 0.051341 0.000000 0.000000
# 5 0.000000 0.000000 0.000000 0.000000 0.057342 0.000000
# 6 0.000000 0.000000 0.000000 0.000000 0.000000 0.032985
#
#
# Mechanical properties :
#
#
# Convention : Reuss Voigt Hill
#
# Bulk Modulus (GPa) = 33.80757 43.76198 38.78477
# Shear Modulus (GPa) = 18.56559 21.17944 19.87251
#
# Velocity S-wave (km/s) = 3.14399 3.35802 3.25277
# Velocity P-wave (km/s) = 5.58385 6.19151 5.89551
#
# Compressibility (1/GPa) = 0.02957918
#
# Stress axis : x y z
#
# Youngs Moduli (GPa) = 48.75374 47.80556 31.00377
#
# Poissons Ratio (x) = 0.43642 -0.07125
# Poissons Ratio (y) = 0.44507 0.47192
# Poissons Ratio (z) = -0.11205 0.72766
#
# Static dielectric constant tensor:
#      x y z
#    x 1.690710 0.000000 0.000000 
#    y 0.000000 1.725630 0.000000 
#    z 0.000000 0.000000 1.605440 
# 
# From -- ./inp_files/14229.got.cif
#   From: 2010.05.17/outbox.cif.g08.bks.cpg/sg55_8_cif.got.tgz:14229.got - 2010.06.03 13:27:54.
