data_PCOD9425214
_publ_section_title
;
Structure prediction by ZEFSAII (Michael W. Deem and Ramdas Pophale) SiO2 
 PCOD9425214
Probable space group: P B A M
;
_chemical_formula_sum "Si O2"
_cell_formula_units_Z 64
_cell_length_a 18.843643
_cell_length_b 13.402281
_cell_length_c 14.102095
_cell_angle_alpha 90.000000
_cell_angle_beta 90.000000
_cell_angle_gamma 90.000000
_cell_volume 3561.453047
_symmetry_space_group_name_H-M "P B A M"
_symmetry_group_IT_number 55
_symmetry_cell_setting 'orthorhombic'
loop_
_space_group_symop_operation_xyz
x,y,z
-x,-y,z
1/2+x,1/2-y,-z
1/2-x,1/2+y,-z
-x,-y,-z
x,y,-z
1/2-x,1/2+y,z
1/2+x,1/2-y,z
loop_
_atom_site_type_symbol
_atom_site_label
_atom_site_fract_x
_atom_site_fract_y
_atom_site_fract_z
Si Si1 0.068783 0.271846 0.393155
Si Si2 0.495959 0.381958 0.887514
Si Si3 0.635309 0.288845 0.202255
Si Si4 0.852053 0.520846 0.606836
Si Si5 0.645774 0.703962 0.798443
Si Si6 0.401393 0.205645 0.608509
Si Si7 0.728587 0.878898 0.109699
Si Si8 0.213235 0.417913 0.800466
O O1 0.084406 0.236233 0.500000
O O2 0.111617 0.213546 0.312294
O O3 0.092155 0.388001 0.388910
O O4 0.984412 0.269314 0.377821
O O5 0.500000 0.500000 0.866306
O O6 0.567870 0.326892 0.856094
O O7 0.429328 0.336180 0.832721
O O8 0.485508 0.370786 0.000000
O O9 0.702866 0.356167 0.175243
O O10 0.660940 0.175521 0.181123
O O11 0.820850 0.522603 0.500000
O O12 0.888161 0.413017 0.619745
O O13 0.799575 0.542697 0.693543
O O14 0.642032 0.737589 0.689016
O O15 0.669381 0.799624 0.859519
O O16 0.707478 0.623260 0.811602
O O17 0.381986 0.231410 0.500000
O O18 0.702115 0.989930 0.129991
O O19 0.748159 0.865298 0.000000
#
# Coordination Sequence:
#
# PCOD9425214 Si02
#       8
#     8   8   8   8   8   8   8   8
#     4   9  17  32  57  88 119 151 184 231 287 344
#     4  11  23  40  62  86 112 149 196 244 287 340
#     4  10  21  38  61  86 114 152 195 241 284 350
#     4   9  17  32  55  85 115 150 194 229 277 345
#     4  11  22  38  58  87 118 151 191 241 294 348
#     4  10  18  32  58  86 118 152 186 231 288 350
#     4  11  23  40  59  82 115 154 198 242 294 344
#     4  10  22  37  58  83 115 153 191 242 297 341
#
# _framework density 17.970193999999999
#
# number of rings (size 3 to 8) (size 9 to 14) (size 15 to 20)
#    0.000    1.875    2.500    1.875    0.000    6.000 
#    0.000    3.125    0.000    4.500    0.000    0.000 
#    0.000    0.000    0.000    0.000    0.000    0.000 
#
# Total GULP energy -357080.430846 kJ/mol
# GULP energy per Si atom -5579.381732 kJ/mol
# Density = 1.792929 g / cm^3
# Si number density = 17.970194 Si / 1000 Ang^3
#
#
#
# Elastic Constant Matrix: (Units=GPa)
#
#
# Indices 1 2 3 4 5 6 
#
# 1 60.3018 29.5019 11.4974 0.0000 0.0000 0.0000
# 2 29.5019 64.5617 44.1485 0.0000 0.0000 0.0000
# 3 11.4974 44.1485 66.9583 0.0000 0.0000 0.0000
# 4 0.0000 0.0000 0.0000 24.0026 0.0000 0.0000
# 5 0.0000 0.0000 0.0000 0.0000 25.4298 0.0000
# 6 0.0000 0.0000 0.0000 0.0000 0.0000 7.6650
#
#
#
# Elastic Compliance Matrix: (Units=1/GPa)
#
#
# Indices 1 2 3 4 5 6 
#
# 1 0.022335 -0.013810 0.005270 0.000000 0.000000 0.000000
# 2 -0.013810 0.036746 -0.021857 0.000000 0.000000 0.000000
# 3 0.005270 -0.021857 0.028441 0.000000 0.000000 0.000000
# 4 0.000000 0.000000 0.000000 0.041662 0.000000 0.000000
# 5 0.000000 0.000000 0.000000 0.000000 0.039324 0.000000
# 6 0.000000 0.000000 0.000000 0.000000 0.000000 0.130463
#
#
# Mechanical properties :
#
#
# Convention : Reuss Voigt Hill
#
# Bulk Modulus (GPa) = 37.41305 40.23524 38.82415
# Shear Modulus (GPa) = 13.56217 18.53107 16.04662
#
# Velocity S-wave (km/s) = 2.75017 3.21473 2.99148
# Velocity P-wave (km/s) = 5.56321 6.01813 5.79514
#
# Compressibility (1/GPa) = 0.02672864
#
# Stress axis : x y z
#
# Youngs Moduli (GPa) = 44.77320 27.21408 35.16085
#
# Poissons Ratio (x) = 0.37583 -0.18532
# Poissons Ratio (y) = 0.61832 0.76850
# Poissons Ratio (z) = -0.23598 0.59481
#
# Static dielectric constant tensor:
#      x y z
#    x 1.583480 0.000000 0.000000 
#    y 0.000000 1.597480 0.000000 
#    z 0.000000 0.000000 1.617580 
# 
# From -- ./inp_files/18562.got.cif
#   From: 2010.05.17/outbox.cif.g08.bks.cpg/sg55_10_cif.got.tgz:18562.got - 2010.06.03 13:27:54.
