data_PCOD9425425
_publ_section_title
;
Structure prediction by ZEFSAII (Michael W. Deem and Ramdas Pophale) SiO2 
 PCOD9425425
Probable space group: P B A M
;
_chemical_formula_sum "Si O2"
_cell_formula_units_Z 48
_cell_length_a 19.167028
_cell_length_b 16.433058
_cell_length_c 8.574640
_cell_angle_alpha 90.000000
_cell_angle_beta 90.000000
_cell_angle_gamma 90.000000
_cell_volume 2700.779080
_symmetry_space_group_name_H-M "P B A M"
_symmetry_group_IT_number 55
_symmetry_cell_setting 'orthorhombic'
loop_
_space_group_symop_operation_xyz
x,y,z
-x,-y,z
1/2+x,1/2-y,-z
1/2-x,1/2+y,-z
-x,-y,-z
x,y,-z
1/2-x,1/2+y,z
1/2+x,1/2-y,z
loop_
_atom_site_type_symbol
_atom_site_label
_atom_site_fract_x
_atom_site_fract_y
_atom_site_fract_z
Si Si1 0.201017 0.249148 0.686491
Si Si2 0.544810 0.076224 0.312485
Si Si3 0.045191 0.075968 0.190211
Si Si4 0.456270 0.753203 0.814718
Si Si5 0.292186 0.928569 0.687528
Si Si6 0.792619 0.919639 0.186101
O O1 0.190527 0.248031 0.500000
O O2 0.125574 0.250069 0.769413
O O3 0.234207 0.336919 0.725842
O O4 0.235198 0.164678 0.739509
O O5 0.543882 0.075957 0.500000
O O6 0.516199 0.163583 0.258318
O O7 0.626045 0.068250 0.265630
O O8 0.500000 0.000000 0.254990
O O9 0.016439 0.164785 0.238594
O O10 0.126383 0.069564 0.236896
O O11 0.044360 0.075111 0.000000
O O12 0.000000 0.000000 0.245918
O O13 0.463301 0.758294 0.000000
O O14 0.288849 0.937807 0.500000
O O15 0.250202 0.001390 0.764545
O O16 0.791863 0.910497 0.000000
#
# Coordination Sequence:
#
# PCOD9425425 Si02
#       6
#     8   8   8   8   8   8
#     4   9  17  31  50  68  92 128 164 194 230 283
#     4   9  18  33  51  69  92 125 162 197 237 286
#     4   8  15  29  47  67  93 123 152 184 228 279
#     4   9  16  27  47  72  94 120 157 196 235 281
#     4   9  18  32  50  70  93 125 158 192 238 285
#     4  10  19  30  49  74  96 122 157 199 240 280
#
# _framework density 17.772651
#
# number of rings (size 3 to 8) (size 9 to 14) (size 15 to 20)
#    0.000    3.000    0.000    3.500    0.000    3.667 
#    0.000    1.667    0.000   22.000    0.000    0.000 
#    0.000    0.000    0.000    0.000    0.000    0.000 
#
# Total GULP energy -267206.263048 kJ/mol
# GULP energy per Si atom -5566.797147 kJ/mol
# Density = 1.773220 g / cm^3
# Si number density = 17.772651 Si / 1000 Ang^3
#
#
#
# Elastic Constant Matrix: (Units=GPa)
#
#
# Indices 1 2 3 4 5 6 
#
# 1 35.5620 58.7326 13.9198 0.0000 0.0000 0.0000
# 2 58.7326 206.2297 22.6908 0.0000 0.0000 0.0000
# 3 13.9198 22.6908 10.3994 0.0000 0.0000 0.0000
# 4 0.0000 0.0000 0.0000 32.0468 0.0000 0.0000
# 5 0.0000 0.0000 0.0000 0.0000 11.5435 0.0000
# 6 0.0000 0.0000 0.0000 0.0000 0.0000 32.1859
#
#
#
# Elastic Compliance Matrix: (Units=1/GPa)
#
#
# Indices 1 2 3 4 5 6 
#
# 1 0.084761 -0.015339 -0.079986 0.000000 0.000000 0.000000
# 2 -0.015339 0.009157 0.000552 0.000000 0.000000 0.000000
# 3 -0.079986 0.000552 0.202019 0.000000 0.000000 0.000000
# 4 0.000000 0.000000 0.000000 0.031204 0.000000 0.000000
# 5 0.000000 0.000000 0.000000 0.000000 0.086629 0.000000
# 6 0.000000 0.000000 0.000000 0.000000 0.000000 0.031070
#
#
# Mechanical properties :
#
#
# Convention : Reuss Voigt Hill
#
# Bulk Modulus (GPa) = 9.39934 49.20860 29.30397
# Shear Modulus (GPa) = 7.46437 25.61174 16.53806
#
# Velocity S-wave (km/s) = 2.05159 3.80027 3.05378
# Velocity P-wave (km/s) = 3.30336 6.85595 5.38127
#
# Compressibility (1/GPa) = 0.10639048
#
# Stress axis : x y z
#
# Youngs Moduli (GPa) = 11.79792 109.21179 4.95002
#
# Poissons Ratio (x) = 1.67515 0.39593
# Poissons Ratio (y) = 0.18096 -0.00273
# Poissons Ratio (z) = 0.94367 -0.06028
#
# Static dielectric constant tensor:
#      x y z
#    x 1.596630 0.000000 0.000000 
#    y 0.000000 1.658450 0.000000 
#    z 0.000000 0.000000 1.604460 
# 
# From -- ./inp_files/5810.got.cif
#   From: 2010.05.17/outbox.cif.g08.bks.cpg/sg55_3_cif.got.tgz:5810.got - 2010.06.03 13:27:54.
