data_PCOD9425863
_publ_section_title
;
Structure prediction by ZEFSAII (Michael W. Deem and Ramdas Pophale) SiO2 
 PCOD9425863
Probable space group: P B A M
;
_chemical_formula_sum "Si O2"
_cell_formula_units_Z 64
_cell_length_a 12.998633
_cell_length_b 29.013441
_cell_length_c 8.992983
_cell_angle_alpha 90.000000
_cell_angle_beta 90.000000
_cell_angle_gamma 90.000000
_cell_volume 3391.569288
_symmetry_space_group_name_H-M "P B A M"
_symmetry_group_IT_number 55
_symmetry_cell_setting 'orthorhombic'
loop_
_space_group_symop_operation_xyz
x,y,z
-x,-y,z
1/2+x,1/2-y,-z
1/2-x,1/2+y,-z
-x,-y,-z
x,y,-z
1/2-x,1/2+y,z
1/2+x,1/2-y,z
loop_
_atom_site_type_symbol
_atom_site_label
_atom_site_fract_x
_atom_site_fract_y
_atom_site_fract_z
Si Si1 0.340144 0.418724 0.832813
Si Si2 0.749199 0.406486 0.680080
Si Si3 0.427232 0.333890 0.676889
Si Si4 0.229151 0.286389 0.179312
Si Si5 0.886130 0.625371 0.169533
Si Si6 0.163429 0.190598 0.320221
Si Si7 0.379116 0.508843 0.672174
Si Si8 0.532630 0.948319 0.320509
O O1 0.409421 0.386562 0.728233
O O2 0.227477 0.396556 0.834951
O O3 0.328932 0.469818 0.771655
O O4 0.381997 0.418457 0.000000
O O5 0.753182 0.403723 0.500000
O O6 0.727075 0.354617 0.730429
O O7 0.655348 0.440405 0.718315
O O8 0.853700 0.431872 0.728564
O O9 0.412953 0.330739 0.500000
O O10 0.338099 0.304520 0.757392
O O11 0.542691 0.317884 0.712595
O O12 0.139026 0.322870 0.224355
O O13 0.203393 0.236470 0.242383
O O14 0.233513 0.287002 0.000000
O O15 0.956183 0.591611 0.265184
O O16 0.926144 0.627403 0.000000
O O17 0.173054 0.194949 0.500000
O O18 0.500000 0.500000 0.681005
O O19 0.346841 0.502522 0.500000
O O20 0.531583 0.949437 0.500000
O O21 0.500000 0.000000 0.269590
#
# Coordination Sequence:
#
# PCOD9425863 Si02
#       8
#     8   8   8   8   8   8   8   8
#     4  10  20  34  53  79 110 141 177 224 275 326
#     4   9  19  35  53  79 113 142 180 233 280 331
#     4  10  20  36  59  83 108 143 187 231 279 336
#     4  10  22  39  58  83 114 146 185 237 293 346
#     4   9  20  37  54  75 105 141 181 224 270 325
#     4  10  21  38  59  82 110 146 188 235 285 336
#     4  10  19  33  55  79 105 141 181 221 269 325
#     4  10  20  34  55  82 112 148 186 227 278 333
#
# _framework density 18.870321000000001
#
# number of rings (size 3 to 8) (size 9 to 14) (size 15 to 20)
#    0.000    2.250    0.000    3.375    0.000    8.500 
#    0.000    5.625    0.000    0.000    0.000    0.000 
#    0.000    0.000    0.000    0.000    0.000    0.000 
#
# Total GULP energy -357007.891176 kJ/mol
# GULP energy per Si atom -5578.248300 kJ/mol
# Density = 1.882737 g / cm^3
# Si number density = 18.870321 Si / 1000 Ang^3
#
#
#
# Elastic Constant Matrix: (Units=GPa)
#
#
# Indices 1 2 3 4 5 6 
#
# 1 79.9879 58.6769 28.8069 0.0000 0.0000 0.0000
# 2 58.6769 173.6942 35.2761 0.0000 0.0000 0.0000
# 3 28.8069 35.2761 30.6425 0.0000 0.0000 0.0000
# 4 0.0000 0.0000 0.0000 4.8083 0.0000 0.0000
# 5 0.0000 0.0000 0.0000 0.0000 -0.0749 0.0000
# 6 0.0000 0.0000 0.0000 0.0000 0.0000 28.9232
#
#
#
# Elastic Compliance Matrix: (Units=1/GPa)
#
#
# Indices 1 2 3 4 5 6 
#
# 1 0.020827 -0.003993 -0.014983 0.000000 0.000000 0.000000
# 2 -0.003993 0.008280 -0.005778 0.000000 0.000000 0.000000
# 3 -0.014983 -0.005778 0.053371 0.000000 0.000000 0.000000
# 4 0.000000 0.000000 0.000000 0.207972 0.000000 0.000000
# 5 0.000000 0.000000 0.000000 0.000000-13.349457 0.000000
# 6 0.000000 0.000000 0.000000 0.000000 0.000000 0.034574
#
#
# Mechanical properties :
#
#
# Convention : Reuss Voigt Hill
#
# Bulk Modulus (GPa) = 30.32986 58.87160 44.60073
# Shear Modulus (GPa) = -0.38569 17.50231 8.55831
#
# Velocity S-wave (km/s) = -0.45258 3.04880 2.13194
# Velocity P-wave (km/s) = 3.97927 6.60752 5.45407
#
# Compressibility (1/GPa) = 0.03297081
#
# Stress axis : x y z
#
# Youngs Moduli (GPa) = 48.01524 120.77998 18.73670
#
# Poissons Ratio (x) = 0.48224 0.28073
# Poissons Ratio (y) = 0.19171 0.10826
# Poissons Ratio (z) = 0.71940 0.69786
#
# Static dielectric constant tensor:
#      x y z
#    x 1.659650 0.000000 0.000000 
#    y 0.000000 1.661740 0.000000 
#    z 0.000000 0.000000 1.642550 
# 
# From -- ./inp_files/4561.got.cif
#   From: 2010.05.17/outbox.cif.g08.bks.cpg/sg55_3_cif.got.tgz:4561.got - 2010.06.03 13:27:54.
