data_PCOD9425840
_publ_section_title
;
Structure prediction by ZEFSAII (Michael W. Deem and Ramdas Pophale) SiO2 
 PCOD9425840
Probable space group: P B A M
;
_chemical_formula_sum "Si O2"
_cell_formula_units_Z 52
_cell_length_a 26.028827
_cell_length_b 8.255722
_cell_length_c 12.368181
_cell_angle_alpha 90.000000
_cell_angle_beta 90.000000
_cell_angle_gamma 90.000000
_cell_volume 2657.758338
_symmetry_space_group_name_H-M "P B A M"
_symmetry_group_IT_number 55
_symmetry_cell_setting 'orthorhombic'
loop_
_space_group_symop_operation_xyz
x,y,z
-x,-y,z
1/2+x,1/2-y,-z
1/2-x,1/2+y,-z
-x,-y,-z
x,y,-z
1/2-x,1/2+y,z
1/2+x,1/2-y,z
loop_
_atom_site_type_symbol
_atom_site_label
_atom_site_fract_x
_atom_site_fract_y
_atom_site_fract_z
Si Si1 0.432143 0.836515 0.119111
Si Si2 0.511293 0.833639 0.323057
Si Si3 0.000000 0.000000 0.320509
Si Si4 0.119070 0.650032 0.209834
Si Si5 0.815911 0.873622 0.376592
Si Si6 0.698971 0.987580 0.624701
Si Si7 0.106429 0.004707 0.804224
O O1 0.475429 0.835385 0.213567
O O2 0.399744 0.669239 0.126904
O O3 0.396212 0.993759 0.138356
O O4 0.456031 0.844935 0.000000
O O5 0.496573 0.668654 0.380744
O O6 0.570621 0.836237 0.290960
O O7 0.500000 0.000000 0.380999
O O8 0.049539 0.984309 0.244661
O O9 0.167652 0.609545 0.284788
O O10 0.122113 0.826340 0.152524
O O11 0.833052 0.903582 0.500000
O O12 0.811826 0.679267 0.361673
O O13 0.854666 0.951143 0.291971
O O14 0.759274 0.949448 0.364403
O O15 0.684648 0.943844 0.500000
#
# Coordination Sequence:
#
# PCOD9425840 Si02
#       7
#     8   8   4   8   8   8   8
#     4  10  20  35  55  81 113 147 192 239 274 323
#     4   8  16  29  48  73 105 140 178 223 269 316
#     4   8  16  30  48  74 106 142 184 218 264 330
#     4  10  19  33  54  81 112 147 182 226 280 336
#     4  10  20  35  58  86 114 142 183 231 280 339
#     4  10  20  35  57  88 114 141 183 232 281 339
#     4  10  19  35  55  81 113 151 185 229 286 326
#
# _framework density 19.565360999999999
#
# number of rings (size 3 to 8) (size 9 to 14) (size 15 to 20)
#    0.000    2.462    1.538    0.923    0.000    5.231 
#    0.000   13.462    0.000   10.615    0.000    0.000 
#    0.000    0.000    0.000    0.000    0.000    0.000 
#
# Total GULP energy -289634.351386 kJ/mol
# GULP energy per Si atom -5569.891373 kJ/mol
# Density = 1.952083 g / cm^3
# Si number density = 19.565361 Si / 1000 Ang^3
#
#
#
# Elastic Constant Matrix: (Units=GPa)
#
#
# Indices 1 2 3 4 5 6 
#
# 1 61.8724 15.6077 29.0933 0.0000 0.0000 0.0000
# 2 15.6077 161.8372 22.6967 0.0000 0.0000 0.0000
# 3 29.0933 22.6967 78.8655 0.0000 0.0000 0.0000
# 4 0.0000 0.0000 0.0000 0.0436 0.0000 0.0000
# 5 0.0000 0.0000 0.0000 0.0000 50.2606 0.0000
# 6 0.0000 0.0000 0.0000 0.0000 0.0000 32.3044
#
#
#
# Elastic Compliance Matrix: (Units=1/GPa)
#
#
# Indices 1 2 3 4 5 6 
#
# 1 0.019684 -0.000917 -0.006997 0.000000 0.000000 0.000000
# 2 -0.000917 0.006482 -0.001527 0.000000 0.000000 0.000000
# 3 -0.006997 -0.001527 0.015701 0.000000 0.000000 0.000000
# 4 0.000000 0.000000 0.000000 22.939932 0.000000 0.000000
# 5 0.000000 0.000000 0.000000 0.000000 0.019896 0.000000
# 6 0.000000 0.000000 0.000000 0.000000 0.000000 0.030956
#
#
# Mechanical properties :
#
#
# Convention : Reuss Voigt Hill
#
# Bulk Modulus (GPa) = 43.51009 48.59672 46.05340
# Shear Modulus (GPa) = 0.21683 32.20021 16.20852
#
# Velocity S-wave (km/s) = 0.33327 4.06122 2.88137
# Velocity P-wave (km/s) = 4.73653 6.84714 5.88719
#
# Compressibility (1/GPa) = 0.02298318
#
# Stress axis : x y z
#
# Youngs Moduli (GPa) = 50.80290 154.28177 63.69172
#
# Poissons Ratio (x) = 0.14147 0.44568
# Poissons Ratio (y) = 0.04659 0.09726
# Poissons Ratio (z) = 0.35549 0.23560
#
# Static dielectric constant tensor:
#      x y z
#    x 1.641760 0.000000 0.000000 
#    y 0.000000 1.798720 0.000000 
#    z 0.000000 0.000000 1.643630 
# 
# From -- ./inp_files/15968.got.cif
#   From: 2010.05.17/outbox.cif.g08.bks.cpg/sg55_8_cif.got.tgz:15968.got - 2010.06.03 13:27:54.
