data_PCOD9425917
_publ_section_title
;
Structure prediction by ZEFSAII (Michael W. Deem and Ramdas Pophale) SiO2 
 PCOD9425917
Probable space group: P B A M
;
_chemical_formula_sum "Si O2"
_cell_formula_units_Z 64
_cell_length_a 20.369514
_cell_length_b 18.997688
_cell_length_c 7.359128
_cell_angle_alpha 90.000000
_cell_angle_beta 90.000000
_cell_angle_gamma 90.000000
_cell_volume 2847.788783
_symmetry_space_group_name_H-M "P B A M"
_symmetry_group_IT_number 55
_symmetry_cell_setting 'orthorhombic'
loop_
_space_group_symop_operation_xyz
x,y,z
-x,-y,z
1/2+x,1/2-y,-z
1/2-x,1/2+y,-z
-x,-y,-z
x,y,-z
1/2-x,1/2+y,z
1/2+x,1/2-y,z
loop_
_atom_site_type_symbol
_atom_site_label
_atom_site_fract_x
_atom_site_fract_y
_atom_site_fract_z
Si Si1 0.458003 0.064608 0.708661
Si Si2 0.618989 0.254378 0.222598
Si Si3 0.133531 0.830293 0.221514
Si Si4 0.525741 0.774519 0.209105
Si Si5 0.779685 0.636085 0.221631
Si Si6 0.309651 0.023460 0.779896
Si Si7 0.321712 0.597019 0.221503
Si Si8 0.572988 0.520374 0.778754
O O1 0.479239 0.071770 0.500000
O O2 0.468891 0.141481 0.789873
O O3 0.381537 0.045373 0.717614
O O4 0.500000 0.000000 0.788923
O O5 0.544193 0.248560 0.287699
O O6 0.662109 0.187599 0.279001
O O7 0.653538 0.326647 0.278895
O O8 0.618082 0.253753 0.000000
O O9 0.090172 0.764159 0.284354
O O10 0.208793 0.835596 0.282178
O O11 0.095886 0.901820 0.274312
O O12 0.137360 0.828890 0.000000
O O13 0.523118 0.750748 0.000000
O O14 0.791768 0.555789 0.277885
O O15 0.779209 0.635519 0.000000
O O16 0.251289 0.075292 0.721247
O O17 0.311093 0.024157 0.000000
O O18 0.373367 0.537125 0.278077
O O19 0.321502 0.596948 0.000000
O O20 0.500000 0.500000 0.718642
O O21 0.572392 0.519800 0.000000
#
# Coordination Sequence:
#
# PCOD9425917 Si02
#       8
#     8   8   8   8   8   8   8   8
#     4  11  25  42  58  76 104 142 182 230 285 330
#     4   9  17  27  43  71 108 141 173 218 267 312
#     4   9  16  26  42  72 108 139 169 208 260 310
#     4  10  20  34  55  83 109 138 179 223 267 321
#     4   9  16  27  44  70 107 141 170 213 266 312
#     4  10  19  33  56  83 108 140 182 224 266 320
#     4   9  16  26  43  76 113 144 176 214 264 316
#     4   9  14  22  38  64 107 148 171 201 253 315
#
# _framework density 22.473575
#
# number of rings (size 3 to 8) (size 9 to 14) (size 15 to 20)
#    0.000    2.500    1.250    1.875    1.750    5.000 
#    0.000    0.000    0.000    1.500    0.000    0.000 
#    0.000    2.000    0.000    0.000    0.000    0.000 
#
# Total GULP energy -357711.257116 kJ/mol
# GULP energy per Si atom -5589.238392 kJ/mol
# Density = 2.242242 g / cm^3
# Si number density = 22.473575 Si / 1000 Ang^3
#
#
#
# Elastic Constant Matrix: (Units=GPa)
#
#
# Indices 1 2 3 4 5 6 
#
# 1 135.5999 48.2682 -8.6706 0.0000 0.0000 0.0000
# 2 48.2682 118.0589 -7.9572 0.0000 0.0000 0.0000
# 3 -8.6706 -7.9572 78.7001 0.0000 0.0000 0.0000
# 4 0.0000 0.0000 0.0000 -16.7821 0.0000 0.0000
# 5 0.0000 0.0000 0.0000 0.0000 -12.0555 0.0000
# 6 0.0000 0.0000 0.0000 0.0000 0.0000 47.3674
#
#
#
# Elastic Compliance Matrix: (Units=1/GPa)
#
#
# Indices 1 2 3 4 5 6 
#
# 1 0.008659 -0.003500 0.000600 0.000000 0.000000 0.000000
# 2 -0.003500 0.009943 0.000620 0.000000 0.000000 0.000000
# 3 0.000600 0.000620 0.012835 0.000000 0.000000 0.000000
# 4 0.000000 0.000000 0.000000 -0.059587 0.000000 0.000000
# 5 0.000000 0.000000 0.000000 0.000000 -0.082950 0.000000
# 6 0.000000 0.000000 0.000000 0.000000 0.000000 0.021112
#
#
# Mechanical properties :
#
#
# Convention : Reuss Voigt Hill
#
# Bulk Modulus (GPa) = 37.20609 43.95996 40.58303
# Shear Modulus (GPa) = -65.38523 23.75385 -20.81569
#
# Velocity S-wave (km/s) = -5.39976 3.25463 -3.04670
# Velocity P-wave (km/s) = 4.72072 5.80747 2.39181
#
# Compressibility (1/GPa) = 0.02687732
#
# Stress axis : x y z
#
# Youngs Moduli (GPa) = 115.49008 100.57372 77.91050
#
# Poissons Ratio (x) = 0.35197 -0.04676
# Poissons Ratio (y) = 0.40418 -0.04828
# Poissons Ratio (z) = -0.06931 -0.06233
#
# Static dielectric constant tensor:
#      x y z
#    x 1.788960 0.000000 0.000000 
#    y 0.000000 1.768820 0.000000 
#    z 0.000000 0.000000 1.883780 
# 
# From -- ./inp_files/8970.got.cif
#   From: 2010.05.17/outbox.cif.g08.bks.cpg/sg55_5_cif.got.tgz:8970.got - 2010.06.03 13:27:54.
