data_PCOD9425881
_publ_section_title
;
Structure prediction by ZEFSAII (Michael W. Deem and Ramdas Pophale) SiO2 
 PCOD9425881
Probable space group: P B A M
;
_chemical_formula_sum "Si O2"
_cell_formula_units_Z 40
_cell_length_a 20.109726
_cell_length_b 8.131631
_cell_length_c 13.440668
_cell_angle_alpha 90.000000
_cell_angle_beta 90.000000
_cell_angle_gamma 90.000000
_cell_volume 2197.883505
_symmetry_space_group_name_H-M "P B A M"
_symmetry_group_IT_number 55
_symmetry_cell_setting 'orthorhombic'
loop_
_space_group_symop_operation_xyz
x,y,z
-x,-y,z
1/2+x,1/2-y,-z
1/2-x,1/2+y,-z
-x,-y,-z
x,y,-z
1/2-x,1/2+y,z
1/2+x,1/2-y,z
loop_
_atom_site_type_symbol
_atom_site_label
_atom_site_fract_x
_atom_site_fract_y
_atom_site_fract_z
Si Si1 0.148322 0.161948 0.500000
Si Si2 0.648434 0.367783 0.109898
Si Si3 0.578262 0.476057 0.692709
Si Si4 0.724204 0.058886 0.818014
Si Si5 0.680296 0.767554 0.695195
Si Si6 0.710881 0.974614 0.500000
O O1 0.208893 0.030497 0.500000
O O2 0.179958 0.343790 0.500000
O O3 0.106342 0.128699 0.400212
O O4 0.599284 0.395874 0.202135
O O5 0.710644 0.492395 0.125463
O O6 0.681128 0.188430 0.122091
O O7 0.619717 0.389669 0.000000
O O8 0.500000 0.500000 0.684442
O O9 0.617153 0.649930 0.690827
O O10 0.755571 0.153886 0.721943
O O11 0.681758 0.903215 0.782509
O O12 0.688922 0.869789 0.595415
#
# Coordination Sequence:
#
# PCOD9425881 Si02
#       6
#     4   8   8   8   8   4
#     4  12  23  37  59  84 111 139 176 226 281 328
#     4  10  19  34  58  84 111 141 177 227 278 325
#     4  11  24  40  55  75 111 155 192 220 258 322
#     4   9  18  33  54  85 112 135 172 227 287 329
#     4  10  19  33  55  81 112 142 176 223 276 327
#     4  12  20  33  60  90 110 133 175 230 287 330
#
# _framework density 18.199327
#
# number of rings (size 3 to 8) (size 9 to 14) (size 15 to 20)
#    0.000    1.600    0.000    8.700    0.000    0.400 
#    0.000    6.000    0.000    1.200    0.000    0.000 
#    0.000    0.000    0.000    0.000    0.000    0.000 
#
# Total GULP energy -223405.564896 kJ/mol
# GULP energy per Si atom -5585.139122 kJ/mol
# Density = 1.815790 g / cm^3
# Si number density = 18.199327 Si / 1000 Ang^3
#
#
#
# Elastic Constant Matrix: (Units=GPa)
#
#
# Indices 1 2 3 4 5 6 
#
# 1 93.0022 33.7250 46.3483 0.0000 0.0000 0.0000
# 2 33.7250 106.2679 37.6571 0.0000 0.0000 0.0000
# 3 46.3483 37.6571 139.6401 0.0000 0.0000 0.0000
# 4 0.0000 0.0000 0.0000 5.0084 0.0000 0.0000
# 5 0.0000 0.0000 0.0000 0.0000 6.3840 0.0000
# 6 0.0000 0.0000 0.0000 0.0000 0.0000 14.6443
#
#
#
# Elastic Compliance Matrix: (Units=1/GPa)
#
#
# Indices 1 2 3 4 5 6 
#
# 1 0.013712 -0.003028 -0.003734 0.000000 0.000000 0.000000
# 2 -0.003028 0.011073 -0.001981 0.000000 0.000000 0.000000
# 3 -0.003734 -0.001981 0.008935 0.000000 0.000000 0.000000
# 4 0.000000 0.000000 0.000000 0.199663 0.000000 0.000000
# 5 0.000000 0.000000 0.000000 0.000000 0.156641 0.000000
# 6 0.000000 0.000000 0.000000 0.000000 0.000000 0.068286
#
#
# Mechanical properties :
#
#
# Convention : Reuss Voigt Hill
#
# Bulk Modulus (GPa) = 61.60478 63.81901 62.71189
# Shear Modulus (GPa) = 10.39053 19.95269 15.17161
#
# Velocity S-wave (km/s) = 2.39200 3.31470 2.89041
# Velocity P-wave (km/s) = 6.44612 7.05638 6.75814
#
# Compressibility (1/GPa) = 0.01623251
#
# Stress axis : x y z
#
# Youngs Moduli (GPa) = 72.93092 90.30823 111.91924
#
# Poissons Ratio (x) = 0.27347 0.41796
# Poissons Ratio (y) = 0.22085 0.22172
# Poissons Ratio (z) = 0.27236 0.17891
#
# Static dielectric constant tensor:
#      x y z
#    x 1.579670 0.000000 0.000000 
#    y 0.000000 1.643240 0.000000 
#    z 0.000000 0.000000 1.686410 
# 
# From -- ./inp_files/15221.got.cif
#   From: 2010.05.17/outbox.cif.g08.bks.cpg/sg55_8_cif.got.tgz:15221.got - 2010.06.03 13:27:54.
