data_PCOD9425615
_publ_section_title
;
Structure prediction by ZEFSAII (Michael W. Deem and Ramdas Pophale) SiO2 
 PCOD9425615
Probable space group: P B A M
;
_chemical_formula_sum "Si O2"
_cell_formula_units_Z 64
_cell_length_a 14.998464
_cell_length_b 24.821071
_cell_length_c 8.811903
_cell_angle_alpha 90.000000
_cell_angle_beta 90.000000
_cell_angle_gamma 90.000000
_cell_volume 3280.477095
_symmetry_space_group_name_H-M "P B A M"
_symmetry_group_IT_number 55
_symmetry_cell_setting 'orthorhombic'
loop_
_space_group_symop_operation_xyz
x,y,z
-x,-y,z
1/2+x,1/2-y,-z
1/2-x,1/2+y,-z
-x,-y,-z
x,y,-z
1/2-x,1/2+y,z
1/2+x,1/2-y,z
loop_
_atom_site_type_symbol
_atom_site_label
_atom_site_fract_x
_atom_site_fract_y
_atom_site_fract_z
Si Si1 0.953799 0.444745 0.184998
Si Si2 0.437966 0.371041 0.181642
Si Si3 0.759966 0.475872 0.179831
Si Si4 0.821392 0.703792 0.324077
Si Si5 0.000484 0.327572 0.817292
Si Si6 0.240107 0.915233 0.676625
Si Si7 0.432524 0.549054 0.681756
Si Si8 0.143977 0.755505 0.818243
O O1 0.848972 0.443882 0.225324
O O2 0.000000 0.500000 0.238793
O O3 0.999671 0.389436 0.236849
O O4 0.957665 0.445695 0.000000
O O5 0.359153 0.404379 0.262431
O O6 0.528393 0.396481 0.244678
O O7 0.415313 0.308800 0.217043
O O8 0.433247 0.377761 0.000000
O O9 0.780802 0.537890 0.221830
O O10 0.667793 0.461560 0.262279
O O11 0.746913 0.470278 0.000000
O O12 0.832594 0.716720 0.500000
O O13 0.914866 0.705712 0.239457
O O14 0.789960 0.641462 0.310205
O O15 0.740554 0.737822 0.255109
O O16 0.910813 0.296768 0.769857
O O17 0.002627 0.328174 0.000000
O O18 0.237761 0.931415 0.500000
O O19 0.500000 0.500000 0.726577
O O20 0.434422 0.552639 0.500000
O O21 0.155070 0.754584 0.000000
#
# Coordination Sequence:
#
# PCOD9425615 Si02
#       8
#     8   8   8   8   8   8   8   8
#     4   9  19  36  59  88 117 146 185 237 292 342
#     4  10  19  33  54  79 106 141 191 241 280 330
#     4  11  21  33  54  83 113 149 191 236 282 337
#     4  10  21  36  58  86 115 148 187 235 288 343
#     4  10  20  39  64  87 116 152 192 241 292 345
#     4  10  19  32  51  78 112 148 186 229 279 336
#     4  11  22  35  52  77 115 156 190 231 288 353
#     4   9  20  38  60  86 112 145 192 242 289 339
#
# _framework density 19.509356
#
# number of rings (size 3 to 8) (size 9 to 14) (size 15 to 20)
#    0.000    2.000    1.250    2.625    0.000    4.000 
#    2.250    1.250    0.000    3.375    0.000    0.000 
#    0.000    0.000    0.000    0.000    0.000    0.000 
#
# Total GULP energy -357272.014932 kJ/mol
# GULP energy per Si atom -5582.375233 kJ/mol
# Density = 1.946495 g / cm^3
# Si number density = 19.509356 Si / 1000 Ang^3
#
#
#
# Elastic Constant Matrix: (Units=GPa)
#
#
# Indices 1 2 3 4 5 6 
#
# 1 119.0401 38.8564 27.1239 0.0000 0.0000 0.0000
# 2 38.8564 63.0951 10.8475 0.0000 0.0000 0.0000
# 3 27.1239 10.8475 18.6302 0.0000 0.0000 0.0000
# 4 0.0000 0.0000 0.0000 14.9215 0.0000 0.0000
# 5 0.0000 0.0000 0.0000 0.0000 -25.3057 0.0000
# 6 0.0000 0.0000 0.0000 0.0000 0.0000 28.9059
#
#
#
# Elastic Compliance Matrix: (Units=1/GPa)
#
#
# Indices 1 2 3 4 5 6 
#
# 1 0.014249 -0.005788 -0.017375 0.000000 0.000000 0.000000
# 2 -0.005788 0.019963 -0.003197 0.000000 0.000000 0.000000
# 3 -0.017375 -0.003197 0.080834 0.000000 0.000000 0.000000
# 4 0.000000 0.000000 0.000000 0.067017 0.000000 0.000000
# 5 0.000000 0.000000 0.000000 0.000000 -0.039517 0.000000
# 6 0.000000 0.000000 0.000000 0.000000 0.000000 0.034595
#
#
# Mechanical properties :
#
#
# Convention : Reuss Voigt Hill
#
# Bulk Modulus (GPa) = 16.04460 39.38011 27.71236
# Shear Modulus (GPa) = 19.94928 11.96687 15.95808
#
# Velocity S-wave (km/s) = 3.20120 2.47936 2.86312
# Velocity P-wave (km/s) = 4.68033 5.33154 5.01652
#
# Compressibility (1/GPa) = 0.06232625
#
# Stress axis : x y z
#
# Youngs Moduli (GPa) = 70.18201 50.09253 12.37107
#
# Poissons Ratio (x) = 0.28992 0.21494
# Poissons Ratio (y) = 0.40620 0.03955
# Poissons Ratio (z) = 1.21940 0.16015
#
# Static dielectric constant tensor:
#      x y z
#    x 1.684840 0.000000 0.000000 
#    y 0.000000 1.710120 0.000000 
#    z 0.000000 0.000000 1.649890 
# 
# From -- ./inp_files/6531.got.cif
#   From: 2010.05.17/outbox.cif.g08.bks.cpg/sg55_4_cif.got.tgz:6531.got - 2010.06.03 13:27:54.
