data_PCOD9425600
_publ_section_title
;
Structure prediction by ZEFSAII (Michael W. Deem and Ramdas Pophale) SiO2 
 PCOD9425600
Probable space group: P B A M
;
_chemical_formula_sum "Si O2"
_cell_formula_units_Z 64
_cell_length_a 14.829179
_cell_length_b 31.004557
_cell_length_c 8.619172
_cell_angle_alpha 90.000000
_cell_angle_beta 90.000000
_cell_angle_gamma 90.000000
_cell_volume 3962.855031
_symmetry_space_group_name_H-M "P B A M"
_symmetry_group_IT_number 55
_symmetry_cell_setting 'orthorhombic'
loop_
_space_group_symop_operation_xyz
x,y,z
-x,-y,z
1/2+x,1/2-y,-z
1/2-x,1/2+y,-z
-x,-y,-z
x,y,-z
1/2-x,1/2+y,z
1/2+x,1/2-y,z
loop_
_atom_site_type_symbol
_atom_site_label
_atom_site_fract_x
_atom_site_fract_y
_atom_site_fract_z
Si Si1 0.809834 0.701753 0.186243
Si Si2 0.708982 0.790136 0.188205
Si Si3 0.602688 0.455076 0.682921
Si Si4 0.326035 0.629469 0.817881
Si Si5 0.904695 0.048086 0.817623
Si Si6 0.812838 0.127853 0.318550
Si Si7 0.493471 0.231937 0.186457
Si Si8 0.494869 0.673576 0.320450
O O1 0.760172 0.746238 0.240147
O O2 0.764076 0.659640 0.257380
O O3 0.916226 0.705130 0.219702
O O4 0.798290 0.700019 0.000000
O O5 0.756748 0.834092 0.242028
O O6 0.603287 0.788282 0.226411
O O7 0.717038 0.790269 0.000000
O O8 0.605994 0.462294 0.500000
O O9 0.667497 0.416117 0.732039
O O10 0.622659 0.499703 0.770449
O O11 0.499266 0.443155 0.728764
O O12 0.423500 0.651095 0.791295
O O13 0.310245 0.622086 0.000000
O O14 0.830695 0.083234 0.769958
O O15 0.923129 0.050318 0.000000
O O16 0.799878 0.118886 0.500000
O O17 0.906226 0.154118 0.299320
O O18 0.501988 0.276495 0.277586
O O19 0.493041 0.240765 0.000000
O O20 0.467696 0.666645 0.500000
#
# Coordination Sequence:
#
# PCOD9425600 Si02
#       8
#     8   8   8   8   8   8   8   8
#     4  10  19  32  51  73  96 133 176 211 249 299
#     4   9  18  31  50  74  98 129 171 215 252 288
#     4  11  21  34  50  74 106 135 163 206 254 301
#     4  11  20  33  51  73  99 136 176 209 246 301
#     4  11  21  34  53  75  99 134 171 206 245 302
#     4  11  22  34  48  72 104 137 168 209 255 300
#     4  10  19  34  51  69  99 134 173 216 254 294
#     4  11  21  30  45  70 101 134 169 209 255 298
#
# _framework density 16.149972999999999
#
# number of rings (size 3 to 8) (size 9 to 14) (size 15 to 20)
#    0.000    1.500    3.750    4.125    0.000    1.500 
#    0.000    1.250    0.000    0.000    0.000    0.875 
#    0.000    7.000    0.000    0.000    0.000    0.000 
#
# Total GULP energy -357205.236316 kJ/mol
# GULP energy per Si atom -5581.331817 kJ/mol
# Density = 1.611321 g / cm^3
# Si number density = 16.149973 Si / 1000 Ang^3
#
#
#
# Elastic Constant Matrix: (Units=GPa)
#
#
# Indices 1 2 3 4 5 6 
#
# 1 64.6208 23.5634 7.0186 0.0000 0.0000 0.0000
# 2 23.5634 81.7206 -1.3602 0.0000 0.0000 0.0000
# 3 7.0186 -1.3602 24.1314 0.0000 0.0000 0.0000
# 4 0.0000 0.0000 0.0000 8.3532 0.0000 0.0000
# 5 0.0000 0.0000 0.0000 0.0000 5.8362 0.0000
# 6 0.0000 0.0000 0.0000 0.0000 0.0000 22.9050
#
#
#
# Elastic Compliance Matrix: (Units=1/GPa)
#
#
# Indices 1 2 3 4 5 6 
#
# 1 0.018002 -0.005283 -0.005534 0.000000 0.000000 0.000000
# 2 -0.005283 0.013799 0.002314 0.000000 0.000000 0.000000
# 3 -0.005534 0.002314 0.043180 0.000000 0.000000 0.000000
# 4 0.000000 0.000000 0.000000 0.119714 0.000000 0.000000
# 5 0.000000 0.000000 0.000000 0.000000 0.171345 0.000000
# 6 0.000000 0.000000 0.000000 0.000000 0.000000 0.043659
#
#
# Mechanical properties :
#
#
# Convention : Reuss Voigt Hill
#
# Bulk Modulus (GPa) = 17.24850 25.43514 21.34182
# Shear Modulus (GPa) = 11.21004 16.83562 14.02283
#
# Velocity S-wave (km/s) = 2.63748 3.23221 2.94987
# Velocity P-wave (km/s) = 4.46972 5.45097 4.98455
#
# Compressibility (1/GPa) = 0.05797605
#
# Stress axis : x y z
#
# Youngs Moduli (GPa) = 55.54853 72.47109 23.15899
#
# Poissons Ratio (x) = 0.38286 0.12816
# Poissons Ratio (y) = 0.29346 -0.05360
# Poissons Ratio (z) = 0.30739 -0.16772
#
# Static dielectric constant tensor:
#      x y z
#    x 1.529350 0.000000 0.000000 
#    y 0.000000 1.549170 0.000000 
#    z 0.000000 0.000000 1.550230 
# 
# From -- ./inp_files/6950.got.cif
#   From: 2010.05.17/outbox.cif.g08.bks.cpg/sg55_4_cif.got.tgz:6950.got - 2010.06.03 13:27:54.
