data_PCOD9425239
_publ_section_title
;
Structure prediction by ZEFSAII (Michael W. Deem and Ramdas Pophale) SiO2 
 PCOD9425239
Probable space group: P B A M
;
_chemical_formula_sum "Si O2"
_cell_formula_units_Z 56
_cell_length_a 15.077041
_cell_length_b 22.180318
_cell_length_c 7.617138
_cell_angle_alpha 90.000000
_cell_angle_beta 90.000000
_cell_angle_gamma 90.000000
_cell_volume 2547.274265
_symmetry_space_group_name_H-M "P B A M"
_symmetry_group_IT_number 55
_symmetry_cell_setting 'orthorhombic'
loop_
_space_group_symop_operation_xyz
x,y,z
-x,-y,z
1/2+x,1/2-y,-z
1/2-x,1/2+y,-z
-x,-y,-z
x,y,-z
1/2-x,1/2+y,z
1/2+x,1/2-y,z
loop_
_atom_site_type_symbol
_atom_site_label
_atom_site_fract_x
_atom_site_fract_y
_atom_site_fract_z
Si Si1 0.579665 0.703052 0.700190
Si Si2 0.108000 0.158962 0.284643
Si Si3 0.097871 0.020894 0.712017
Si Si4 0.200029 0.902806 0.198496
Si Si5 0.391295 0.936333 0.288258
Si Si6 0.200394 0.689492 0.284737
Si Si7 0.090330 0.574100 0.285968
O O1 0.560903 0.722525 0.500000
O O2 0.484176 0.687244 0.778934
O O3 0.639304 0.642870 0.693652
O O4 0.639052 0.756050 0.779086
O O5 0.104902 0.158144 0.500000
O O6 0.114597 0.089027 0.229706
O O7 0.197330 0.192679 0.230437
O O8 0.098790 0.020892 0.500000
O O9 0.168386 0.971129 0.769159
O O10 0.000000 0.000000 0.769544
O O11 0.304840 0.900221 0.231251
O O12 0.180756 0.886283 0.000000
O O13 0.390619 0.936695 0.500000
O O14 0.488371 0.913369 0.232896
O O15 0.385498 0.006327 0.229363
O O16 0.201133 0.690592 0.500000
O O17 0.157042 0.626071 0.230242
O O18 0.091715 0.573225 0.500000
#
# Coordination Sequence:
#
# PCOD9425239 Si02
#       7
#     8   8   8   8   8   8   8
#     4  10  20  35  53  75 105 142 183 219 262 316
#     4   9  17  31  53  83 111 135 171 220 272 321
#     4  10  18  33  58  81 105 137 175 223 279 330
#     4  12  24  35  50  77 112 144 180 222 269 320
#     4   9  17  32  57  83 110 139 171 215 272 326
#     4   9  17  29  52  82 109 136 175 227 269 311
#     4   8  15  30  54  86 111 132 171 226 273 313
#
# _framework density 21.984283999999999
#
# number of rings (size 3 to 8) (size 9 to 14) (size 15 to 20)
#    0.000    2.429    1.429    3.000    0.000    3.714 
#    0.000    5.714    0.000    6.857    0.000    0.000 
#    0.000    0.000    0.000    0.000    0.000    0.000 
#
# Total GULP energy -312748.119554 kJ/mol
# GULP energy per Si atom -5584.787849 kJ/mol
# Density = 2.193425 g / cm^3
# Si number density = 21.984284 Si / 1000 Ang^3
#
#
#
# Elastic Constant Matrix: (Units=GPa)
#
#
# Indices 1 2 3 4 5 6 
#
# 1 171.3953 56.1416 0.6690 0.0000 0.0000 0.0000
# 2 56.1416 70.0381 -1.0412 0.0000 0.0000 0.0000
# 3 0.6690 -1.0412 47.8051 0.0000 0.0000 0.0000
# 4 0.0000 0.0000 0.0000 -23.9012 0.0000 0.0000
# 5 0.0000 0.0000 0.0000 0.0000 -114.5598 0.0000
# 6 0.0000 0.0000 0.0000 0.0000 0.0000 25.2240
#
#
#
# Elastic Compliance Matrix: (Units=1/GPa)
#
#
# Indices 1 2 3 4 5 6 
#
# 1 0.007915 -0.006348 -0.000249 0.000000 0.000000 0.000000
# 2 -0.006348 0.019374 0.000511 0.000000 0.000000 0.000000
# 3 -0.000249 0.000511 0.020933 0.000000 0.000000 0.000000
# 4 0.000000 0.000000 0.000000 -0.041839 0.000000 0.000000
# 5 0.000000 0.000000 0.000000 0.000000 -0.008729 0.000000
# 6 0.000000 0.000000 0.000000 0.000000 0.000000 0.039645
#
#
# Mechanical properties :
#
#
# Convention : Reuss Voigt Hill
#
# Bulk Modulus (GPa) = 27.73989 44.53080 36.13535
# Shear Modulus (GPa) = 81.31731 -7.08278 37.11727
#
# Velocity S-wave (km/s) = 6.08844 -1.79687 4.11342
# Velocity P-wave (km/s) = 7.87851 3.99934 6.24763
#
# Compressibility (1/GPa) = 0.03604917
#
# Stress axis : x y z
#
# Youngs Moduli (GPa) = 126.34556 51.61531 47.77170
#
# Poissons Ratio (x) = 0.32766 0.01190
# Poissons Ratio (y) = 0.80205 -0.02440
# Poissons Ratio (z) = 0.03146 -0.02637
#
# Static dielectric constant tensor:
#      x y z
#    x 1.791730 0.000000 0.000000 
#    y 0.000000 1.768770 0.000000 
#    z 0.000000 0.000000 1.832410 
# 
# From -- ./inp_files/6160.got.cif
#   From: 2010.05.17/outbox.cif.g08.bks.cpg/sg55_4_cif.got.tgz:6160.got - 2010.06.03 13:27:54.
