data_PCOD9425549
_publ_section_title
;
Structure prediction by ZEFSAII (Michael W. Deem and Ramdas Pophale) SiO2 
 PCOD9425549
Probable space group: P B A M
;
_chemical_formula_sum "Si O2"
_cell_formula_units_Z 56
_cell_length_a 21.702698
_cell_length_b 14.995728
_cell_length_c 8.523667
_cell_angle_alpha 90.000000
_cell_angle_beta 90.000000
_cell_angle_gamma 90.000000
_cell_volume 2774.008299
_symmetry_space_group_name_H-M "P B A M"
_symmetry_group_IT_number 55
_symmetry_cell_setting 'orthorhombic'
loop_
_space_group_symop_operation_xyz
x,y,z
-x,-y,z
1/2+x,1/2-y,-z
1/2-x,1/2+y,-z
-x,-y,-z
x,y,-z
1/2-x,1/2+y,z
1/2+x,1/2-y,z
loop_
_atom_site_type_symbol
_atom_site_label
_atom_site_fract_x
_atom_site_fract_y
_atom_site_fract_z
Si Si1 0.888405 0.252919 0.315390
Si Si2 0.977778 0.770422 0.685027
Si Si3 0.727023 0.489243 0.815348
Si Si4 0.154105 0.170494 0.313015
Si Si5 0.452560 0.918342 0.817039
Si Si6 0.863788 0.435018 0.182618
Si Si7 0.757374 0.191933 0.813057
O O1 0.881545 0.233647 0.500000
O O2 0.893021 0.359361 0.289082
O O3 0.825831 0.226882 0.227770
O O4 0.952792 0.211150 0.254141
O O5 0.980668 0.790121 0.500000
O O6 0.915474 0.814824 0.750061
O O7 0.966271 0.665463 0.711285
O O8 0.677323 0.428168 0.730442
O O9 0.790833 0.435305 0.802919
O O10 0.740452 0.589064 0.756221
O O11 0.711299 0.495828 0.000000
O O12 0.152459 0.179981 0.500000
O O13 0.203271 0.244545 0.252832
O O14 0.500000 0.000000 0.798873
O O15 0.387827 0.965887 0.783059
O O16 0.454228 0.890031 0.000000
O O17 0.880648 0.416939 0.000000
O O18 0.748700 0.191082 0.000000
#
# Coordination Sequence:
#
# PCOD9425549 Si02
#       7
#     8   8   8   8   8   8   8
#     4  11  22  37  58  85 117 157 198 239 293 350
#     4  10  23  39  55  82 122 160 196 242 297 355
#     4  10  22  39  61  87 117 155 199 249 300 351
#     4  11  23  40  62  90 122 158 199 246 298 356
#     4  10  19  31  52  83 115 151 193 236 288 350
#     4  10  19  34  55  82 116 150 189 240 294 351
#     4  11  23  41  64  90 120 156 200 249 300 355
#
# _framework density 20.187394999999999
#
# number of rings (size 3 to 8) (size 9 to 14) (size 15 to 20)
#    0.000    1.571    2.857    2.143    0.000    4.857 
#    0.000    0.714    0.000    4.286    0.000    0.000 
#    0.000    0.000    0.000    0.000    0.000    0.000 
#
# Total GULP energy -312439.063338 kJ/mol
# GULP energy per Si atom -5579.268988 kJ/mol
# Density = 2.014145 g / cm^3
# Si number density = 20.187395 Si / 1000 Ang^3
#
#
#
# Elastic Constant Matrix: (Units=GPa)
#
#
# Indices 1 2 3 4 5 6 
#
# 1 83.0237 5.9996 6.4248 0.0000 0.0000 0.0000
# 2 5.9996 48.2872 4.6898 0.0000 0.0000 0.0000
# 3 6.4248 4.6898 12.9054 0.0000 0.0000 0.0000
# 4 0.0000 0.0000 0.0000 43.0822 0.0000 0.0000
# 5 0.0000 0.0000 0.0000 0.0000 11.6642 0.0000
# 6 0.0000 0.0000 0.0000 0.0000 0.0000 27.4043
#
#
#
# Elastic Compliance Matrix: (Units=1/GPa)
#
#
# Indices 1 2 3 4 5 6 
#
# 1 0.012573 -0.000989 -0.005900 0.000000 0.000000 0.000000
# 2 -0.000989 0.021545 -0.007337 0.000000 0.000000 0.000000
# 3 -0.005900 -0.007337 0.083090 0.000000 0.000000 0.000000
# 4 0.000000 0.000000 0.000000 0.023211 0.000000 0.000000
# 5 0.000000 0.000000 0.000000 0.000000 0.085732 0.000000
# 6 0.000000 0.000000 0.000000 0.000000 0.000000 0.036491
#
#
# Mechanical properties :
#
#
# Convention : Reuss Voigt Hill
#
# Bulk Modulus (GPa) = 11.26682 19.82720 15.54701
# Shear Modulus (GPa) = 15.59191 24.90360 20.24776
#
# Velocity S-wave (km/s) = 2.78215 3.51611 3.17044
# Velocity P-wave (km/s) = 3.98920 5.13097 4.59568
#
# Compressibility (1/GPa) = 0.08875621
#
# Stress axis : x y z
#
# Youngs Moduli (GPa) = 79.53683 46.41467 12.03513
#
# Poissons Ratio (x) = 0.04591 0.07100
# Poissons Ratio (y) = 0.07867 0.08830
# Poissons Ratio (z) = 0.46925 0.34054
#
# Static dielectric constant tensor:
#      x y z
#    x 1.787170 0.000000 0.000000 
#    y 0.000000 1.723070 0.000000 
#    z 0.000000 0.000000 1.700390 
# 
# From -- ./inp_files/8677.got.cif
#   From: 2010.05.17/outbox.cif.g08.bks.cpg/sg55_5_cif.got.tgz:8677.got - 2010.06.03 13:27:54.
