data_PCOD9425708
_publ_section_title
;
Structure prediction by ZEFSAII (Michael W. Deem and Ramdas Pophale) SiO2 
 PCOD9425708
Probable space group: P B A M
;
_chemical_formula_sum "Si O2"
_cell_formula_units_Z 40
_cell_length_a 8.094332
_cell_length_b 26.653138
_cell_length_c 8.006045
_cell_angle_alpha 90.000000
_cell_angle_beta 90.000000
_cell_angle_gamma 90.000000
_cell_volume 1727.218927
_symmetry_space_group_name_H-M "P B A M"
_symmetry_group_IT_number 55
_symmetry_cell_setting 'orthorhombic'
loop_
_space_group_symop_operation_xyz
x,y,z
-x,-y,z
1/2+x,1/2-y,-z
1/2-x,1/2+y,-z
-x,-y,-z
x,y,-z
1/2-x,1/2+y,z
1/2+x,1/2-y,z
loop_
_atom_site_type_symbol
_atom_site_label
_atom_site_fract_x
_atom_site_fract_y
_atom_site_fract_z
Si Si1 0.938713 0.090251 0.804915
Si Si2 0.728242 0.179425 0.189845
Si Si3 0.769920 0.364620 0.688831
Si Si4 0.042836 0.229816 0.689935
Si Si5 0.425912 0.084968 0.000000
Si Si6 0.256967 0.481741 0.000000
O O1 0.794692 0.126982 0.738937
O O2 0.862142 0.035823 0.838875
O O3 0.105443 0.100241 0.706643
O O4 0.971138 0.107362 0.000000
O O5 0.598214 0.213362 0.285725
O O6 0.895700 0.212689 0.192544
O O7 0.672246 0.172427 0.000000
O O8 0.834196 0.368138 0.500000
O O9 0.695050 0.308812 0.716277
O O10 0.891863 0.382925 0.833588
O O11 0.984968 0.222139 0.500000
O O12 0.597966 0.054931 0.000000
O O13 0.293176 0.039008 0.000000
#
# Coordination Sequence:
#
# PCOD9425708 Si02
#       6
#     8   8   8   8   4   4
#     4   8  17  37  58  79 109 147 190 230 274 329
#     4  10  19  32  54  78 106 145 189 223 265 327
#     4  10  21  37  60  87 113 149 193 235 280 332
#     4  10  21  35  51  79 115 148 183 229 274 320
#     4  11  21  39  62  83 118 147 180 239 290 349
#     4   9  21  39  60  83 112 153 182 229 302 339
#
# _framework density 23.158614
#
# number of rings (size 3 to 8) (size 9 to 14) (size 15 to 20)
#    0.600    1.800    1.000    1.200    2.800    4.000 
#    0.000    5.000    0.000    0.000    0.000    0.000 
#    0.000    0.000    0.000    0.000    0.000    0.000 
#
# Total GULP energy -223457.632733 kJ/mol
# GULP energy per Si atom -5586.440818 kJ/mol
# Density = 2.310590 g / cm^3
# Si number density = 23.158614 Si / 1000 Ang^3
#
#
#
# Elastic Constant Matrix: (Units=GPa)
#
#
# Indices 1 2 3 4 5 6 
#
# 1 72.0553 33.3692 26.4687 0.0000 0.0000 0.0000
# 2 33.3692 94.2992 32.2644 0.0000 0.0000 0.0000
# 3 26.4687 32.2644 100.5067 0.0000 0.0000 0.0000
# 4 0.0000 0.0000 0.0000 13.3724 0.0000 0.0000
# 5 0.0000 0.0000 0.0000 0.0000 15.1548 0.0000
# 6 0.0000 0.0000 0.0000 0.0000 0.0000 50.7331
#
#
#
# Elastic Compliance Matrix: (Units=1/GPa)
#
#
# Indices 1 2 3 4 5 6 
#
# 1 0.017327 -0.005134 -0.002915 0.000000 0.000000 0.000000
# 2 -0.005134 0.013434 -0.002961 0.000000 0.000000 0.000000
# 3 -0.002915 -0.002961 0.011668 0.000000 0.000000 0.000000
# 4 0.000000 0.000000 0.000000 0.074781 0.000000 0.000000
# 5 0.000000 0.000000 0.000000 0.000000 0.065986 0.000000
# 6 0.000000 0.000000 0.000000 0.000000 0.000000 0.019711
#
#
# Mechanical properties :
#
#
# Convention : Reuss Voigt Hill
#
# Bulk Modulus (GPa) = 48.99666 50.11843 49.55754
# Shear Modulus (GPa) = 21.57700 27.50265 24.53982
#
# Velocity S-wave (km/s) = 3.05570 3.44986 3.25874
# Velocity P-wave (km/s) = 5.80109 6.12838 5.96698
#
# Compressibility (1/GPa) = 0.02040955
#
# Stress axis : x y z
#
# Youngs Moduli (GPa) = 57.71495 74.43674 85.70721
#
# Poissons Ratio (x) = 0.38215 0.24983
# Poissons Ratio (y) = 0.29630 0.25374
# Poissons Ratio (z) = 0.16823 0.22038
#
# Static dielectric constant tensor:
#      x y z
#    x 1.942140 0.000000 0.000000 
#    y 0.000000 1.881950 0.000000 
#    z 0.000000 0.000000 1.792860 
# 
# From -- ./inp_files/2634.got.cif
#   From: 2010.05.17/outbox.cif.g08.bks.cpg/sg55_2_cif.got.tgz:2634.got - 2010.06.03 13:27:54.
