data_PCOD9425227
_publ_section_title
;
Structure prediction by ZEFSAII (Michael W. Deem and Ramdas Pophale) SiO2 
 PCOD9425227
Probable space group: P B A M
;
_chemical_formula_sum "Si O2"
_cell_formula_units_Z 64
_cell_length_a 20.115528
_cell_length_b 20.021591
_cell_length_c 7.734992
_cell_angle_alpha 90.000000
_cell_angle_beta 90.000000
_cell_angle_gamma 90.000000
_cell_volume 3115.228381
_symmetry_space_group_name_H-M "P B A M"
_symmetry_group_IT_number 55
_symmetry_cell_setting 'orthorhombic'
loop_
_space_group_symop_operation_xyz
x,y,z
-x,-y,z
1/2+x,1/2-y,-z
1/2-x,1/2+y,-z
-x,-y,-z
x,y,-z
1/2-x,1/2+y,z
1/2+x,1/2-y,z
loop_
_atom_site_type_symbol
_atom_site_label
_atom_site_fract_x
_atom_site_fract_y
_atom_site_fract_z
Si Si1 0.501402 0.202593 0.200290
Si Si2 0.332481 0.432220 0.709087
Si Si3 0.043668 0.439926 0.701624
Si Si4 0.602554 0.315272 0.787349
Si Si5 0.123258 0.786949 0.698873
Si Si6 0.061945 0.040713 0.204304
Si Si7 0.266930 0.748176 0.798372
Si Si8 0.813326 0.605274 0.710315
O O1 0.505342 0.130622 0.288027
O O2 0.556824 0.253775 0.270534
O O3 0.431717 0.241387 0.212436
O O4 0.516740 0.190067 0.000000
O O5 0.334740 0.430842 0.500000
O O6 0.365928 0.362216 0.770257
O O7 0.373481 0.494983 0.773552
O O8 0.254946 0.432068 0.759330
O O9 0.054299 0.456834 0.500000
O O10 0.117911 0.426836 0.772912
O O11 0.000000 0.500000 0.778725
O O12 0.573197 0.385296 0.725567
O O13 0.678773 0.304477 0.733836
O O14 0.602068 0.314603 0.000000
O O15 0.102511 0.793199 0.500000
O O16 0.196186 0.753896 0.707213
O O17 0.048934 0.049490 0.000000
O O18 0.000000 0.000000 0.280435
O O19 0.303123 0.819807 0.778693
O O20 0.253401 0.736064 0.000000
O O21 0.815095 0.609628 0.500000
#
# Coordination Sequence:
#
# PCOD9425227 Si02
#       8
#     8   8   8   8   8   8   8   8
#     4  11  21  37  60  86 113 145 186 234 283 334
#     4   9  19  35  54  79 111 145 186 233 271 321
#     4  10  21  38  59  82 113 152 188 229 284 343
#     4   9  19  34  54  81 113 144 181 229 278 330
#     4  10  21  37  56  82 114 147 185 230 279 336
#     4  10  20  35  54  77 109 147 184 222 273 335
#     4  10  18  33  56  80 108 141 183 232 279 328
#     4   9  18  35  57  79 109 145 186 227 271 331
#
# _framework density 20.544239999999999
#
# number of rings (size 3 to 8) (size 9 to 14) (size 15 to 20)
#    0.000    2.250    1.250    2.625    0.000    4.000 
#    2.250    2.500    0.000    0.000    0.000    0.000 
#    0.000    0.000    0.000    0.000    0.000    0.000 
#
# Total GULP energy -357240.354900 kJ/mol
# GULP energy per Si atom -5581.880545 kJ/mol
# Density = 2.049748 g / cm^3
# Si number density = 20.544240 Si / 1000 Ang^3
#
#
#
# Elastic Constant Matrix: (Units=GPa)
#
#
# Indices 1 2 3 4 5 6 
#
# 1 72.3653 23.7011 -12.3992 0.0000 0.0000 0.0000
# 2 23.7011 84.9559 -8.5914 0.0000 0.0000 0.0000
# 3 -12.3992 -8.5914 31.0526 0.0000 0.0000 0.0000
# 4 0.0000 0.0000 0.0000 19.0289 0.0000 0.0000
# 5 0.0000 0.0000 0.0000 0.0000 -2.3622 0.0000
# 6 0.0000 0.0000 0.0000 0.0000 0.0000 23.4212
#
#
#
# Elastic Compliance Matrix: (Units=1/GPa)
#
#
# Indices 1 2 3 4 5 6 
#
# 1 0.016016 -0.003931 0.005307 0.000000 0.000000 0.000000
# 2 -0.003931 0.013075 0.002048 0.000000 0.000000 0.000000
# 3 0.005307 0.002048 0.034889 0.000000 0.000000 0.000000
# 4 0.000000 0.000000 0.000000 0.052552 0.000000 0.000000
# 5 0.000000 0.000000 0.000000 0.000000 -0.423332 0.000000
# 6 0.000000 0.000000 0.000000 0.000000 0.000000 0.042696
#
#
# Mechanical properties :
#
#
# Convention : Reuss Voigt Hill
#
# Bulk Modulus (GPa) = 14.11897 21.53275 17.82586
# Shear Modulus (GPa) = -20.21491 20.39514 0.09012
#
# Velocity S-wave (km/s) = -3.14023 3.15420 0.20967
# Velocity P-wave (km/s) = 2.50214 4.87537 2.95876
#
# Compressibility (1/GPa) = 0.07082669
#
# Stress axis : x y z
#
# Youngs Moduli (GPa) = 62.43859 76.48385 28.66223
#
# Poissons Ratio (x) = 0.30069 -0.15212
# Poissons Ratio (y) = 0.24547 -0.05869
# Poissons Ratio (z) = -0.33138 -0.15661
#
# Static dielectric constant tensor:
#      x y z
#    x 1.729200 0.000000 0.000000 
#    y 0.000000 1.710450 0.000000 
#    z 0.000000 0.000000 1.739710 
# 
# From -- ./inp_files/8019.got.cif
#   From: 2010.05.17/outbox.cif.g08.bks.cpg/sg55_5_cif.got.tgz:8019.got - 2010.06.03 13:27:54.
