data_PCOD9425352
_publ_section_title
;
Structure prediction by ZEFSAII (Michael W. Deem and Ramdas Pophale) SiO2 
 PCOD9425352
Probable space group: P B A M
;
_chemical_formula_sum "Si O2"
_cell_formula_units_Z 64
_cell_length_a 6.993156
_cell_length_b 17.958783
_cell_length_c 22.174134
_cell_angle_alpha 90.000000
_cell_angle_beta 90.000000
_cell_angle_gamma 90.000000
_cell_volume 2784.817804
_symmetry_space_group_name_H-M "P B A M"
_symmetry_group_IT_number 55
_symmetry_cell_setting 'orthorhombic'
loop_
_space_group_symop_operation_xyz
x,y,z
-x,-y,z
1/2+x,1/2-y,-z
1/2-x,1/2+y,-z
-x,-y,-z
x,y,-z
1/2-x,1/2+y,z
1/2+x,1/2-y,z
loop_
_atom_site_type_symbol
_atom_site_label
_atom_site_fract_x
_atom_site_fract_y
_atom_site_fract_z
Si Si1 0.398247 0.688386 0.314763
Si Si2 0.219117 0.439195 0.433532
Si Si3 0.167345 0.108730 0.804537
Si Si4 0.161600 0.358993 0.685302
Si Si5 0.781830 0.560799 0.804502
Si Si6 0.336662 0.610885 0.064705
Si Si7 0.833326 0.891333 0.433665
Si Si8 0.777631 0.563194 0.064671
O O1 0.300002 0.659551 0.253576
O O2 0.420063 0.776467 0.314414
O O3 0.608557 0.652572 0.314717
O O4 0.299553 0.660636 0.376265
O O5 0.140002 0.420830 0.500000
O O6 0.119779 0.402830 0.376065
O O7 0.439331 0.410593 0.433962
O O8 0.233791 0.528216 0.427539
O O9 0.212032 0.144357 0.870005
O O10 0.939819 0.088493 0.805712
O O11 0.268203 0.028352 0.798799
O O12 0.121219 0.403274 0.746510
O O13 0.864975 0.581845 0.870347
O O14 0.566115 0.598760 0.063918
O O15 0.254866 0.526169 0.065371
O O16 0.284845 0.646316 0.000000
O O17 0.788546 0.859158 0.500000
O O18 0.869682 0.582394 0.000000
#
# Coordination Sequence:
#
# PCOD9425352 Si02
#       8
#     8   8   8   8   8   8   8   8
#     4  10  19  29  42  61  85 111 136 164 199 238
#     4   8  14  26  45  66  83 101 132 172 205 233
#     4   8  13  22  38  58  77 101 136 172 201 233
#     4  10  19  29  42  61  85 111 136 164 199 238
#     4   8  13  22  38  58  77 101 136 172 201 233
#     4   7   9  14  27  50  77  98 119 158 209 244
#     4   8  14  26  45  66  83 101 132 172 205 233
#     4   7   9  14  27  50  77  98 119 158 209 244
#
# _framework density 22.981756000000001
#
# number of rings (size 3 to 8) (size 9 to 14) (size 15 to 20)
#    0.000    3.750    0.000    3.750    0.000    3.500 
#    0.000    0.000    0.000    3.750    0.000    1.750 
#    0.000    0.000    0.000    6.250    0.000    5.000 
#
# Total GULP energy -357288.425662 kJ/mol
# GULP energy per Si atom -5582.631651 kJ/mol
# Density = 2.292945 g / cm^3
# Si number density = 22.981756 Si / 1000 Ang^3
#
#
#
# Elastic Constant Matrix: (Units=GPa)
#
#
# Indices 1 2 3 4 5 6 
#
# 1 81.1657 9.4459 31.6175 0.0000 0.0000 0.0000
# 2 9.4459 46.4315 89.5862 0.0000 0.0000 0.0000
# 3 31.6175 89.5862 302.2376 0.0000 0.0000 0.0000
# 4 0.0000 0.0000 0.0000 -11.7790 0.0000 0.0000
# 5 0.0000 0.0000 0.0000 0.0000 -0.9144 0.0000
# 6 0.0000 0.0000 0.0000 0.0000 0.0000 -8.8246
#
#
#
# Elastic Compliance Matrix: (Units=1/GPa)
#
#
# Indices 1 2 3 4 5 6 
#
# 1 0.012844 -0.000048 -0.001329 0.000000 0.000000 0.000000
# 2 -0.000048 0.050309 -0.014907 0.000000 0.000000 0.000000
# 3 -0.001329 -0.014907 0.007866 0.000000 0.000000 0.000000
# 4 0.000000 0.000000 0.000000 -0.084897 0.000000 0.000000
# 5 0.000000 0.000000 0.000000 0.000000 -1.093557 0.000000
# 6 0.000000 0.000000 0.000000 0.000000 0.000000 -0.113320
#
#
# Mechanical properties :
#
#
# Convention : Reuss Voigt Hill
#
# Bulk Modulus (GPa) = 26.00759 76.79267 51.40013
# Shear Modulus (GPa) = -4.25398 15.64207 5.69404
#
# Velocity S-wave (km/s) = -1.36200 2.61172 1.57576
# Velocity P-wave (km/s) = 2.97788 6.52548 5.07197
#
# Compressibility (1/GPa) = 0.03845032
#
# Stress axis : x y z
#
# Youngs Moduli (GPa) = 77.85790 19.87721 127.12435
#
# Poissons Ratio (x) = 0.00095 0.16900
# Poissons Ratio (y) = 0.00373 1.89505
# Poissons Ratio (z) = 0.10350 0.29631
#
# Static dielectric constant tensor:
#      x y z
#    x 1.936820 0.000000 0.000000 
#    y 0.000000 1.758650 0.000000 
#    z 0.000000 0.000000 1.894170 
# 
# From -- ./inp_files/22884.got.cif
#   From: 2010.05.17/outbox.cif.g08.bks.cpg/sg55_12_cif.got.tgz:22884.got - 2010.06.03 13:27:54.
