data_PCOD9425914
_publ_section_title
;
Structure prediction by ZEFSAII (Michael W. Deem and Ramdas Pophale) SiO2 
 PCOD9425914
Probable space group: P B A M
;
_chemical_formula_sum "Si O2"
_cell_formula_units_Z 64
_cell_length_a 24.303075
_cell_length_b 15.863296
_cell_length_c 7.889477
_cell_angle_alpha 90.000000
_cell_angle_beta 90.000000
_cell_angle_gamma 90.000000
_cell_volume 3041.605393
_symmetry_space_group_name_H-M "P B A M"
_symmetry_group_IT_number 55
_symmetry_cell_setting 'orthorhombic'
loop_
_space_group_symop_operation_xyz
x,y,z
-x,-y,z
1/2+x,1/2-y,-z
1/2-x,1/2+y,-z
-x,-y,-z
x,y,-z
1/2-x,1/2+y,z
1/2+x,1/2-y,z
loop_
_atom_site_type_symbol
_atom_site_label
_atom_site_fract_x
_atom_site_fract_y
_atom_site_fract_z
Si Si1 0.190849 0.691964 0.801560
Si Si2 0.072657 0.744572 0.796574
Si Si3 0.129983 0.363771 0.205286
Si Si4 0.662172 0.490351 0.797876
Si Si5 0.715939 0.995121 0.696945
Si Si6 0.688494 0.302209 0.792637
Si Si7 0.507136 0.096004 0.792690
Si Si8 0.454420 0.432679 0.301519
O O1 0.135101 0.731875 0.729188
O O2 0.194435 0.590019 0.788271
O O3 0.250018 0.718178 0.729457
O O4 0.191393 0.715062 0.000000
O O5 0.036224 0.666015 0.733331
O O6 0.046660 0.836498 0.765293
O O7 0.075795 0.735454 0.000000
O O8 0.171755 0.432633 0.274335
O O9 0.148637 0.271557 0.258132
O O10 0.068044 0.378497 0.258380
O O11 0.132510 0.368862 0.000000
O O12 0.723548 0.524418 0.758961
O O13 0.667779 0.393551 0.737863
O O14 0.607848 0.533125 0.723927
O O15 0.655160 0.492704 0.000000
O O16 0.720706 0.973929 0.500000
O O17 0.690898 0.305841 0.000000
O O18 0.500000 0.000000 0.736069
O O19 0.504317 0.095609 0.000000
O O20 0.500000 0.500000 0.230956
O O21 0.465966 0.425848 0.500000
#
# Coordination Sequence:
#
# PCOD9425914 Si02
#       8
#     8   8   8   8   8   8   8   8
#     4   9  18  36  58  84 115 149 195 247 301 357
#     4  10  21  37  64  94 118 155 210 261 303 354
#     4  10  19  33  56  82 115 152 193 247 298 352
#     4  10  21  40  65  88 113 150 202 257 302 350
#     4  11  22  36  56  88 124 159 193 234 297 371
#     4   8  17  32  55  85 111 141 186 246 304 349
#     4   9  18  33  56  88 120 152 196 251 304 349
#     4  11  26  44  60  85 125 168 203 247 308 369
#
# _framework density 21.041519999999998
#
# number of rings (size 3 to 8) (size 9 to 14) (size 15 to 20)
#    0.000    2.250    0.000    3.375    3.500    3.500 
#    0.000    3.750    0.000    1.500    0.000    0.000 
#    0.000    0.000    0.000    0.000    0.000    0.000 
#
# Total GULP energy -357165.295238 kJ/mol
# GULP energy per Si atom -5580.707738 kJ/mol
# Density = 2.099363 g / cm^3
# Si number density = 21.041520 Si / 1000 Ang^3
#
#
#
# Elastic Constant Matrix: (Units=GPa)
#
#
# Indices 1 2 3 4 5 6 
#
# 1 122.6953 81.9184 0.1952 0.0000 0.0000 0.0000
# 2 81.9184 108.5868 -1.0625 0.0000 0.0000 0.0000
# 3 0.1952 -1.0625 19.1227 0.0000 0.0000 0.0000
# 4 0.0000 0.0000 0.0000 -2.0846 0.0000 0.0000
# 5 0.0000 0.0000 0.0000 0.0000 9.6343 0.0000
# 6 0.0000 0.0000 0.0000 0.0000 0.0000 25.8774
#
#
#
# Elastic Compliance Matrix: (Units=1/GPa)
#
#
# Indices 1 2 3 4 5 6 
#
# 1 0.016436 -0.012407 -0.000857 0.000000 0.000000 0.000000
# 2 -0.012407 0.018581 0.001159 0.000000 0.000000 0.000000
# 3 -0.000857 0.001159 0.052367 0.000000 0.000000 0.000000
# 4 0.000000 0.000000 0.000000 -0.479707 0.000000 0.000000
# 5 0.000000 0.000000 0.000000 0.000000 0.103796 0.000000
# 6 0.000000 0.000000 0.000000 0.000000 0.000000 0.038644
#
#
# Mechanical properties :
#
#
# Convention : Reuss Voigt Hill
#
# Bulk Modulus (GPa) = 15.82978 45.83414 30.83196
# Shear Modulus (GPa) = -24.43605 17.97566 -3.23019
#
# Velocity S-wave (km/s) = -3.41152 2.92600 -1.24036
# Velocity P-wave (km/s) = 2.82462 5.76588 3.55435
#
# Compressibility (1/GPa) = 0.06317208
#
# Stress axis : x y z
#
# Youngs Moduli (GPa) = 60.84363 53.81889 19.09604
#
# Poissons Ratio (x) = 0.66776 0.01637
# Poissons Ratio (y) = 0.75492 -0.02213
# Poissons Ratio (z) = 0.05215 -0.06238
#
# Static dielectric constant tensor:
#      x y z
#    x 1.748930 0.000000 0.000000 
#    y 0.000000 1.739490 0.000000 
#    z 0.000000 0.000000 1.756110 
# 
# From -- ./inp_files/9631.got.cif
#   From: 2010.05.17/outbox.cif.g08.bks.cpg/sg55_5_cif.got.tgz:9631.got - 2010.06.03 13:27:54.
