data_PCOD9425569
_publ_section_title
;
Structure prediction by ZEFSAII (Michael W. Deem and Ramdas Pophale) SiO2 
 PCOD9425569
Probable space group: P B A M
;
_chemical_formula_sum "Si O2"
_cell_formula_units_Z 64
_cell_length_a 10.360728
_cell_length_b 30.127347
_cell_length_c 14.028511
_cell_angle_alpha 90.000000
_cell_angle_beta 90.000000
_cell_angle_gamma 90.000000
_cell_volume 4378.876926
_symmetry_space_group_name_H-M "P B A M"
_symmetry_group_IT_number 55
_symmetry_cell_setting 'orthorhombic'
loop_
_space_group_symop_operation_xyz
x,y,z
-x,-y,z
1/2+x,1/2-y,-z
1/2-x,1/2+y,-z
-x,-y,-z
x,y,-z
1/2-x,1/2+y,z
1/2+x,1/2-y,z
loop_
_atom_site_type_symbol
_atom_site_label
_atom_site_fract_x
_atom_site_fract_y
_atom_site_fract_z
Si Si1 0.513787 0.286600 0.884144
Si Si2 0.876510 0.971355 0.886234
Si Si3 0.716189 0.212195 0.884940
Si Si4 0.715925 0.508990 0.609082
Si Si5 0.468496 0.573692 0.609342
Si Si6 0.980302 0.883235 0.194945
Si Si7 0.136670 0.477277 0.202342
Si Si8 0.229926 0.389060 0.115106
O O1 0.610932 0.247872 0.852792
O O2 0.364297 0.277797 0.856547
O O3 0.551811 0.334097 0.840649
O O4 0.517310 0.290188 0.000000
O O5 0.890657 0.921586 0.848473
O O6 0.748471 0.995416 0.851477
O O7 0.880807 0.970980 0.000000
O O8 0.000000 0.000000 0.850739
O O9 0.686894 0.161026 0.859901
O O10 0.714848 0.213800 0.000000
O O11 0.762358 0.509831 0.500000
O O12 0.598819 0.544299 0.617072
O O13 0.648569 0.461101 0.626508
O O14 0.822054 0.520332 0.687074
O O15 0.459043 0.589580 0.500000
O O16 0.474217 0.610216 0.691488
O O17 0.124228 0.893484 0.154955
O O18 0.145011 0.427447 0.161910
O O19 0.000000 0.500000 0.186733
O O20 0.233157 0.393666 0.000000
#
# Coordination Sequence:
#
# PCOD9425569 Si02
#       8
#     8   8   8   8   8   8   8   8
#     4   9  17  30  48  70  94 120 155 197 235 280
#     4  11  20  31  48  67  96 134 166 194 227 277
#     4   8  16  31  48  66  89 119 156 196 236 271
#     4   9  17  32  49  67  92 125 163 205 244 278
#     4   9  16  28  51  75  92 115 156 209 250 275
#     4  11  17  29  52  75  92 118 164 203 235 284
#     4  12  23  33  45  69 102 135 166 194 239 291
#     4  10  19  32  49  67  96 135 164 192 234 285
#
# _framework density 14.61562
#
# number of rings (size 3 to 8) (size 9 to 14) (size 15 to 20)
#    0.000    2.125    3.750    3.000    0.000    1.250 
#    2.250    0.000    0.000    0.000    0.000    4.375 
#    0.000    0.000    0.000    0.000    0.000    0.000 
#
# Total GULP energy -356730.073453 kJ/mol
# GULP energy per Si atom -5573.907398 kJ/mol
# Density = 1.458235 g / cm^3
# Si number density = 14.615620 Si / 1000 Ang^3
#
#
#
# Elastic Constant Matrix: (Units=GPa)
#
#
# Indices 1 2 3 4 5 6 
#
# 1 77.3805 65.1953 29.3294 0.0000 0.0000 0.0000
# 2 65.1953 122.0091 41.6697 0.0000 0.0000 0.0000
# 3 29.3294 41.6697 79.5176 0.0000 0.0000 0.0000
# 4 0.0000 0.0000 0.0000 13.7244 0.0000 0.0000
# 5 0.0000 0.0000 0.0000 0.0000 8.6083 0.0000
# 6 0.0000 0.0000 0.0000 0.0000 0.0000 24.5627
#
#
#
# Elastic Compliance Matrix: (Units=1/GPa)
#
#
# Indices 1 2 3 4 5 6 
#
# 1 0.023935 -0.011905 -0.002590 0.000000 0.000000 0.000000
# 2 -0.011905 0.015904 -0.003943 0.000000 0.000000 0.000000
# 3 -0.002590 -0.003943 0.015597 0.000000 0.000000 0.000000
# 4 0.000000 0.000000 0.000000 0.072863 0.000000 0.000000
# 5 0.000000 0.000000 0.000000 0.000000 0.116167 0.000000
# 6 0.000000 0.000000 0.000000 0.000000 0.000000 0.040712
#
#
# Mechanical properties :
#
#
# Convention : Reuss Voigt Hill
#
# Bulk Modulus (GPa) = 53.87703 61.25511 57.56607
# Shear Modulus (GPa) = 15.23265 18.89326 17.06296
#
# Velocity S-wave (km/s) = 3.23184 3.59928 3.42050
# Velocity P-wave (km/s) = 7.13225 7.69901 7.42105
#
# Compressibility (1/GPa) = 0.01856079
#
# Stress axis : x y z
#
# Youngs Moduli (GPa) = 41.77932 62.87543 64.11351
#
# Poissons Ratio (x) = 0.74856 0.16602
# Poissons Ratio (y) = 0.49740 0.25282
# Poissons Ratio (z) = 0.10819 0.24793
#
# Static dielectric constant tensor:
#      x y z
#    x 1.477550 0.000000 0.000000 
#    y 0.000000 1.478940 0.000000 
#    z 0.000000 0.000000 1.492590 
# 
# From -- ./inp_files/17935.got.cif
#   From: 2010.05.17/outbox.cif.g08.bks.cpg/sg55_9_cif.got.tgz:17935.got - 2010.06.03 13:27:54.
