data_PCOD9425120
_publ_section_title
;
Structure prediction by ZEFSAII (Michael W. Deem and Ramdas Pophale) SiO2 
 PCOD9425120
Probable space group: P B A M
;
_chemical_formula_sum "Si O2"
_cell_formula_units_Z 48
_cell_length_a 17.773912
_cell_length_b 8.598652
_cell_length_c 14.916794
_cell_angle_alpha 90.000000
_cell_angle_beta 90.000000
_cell_angle_gamma 90.000000
_cell_volume 2279.758746
_symmetry_space_group_name_H-M "P B A M"
_symmetry_group_IT_number 55
_symmetry_cell_setting 'orthorhombic'
loop_
_space_group_symop_operation_xyz
x,y,z
-x,-y,z
1/2+x,1/2-y,-z
1/2-x,1/2+y,-z
-x,-y,-z
x,y,-z
1/2-x,1/2+y,z
1/2+x,1/2-y,z
loop_
_atom_site_type_symbol
_atom_site_label
_atom_site_fract_x
_atom_site_fract_y
_atom_site_fract_z
Si Si1 0.949968 0.344180 0.238592
Si Si2 0.845283 0.488079 0.902310
Si Si3 0.350461 0.094424 0.396758
Si Si4 0.187467 0.032025 0.183383
Si Si5 0.735669 0.192045 0.688227
Si Si6 0.442605 0.692637 0.898082
O O1 0.879312 0.383873 0.175550
O O2 0.917326 0.328862 0.338351
O O3 0.000000 0.500000 0.240282
O O4 0.999049 0.221228 0.182736
O O5 0.756990 0.497440 0.883513
O O6 0.888715 0.652965 0.900485
O O7 0.859554 0.418932 0.000000
O O8 0.369984 0.071969 0.500000
O O9 0.277767 0.206011 0.386042
O O10 0.323786 0.932059 0.350560
O O11 0.198678 0.191131 0.240301
O O12 0.111347 0.050690 0.128724
O O13 0.199596 0.901753 0.258462
O O14 0.472801 0.679097 0.000000
#
# Coordination Sequence:
#
# PCOD9425120 Si02
#       6
#     8   8   8   8   8   8
#     4  10  19  36  56  84 123 160 192 242 293 351
#     4  10  18  31  55  83 114 156 202 241 278 338
#     4  11  22  39  64  90 115 149 197 251 306 359
#     4  11  18  36  57  87 121 158 192 240 293 348
#     4  10  20  36  61  87 119 151 186 249 308 347
#     4  10  20  33  55  88 121 160 201 238 286 342
#
# _framework density 21.054859
#
# number of rings (size 3 to 8) (size 9 to 14) (size 15 to 20)
#    0.000    1.667    5.000    2.500    0.000    2.333 
#    0.000    0.833    0.000    4.000    0.000    0.000 
#    0.000    0.000    0.000    0.000    0.000    0.000 
#
# Total GULP energy -267944.574941 kJ/mol
# GULP energy per Si atom -5582.178645 kJ/mol
# Density = 2.100694 g / cm^3
# Si number density = 21.054859 Si / 1000 Ang^3
#
#
#
# Elastic Constant Matrix: (Units=GPa)
#
#
# Indices 1 2 3 4 5 6 
#
# 1 63.6790 18.9285 28.7813 0.0000 0.0000 0.0000
# 2 18.9285 62.4879 29.4362 0.0000 0.0000 0.0000
# 3 28.7813 29.4362 145.1462 0.0000 0.0000 0.0000
# 4 0.0000 0.0000 0.0000 15.7732 0.0000 0.0000
# 5 0.0000 0.0000 0.0000 0.0000 23.1829 0.0000
# 6 0.0000 0.0000 0.0000 0.0000 0.0000 32.7462
#
#
#
# Elastic Compliance Matrix: (Units=1/GPa)
#
#
# Indices 1 2 3 4 5 6 
#
# 1 0.018202 -0.004216 -0.002754 0.000000 0.000000 0.000000
# 2 -0.004216 0.018670 -0.002950 0.000000 0.000000 0.000000
# 3 -0.002754 -0.002950 0.008034 0.000000 0.000000 0.000000
# 4 0.000000 0.000000 0.000000 0.063399 0.000000 0.000000
# 5 0.000000 0.000000 0.000000 0.000000 0.043135 0.000000
# 6 0.000000 0.000000 0.000000 0.000000 0.000000 0.030538
#
#
# Mechanical properties :
#
#
# Convention : Reuss Voigt Hill
#
# Bulk Modulus (GPa) = 39.89702 47.28948 43.59325
# Shear Modulus (GPa) = 23.78981 27.28495 25.53738
#
# Velocity S-wave (km/s) = 3.36504 3.60376 3.48645
# Velocity P-wave (km/s) = 5.83851 6.31071 6.07920
#
# Compressibility (1/GPa) = 0.02506453
#
# Stress axis : x y z
#
# Youngs Moduli (GPa) = 54.93938 53.56174 124.46975
#
# Poissons Ratio (x) = 0.22583 0.34282
# Poissons Ratio (y) = 0.23163 0.36723
# Poissons Ratio (z) = 0.15132 0.15802
#
# Static dielectric constant tensor:
#      x y z
#    x 1.791440 0.000000 0.000000 
#    y 0.000000 1.803330 0.000000 
#    z 0.000000 0.000000 1.751140 
# 
# From -- ./inp_files/17309.got.cif
#   From: 2010.05.17/outbox.cif.g08.bks.cpg/sg55_9_cif.got.tgz:17309.got - 2010.06.03 13:27:54.
