data_PCOD9425376
_publ_section_title
;
Structure prediction by ZEFSAII (Michael W. Deem and Ramdas Pophale) SiO2 
 PCOD9425376
Probable space group: P B A M
;
_chemical_formula_sum "Si O2"
_cell_formula_units_Z 64
_cell_length_a 19.078536
_cell_length_b 26.927841
_cell_length_c 8.726228
_cell_angle_alpha 90.000000
_cell_angle_beta 90.000000
_cell_angle_gamma 90.000000
_cell_volume 4483.045392
_symmetry_space_group_name_H-M "P B A M"
_symmetry_group_IT_number 55
_symmetry_cell_setting 'orthorhombic'
loop_
_space_group_symop_operation_xyz
x,y,z
-x,-y,z
1/2+x,1/2-y,-z
1/2-x,1/2+y,-z
-x,-y,-z
x,y,-z
1/2-x,1/2+y,z
1/2+x,1/2-y,z
loop_
_atom_site_type_symbol
_atom_site_label
_atom_site_fract_x
_atom_site_fract_y
_atom_site_fract_z
Si Si1 0.581584 0.262221 0.184182
Si Si2 0.164926 0.143327 0.315567
Si Si3 0.215990 0.292305 0.817364
Si Si4 0.659423 0.643463 0.183223
Si Si5 0.426145 0.445166 0.317669
Si Si6 0.298218 0.199631 0.318879
Si Si7 0.077946 0.754433 0.816170
Si Si8 0.421403 0.553956 0.816768
O O1 0.616641 0.310668 0.259611
O O2 0.633874 0.215720 0.212323
O O3 0.502328 0.253675 0.237223
O O4 0.580099 0.270585 0.000000
O O5 0.161965 0.140751 0.500000
O O6 0.245290 0.155897 0.268912
O O7 0.134487 0.093643 0.242419
O O8 0.259636 0.341981 0.783843
O O9 0.254096 0.248834 0.724337
O O10 0.227252 0.282762 0.000000
O O11 0.629585 0.596360 0.270560
O O12 0.613769 0.692594 0.224373
O O13 0.651914 0.635635 0.000000
O O14 0.432937 0.448963 0.500000
O O15 0.501723 0.431107 0.246270
O O16 0.407688 0.498967 0.248567
O O17 0.307101 0.196102 0.500000
O O18 0.373303 0.209977 0.244182
O O19 0.078455 0.751935 0.000000
O O20 0.423524 0.552674 0.000000
#
# Coordination Sequence:
#
# PCOD9425376 Si02
#       8
#     8   8   8   8   8   8   8   8
#     4   9  16  27  43  63  84 111 143 173 205 242
#     4  10  19  30  43  61  83 109 140 174 208 244
#     4   8  15  27  42  58  80 108 139 172 204 238
#     4   9  16  27  41  59  83 113 144 172 203 242
#     4  11  21  32  45  62  84 108 136 174 210 242
#     4   9  17  27  40  58  82 108 136 169 205 242
#     4   9  17  27  41  60  84 111 141 172 201 238
#     4  11  21  33  47  61  80 108 139 172 207 246
#
# _framework density 14.276011
#
# number of rings (size 3 to 8) (size 9 to 14) (size 15 to 20)
#    0.000    2.500    0.000    5.250    0.000    5.000 
#    0.000    0.000    0.000    0.000    0.000    0.000 
#    0.000    1.000    0.000   11.500    0.000    2.875 
#
# Total GULP energy -356456.732451 kJ/mol
# GULP energy per Si atom -5569.636445 kJ/mol
# Density = 1.424352 g / cm^3
# Si number density = 14.276011 Si / 1000 Ang^3
#
#
#
# Elastic Constant Matrix: (Units=GPa)
#
#
# Indices 1 2 3 4 5 6 
#
# 1 93.1628 35.1593 26.7609 0.0000 0.0000 0.0000
# 2 35.1593 56.4309 26.8587 0.0000 0.0000 0.0000
# 3 26.7609 26.8587 51.4221 0.0000 0.0000 0.0000
# 4 0.0000 0.0000 0.0000 13.5132 0.0000 0.0000
# 5 0.0000 0.0000 0.0000 0.0000 16.7249 0.0000
# 6 0.0000 0.0000 0.0000 0.0000 0.0000 25.7593
#
#
#
# Elastic Compliance Matrix: (Units=1/GPa)
#
#
# Indices 1 2 3 4 5 6 
#
# 1 0.014566 -0.007276 -0.003780 0.000000 0.000000 0.000000
# 2 -0.007276 0.027218 -0.010430 0.000000 0.000000 0.000000
# 3 -0.003780 -0.010430 0.026862 0.000000 0.000000 0.000000
# 4 0.000000 0.000000 0.000000 0.074002 0.000000 0.000000
# 5 0.000000 0.000000 0.000000 0.000000 0.059791 0.000000
# 6 0.000000 0.000000 0.000000 0.000000 0.000000 0.038821
#
#
# Mechanical properties :
#
#
# Convention : Reuss Voigt Hill
#
# Bulk Modulus (GPa) = 38.95001 42.06374 40.50687
# Shear Modulus (GPa) = 17.07712 18.68195 17.87953
#
# Velocity S-wave (km/s) = 3.46238 3.62142 3.54279
# Velocity P-wave (km/s) = 6.58232 6.85674 6.72093
#
# Compressibility (1/GPa) = 0.02567394
#
# Stress axis : x y z
#
# Youngs Moduli (GPa) = 68.65493 36.73979 37.22765
#
# Poissons Ratio (x) = 0.26732 0.14071
# Poissons Ratio (y) = 0.49954 0.38829
# Poissons Ratio (z) = 0.25950 0.38320
#
# Static dielectric constant tensor:
#      x y z
#    x 1.498230 0.000000 0.000000 
#    y 0.000000 1.452970 0.000000 
#    z 0.000000 0.000000 1.478730 
# 
# From -- ./inp_files/8217.got.cif
#   From: 2010.05.17/outbox.cif.g08.bks.cpg/sg55_5_cif.got.tgz:8217.got - 2010.06.03 13:27:54.
