data_PCOD9425579
_publ_section_title
;
Structure prediction by ZEFSAII (Michael W. Deem and Ramdas Pophale) SiO2 
 PCOD9425579
Probable space group: P B A M
;
_chemical_formula_sum "Si O2"
_cell_formula_units_Z 48
_cell_length_a 17.002029
_cell_length_b 19.043667
_cell_length_c 8.379509
_cell_angle_alpha 90.000000
_cell_angle_beta 90.000000
_cell_angle_gamma 90.000000
_cell_volume 2713.125624
_symmetry_space_group_name_H-M "P B A M"
_symmetry_group_IT_number 55
_symmetry_cell_setting 'orthorhombic'
loop_
_space_group_symop_operation_xyz
x,y,z
-x,-y,z
1/2+x,1/2-y,-z
1/2-x,1/2+y,-z
-x,-y,-z
x,y,-z
1/2-x,1/2+y,z
1/2+x,1/2-y,z
loop_
_atom_site_type_symbol
_atom_site_label
_atom_site_fract_x
_atom_site_fract_y
_atom_site_fract_z
Si Si1 0.504556 0.080450 0.309767
Si Si2 0.159813 0.341683 0.189381
Si Si3 0.582642 0.290411 0.313411
Si Si4 0.166033 0.841188 0.191448
Si Si5 0.989084 0.079576 0.692871
Si Si6 0.431253 0.212015 0.810951
O O1 0.494727 0.082361 0.500000
O O2 0.589346 0.113920 0.266828
O O3 0.438231 0.130603 0.232464
O O4 0.500000 0.000000 0.255209
O O5 0.143708 0.259155 0.223041
O O6 0.246980 0.359724 0.250268
O O7 0.155889 0.353076 0.000000
O O8 0.603242 0.293033 0.500000
O O9 0.559182 0.367896 0.253323
O O10 0.500566 0.248598 0.289792
O O11 0.094510 0.887962 0.255987
O O12 0.144664 0.759340 0.224510
O O13 0.166358 0.848708 0.000000
O O14 0.991342 0.080247 0.500000
O O15 0.000000 0.000000 0.748908
O O16 0.448796 0.219914 0.000000
#
# Coordination Sequence:
#
# PCOD9425579 Si02
#       6
#     8   8   8   8   8   8
#     4  10  20  33  49  71  98 126 159 197 236 282
#     4  10  19  32  50  71  96 124 158 199 240 283
#     4   9  16  28  47  69  92 120 156 192 228 275
#     4   9  19  33  49  72  97 123 158 199 240 281
#     4   9  18  32  50  72  98 128 160 194 234 283
#     4   9  16  29  49  69  91 120 155 192 230 276
#
# _framework density 17.691772
#
# number of rings (size 3 to 8) (size 9 to 14) (size 15 to 20)
#    0.000    2.667    0.000    4.000    0.000    4.333 
#    0.000    1.667    0.000    8.000    0.000    0.000 
#    0.000    0.000    0.000    0.000    0.000    0.000 
#
# Total GULP energy -267228.705883 kJ/mol
# GULP energy per Si atom -5567.264706 kJ/mol
# Density = 1.765150 g / cm^3
# Si number density = 17.691772 Si / 1000 Ang^3
#
#
#
# Elastic Constant Matrix: (Units=GPa)
#
#
# Indices 1 2 3 4 5 6 
#
# 1 71.6723 33.8365 3.4707 0.0000 0.0000 0.0000
# 2 33.8365 137.8221 6.8405 0.0000 0.0000 0.0000
# 3 3.4707 6.8405 14.8680 0.0000 0.0000 0.0000
# 4 0.0000 0.0000 0.0000 14.5885 0.0000 0.0000
# 5 0.0000 0.0000 0.0000 0.0000 18.5755 0.0000
# 6 0.0000 0.0000 0.0000 0.0000 0.0000 15.2470
#
#
#
# Elastic Compliance Matrix: (Units=1/GPa)
#
#
# Indices 1 2 3 4 5 6 
#
# 1 0.015837 -0.003791 -0.001953 0.000000 0.000000 0.000000
# 2 -0.003791 0.008333 -0.002949 0.000000 0.000000 0.000000
# 3 -0.001953 -0.002949 0.069071 0.000000 0.000000 0.000000
# 4 0.000000 0.000000 0.000000 0.068547 0.000000 0.000000
# 5 0.000000 0.000000 0.000000 0.000000 0.053834 0.000000
# 6 0.000000 0.000000 0.000000 0.000000 0.000000 0.065587
#
#
# Mechanical properties :
#
#
# Convention : Reuss Voigt Hill
#
# Bulk Modulus (GPa) = 13.18293 34.73974 23.96134
# Shear Modulus (GPa) = 15.43785 21.69651 18.56718
#
# Velocity S-wave (km/s) = 2.95719 3.50574 3.24308
# Velocity P-wave (km/s) = 4.37351 6.00547 5.25325
#
# Compressibility (1/GPa) = 0.07585570
#
# Stress axis : x y z
#
# Youngs Moduli (GPa) = 63.14431 120.00706 14.47781
#
# Poissons Ratio (x) = 0.45496 0.02827
# Poissons Ratio (y) = 0.23939 0.04269
# Poissons Ratio (z) = 0.12330 0.35388
#
# Static dielectric constant tensor:
#      x y z
#    x 1.608360 0.000000 0.000000 
#    y 0.000000 1.645680 0.000000 
#    z 0.000000 0.000000 1.600750 
# 
# From -- ./inp_files/7542.got.cif
#   From: 2010.05.17/outbox.cif.g08.bks.cpg/sg55_4_cif.got.tgz:7542.got - 2010.06.03 13:27:54.
