data_PCOD9425033
_publ_section_title
;
Structure prediction by ZEFSAII (Michael W. Deem and Ramdas Pophale) SiO2 
 PCOD9425033
Probable space group: P B A M
;
_chemical_formula_sum "Si O2"
_cell_formula_units_Z 64
_cell_length_a 15.008813
_cell_length_b 25.076140
_cell_length_c 7.867379
_cell_angle_alpha 90.000000
_cell_angle_beta 90.000000
_cell_angle_gamma 90.000000
_cell_volume 2960.991118
_symmetry_space_group_name_H-M "P B A M"
_symmetry_group_IT_number 55
_symmetry_cell_setting 'orthorhombic'
loop_
_space_group_symop_operation_xyz
x,y,z
-x,-y,z
1/2+x,1/2-y,-z
1/2-x,1/2+y,-z
-x,-y,-z
x,y,-z
1/2-x,1/2+y,z
1/2+x,1/2-y,z
loop_
_atom_site_type_symbol
_atom_site_label
_atom_site_fract_x
_atom_site_fract_y
_atom_site_fract_z
Si Si1 0.431351 0.046817 0.707498
Si Si2 0.566233 0.133007 0.294144
Si Si3 0.750928 0.085916 0.198657
Si Si4 0.680163 0.703345 0.795932
Si Si5 0.636410 0.246658 0.301556
Si Si6 0.002127 0.170621 0.200856
Si Si7 0.461517 0.555082 0.800955
Si Si8 0.730163 0.470164 0.695196
O O1 0.428487 0.043407 0.500000
O O2 0.475266 0.103549 0.754418
O O3 0.329516 0.040503 0.766202
O O4 0.500000 0.000000 0.762284
O O5 0.570990 0.133726 0.500000
O O6 0.646561 0.095778 0.230437
O O7 0.588858 0.192610 0.232110
O O8 0.795330 0.141910 0.246345
O O9 0.781465 0.034065 0.297182
O O10 0.768576 0.076495 0.000000
O O11 0.758128 0.739314 0.721246
O O12 0.578704 0.707871 0.734742
O O13 0.686431 0.709783 0.000000
O O14 0.616430 0.249358 0.500000
O O15 0.594397 0.298878 0.221624
O O16 0.004322 0.110967 0.274034
O O17 0.984878 0.164938 0.000000
O O18 0.500000 0.500000 0.725844
O O19 0.354602 0.554353 0.788098
O O20 0.487391 0.554953 0.000000
O O21 0.727650 0.451921 0.500000
#
# Coordination Sequence:
#
# PCOD9425033 Si02
#       8
#     8   8   8   8   8   8   8   8
#     4   9  16  30  52  76 110 154 191 226 280 343
#     4   9  17  33  53  75 107 150 193 232 279 333
#     4  10  18  30  52  81 112 145 189 239 280 330
#     4   9  19  37  61  84 107 147 196 238 286 341
#     4  10  21  36  58  87 117 146 186 241 291 343
#     4  10  21  40  64  85 113 152 192 238 293 355
#     4  10  22  42  64  85 113 149 189 240 300 353
#     4  11  21  33  53  82 115 153 191 232 284 346
#
# _framework density 21.614384999999999
#
# number of rings (size 3 to 8) (size 9 to 14) (size 15 to 20)
#    0.000    2.250    1.250    1.875    0.000    4.250 
#    2.250    3.125    0.000    0.000    0.000    0.000 
#    0.000    0.000    0.000    0.000    0.000    0.000 
#
# Total GULP energy -357162.959039 kJ/mol
# GULP energy per Si atom -5580.671235 kJ/mol
# Density = 2.156519 g / cm^3
# Si number density = 21.614385 Si / 1000 Ang^3
#
#
#
# Elastic Constant Matrix: (Units=GPa)
#
#
# Indices 1 2 3 4 5 6 
#
# 1 107.8590 32.0158 0.6892 0.0000 0.0000 0.0000
# 2 32.0158 66.7721 5.7171 0.0000 0.0000 0.0000
# 3 0.6892 5.7171 22.5215 0.0000 0.0000 0.0000
# 4 0.0000 0.0000 0.0000 11.1876 0.0000 0.0000
# 5 0.0000 0.0000 0.0000 0.0000 24.8027 0.0000
# 6 0.0000 0.0000 0.0000 0.0000 0.0000 24.8459
#
#
#
# Elastic Compliance Matrix: (Units=1/GPa)
#
#
# Indices 1 2 3 4 5 6 
#
# 1 0.010832 -0.005280 0.001009 0.000000 0.000000 0.000000
# 2 -0.005280 0.017883 -0.004378 0.000000 0.000000 0.000000
# 3 0.001009 -0.004378 0.045482 0.000000 0.000000 0.000000
# 4 0.000000 0.000000 0.000000 0.089385 0.000000 0.000000
# 5 0.000000 0.000000 0.000000 0.000000 0.040318 0.000000
# 6 0.000000 0.000000 0.000000 0.000000 0.000000 0.040248
#
#
# Mechanical properties :
#
#
# Convention : Reuss Voigt Hill
#
# Bulk Modulus (GPa) = 17.57499 30.44407 24.00953
# Shear Modulus (GPa) = 17.83079 22.74927 20.29003
#
# Velocity S-wave (km/s) = 2.87531 3.24775 3.06719
# Velocity P-wave (km/s) = 4.37859 5.30844 4.86578
#
# Compressibility (1/GPa) = 0.05689904
#
# Stress axis : x y z
#
# Youngs Moduli (GPa) = 92.31691 55.91925 21.98649
#
# Poissons Ratio (x) = 0.29527 -0.02218
# Poissons Ratio (y) = 0.48745 0.09626
# Poissons Ratio (z) = -0.09314 0.24481
#
# Static dielectric constant tensor:
#      x y z
#    x 1.804790 0.000000 0.000000 
#    y 0.000000 1.788740 0.000000 
#    z 0.000000 0.000000 1.779860 
# 
# From -- ./inp_files/6737.got.cif
#   From: 2010.05.17/outbox.cif.g08.bks.cpg/sg55_4_cif.got.tgz:6737.got - 2010.06.03 13:27:54.
