data_PCOD9425194
_publ_section_title
;
Structure prediction by ZEFSAII (Michael W. Deem and Ramdas Pophale) SiO2 
 PCOD9425194
Probable space group: P B A M
;
_chemical_formula_sum "Si O2"
_cell_formula_units_Z 58
_cell_length_a 10.297955
_cell_length_b 26.451204
_cell_length_c 12.497423
_cell_angle_alpha 90.000000
_cell_angle_beta 90.000000
_cell_angle_gamma 90.000000
_cell_volume 3404.214399
_symmetry_space_group_name_H-M "P B A M"
_symmetry_group_IT_number 55
_symmetry_cell_setting 'orthorhombic'
loop_
_space_group_symop_operation_xyz
x,y,z
-x,-y,z
1/2+x,1/2-y,-z
1/2-x,1/2+y,-z
-x,-y,-z
x,y,-z
1/2-x,1/2+y,z
1/2+x,1/2-y,z
loop_
_atom_site_type_symbol
_atom_site_label
_atom_site_fract_x
_atom_site_fract_y
_atom_site_fract_z
Si Si1 0.729302 0.576322 0.124195
Si Si2 0.290982 0.112536 0.745522
Si Si3 0.011339 0.242210 0.750710
Si Si4 0.464585 0.845487 0.874894
Si Si5 0.467456 0.638056 0.873834
Si Si6 0.859690 0.501027 0.715829
Si Si7 0.767326 0.285454 0.625123
Si Si8 0.000000 0.500000 0.500000
O O1 0.835167 0.621113 0.136181
O O2 0.587273 0.599868 0.140642
O O3 0.765205 0.534735 0.212613
O O4 0.738120 0.557976 0.000000
O O5 0.416808 0.126761 0.815748
O O6 0.162180 0.118343 0.816561
O O7 0.307906 0.055868 0.704318
O O8 0.282697 0.155151 0.653793
O O9 0.049037 0.290420 0.822650
O O10 0.998036 0.192156 0.822211
O O11 0.127345 0.231927 0.667646
O O12 0.878722 0.256212 0.690497
O O13 0.494305 0.840278 0.000000
O O14 0.444625 0.644223 0.000000
O O15 0.000000 0.500000 0.775407
O O16 0.900344 0.519290 0.597007
O O17 0.781287 0.276792 0.500000
#
# Coordination Sequence:
#
# PCOD9425194 Si02
#       8
#     8   8   8   8   8   8   8   2
#     4  10  21  35  57  85 118 150 182 231 283 336
#     4  10  21  35  55  83 109 144 188 231 274 336
#     4  10  20  35  55  81 110 148 185 229 271 329
#     4  10  18  32  55  84 111 143 186 227 271 325
#     4  10  21  37  55  82 121 154 180 220 281 343
#     4  10  20  38  60  83 110 139 190 237 281 334
#     4  10  21  35  56  76 108 142 188 231 281 322
#     4   8  20  36  62  82 104 140 184 240 296 316
#
# _framework density 17.037704000000002
#
# number of rings (size 3 to 8) (size 9 to 14) (size 15 to 20)
#    0.414    1.655    1.379    2.069    0.966    1.931 
#    0.000    5.517   15.172    0.828    0.000    0.000 
#    0.000    0.000    0.000    0.000    0.000    0.000 
#
# Total GULP energy -322880.040681 kJ/mol
# GULP energy per Si atom -5566.897253 kJ/mol
# Density = 1.699893 g / cm^3
# Si number density = 17.037704 Si / 1000 Ang^3
#
#
#
# Elastic Constant Matrix: (Units=GPa)
#
#
# Indices 1 2 3 4 5 6 
#
# 1 60.7090 3.6485 -1.3006 0.0000 0.0000 0.0000
# 2 3.6485 49.4532 3.2933 0.0000 0.0000 0.0000
# 3 -1.3006 3.2933 48.9498 0.0000 0.0000 0.0000
# 4 0.0000 0.0000 0.0000 9.8112 0.0000 0.0000
# 5 0.0000 0.0000 0.0000 0.0000 8.4704 0.0000
# 6 0.0000 0.0000 0.0000 0.0000 0.0000 16.9282
#
#
#
# Elastic Compliance Matrix: (Units=1/GPa)
#
#
# Indices 1 2 3 4 5 6 
#
# 1 0.016559 -0.001257 0.000525 0.000000 0.000000 0.000000
# 2 -0.001257 0.020407 -0.001406 0.000000 0.000000 0.000000
# 3 0.000525 -0.001406 0.020538 0.000000 0.000000 0.000000
# 4 0.000000 0.000000 0.000000 0.101924 0.000000 0.000000
# 5 0.000000 0.000000 0.000000 0.000000 0.118058 0.000000
# 6 0.000000 0.000000 0.000000 0.000000 0.000000 0.059073
#
#
# Mechanical properties :
#
#
# Convention : Reuss Voigt Hill
#
# Bulk Modulus (GPa) = 18.78743 18.93269 18.86006
# Shear Modulus (GPa) = 13.94395 17.27335 15.60865
#
# Velocity S-wave (km/s) = 2.86390 3.18753 3.03004
# Velocity P-wave (km/s) = 4.68901 4.96824 4.83065
#
# Compressibility (1/GPa) = 0.05322706
#
# Stress axis : x y z
#
# Youngs Moduli (GPa) = 60.39089 49.00160 48.69107
#
# Poissons Ratio (x) = 0.06157 -0.02554
# Poissons Ratio (y) = 0.07589 0.06848
# Poissons Ratio (z) = -0.03168 0.06891
#
# Static dielectric constant tensor:
#      x y z
#    x 1.570800 0.000000 0.000000 
#    y 0.000000 1.572740 0.000000 
#    z 0.000000 0.000000 1.541700 
# 
# From -- ./inp_files/12477.got.cif
#   From: 2010.05.17/outbox.cif.g08.bks.cpg/sg55_7_cif.got.tgz:12477.got - 2010.06.03 13:27:54.
