data_PCOD9425426
_publ_section_title
;
Structure prediction by ZEFSAII (Michael W. Deem and Ramdas Pophale) SiO2 
 PCOD9425426
Probable space group: P B A M
;
_chemical_formula_sum "Si O2"
_cell_formula_units_Z 48
_cell_length_a 5.089486
_cell_length_b 15.453148
_cell_length_c 30.454623
_cell_angle_alpha 90.000000
_cell_angle_beta 90.000000
_cell_angle_gamma 90.000000
_cell_volume 2395.212866
_symmetry_space_group_name_H-M "P B A M"
_symmetry_group_IT_number 55
_symmetry_cell_setting 'orthorhombic'
loop_
_space_group_symop_operation_xyz
x,y,z
-x,-y,z
1/2+x,1/2-y,-z
1/2-x,1/2+y,-z
-x,-y,-z
x,y,-z
1/2-x,1/2+y,z
1/2+x,1/2-y,z
loop_
_atom_site_type_symbol
_atom_site_label
_atom_site_fract_x
_atom_site_fract_y
_atom_site_fract_z
Si Si1 0.005097 0.395987 0.767828
Si Si2 0.918299 0.805350 0.377448
Si Si3 0.348336 0.810799 0.047590
Si Si4 0.534628 0.190982 0.139874
Si Si5 0.244281 0.559695 0.549600
Si Si6 0.492859 0.604799 0.714536
O O1 0.072759 0.362145 0.815878
O O2 0.221886 0.367803 0.732102
O O3 0.000000 0.500000 0.768778
O O4 0.718567 0.368884 0.751321
O O5 0.720153 0.724462 0.380092
O O6 0.819293 0.866548 0.416375
O O7 0.901910 0.854301 0.331041
O O8 0.559971 0.731940 0.048359
O O9 0.406155 0.857488 0.093703
O O10 0.382104 0.855143 0.000000
O O11 0.242278 0.229974 0.140001
O O12 0.500000 0.500000 0.547064
O O13 0.184002 0.592055 0.500000
O O14 0.000000 0.500000 0.563971
O O15 0.500000 0.500000 0.710056
#
# Coordination Sequence:
#
# PCOD9425426 Si02
#       6
#     8   8   8   8   8   8
#     4  10  21  36  53  74 102 138 178 219 264 316
#     4  12  25  38  59  91 120 145 180 235 289 319
#     4   8  14  25  41  64  93 123 159 202 250 308
#     4  10  19  30  49  74  98 129 167 213 264 311
#     4  10  22  42  66  88 115 156 196 224 263 330
#     4  10  22  39  56  74 104 148 186 215 260 329
#
# _framework density 20.039974999999998
#
# number of rings (size 3 to 8) (size 9 to 14) (size 15 to 20)
#    0.000    2.000    0.000    3.500    0.000    6.667 
#    0.000    0.000    0.000    0.500    0.000    0.000 
#    0.000   17.333    0.000    0.000    0.000    2.667 
#
# Total GULP energy -267807.868522 kJ/mol
# GULP energy per Si atom -5579.330594 kJ/mol
# Density = 1.999436 g / cm^3
# Si number density = 20.039975 Si / 1000 Ang^3
#
#
#
# Elastic Constant Matrix: (Units=GPa)
#
#
# Indices 1 2 3 4 5 6 
#
# 1 93.7441 6.3438 0.9224 0.0000 0.0000 0.0000
# 2 6.3438 20.4989 35.9360 0.0000 0.0000 0.0000
# 3 0.9224 35.9360 139.7217 0.0000 0.0000 0.0000
# 4 0.0000 0.0000 0.0000 30.1121 0.0000 0.0000
# 5 0.0000 0.0000 0.0000 0.0000 35.2248 0.0000
# 6 0.0000 0.0000 0.0000 0.0000 0.0000 21.4139
#
#
#
# Elastic Compliance Matrix: (Units=1/GPa)
#
#
# Indices 1 2 3 4 5 6 
#
# 1 0.011059 -0.005999 0.001470 0.000000 0.000000 0.000000
# 2 -0.005999 0.092094 -0.023647 0.000000 0.000000 0.000000
# 3 0.001470 -0.023647 0.013229 0.000000 0.000000 0.000000
# 4 0.000000 0.000000 0.000000 0.033209 0.000000 0.000000
# 5 0.000000 0.000000 0.000000 0.000000 0.028389 0.000000
# 6 0.000000 0.000000 0.000000 0.000000 0.000000 0.046699
#
#
# Mechanical properties :
#
#
# Convention : Reuss Voigt Hill
#
# Bulk Modulus (GPa) = 16.65838 37.81881 27.23859
# Shear Modulus (GPa) = 16.60902 31.40100 24.00501
#
# Velocity S-wave (km/s) = 2.88200 3.96273 3.46476
# Velocity P-wave (km/s) = 4.40513 6.31271 5.44314
#
# Compressibility (1/GPa) = 0.06002986
#
# Stress axis : x y z
#
# Youngs Moduli (GPa) = 90.42521 10.85846 75.59007
#
# Poissons Ratio (x) = 0.06515 -0.11112
# Poissons Ratio (y) = 0.54250 1.78746
# Poissons Ratio (z) = -0.13293 0.25677
#
# Static dielectric constant tensor:
#      x y z
#    x 1.693080 0.000000 0.000000 
#    y 0.000000 1.693680 0.000000 
#    z 0.000000 0.000000 1.753860 
# 
# From -- ./inp_files/23814.got.cif
#   From: 2010.05.17/outbox.cif.g08.bks.cpg/sg55_12_cif.got.tgz:23814.got - 2010.06.03 13:27:54.
