data_PCOD9425261
_publ_section_title
;
Structure prediction by ZEFSAII (Michael W. Deem and Ramdas Pophale) SiO2 
 PCOD9425261
Probable space group: P B A M
;
_chemical_formula_sum "Si O2"
_cell_formula_units_Z 64
_cell_length_a 22.211620
_cell_length_b 10.246479
_cell_length_c 16.175655
_cell_angle_alpha 90.000000
_cell_angle_beta 90.000000
_cell_angle_gamma 90.000000
_cell_volume 3681.431845
_symmetry_space_group_name_H-M "P B A M"
_symmetry_group_IT_number 55
_symmetry_cell_setting 'orthorhombic'
loop_
_space_group_symop_operation_xyz
x,y,z
-x,-y,z
1/2+x,1/2-y,-z
1/2-x,1/2+y,-z
-x,-y,-z
x,y,-z
1/2-x,1/2+y,z
1/2+x,1/2-y,z
loop_
_atom_site_type_symbol
_atom_site_label
_atom_site_fract_x
_atom_site_fract_y
_atom_site_fract_z
Si Si1 0.927434 0.508763 0.090699
Si Si2 0.213385 0.155187 0.404992
Si Si3 0.388268 0.873899 0.593779
Si Si4 0.068742 0.003198 0.766191
Si Si5 0.914290 0.272431 0.807081
Si Si6 0.557051 0.204160 0.235668
Si Si7 0.344617 0.155067 0.644704
Si Si8 0.614606 0.565221 0.591556
O O1 0.905764 0.363581 0.113849
O O2 0.916083 0.605291 0.167721
O O3 0.000000 0.500000 0.086889
O O4 0.905979 0.551612 0.000000
O O5 0.235362 0.158189 0.500000
O O6 0.168675 0.277203 0.394353
O O7 0.272503 0.156916 0.350107
O O8 0.173281 0.025591 0.395326
O O9 0.411630 0.850860 0.500000
O O10 0.432387 0.842767 0.670251
O O11 0.366300 0.022145 0.602395
O O12 0.087303 0.153252 0.774978
O O13 0.100334 0.881724 0.811559
O O14 0.072245 0.967661 0.668737
O O15 0.000000 0.000000 0.794799
O O16 0.875113 0.332936 0.733840
O O17 0.985153 0.284459 0.780957
O O18 0.366512 0.284482 0.597273
O O19 0.590489 0.534661 0.500000
#
# Coordination Sequence:
#
# PCOD9425261 Si02
#       8
#     8   8   8   8   8   8   8   8
#     4   9  17  32  56  79 102 128 155 198 256 307
#     4  10  20  33  47  65  95 133 174 215 246 284
#     4  11  21  32  49  71 101 139 171 211 252 287
#     4   9  18  31  48  67  97 135 160 200 246 288
#     4   9  19  33  51  73 102 130 162 207 250 300
#     4  10  18  34  51  73 106 130 168 206 245 303
#     4  11  20  32  47  68  98 130 168 213 252 287
#     4  10  19  31  45  64  93 130 174 213 243 283
#
# _framework density 17.384539
#
# number of rings (size 3 to 8) (size 9 to 14) (size 15 to 20)
#    0.000    2.125    2.500    1.875    0.000    2.250 
#    0.000    7.500    0.000    3.750    0.000    0.875 
#    0.000    0.000    0.000    0.000    0.000    0.000 
#
# Total GULP energy -356526.187148 kJ/mol
# GULP energy per Si atom -5570.721674 kJ/mol
# Density = 1.734497 g / cm^3
# Si number density = 17.384539 Si / 1000 Ang^3
#
#
#
# Elastic Constant Matrix: (Units=GPa)
#
#
# Indices 1 2 3 4 5 6 
#
# 1 20.5526 9.0774 7.0767 0.0000 0.0000 0.0000
# 2 9.0774 128.8350 38.7134 0.0000 0.0000 0.0000
# 3 7.0767 38.7134 80.8219 0.0000 0.0000 0.0000
# 4 0.0000 0.0000 0.0000 13.6682 0.0000 0.0000
# 5 0.0000 0.0000 0.0000 0.0000 32.4759 0.0000
# 6 0.0000 0.0000 0.0000 0.0000 0.0000 4.3104
#
#
#
# Elastic Compliance Matrix: (Units=1/GPa)
#
#
# Indices 1 2 3 4 5 6 
#
# 1 0.050917 -0.002626 -0.003201 0.000000 0.000000 0.000000
# 2 -0.002626 0.009202 -0.004178 0.000000 0.000000 0.000000
# 3 -0.003201 -0.004178 0.014654 0.000000 0.000000 0.000000
# 4 0.000000 0.000000 0.000000 0.073162 0.000000 0.000000
# 5 0.000000 0.000000 0.000000 0.000000 0.030792 0.000000
# 6 0.000000 0.000000 0.000000 0.000000 0.000000 0.231997
#
#
# Mechanical properties :
#
#
# Convention : Reuss Voigt Hill
#
# Bulk Modulus (GPa) = 18.25969 37.77163 28.01566
# Shear Modulus (GPa) = 11.13611 21.78035 16.45823
#
# Velocity S-wave (km/s) = 2.53371 3.54341 3.08021
# Velocity P-wave (km/s) = 4.36873 6.20607 5.36661
#
# Compressibility (1/GPa) = 0.05476544
#
# Stress axis : x y z
#
# Youngs Moduli (GPa) = 19.63964 108.66849 68.23911
#
# Poissons Ratio (x) = 0.28534 0.21840
# Poissons Ratio (y) = 0.05157 0.28510
# Poissons Ratio (z) = 0.06286 0.45401
#
# Static dielectric constant tensor:
#      x y z
#    x 1.586960 0.000000 0.000000 
#    y 0.000000 1.639550 0.000000 
#    z 0.000000 0.000000 1.597400 
# 
# From -- ./inp_files/21931.got.cif
#   From: 2010.05.17/outbox.cif.g08.bks.cpg/sg55_11_cif.got.tgz:21931.got - 2010.06.03 13:27:54.
