data_PCOD9425668
_publ_section_title
;
Structure prediction by ZEFSAII (Michael W. Deem and Ramdas Pophale) SiO2 
 PCOD9425668
Probable space group: P B A M
;
_chemical_formula_sum "Si O2"
_cell_formula_units_Z 56
_cell_length_a 20.292092
_cell_length_b 17.919930
_cell_length_c 7.787223
_cell_angle_alpha 90.000000
_cell_angle_beta 90.000000
_cell_angle_gamma 90.000000
_cell_volume 2831.690235
_symmetry_space_group_name_H-M "P B A M"
_symmetry_group_IT_number 55
_symmetry_cell_setting 'orthorhombic'
loop_
_space_group_symop_operation_xyz
x,y,z
-x,-y,z
1/2+x,1/2-y,-z
1/2-x,1/2+y,-z
-x,-y,-z
x,y,-z
1/2-x,1/2+y,z
1/2+x,1/2-y,z
loop_
_atom_site_type_symbol
_atom_site_label
_atom_site_fract_x
_atom_site_fract_y
_atom_site_fract_z
Si Si1 0.838418 0.471204 0.288883
Si Si2 0.383105 0.707494 0.203831
Si Si3 0.901724 0.625768 0.707094
Si Si4 0.430009 0.471985 0.702862
Si Si5 0.692656 0.434965 0.702450
Si Si6 0.466812 0.312057 0.204740
Si Si7 0.551223 0.854907 0.293613
O O1 0.838655 0.469851 0.500000
O O2 0.861810 0.553460 0.235008
O O3 0.765160 0.451391 0.227661
O O4 0.892325 0.410482 0.231470
O O5 0.372052 0.794416 0.242218
O O6 0.330507 0.650249 0.278256
O O7 0.457089 0.688053 0.270052
O O8 0.383612 0.697261 0.000000
O O9 0.903820 0.623569 0.500000
O O10 0.977699 0.624509 0.770008
O O11 0.500000 0.500000 0.777182
O O12 0.431399 0.489925 0.500000
O O13 0.366664 0.514477 0.776517
O O14 0.428739 0.383198 0.723844
O O15 0.696770 0.452234 0.500000
O O16 0.437421 0.231563 0.249763
O O17 0.468866 0.318876 0.000000
O O18 0.549382 0.861201 0.500000
#
# Coordination Sequence:
#
# PCOD9425668 Si02
#       7
#     8   8   8   8   8   8   8
#     4   9  18  34  55  81 105 132 174 218 262 309
#     4  10  20  34  52  76 105 137 173 212 257 308
#     4   9  17  32  57  82 104 132 171 216 260 307
#     4  10  19  32  53  77 101 132 175 220 259 302
#     4  10  20  35  54  75 103 138 174 215 261 308
#     4  10  20  33  52  78 106 135 172 214 258 307
#     4   9  17  32  56  81 105 133 169 216 262 307
#
# _framework density 19.776174999999999
#
# number of rings (size 3 to 8) (size 9 to 14) (size 15 to 20)
#    0.000    2.429    1.429    1.286    0.000    3.714 
#    2.571    2.143    0.000    3.429    0.000    0.000 
#    0.000    0.000    0.000    0.000    0.000    0.000 
#
# Total GULP energy -312531.011094 kJ/mol
# GULP energy per Si atom -5580.910912 kJ/mol
# Density = 1.973116 g / cm^3
# Si number density = 19.776175 Si / 1000 Ang^3
#
#
#
# Elastic Constant Matrix: (Units=GPa)
#
#
# Indices 1 2 3 4 5 6 
#
# 1 135.3235 103.3378 3.5190 0.0000 0.0000 0.0000
# 2 103.3378 149.8131 -15.1246 0.0000 0.0000 0.0000
# 3 3.5190 -15.1246 21.2657 0.0000 0.0000 0.0000
# 4 0.0000 0.0000 0.0000 -109.4939 0.0000 0.0000
# 5 0.0000 0.0000 0.0000 0.0000 3.6393 0.0000
# 6 0.0000 0.0000 0.0000 0.0000 0.0000 19.2006
#
#
#
# Elastic Compliance Matrix: (Units=1/GPa)
#
#
# Indices 1 2 3 4 5 6 
#
# 1 0.018456 -0.014048 -0.013045 0.000000 0.000000 0.000000
# 2 -0.014048 0.017884 0.015044 0.000000 0.000000 0.000000
# 3 -0.013045 0.015044 0.059882 0.000000 0.000000 0.000000
# 4 0.000000 0.000000 0.000000 -0.009133 0.000000 0.000000
# 5 0.000000 0.000000 0.000000 0.000000 0.274779 0.000000
# 6 0.000000 0.000000 0.000000 0.000000 0.000000 0.052082
#
#
# Mechanical properties :
#
#
# Convention : Reuss Voigt Hill
#
# Bulk Modulus (GPa) = 13.86508 54.42966 34.14737
# Shear Modulus (GPa) = 10.82044 -3.01945 3.90049
#
# Velocity S-wave (km/s) = 2.34165 -1.23698 1.40592
# Velocity P-wave (km/s) = 3.78647 5.05395 4.46541
#
# Compressibility (1/GPa) = 0.07212364
#
# Stress axis : x y z
#
# Youngs Moduli (GPa) = 54.18215 55.91731 16.69949
#
# Poissons Ratio (x) = 0.78551 0.21785
# Poissons Ratio (y) = 0.76114 -0.25122
# Poissons Ratio (z) = 0.70681 -0.84120
#
# Static dielectric constant tensor:
#      x y z
#    x 1.697040 0.000000 0.000000 
#    y 0.000000 1.672580 0.000000 
#    z 0.000000 0.000000 1.710170 
# 
# From -- ./inp_files/6166.got.cif
#   From: 2010.05.17/outbox.cif.g08.bks.cpg/sg55_4_cif.got.tgz:6166.got - 2010.06.03 13:27:54.
