data_PCOD9425655
_publ_section_title
;
Structure prediction by ZEFSAII (Michael W. Deem and Ramdas Pophale) SiO2 
 PCOD9425655
Probable space group: P B A M
;
_chemical_formula_sum "Si O2"
_cell_formula_units_Z 56
_cell_length_a 15.051405
_cell_length_b 20.749111
_cell_length_c 9.219960
_cell_angle_alpha 90.000000
_cell_angle_beta 90.000000
_cell_angle_gamma 90.000000
_cell_volume 2879.423685
_symmetry_space_group_name_H-M "P B A M"
_symmetry_group_IT_number 55
_symmetry_cell_setting 'orthorhombic'
loop_
_space_group_symop_operation_xyz
x,y,z
-x,-y,z
1/2+x,1/2-y,-z
1/2-x,1/2+y,-z
-x,-y,-z
x,y,-z
1/2-x,1/2+y,z
1/2+x,1/2-y,z
loop_
_atom_site_type_symbol
_atom_site_label
_atom_site_fract_x
_atom_site_fract_y
_atom_site_fract_z
Si Si1 0.090880 0.368777 0.669911
Si Si2 0.410749 0.713742 0.670704
Si Si3 0.217436 0.119446 0.171477
Si Si4 0.592307 0.716241 0.830192
Si Si5 0.787863 0.118828 0.674037
Si Si6 0.603129 0.509605 0.830166
Si Si7 0.413267 0.128467 0.168736
O O1 0.081336 0.382645 0.500000
O O2 0.097256 0.290954 0.686426
O O3 0.186263 0.394493 0.720621
O O4 0.002359 0.391715 0.749660
O O5 0.418739 0.699200 0.500000
O O6 0.327858 0.676928 0.740131
O O7 0.500421 0.694008 0.755471
O O8 0.317641 0.103665 0.221110
O O9 0.155087 0.057442 0.185225
O O10 0.222599 0.137158 0.000000
O O11 0.673635 0.683253 0.747574
O O12 0.594606 0.793642 0.818929
O O13 0.592784 0.699095 0.000000
O O14 0.789230 0.125393 0.500000
O O15 0.851131 0.062378 0.729898
O O16 0.500000 0.500000 0.794885
O O17 0.609054 0.529502 0.000000
O O18 0.423338 0.111963 0.000000
#
# Coordination Sequence:
#
# PCOD9425655 Si02
#       7
#     8   8   8   8   8   8   8
#     4   9  20  36  53  78 111 142 173 216 265 314
#     4  10  19  32  53  81 111 142 175 212 262 319
#     4  10  20  35  54  78 108 139 177 223 267 312
#     4  10  19  32  52  79 110 141 174 214 264 317
#     4  11  22  36  55  79 107 140 180 221 263 314
#     4  10  22  39  57  77 104 139 176 217 267 318
#     4   9  19  34  54  80 107 139 178 218 260 314
#
# _framework density 19.448336000000001
#
# number of rings (size 3 to 8) (size 9 to 14) (size 15 to 20)
#    0.000    2.143    0.000    3.000    0.000    4.857 
#    0.000    0.714    0.000    4.286    0.000    0.000 
#    0.000    0.000    0.000    0.000    0.000    0.000 
#
# Total GULP energy -312744.263428 kJ/mol
# GULP energy per Si atom -5584.718990 kJ/mol
# Density = 1.940407 g / cm^3
# Si number density = 19.448336 Si / 1000 Ang^3
#
#
#
# Elastic Constant Matrix: (Units=GPa)
#
#
# Indices 1 2 3 4 5 6 
#
# 1 187.3705 18.5903 61.0823 0.0000 0.0000 0.0000
# 2 18.5903 10.6013 15.7348 0.0000 0.0000 0.0000
# 3 61.0823 15.7348 67.6434 0.0000 0.0000 0.0000
# 4 0.0000 0.0000 0.0000 13.8131 0.0000 0.0000
# 5 0.0000 0.0000 0.0000 0.0000 31.8565 0.0000
# 6 0.0000 0.0000 0.0000 0.0000 0.0000 16.6949
#
#
#
# Elastic Compliance Matrix: (Units=1/GPa)
#
#
# Indices 1 2 3 4 5 6 
#
# 1 0.007725 -0.004877 -0.005842 0.000000 0.000000 0.000000
# 2 -0.004877 0.147147 -0.029825 0.000000 0.000000 0.000000
# 3 -0.005842 -0.029825 0.026996 0.000000 0.000000 0.000000
# 4 0.000000 0.000000 0.000000 0.072395 0.000000 0.000000
# 5 0.000000 0.000000 0.000000 0.000000 0.031391 0.000000
# 6 0.000000 0.000000 0.000000 0.000000 0.000000 0.059898
#
#
# Mechanical properties :
#
#
# Convention : Reuss Voigt Hill
#
# Bulk Modulus (GPa) = 9.92241 50.71444 30.31843
# Shear Modulus (GPa) = 10.86410 23.82011 17.34210
#
# Velocity S-wave (km/s) = 2.36606 3.50350 2.98938
# Velocity P-wave (km/s) = 3.54646 6.51913 5.24769
#
# Compressibility (1/GPa) = 0.10078200
#
# Stress axis : x y z
#
# Youngs Moduli (GPa) = 129.44694 6.79595 37.04260
#
# Poissons Ratio (x) = 0.03314 0.21638
# Poissons Ratio (y) = 0.63126 1.10479
# Poissons Ratio (z) = 0.75616 0.20269
#
# Static dielectric constant tensor:
#      x y z
#    x 1.687360 0.000000 0.000000 
#    y 0.000000 1.680860 0.000000 
#    z 0.000000 0.000000 1.655100 
# 
# From -- ./inp_files/6044.got.cif
#   From: 2010.05.17/outbox.cif.g08.bks.cpg/sg55_4_cif.got.tgz:6044.got - 2010.06.03 13:27:54.
