data_PCOD9425029
_publ_section_title
;
Structure prediction by ZEFSAII (Michael W. Deem and Ramdas Pophale) SiO2 
 PCOD9425029
Probable space group: P B A M
;
_chemical_formula_sum "Si O2"
_cell_formula_units_Z 64
_cell_length_a 16.987157
_cell_length_b 20.657177
_cell_length_c 9.627422
_cell_angle_alpha 90.000000
_cell_angle_beta 90.000000
_cell_angle_gamma 90.000000
_cell_volume 3378.326969
_symmetry_space_group_name_H-M "P B A M"
_symmetry_group_IT_number 55
_symmetry_cell_setting 'orthorhombic'
loop_
_space_group_symop_operation_xyz
x,y,z
-x,-y,z
1/2+x,1/2-y,-z
1/2-x,1/2+y,-z
-x,-y,-z
x,y,-z
1/2-x,1/2+y,z
1/2+x,1/2-y,z
loop_
_atom_site_type_symbol
_atom_site_label
_atom_site_fract_x
_atom_site_fract_y
_atom_site_fract_z
Si Si1 0.163201 0.489882 0.840238
Si Si2 0.455025 0.881994 0.160948
Si Si3 0.604482 0.352900 0.661061
Si Si4 0.450565 0.332124 0.835456
Si Si5 0.719809 0.632104 0.839208
Si Si6 0.772550 0.393625 0.333468
Si Si7 0.114337 0.688474 0.162319
Si Si8 0.160500 0.295047 0.661111
O O1 0.080092 0.453437 0.817031
O O2 0.229020 0.433112 0.828584
O O3 0.184660 0.544250 0.730751
O O4 0.164497 0.514451 0.000000
O O5 0.546578 0.866528 0.175651
O O6 0.408155 0.835365 0.263838
O O7 0.434238 0.865589 0.000000
O O8 0.585363 0.366234 0.500000
O O9 0.526498 0.355129 0.752424
O O10 0.679785 0.395670 0.703052
O O11 0.638060 0.279792 0.669529
O O12 0.372147 0.373716 0.805777
O O13 0.425725 0.257546 0.803137
O O14 0.467212 0.334318 0.000000
O O15 0.761027 0.684756 0.742072
O O16 0.724306 0.653785 0.000000
O O17 0.779040 0.389560 0.500000
O O18 0.815048 0.332592 0.261260
O O19 0.138412 0.691289 0.000000
O O20 0.167161 0.313210 0.500000
#
# Coordination Sequence:
#
# PCOD9425029 Si02
#       8
#     8   8   8   8   8   8   8   8
#     4   9  19  37  57  76 106 146 186 226 270 317
#     4   9  18  34  56  82 112 143 175 221 273 321
#     4  10  22  37  52  76 112 147 177 220 277 325
#     4  10  20  35  59  88 111 137 179 224 271 332
#     4   9  19  35  56  82 109 138 177 227 274 320
#     4  11  24  39  54  76 109 149 190 228 266 318
#     4  10  20  35  57  86 115 141 175 221 277 332
#     4  10  18  30  52  80 108 141 177 212 265 330
#
# _framework density 18.944289000000001
#
# number of rings (size 3 to 8) (size 9 to 14) (size 15 to 20)
#    0.000    2.250    1.250    2.250    0.000    5.500 
#    0.000    3.125    0.000    3.750    0.000    0.000 
#    0.000    0.000    0.000    0.000    0.000    0.000 
#
# Total GULP energy -357174.135145 kJ/mol
# GULP energy per Si atom -5580.845862 kJ/mol
# Density = 1.890117 g / cm^3
# Si number density = 18.944289 Si / 1000 Ang^3
#
#
#
# Elastic Constant Matrix: (Units=GPa)
#
#
# Indices 1 2 3 4 5 6 
#
# 1 92.5510 10.7491 37.2631 0.0000 0.0000 0.0000
# 2 10.7491 32.9863 13.2599 0.0000 0.0000 0.0000
# 3 37.2631 13.2599 56.5098 0.0000 0.0000 0.0000
# 4 0.0000 0.0000 0.0000 20.1428 0.0000 0.0000
# 5 0.0000 0.0000 0.0000 0.0000 26.9686 0.0000
# 6 0.0000 0.0000 0.0000 0.0000 0.0000 24.6392
#
#
#
# Elastic Compliance Matrix: (Units=1/GPa)
#
#
# Indices 1 2 3 4 5 6 
#
# 1 0.014740 -0.000989 -0.009487 0.000000 0.000000 0.000000
# 2 -0.000989 0.033539 -0.007218 0.000000 0.000000 0.000000
# 3 -0.009487 -0.007218 0.025646 0.000000 0.000000 0.000000
# 4 0.000000 0.000000 0.000000 0.049645 0.000000 0.000000
# 5 0.000000 0.000000 0.000000 0.000000 0.037080 0.000000
# 6 0.000000 0.000000 0.000000 0.000000 0.000000 0.040586
#
#
# Mechanical properties :
#
#
# Convention : Reuss Voigt Hill
#
# Bulk Modulus (GPa) = 25.94964 33.84347 29.89655
# Shear Modulus (GPa) = 20.04253 22.40179 21.22216
#
# Velocity S-wave (km/s) = 3.25618 3.44249 3.35063
# Velocity P-wave (km/s) = 5.27869 5.80556 5.54838
#
# Compressibility (1/GPa) = 0.03853618
#
# Stress axis : x y z
#
# Youngs Moduli (GPa) = 67.84478 29.81570 38.99306
#
# Poissons Ratio (x) = 0.02950 0.36994
# Poissons Ratio (y) = 0.06713 0.28143
# Poissons Ratio (z) = 0.64366 0.21520
#
# Static dielectric constant tensor:
#      x y z
#    x 1.673320 0.000000 0.000000 
#    y 0.000000 1.678740 0.000000 
#    z 0.000000 0.000000 1.627610 
# 
# From -- ./inp_files/6715.got.cif
#   From: 2010.05.17/outbox.cif.g08.bks.cpg/sg55_4_cif.got.tgz:6715.got - 2010.06.03 13:27:54.
