data_PCOD9425884
_publ_section_title
;
Structure prediction by ZEFSAII (Michael W. Deem and Ramdas Pophale) SiO2 
 PCOD9425884
Probable space group: P B A M
;
_chemical_formula_sum "Si O2"
_cell_formula_units_Z 54
_cell_length_a 15.810118
_cell_length_b 5.157544
_cell_length_c 33.421226
_cell_angle_alpha 90.000000
_cell_angle_beta 90.000000
_cell_angle_gamma 90.000000
_cell_volume 2725.212864
_symmetry_space_group_name_H-M "P B A M"
_symmetry_group_IT_number 55
_symmetry_cell_setting 'orthorhombic'
loop_
_space_group_symop_operation_xyz
x,y,z
-x,-y,z
1/2+x,1/2-y,-z
1/2-x,1/2+y,-z
-x,-y,-z
x,y,-z
1/2-x,1/2+y,z
1/2+x,1/2-y,z
loop_
_atom_site_type_symbol
_atom_site_label
_atom_site_fract_x
_atom_site_fract_y
_atom_site_fract_z
Si Si1 0.439753 0.249813 0.297123
Si Si2 0.692537 0.138506 0.000000
Si Si3 0.915885 0.375331 0.934260
Si Si4 0.805405 0.188353 0.138766
Si Si5 0.939245 0.250230 0.209170
Si Si6 0.500000 0.500000 0.000000
Si Si7 0.692982 0.694130 0.545315
Si Si8 0.439770 0.249804 0.384246
O O1 0.500000 0.500000 0.297172
O O2 0.396837 0.248219 0.253621
O O3 0.394883 0.248652 0.340304
O O4 0.500000 0.000000 0.297305
O O5 0.634088 0.088202 0.961236
O O6 0.764077 0.916820 0.000000
O O7 0.854808 0.248456 0.902168
O O8 0.000000 0.500000 0.915046
O O9 0.949868 0.167354 0.965585
O O10 0.729516 0.396864 0.140378
O O11 0.869105 0.240371 0.175134
O O12 0.000000 0.500000 0.205466
O O13 0.000000 0.000000 0.206104
O O14 0.658090 0.718944 0.500000
O O15 0.734146 0.410804 0.549260
O O16 0.624913 0.741784 0.579450
O O17 0.500000 0.500000 0.386084
O O18 0.500000 0.000000 0.386897
#
# Coordination Sequence:
#
# PCOD9425884 Si02
#       8
#     8   4   8   8   8   2   8   8
#     4   8  16  31  54  84 114 144 187 239 288 339
#     4  11  24  41  62  88 122 151 180 230 291 323
#     4  11  26  42  67  91 121 158 204 236 277 339
#     4  12  27  44  64  94 131 158 191 244 301 334
#     4  10  20  39  66  90 116 160 203 233 278 352
#     4  10  24  40  68  90 116 142 210 242 264 320
#     4  10  21  36  51  72 108 151 193 239 296 358
#     4  10  19  33  55  82 110 143 190 246 294 344
#
# _framework density 19.814965999999998
#
# number of rings (size 3 to 8) (size 9 to 14) (size 15 to 20)
#    0.000    1.778    0.000    4.000    7.259    0.593 
#    0.000    1.481    0.000    0.000    0.000    0.000 
#    0.000    0.000    0.000    0.000    0.000    0.000 
#
# Total GULP energy -301176.295584 kJ/mol
# GULP energy per Si atom -5577.338807 kJ/mol
# Density = 1.976987 g / cm^3
# Si number density = 19.814966 Si / 1000 Ang^3
#
#
#
# Elastic Constant Matrix: (Units=GPa)
#
#
# Indices 1 2 3 4 5 6 
#
# 1 47.8957 0.7823 35.0622 0.0000 0.0000 0.0000
# 2 0.7823 91.0593 -11.1197 0.0000 0.0000 0.0000
# 3 35.0622 -11.1197 148.7095 0.0000 0.0000 0.0000
# 4 0.0000 0.0000 0.0000 5.6504 0.0000 0.0000
# 5 0.0000 0.0000 0.0000 0.0000 12.0086 0.0000
# 6 0.0000 0.0000 0.0000 0.0000 0.0000 30.7773
#
#
#
# Elastic Compliance Matrix: (Units=1/GPa)
#
#
# Indices 1 2 3 4 5 6 
#
# 1 0.025316 -0.000955 -0.006040 0.000000 0.000000 0.000000
# 2 -0.000955 0.011119 0.001057 0.000000 0.000000 0.000000
# 3 -0.006040 0.001057 0.008228 0.000000 0.000000 0.000000
# 4 0.000000 0.000000 0.000000 0.176979 0.000000 0.000000
# 5 0.000000 0.000000 0.000000 0.000000 0.083273 0.000000
# 6 0.000000 0.000000 0.000000 0.000000 0.000000 0.032492
#
#
# Mechanical properties :
#
#
# Convention : Reuss Voigt Hill
#
# Bulk Modulus (GPa) = 30.50153 37.45710 33.97932
# Shear Modulus (GPa) = 13.88069 27.21657 20.54863
#
# Velocity S-wave (km/s) = 2.64960 3.71015 3.22378
# Velocity P-wave (km/s) = 4.97866 6.10721 5.57159
#
# Compressibility (1/GPa) = 0.03278524
#
# Stress axis : x y z
#
# Youngs Moduli (GPa) = 39.50043 89.93544 121.54056
#
# Poissons Ratio (x) = 0.08590 0.73415
# Poissons Ratio (y) = 0.03773 -0.12842
# Poissons Ratio (z) = 0.23860 -0.09503
#
# Static dielectric constant tensor:
#      x y z
#    x 1.688680 0.000000 0.000000 
#    y 0.000000 1.704550 0.000000 
#    z 0.000000 0.000000 1.724680 
# 
# From -- ./inp_files/24195.got.cif
#   From: 2010.05.17/outbox.cif.g08.bks.cpg/sg55_13_cif.got.tgz:24195.got - 2010.06.03 13:27:54.
