data_PCOD9425570
_publ_section_title
;
Structure prediction by ZEFSAII (Michael W. Deem and Ramdas Pophale) SiO2 
 PCOD9425570
Probable space group: P B A M
;
_chemical_formula_sum "Si O2"
_cell_formula_units_Z 64
_cell_length_a 24.159591
_cell_length_b 11.644886
_cell_length_c 13.029468
_cell_angle_alpha 90.000000
_cell_angle_beta 90.000000
_cell_angle_gamma 90.000000
_cell_volume 3665.654279
_symmetry_space_group_name_H-M "P B A M"
_symmetry_group_IT_number 55
_symmetry_cell_setting 'orthorhombic'
loop_
_space_group_symop_operation_xyz
x,y,z
-x,-y,z
1/2+x,1/2-y,-z
1/2-x,1/2+y,-z
-x,-y,-z
x,y,-z
1/2-x,1/2+y,z
1/2+x,1/2-y,z
loop_
_atom_site_type_symbol
_atom_site_label
_atom_site_fract_x
_atom_site_fract_y
_atom_site_fract_z
Si Si1 0.965410 0.731144 0.116748
Si Si2 0.133363 0.827512 0.380865
Si Si3 0.754512 0.685997 0.880666
Si Si4 0.708074 0.496538 0.274933
Si Si5 0.955911 0.103496 0.774655
Si Si6 0.311027 0.131143 0.754761
Si Si7 0.869115 0.569569 0.878423
Si Si8 0.877181 0.938323 0.885212
O O1 0.928265 0.623522 0.151520
O O2 0.014503 0.781781 0.184748
O O3 0.921769 0.836691 0.112512
O O4 0.984565 0.709537 0.000000
O O5 0.128441 0.800716 0.500000
O O6 0.176873 0.930883 0.360934
O O7 0.076704 0.870299 0.329112
O O8 0.155215 0.720323 0.313875
O O9 0.728443 0.586126 0.811678
O O10 0.725177 0.800422 0.839843
O O11 0.820593 0.666489 0.869159
O O12 0.742126 0.671524 0.000000
O O13 0.762594 0.430624 0.310392
O O14 0.664375 0.421926 0.209656
O O15 0.911119 0.054523 0.856823
O O16 0.000000 0.000000 0.762220
O O17 0.349401 0.037745 0.810893
O O18 0.871249 0.540410 0.000000
O O19 0.852081 0.944435 0.000000
#
# Coordination Sequence:
#
# PCOD9425570 Si02
#       8
#     8   8   8   8   8   8   8   8
#     4   9  16  27  46  72 102 133 161 191 231 281
#     4  10  22  38  54  72  91 118 162 210 254 292
#     4   9  16  26  43  70 104 137 163 186 219 276
#     4   9  18  30  47  72  99 127 157 192 235 284
#     4   9  18  33  53  75  98 125 161 206 247 281
#     4  10  19  32  49  70 100 133 162 194 235 286
#     4   9  17  28  45  72 104 136 164 190 229 285
#     4   9  15  25  46  76 106 133 159 187 226 281
#
# _framework density 17.459365999999999
#
# number of rings (size 3 to 8) (size 9 to 14) (size 15 to 20)
#    0.000    2.750    0.000    1.875    0.000    4.750 
#    0.000    2.500    0.000    3.000    0.000    0.000 
#    0.000    0.000    0.000    0.000    0.000    0.000 
#
# Total GULP energy -356555.351857 kJ/mol
# GULP energy per Si atom -5571.177373 kJ/mol
# Density = 1.741963 g / cm^3
# Si number density = 17.459366 Si / 1000 Ang^3
#
#
#
# Elastic Constant Matrix: (Units=GPa)
#
#
# Indices 1 2 3 4 5 6 
#
# 1 45.8261 8.4651 19.6418 0.0000 0.0000 0.0000
# 2 8.4651 44.8035 16.1103 0.0000 0.0000 0.0000
# 3 19.6418 16.1103 63.5210 0.0000 0.0000 0.0000
# 4 0.0000 0.0000 0.0000 11.9565 0.0000 0.0000
# 5 0.0000 0.0000 0.0000 0.0000 12.6854 0.0000
# 6 0.0000 0.0000 0.0000 0.0000 0.0000 23.5043
#
#
#
# Elastic Compliance Matrix: (Units=1/GPa)
#
#
# Indices 1 2 3 4 5 6 
#
# 1 0.025346 -0.002168 -0.007287 0.000000 0.000000 0.000000
# 2 -0.002168 0.024745 -0.005605 0.000000 0.000000 0.000000
# 3 -0.007287 -0.005605 0.019418 0.000000 0.000000 0.000000
# 4 0.000000 0.000000 0.000000 0.083637 0.000000 0.000000
# 5 0.000000 0.000000 0.000000 0.000000 0.078831 0.000000
# 6 0.000000 0.000000 0.000000 0.000000 0.000000 0.042545
#
#
# Mechanical properties :
#
#
# Convention : Reuss Voigt Hill
#
# Bulk Modulus (GPa) = 25.38959 26.95389 26.17174
# Shear Modulus (GPa) = 15.73455 16.95814 16.34635
#
# Velocity S-wave (km/s) = 3.00527 3.11994 3.06314
# Velocity P-wave (km/s) = 5.15906 5.33388 5.24720
#
# Compressibility (1/GPa) = 0.03938623
#
# Stress axis : x y z
#
# Youngs Moduli (GPa) = 39.45445 40.41233 51.49900
#
# Poissons Ratio (x) = 0.08763 0.37529
# Poissons Ratio (y) = 0.08555 0.28867
# Poissons Ratio (z) = 0.28752 0.22653
#
# Static dielectric constant tensor:
#      x y z
#    x 1.644310 0.000000 0.000000 
#    y 0.000000 1.632730 0.000000 
#    z 0.000000 0.000000 1.549680 
# 
# From -- ./inp_files/13587.got.cif
#   From: 2010.05.17/outbox.cif.g08.bks.cpg/sg55_7_cif.got.tgz:13587.got - 2010.06.03 13:27:54.
