data_PCOD9425750
_publ_section_title
;
Structure prediction by ZEFSAII (Michael W. Deem and Ramdas Pophale) SiO2 
 PCOD9425750
Probable space group: P B A M
;
_chemical_formula_sum "Si O2"
_cell_formula_units_Z 64
_cell_length_a 18.417320
_cell_length_b 5.478990
_cell_length_c 29.930089
_cell_angle_alpha 90.000000
_cell_angle_beta 90.000000
_cell_angle_gamma 90.000000
_cell_volume 3020.194762
_symmetry_space_group_name_H-M "P B A M"
_symmetry_group_IT_number 55
_symmetry_cell_setting 'orthorhombic'
loop_
_space_group_symop_operation_xyz
x,y,z
-x,-y,z
1/2+x,1/2-y,-z
1/2-x,1/2+y,-z
-x,-y,-z
x,y,-z
1/2-x,1/2+y,z
1/2+x,1/2-y,z
loop_
_atom_site_type_symbol
_atom_site_label
_atom_site_fract_x
_atom_site_fract_y
_atom_site_fract_z
Si Si1 0.581885 0.085294 0.950786
Si Si2 0.573459 0.223108 0.235159
Si Si3 0.728113 0.484676 0.168466
Si Si4 0.217048 0.630281 0.931200
Si Si5 0.424353 0.629932 0.861667
Si Si6 0.702927 0.705044 0.452025
Si Si7 0.591977 0.728101 0.729075
Si Si8 0.798973 0.202319 0.648587
O O1 0.633612 0.853082 0.944341
O O2 0.598365 0.247100 0.907722
O O3 0.500000 0.000000 0.947312
O O4 0.592501 0.194958 0.000000
O O5 0.560948 0.203947 0.182087
O O6 0.496046 0.248079 0.262110
O O7 0.611611 0.479721 0.245489
O O8 0.615726 0.986431 0.250997
O O9 0.737870 0.220541 0.191488
O O10 0.769434 0.415912 0.121714
O O11 0.644924 0.524555 0.153890
O O12 0.256280 0.868765 0.948818
O O13 0.500000 0.500000 0.869614
O O14 0.661632 0.703923 0.500000
O O15 0.750528 0.456128 0.452685
O O16 0.670242 0.703560 0.402383
O O17 0.632245 0.706376 0.681822
O O18 0.749330 0.450986 0.654279
#
# Coordination Sequence:
#
# PCOD9425750 Si02
#       8
#     8   8   8   8   8   8   8   8
#     4  11  27  44  68 103 133 163 202 250 303 371
#     4  10  23  41  64  86 107 156 207 257 293 361
#     4  10  22  43  65 100 124 153 196 237 290 358
#     4  10  21  45  68  96 125 161 196 233 286 354
#     4  12  25  43  74  94 127 168 204 253 307 375
#     4   8  14  25  43  75 116 162 210 249 299 373
#     4  10  20  41  58  87 115 147 217 247 301 367
#     4  10  19  32  57  86 127 168 199 258 327 372
#
# _framework density 21.190688999999999
#
# number of rings (size 3 to 8) (size 9 to 14) (size 15 to 20)
#    0.000    1.875    3.750    0.750    5.250    1.750 
#    0.000    5.000    0.000    0.000    0.000    3.500 
#    0.000    0.000    0.000    0.000    0.000    0.000 
#
# Total GULP energy -356460.287361 kJ/mol
# GULP energy per Si atom -5569.691990 kJ/mol
# Density = 2.114246 g / cm^3
# Si number density = 21.190689 Si / 1000 Ang^3
#
#
#
# Elastic Constant Matrix: (Units=GPa)
#
#
# Indices 1 2 3 4 5 6 
#
# 1 89.7859 15.4076 22.7965 0.0000 0.0000 0.0000
# 2 15.4076 158.2184 26.3237 0.0000 0.0000 0.0000
# 3 22.7965 26.3237 175.1539 0.0000 0.0000 0.0000
# 4 0.0000 0.0000 0.0000 -12.3853 0.0000 0.0000
# 5 0.0000 0.0000 0.0000 0.0000 25.6502 0.0000
# 6 0.0000 0.0000 0.0000 0.0000 0.0000 21.7457
#
#
#
# Elastic Compliance Matrix: (Units=1/GPa)
#
#
# Indices 1 2 3 4 5 6 
#
# 1 0.011643 -0.000904 -0.001379 0.000000 0.000000 0.000000
# 2 -0.000904 0.006553 -0.000867 0.000000 0.000000 0.000000
# 3 -0.001379 -0.000867 0.006019 0.000000 0.000000 0.000000
# 4 0.000000 0.000000 0.000000 -0.080741 0.000000 0.000000
# 5 0.000000 0.000000 0.000000 0.000000 0.038986 0.000000
# 6 0.000000 0.000000 0.000000 0.000000 0.000000 0.045986
#
#
# Mechanical properties :
#
#
# Convention : Reuss Voigt Hill
#
# Bulk Modulus (GPa) = 55.82496 61.35708 58.59102
# Shear Modulus (GPa) = 122.79337 30.91082 76.85210
#
# Velocity S-wave (km/s) = 7.62054 3.82343 6.02874
# Velocity P-wave (km/s) = 10.18977 6.96485 8.72756
#
# Compressibility (1/GPa) = 0.01791313
#
# Stress axis : x y z
#
# Youngs Moduli (GPa) = 85.88830 152.60876 166.13729
#
# Poissons Ratio (x) = 0.13801 0.22918
# Poissons Ratio (y) = 0.07767 0.14406
# Poissons Ratio (z) = 0.11848 0.13233
#
# Static dielectric constant tensor:
#      x y z
#    x 1.766430 0.000000 0.000000 
#    y 0.000000 1.884490 0.000000 
#    z 0.000000 0.000000 1.433290 
# 
# From -- ./inp_files/24219.got.cif
#   From: 2010.05.17/outbox.cif.g08.bks.cpg/sg55_13_cif.got.tgz:24219.got - 2010.06.03 13:27:54.
