data_PCOD9425813
_publ_section_title
;
Structure prediction by ZEFSAII (Michael W. Deem and Ramdas Pophale) SiO2 
 PCOD9425813
Probable space group: P B A M
;
_chemical_formula_sum "Si O2"
_cell_formula_units_Z 64
_cell_length_a 31.092918
_cell_length_b 11.753062
_cell_length_c 9.309447
_cell_angle_alpha 90.000000
_cell_angle_beta 90.000000
_cell_angle_gamma 90.000000
_cell_volume 3402.016318
_symmetry_space_group_name_H-M "P B A M"
_symmetry_group_IT_number 55
_symmetry_cell_setting 'orthorhombic'
loop_
_space_group_symop_operation_xyz
x,y,z
-x,-y,z
1/2+x,1/2-y,-z
1/2-x,1/2+y,-z
-x,-y,-z
x,y,-z
1/2-x,1/2+y,z
1/2+x,1/2-y,z
loop_
_atom_site_type_symbol
_atom_site_label
_atom_site_fract_x
_atom_site_fract_y
_atom_site_fract_z
Si Si1 0.693974 0.023854 0.666081
Si Si2 0.727497 0.270879 0.663146
Si Si3 0.525079 0.120999 0.172333
Si Si4 0.814296 0.211894 0.835121
Si Si5 0.720909 0.463049 0.839069
Si Si6 0.482137 0.370428 0.826699
Si Si7 0.403987 0.261510 0.328261
Si Si8 0.403307 0.003468 0.328624
O O1 0.699178 0.984839 0.500000
O O2 0.699406 0.158633 0.664726
O O3 0.732611 0.986914 0.768650
O O4 0.646653 0.992771 0.716013
O O5 0.739123 0.295056 0.500000
O O6 0.771305 0.253696 0.753770
O O7 0.700878 0.370748 0.735153
O O8 0.508266 0.250454 0.209468
O O9 0.500000 0.000000 0.209226
O O10 0.570420 0.093045 0.247190
O O11 0.528202 0.120599 0.000000
O O12 0.857162 0.232550 0.744744
O O13 0.806199 0.077042 0.841823
O O14 0.817352 0.254437 0.000000
O O15 0.725666 0.419371 0.000000
O O16 0.500000 0.500000 0.792661
O O17 0.436975 0.348247 0.746034
O O18 0.476625 0.368267 0.000000
O O19 0.400877 0.278535 0.500000
O O20 0.420294 0.131749 0.303353
O O21 0.404593 0.982807 0.500000
#
# Coordination Sequence:
#
# PCOD9425813 Si02
#       8
#     8   8   8   8   8   8   8   8
#     4   9  19  35  53  77 109 146 186 230 283 337
#     4  10  19  33  54  77 109 149 188 232 285 341
#     4  10  20  37  62  89 113 146 191 233 281 345
#     4  10  21  36  55  80 111 148 193 238 284 337
#     4  10  20  34  53  77 107 147 191 235 283 337
#     4  10  22  42  64  85 117 155 190 234 294 353
#     4  11  22  36  59  89 117 148 192 239 290 347
#     4  10  21  36  57  86 117 146 183 235 288 339
#
# _framework density 18.812373000000001
#
# number of rings (size 3 to 8) (size 9 to 14) (size 15 to 20)
#    0.000    2.000    1.250    2.250    0.000    5.000 
#    2.250    0.000    0.000    0.000    0.000    0.000 
#    0.000    0.000    0.000    0.000    0.000    0.000 
#
# Total GULP energy -356335.928211 kJ/mol
# GULP energy per Si atom -5567.748878 kJ/mol
# Density = 1.876956 g / cm^3
# Si number density = 18.812373 Si / 1000 Ang^3
#
#
#
# Elastic Constant Matrix: (Units=GPa)
#
#
# Indices 1 2 3 4 5 6 
#
# 1 70.7051 36.0165 24.7095 0.0000 0.0000 0.0000
# 2 36.0165 119.5665 40.8414 0.0000 0.0000 0.0000
# 3 24.7095 40.8414 66.6146 0.0000 0.0000 0.0000
# 4 0.0000 0.0000 0.0000 44.7008 0.0000 0.0000
# 5 0.0000 0.0000 0.0000 0.0000 31.8482 0.0000
# 6 0.0000 0.0000 0.0000 0.0000 0.0000 200.0793
#
#
#
# Elastic Compliance Matrix: (Units=1/GPa)
#
#
# Indices 1 2 3 4 5 6 
#
# 1 0.017564 -0.003877 -0.004138 0.000000 0.000000 0.000000
# 2 -0.003877 0.011435 -0.005573 0.000000 0.000000 0.000000
# 3 -0.004138 -0.005573 0.019963 0.000000 0.000000 0.000000
# 4 0.000000 0.000000 0.000000 0.022371 0.000000 0.000000
# 5 0.000000 0.000000 0.000000 0.000000 0.031399 0.000000
# 6 0.000000 0.000000 0.000000 0.000000 0.000000 0.004998
#
#
# Mechanical properties :
#
#
# Convention : Reuss Voigt Hill
#
# Bulk Modulus (GPa) = 45.89946 51.11346 48.50646
# Shear Modulus (GPa) = 35.16947 65.68023 50.42485
#
# Velocity S-wave (km/s) = 4.32845 5.91516 5.18288
# Velocity P-wave (km/s) = 7.03080 8.59542 7.85218
#
# Compressibility (1/GPa) = 0.02178675
#
# Stress axis : x y z
#
# Youngs Moduli (GPa) = 56.93304 87.45090 50.09224
#
# Poissons Ratio (x) = 0.33908 0.20728
# Poissons Ratio (y) = 0.22075 0.27914
# Poissons Ratio (z) = 0.23559 0.48732
#
# Static dielectric constant tensor:
#      x y z
#    x 1.645940 0.000000 0.000000 
#    y 0.000000 1.741570 0.000000 
#    z 0.000000 0.000000 1.648840 
# 
# From -- ./inp_files/10868.got.cif
#   From: 2010.05.17/outbox.cif.g08.bks.cpg/sg55_6_cif.got.tgz:10868.got - 2010.06.03 13:27:54.
