data_PCOD9425380
_publ_section_title
;
Structure prediction by ZEFSAII (Michael W. Deem and Ramdas Pophale) SiO2 
 PCOD9425380
Probable space group: P B A M
;
_chemical_formula_sum "Si O2"
_cell_formula_units_Z 64
_cell_length_a 21.845939
_cell_length_b 18.971187
_cell_length_c 9.785706
_cell_angle_alpha 90.000000
_cell_angle_beta 90.000000
_cell_angle_gamma 90.000000
_cell_volume 4055.621207
_symmetry_space_group_name_H-M "P B A M"
_symmetry_group_IT_number 55
_symmetry_cell_setting 'orthorhombic'
loop_
_space_group_symop_operation_xyz
x,y,z
-x,-y,z
1/2+x,1/2-y,-z
1/2-x,1/2+y,-z
-x,-y,-z
x,y,-z
1/2-x,1/2+y,z
1/2+x,1/2-y,z
loop_
_atom_site_type_symbol
_atom_site_label
_atom_site_fract_x
_atom_site_fract_y
_atom_site_fract_z
Si Si1 0.403233 0.672764 0.337209
Si Si2 0.690817 0.414424 0.836471
Si Si3 0.230570 0.372277 0.844337
Si Si4 0.178240 0.532553 0.156849
Si Si5 0.930007 0.517484 0.663605
Si Si6 0.978546 0.080756 0.660490
Si Si7 0.359683 0.427530 0.162809
Si Si8 0.376720 0.829737 0.661125
O O1 0.392294 0.662046 0.500000
O O2 0.347196 0.641381 0.250630
O O3 0.464863 0.630743 0.301475
O O4 0.410071 0.756040 0.312417
O O5 0.763136 0.420283 0.802026
O O6 0.660518 0.491430 0.809568
O O7 0.686391 0.402032 0.000000
O O8 0.205602 0.452911 0.844766
O O9 0.301239 0.378933 0.803253
O O10 0.186237 0.330894 0.744704
O O11 0.226593 0.346003 0.000000
O O12 0.119871 0.529100 0.255401
O O13 0.161221 0.549646 0.000000
O O14 0.922865 0.507632 0.500000
O O15 0.914610 0.599543 0.695282
O O16 0.000000 0.500000 0.699731
O O17 0.964523 0.091617 0.500000
O O18 0.919113 0.091654 0.752068
O O19 0.000000 0.000000 0.677310
O O20 0.370219 0.422415 0.000000
O O21 0.363275 0.833571 0.500000
#
# Coordination Sequence:
#
# PCOD9425380 Si02
#       8
#     8   8   8   8   8   8   8   8
#     4  10  20  32  46  66  95 128 161 198 238 281
#     4   9  17  29  46  69  94 122 155 192 236 279
#     4   8  15  29  48  69  91 115 147 190 235 278
#     4   8  15  28  46  70  95 116 145 187 234 279
#     4   9  17  30  50  74  95 120 157 197 238 285
#     4  10  19  30  44  67  97 130 166 198 230 273
#     4   9  17  29  47  70  94 120 155 198 236 272
#     4   9  18  32  49  69  93 121 156 197 240 285
#
# _framework density 15.780567
#
# number of rings (size 3 to 8) (size 9 to 14) (size 15 to 20)
#    0.000    3.000    1.250    1.500    0.000    2.500 
#    0.000    2.500    2.750    0.000    0.000    0.000 
#    0.000    0.000    0.000    0.000    0.000    0.000 
#
# Total GULP energy -356340.175620 kJ/mol
# GULP energy per Si atom -5567.815244 kJ/mol
# Density = 1.574465 g / cm^3
# Si number density = 15.780567 Si / 1000 Ang^3
#
#
#
# Elastic Constant Matrix: (Units=GPa)
#
#
# Indices 1 2 3 4 5 6 
#
# 1 146.0496 45.5035 67.2319 0.0000 0.0000 0.0000
# 2 45.5035 53.6490 32.1720 0.0000 0.0000 0.0000
# 3 67.2319 32.1720 40.0327 0.0000 0.0000 0.0000
# 4 0.0000 0.0000 0.0000 13.6748 0.0000 0.0000
# 5 0.0000 0.0000 0.0000 0.0000 34.7219 0.0000
# 6 0.0000 0.0000 0.0000 0.0000 0.0000 21.2852
#
#
#
# Elastic Compliance Matrix: (Units=1/GPa)
#
#
# Indices 1 2 3 4 5 6 
#
# 1 0.032763 0.010051 -0.063100 0.000000 0.000000 0.000000
# 2 0.010051 0.039063 -0.048273 0.000000 0.000000 0.000000
# 3 -0.063100 -0.048273 0.169746 0.000000 0.000000 0.000000
# 4 0.000000 0.000000 0.000000 0.073127 0.000000 0.000000
# 5 0.000000 0.000000 0.000000 0.000000 0.028800 0.000000
# 6 0.000000 0.000000 0.000000 0.000000 0.000000 0.046981
#
#
# Mechanical properties :
#
#
# Convention : Reuss Voigt Hill
#
# Bulk Modulus (GPa) = 25.68867 58.83845 42.26356
# Shear Modulus (GPa) = 8.24947 20.25795 14.25371
#
# Velocity S-wave (km/s) = 2.28888 3.58680 3.00866
# Velocity P-wave (km/s) = 4.82693 7.38376 6.23775
#
# Compressibility (1/GPa) = 0.03892766
#
# Stress axis : x y z
#
# Youngs Moduli (GPa) = 30.52259 25.59994 5.89116
#
# Poissons Ratio (x) = -0.25731 0.37173
# Poissons Ratio (y) = -0.30679 0.28438
# Poissons Ratio (z) = 1.92598 1.23579
#
# Static dielectric constant tensor:
#      x y z
#    x 1.514380 0.000000 0.000000 
#    y 0.000000 1.526700 0.000000 
#    z 0.000000 0.000000 1.524650 
# 
# From -- ./inp_files/9159.got.cif
#   From: 2010.05.17/outbox.cif.g08.bks.cpg/sg55_5_cif.got.tgz:9159.got - 2010.06.03 13:27:54.
