data_PCOD9425030
_publ_section_title
;
Structure prediction by ZEFSAII (Michael W. Deem and Ramdas Pophale) SiO2 
 PCOD9425030
Probable space group: P B A M
;
_chemical_formula_sum "Si O2"
_cell_formula_units_Z 56
_cell_length_a 15.375867
_cell_length_b 21.581762
_cell_length_c 7.642147
_cell_angle_alpha 90.000000
_cell_angle_beta 90.000000
_cell_angle_gamma 90.000000
_cell_volume 2535.957085
_symmetry_space_group_name_H-M "P B A M"
_symmetry_group_IT_number 55
_symmetry_cell_setting 'orthorhombic'
loop_
_space_group_symop_operation_xyz
x,y,z
-x,-y,z
1/2+x,1/2-y,-z
1/2-x,1/2+y,-z
-x,-y,-z
x,y,-z
1/2-x,1/2+y,z
1/2+x,1/2-y,z
loop_
_atom_site_type_symbol
_atom_site_label
_atom_site_fract_x
_atom_site_fract_y
_atom_site_fract_z
Si Si1 0.262879 0.107139 0.789815
Si Si2 0.801978 0.756526 0.785336
Si Si3 0.157845 0.843193 0.207081
Si Si4 0.950293 0.366070 0.790894
Si Si5 0.729325 0.526028 0.292790
Si Si6 0.078616 0.460463 0.297095
Si Si7 0.999686 0.231738 0.210774
O O1 0.231376 0.174885 0.733477
O O2 0.362852 0.100639 0.725931
O O3 0.208387 0.046135 0.741129
O O4 0.265767 0.108955 0.000000
O O5 0.737747 0.700650 0.726037
O O6 0.902516 0.756145 0.725169
O O7 0.802151 0.753854 0.000000
O O8 0.173806 0.916171 0.227955
O O9 0.063202 0.822552 0.277433
O O10 0.155519 0.830269 0.000000
O O11 0.944205 0.293619 0.756741
O O12 0.038567 0.392283 0.712203
O O13 0.956324 0.373658 0.000000
O O14 0.732819 0.534232 0.500000
O O15 0.826832 0.534973 0.216133
O O16 0.085904 0.478959 0.500000
O O17 0.000000 0.500000 0.214491
O O18 0.009601 0.224205 0.000000
#
# Coordination Sequence:
#
# PCOD9425030 Si02
#       7
#     8   8   8   8   8   8   8
#     4  10  19  33  54  80 108 140 179 221 264 316
#     4   9  17  32  56  84 112 139 175 223 270 318
#     4  10  19  35  58  83 110 140 176 222 272 320
#     4  10  18  30  52  81 107 133 172 219 266 318
#     4  11  23  37  52  74 109 148 182 221 269 320
#     4  10  20  33  47  69 104 142 173 206 261 324
#     4   9  17  31  54  83 110 136 170 219 275 320
#
# _framework density 22.082391999999999
#
# number of rings (size 3 to 8) (size 9 to 14) (size 15 to 20)
#    0.000    2.143    2.857    1.286    0.000    2.571 
#    0.000    2.143    0.000    6.857    0.000    0.000 
#    0.000    0.000    0.000    0.000    0.000    0.000 
#
# Total GULP energy -312280.902430 kJ/mol
# GULP energy per Si atom -5576.444686 kJ/mol
# Density = 2.203213 g / cm^3
# Si number density = 22.082392 Si / 1000 Ang^3
#
#
#
# Elastic Constant Matrix: (Units=GPa)
#
#
# Indices 1 2 3 4 5 6 
#
# 1 56.6490 13.7809 6.6479 0.0000 0.0000 0.0000
# 2 13.7809 82.5790 0.8276 0.0000 0.0000 0.0000
# 3 6.6479 0.8276 41.2628 0.0000 0.0000 0.0000
# 4 0.0000 0.0000 0.0000 62.8006 0.0000 0.0000
# 5 0.0000 0.0000 0.0000 0.0000 1.4269 0.0000
# 6 0.0000 0.0000 0.0000 0.0000 0.0000 34.8495
#
#
#
# Elastic Compliance Matrix: (Units=1/GPa)
#
#
# Indices 1 2 3 4 5 6 
#
# 1 0.018754 -0.003100 -0.002959 0.000000 0.000000 0.000000
# 2 -0.003100 0.012624 0.000246 0.000000 0.000000 0.000000
# 3 -0.002959 0.000246 0.024707 0.000000 0.000000 0.000000
# 4 0.000000 0.000000 0.000000 0.015923 0.000000 0.000000
# 5 0.000000 0.000000 0.000000 0.000000 0.700811 0.000000
# 6 0.000000 0.000000 0.000000 0.000000 0.000000 0.028695
#
#
# Mechanical properties :
#
#
# Convention : Reuss Voigt Hill
#
# Bulk Modulus (GPa) = 22.49261 24.77818 23.63539
# Shear Modulus (GPa) = 6.03894 30.43105 18.23499
#
# Velocity S-wave (km/s) = 1.65550 3.71626 2.87674
# Velocity P-wave (km/s) = 3.72318 5.44603 4.66484
#
# Compressibility (1/GPa) = 0.04445906
#
# Stress axis : x y z
#
# Youngs Moduli (GPa) = 53.32205 79.21118 40.47479
#
# Poissons Ratio (x) = 0.24556 0.11978
# Poissons Ratio (y) = 0.16530 -0.00997
# Poissons Ratio (z) = 0.15779 -0.01951
#
# Static dielectric constant tensor:
#      x y z
#    x 1.851220 0.000000 0.000000 
#    y 0.000000 1.875870 0.000000 
#    z 0.000000 0.000000 1.815030 
# 
# From -- ./inp_files/6108.got.cif
#   From: 2010.05.17/outbox.cif.g08.bks.cpg/sg55_4_cif.got.tgz:6108.got - 2010.06.03 13:27:54.
