data_PCOD9425649
_publ_section_title
;
Structure prediction by ZEFSAII (Michael W. Deem and Ramdas Pophale) SiO2 
 PCOD9425649
Probable space group: P B A M
;
_chemical_formula_sum "Si O2"
_cell_formula_units_Z 56
_cell_length_a 22.261714
_cell_length_b 14.825044
_cell_length_c 9.600660
_cell_angle_alpha 90.000000
_cell_angle_beta 90.000000
_cell_angle_gamma 90.000000
_cell_volume 3168.514360
_symmetry_space_group_name_H-M "P B A M"
_symmetry_group_IT_number 55
_symmetry_cell_setting 'orthorhombic'
loop_
_space_group_symop_operation_xyz
x,y,z
-x,-y,z
1/2+x,1/2-y,-z
1/2-x,1/2+y,-z
-x,-y,-z
x,y,-z
1/2-x,1/2+y,z
1/2+x,1/2-y,z
loop_
_atom_site_type_symbol
_atom_site_label
_atom_site_fract_x
_atom_site_fract_y
_atom_site_fract_z
Si Si1 0.371723 0.296919 0.837490
Si Si2 0.031290 0.636152 0.161537
Si Si3 0.648064 0.362376 0.664702
Si Si4 0.715261 0.824368 0.666100
Si Si5 0.071078 0.991272 0.832146
Si Si6 0.881669 0.477248 0.661687
Si Si7 0.585183 0.170406 0.339931
O O1 0.424163 0.221973 0.826770
O O2 0.316937 0.258174 0.745778
O O3 0.400705 0.393047 0.797807
O O4 0.353538 0.302036 0.000000
O O5 0.064591 0.555334 0.240630
O O6 0.969846 0.660265 0.236333
O O7 0.022581 0.615450 0.000000
O O8 0.647403 0.387405 0.500000
O O9 0.717157 0.348539 0.708822
O O10 0.610571 0.434169 0.753314
O O11 0.617659 0.264746 0.678763
O O12 0.715421 0.805672 0.500000
O O13 0.674665 0.913209 0.691094
O O14 0.074958 0.002892 0.000000
O O15 0.000000 0.000000 0.795517
O O16 0.898453 0.461509 0.500000
O O17 0.871950 0.583610 0.679430
O O18 0.562895 0.166088 0.500000
#
# Coordination Sequence:
#
# PCOD9425649 Si02
#       7
#     8   8   8   8   8   8   8
#     4   9  19  35  55  78 105 139 176 214 260 315
#     4  10  19  32  52  78 105 131 166 211 253 302
#     4  10  22  37  54  79 107 137 178 225 266 311
#     4   9  19  36  56  78 104 136 175 216 261 311
#     4  10  21  38  58  80 109 146 184 223 273 326
#     4   9  18  33  52  73 102 139 170 202 252 311
#     4  10  20  33  49  72 104 137 167 204 255 310
#
# _framework density 17.673898000000001
#
# number of rings (size 3 to 8) (size 9 to 14) (size 15 to 20)
#    0.000    2.429    0.000    1.714    0.000    7.143 
#    0.000    2.857    0.000    0.000    0.000    0.000 
#    0.000    0.000    0.000    0.000    0.000    0.000 
#
# Total GULP energy -312342.641299 kJ/mol
# GULP energy per Si atom -5577.547166 kJ/mol
# Density = 1.763367 g / cm^3
# Si number density = 17.673898 Si / 1000 Ang^3
#
#
#
# Elastic Constant Matrix: (Units=GPa)
#
#
# Indices 1 2 3 4 5 6 
#
# 1 129.3408 54.3986 62.2845 0.0000 0.0000 0.0000
# 2 54.3986 119.5266 56.6231 0.0000 0.0000 0.0000
# 3 62.2845 56.6231 55.3349 0.0000 0.0000 0.0000
# 4 0.0000 0.0000 0.0000 25.6987 0.0000 0.0000
# 5 0.0000 0.0000 0.0000 0.0000 21.9556 0.0000
# 6 0.0000 0.0000 0.0000 0.0000 0.0000 16.3573
#
#
#
# Elastic Compliance Matrix: (Units=1/GPa)
#
#
# Indices 1 2 3 4 5 6 
#
# 1 0.017296 0.002622 -0.022151 0.000000 0.000000 0.000000
# 2 0.002622 0.016635 -0.019973 0.000000 0.000000 0.000000
# 3 -0.022151 -0.019973 0.063443 0.000000 0.000000 0.000000
# 4 0.000000 0.000000 0.000000 0.038912 0.000000 0.000000
# 5 0.000000 0.000000 0.000000 0.000000 0.045546 0.000000
# 6 0.000000 0.000000 0.000000 0.000000 0.000000 0.061135
#
#
# Mechanical properties :
#
#
# Convention : Reuss Voigt Hill
#
# Bulk Modulus (GPa) = 54.43973 72.31275 63.37624
# Shear Modulus (GPa) = 15.23951 21.52872 18.38412
#
# Velocity S-wave (km/s) = 2.93961 3.49393 3.22869
# Velocity P-wave (km/s) = 6.51084 7.56839 7.05944
#
# Compressibility (1/GPa) = 0.01836894
#
# Stress axis : x y z
#
# Youngs Moduli (GPa) = 57.81848 60.11393 15.76223
#
# Poissons Ratio (x) = -0.15761 0.34914
# Poissons Ratio (y) = -0.15159 0.31483
# Poissons Ratio (z) = 1.28071 1.20068
#
# Static dielectric constant tensor:
#      x y z
#    x 1.579460 0.000000 0.000000 
#    y 0.000000 1.601290 0.000000 
#    z 0.000000 0.000000 1.597360 
# 
# From -- ./inp_files/6173.got.cif
#   From: 2010.05.17/outbox.cif.g08.bks.cpg/sg55_4_cif.got.tgz:6173.got - 2010.06.03 13:27:54.
