data_PCOD9425061
_publ_section_title
;
Structure prediction by ZEFSAII (Michael W. Deem and Ramdas Pophale) SiO2 
 PCOD9425061
Probable space group: P B A M
;
_chemical_formula_sum "Si O2"
_cell_formula_units_Z 48
_cell_length_a 26.920102
_cell_length_b 7.596237
_cell_length_c 13.281801
_cell_angle_alpha 90.000000
_cell_angle_beta 90.000000
_cell_angle_gamma 90.000000
_cell_volume 2716.015075
_symmetry_space_group_name_H-M "P B A M"
_symmetry_group_IT_number 55
_symmetry_cell_setting 'orthorhombic'
loop_
_space_group_symop_operation_xyz
x,y,z
-x,-y,z
1/2+x,1/2-y,-z
1/2-x,1/2+y,-z
-x,-y,-z
x,y,-z
1/2-x,1/2+y,z
1/2+x,1/2-y,z
loop_
_atom_site_type_symbol
_atom_site_label
_atom_site_fract_x
_atom_site_fract_y
_atom_site_fract_z
Si Si1 0.022081 0.697885 0.116076
Si Si2 0.804485 0.109561 0.619568
Si Si3 0.410206 0.963555 0.380925
Si Si4 0.538389 0.372415 0.705091
Si Si5 0.101108 0.792834 0.738084
Si Si6 0.807014 0.690659 0.382321
O O1 0.078954 0.723116 0.155726
O O2 0.000000 0.500000 0.123830
O O3 0.988739 0.811899 0.192378
O O4 0.018255 0.751933 0.000000
O O5 0.810358 0.165203 0.500000
O O6 0.842945 0.202078 0.695179
O O7 0.748015 0.143687 0.654129
O O8 0.813631 0.900367 0.622113
O O9 0.408318 0.977597 0.500000
O O10 0.445150 0.802189 0.350942
O O11 0.355355 0.907066 0.340171
O O12 0.425195 0.150359 0.335209
O O13 0.500000 0.500000 0.647584
O O14 0.583112 0.506221 0.727547
O O15 0.805309 0.639750 0.500000
#
# Coordination Sequence:
#
# PCOD9425061 Si02
#       6
#     8   8   8   8   8   8
#     4  10  21  41  64  82 104 134 178 237 288 336
#     4  10  18  31  50  78 112 147 187 224 260 312
#     4  11  21  35  52  78 118 153 187 226 264 315
#     4  10  22  37  55  80 108 142 188 227 274 334
#     4  11  21  34  57  82 108 142 183 226 277 330
#     4   9  18  31  50  76 110 153 193 225 258 304
#
# _framework density 17.672948999999999
#
# number of rings (size 3 to 8) (size 9 to 14) (size 15 to 20)
#    0.000    1.833    3.333    1.500    0.000    6.667 
#    0.000    8.333    0.000    0.000    0.000    5.833 
#    0.000    0.000    0.000    0.000    0.000    0.000 
#
# Total GULP energy -267243.868664 kJ/mol
# GULP energy per Si atom -5567.580597 kJ/mol
# Density = 1.763272 g / cm^3
# Si number density = 17.672949 Si / 1000 Ang^3
#
#
#
# Elastic Constant Matrix: (Units=GPa)
#
#
# Indices 1 2 3 4 5 6 
#
# 1 78.8651 14.2636 26.6797 0.0000 0.0000 0.0000
# 2 14.2636 89.8785 32.6436 0.0000 0.0000 0.0000
# 3 26.6797 32.6436 49.0703 0.0000 0.0000 0.0000
# 4 0.0000 0.0000 0.0000 13.9808 0.0000 0.0000
# 5 0.0000 0.0000 0.0000 0.0000 -1.0234 0.0000
# 6 0.0000 0.0000 0.0000 0.0000 0.0000 27.4893
#
#
#
# Elastic Compliance Matrix: (Units=1/GPa)
#
#
# Indices 1 2 3 4 5 6 
#
# 1 0.015581 0.000797 -0.009001 0.000000 0.000000 0.000000
# 2 0.000797 0.014712 -0.010220 0.000000 0.000000 0.000000
# 3 -0.009001 -0.010220 0.032072 0.000000 0.000000 0.000000
# 4 0.000000 0.000000 0.000000 0.071527 0.000000 0.000000
# 5 0.000000 0.000000 0.000000 0.000000 -0.977097 0.000000
# 6 0.000000 0.000000 0.000000 0.000000 0.000000 0.036378
#
#
# Mechanical properties :
#
#
# Convention : Reuss Voigt Hill
#
# Bulk Modulus (GPa) = 39.19271 40.55418 39.87345
# Shear Modulus (GPa) = -6.56621 17.70444 5.56911
#
# Velocity S-wave (km/s) = -1.92963 3.16853 1.77709
# Velocity P-wave (km/s) = 4.15454 6.03183 5.17895
#
# Compressibility (1/GPa) = 0.02551495
#
# Stress axis : x y z
#
# Youngs Moduli (GPa) = 64.18101 67.97384 31.18013
#
# Poissons Ratio (x) = -0.05415 0.28066
# Poissons Ratio (y) = -0.05113 0.31866
# Poissons Ratio (z) = 0.57772 0.69468
#
# Static dielectric constant tensor:
#      x y z
#    x 1.688400 0.000000 0.000000 
#    y 0.000000 1.642800 0.000000 
#    z 0.000000 0.000000 1.567160 
# 
# From -- ./inp_files/15887.got.cif
#   From: 2010.05.17/outbox.cif.g08.bks.cpg/sg55_8_cif.got.tgz:15887.got - 2010.06.03 13:27:54.
