data_PCOD9425645
_publ_section_title
;
Structure prediction by ZEFSAII (Michael W. Deem and Ramdas Pophale) SiO2 
 PCOD9425645
Probable space group: P B A M
;
_chemical_formula_sum "Si O2"
_cell_formula_units_Z 64
_cell_length_a 11.301561
_cell_length_b 32.001425
_cell_length_c 7.472395
_cell_angle_alpha 90.000000
_cell_angle_beta 90.000000
_cell_angle_gamma 90.000000
_cell_volume 2702.511634
_symmetry_space_group_name_H-M "P B A M"
_symmetry_group_IT_number 55
_symmetry_cell_setting 'orthorhombic'
loop_
_space_group_symop_operation_xyz
x,y,z
-x,-y,z
1/2+x,1/2-y,-z
1/2-x,1/2+y,-z
-x,-y,-z
x,y,-z
1/2-x,1/2+y,z
1/2+x,1/2-y,z
loop_
_atom_site_type_symbol
_atom_site_label
_atom_site_fract_x
_atom_site_fract_y
_atom_site_fract_z
Si Si1 0.853403 0.222569 0.794434
Si Si2 0.366621 0.915355 0.285065
Si Si3 0.360361 0.371426 0.715814
Si Si4 0.924877 0.720022 0.780521
Si Si5 0.727009 0.414236 0.797389
Si Si6 0.928847 0.359830 0.795194
Si Si7 0.140050 0.505136 0.710965
Si Si8 0.488165 0.453071 0.298669
O O1 0.890452 0.173935 0.786138
O O2 0.714903 0.225903 0.721967
O O3 0.970774 0.247129 0.725097
O O4 0.842568 0.236470 0.000000
O O5 0.381051 0.918597 0.500000
O O6 0.276496 0.878802 0.242880
O O7 0.490061 0.901065 0.207809
O O8 0.315214 0.959916 0.227197
O O9 0.377277 0.370836 0.500000
O O10 0.418277 0.414191 0.785251
O O11 0.988867 0.676762 0.719071
O O12 0.917963 0.719585 0.000000
O O13 0.808035 0.455372 0.806723
O O14 0.616158 0.431721 0.692190
O O15 0.803787 0.375917 0.718772
O O16 0.690216 0.403090 0.000000
O O17 0.903658 0.347956 0.000000
O O18 0.165324 0.510820 0.500000
O O19 0.000000 0.500000 0.730231
O O20 0.500000 0.500000 0.219734
O O21 0.438213 0.459898 0.500000
#
# Coordination Sequence:
#
# PCOD9425645 Si02
#       8
#     8   8   8   8   8   8   8   8
#     4  10  20  37  62  87 113 152 197 240 291 356
#     4  10  19  33  55  81 108 143 189 234 279 336
#     4  10  21  37  59  86 112 144 191 241 287 338
#     4   9  19  36  59  86 115 153 199 241 290 357
#     4  11  23  35  53  84 120 150 188 246 300 344
#     4  10  20  35  54  81 116 148 183 234 292 343
#     4  10  19  32  52  77 108 151 197 232 273 340
#     4  10  22  42  63  80 111 158 202 241 286 350
#
# _framework density 23.681674000000001
#
# number of rings (size 3 to 8) (size 9 to 14) (size 15 to 20)
#    0.000    2.000    2.500    1.125    0.000    5.000 
#    0.000    5.000    0.000    0.000    0.000    0.000 
#    0.000    0.000    0.000    0.000    0.000    0.000 
#
# Total GULP energy -356516.130106 kJ/mol
# GULP energy per Si atom -5570.564533 kJ/mol
# Density = 2.362777 g / cm^3
# Si number density = 23.681674 Si / 1000 Ang^3
#
#
#
# Elastic Constant Matrix: (Units=GPa)
#
#
# Indices 1 2 3 4 5 6 
#
# 1 127.1832 63.4159 6.3738 0.0000 0.0000 0.0000
# 2 63.4159 130.3525 -7.8961 0.0000 0.0000 0.0000
# 3 6.3738 -7.8961 57.2494 0.0000 0.0000 0.0000
# 4 0.0000 0.0000 0.0000 21.2465 0.0000 0.0000
# 5 0.0000 0.0000 0.0000 0.0000 13.7909 0.0000
# 6 0.0000 0.0000 0.0000 0.0000 0.0000 46.6687
#
#
#
# Elastic Compliance Matrix: (Units=1/GPa)
#
#
# Indices 1 2 3 4 5 6 
#
# 1 0.010583 -0.005264 -0.001904 0.000000 0.000000 0.000000
# 2 -0.005264 0.010354 0.002014 0.000000 0.000000 0.000000
# 3 -0.001904 0.002014 0.017957 0.000000 0.000000 0.000000
# 4 0.000000 0.000000 0.000000 0.047067 0.000000 0.000000
# 5 0.000000 0.000000 0.000000 0.000000 0.072512 0.000000
# 6 0.000000 0.000000 0.000000 0.000000 0.000000 0.021428
#
#
# Mechanical properties :
#
#
# Convention : Reuss Voigt Hill
#
# Bulk Modulus (GPa) = 34.98148 48.73027 41.85588
# Shear Modulus (GPa) = 25.03297 33.20066 29.11681
#
# Velocity S-wave (km/s) = 3.25477 3.74833 3.51024
# Velocity P-wave (km/s) = 5.37851 6.27337 5.84310
#
# Compressibility (1/GPa) = 0.02858655
#
# Stress axis : x y z
#
# Youngs Moduli (GPa) = 94.49347 96.57787 55.68786
#
# Poissons Ratio (x) = 0.50837 0.10604
# Poissons Ratio (y) = 0.49740 -0.11216
# Poissons Ratio (z) = 0.17994 -0.19452
#
# Static dielectric constant tensor:
#      x y z
#    x 2.032010 0.000000 0.000000 
#    y 0.000000 1.897030 0.000000 
#    z 0.000000 0.000000 1.959380 
# 
# From -- ./inp_files/4660.got.cif
#   From: 2010.05.17/outbox.cif.g08.bks.cpg/sg55_3_cif.got.tgz:4660.got - 2010.06.03 13:27:54.
