data_PCOD9425650
_publ_section_title
;
Structure prediction by ZEFSAII (Michael W. Deem and Ramdas Pophale) SiO2 
 PCOD9425650
Probable space group: P B A M
;
_chemical_formula_sum "Si O2"
_cell_formula_units_Z 48
_cell_length_a 9.815569
_cell_length_b 18.599896
_cell_length_c 14.708049
_cell_angle_alpha 90.000000
_cell_angle_beta 90.000000
_cell_angle_gamma 90.000000
_cell_volume 2685.227364
_symmetry_space_group_name_H-M "P B A M"
_symmetry_group_IT_number 55
_symmetry_cell_setting 'orthorhombic'
loop_
_space_group_symop_operation_xyz
x,y,z
-x,-y,z
1/2+x,1/2-y,-z
1/2-x,1/2+y,-z
-x,-y,-z
x,y,-z
1/2-x,1/2+y,z
1/2+x,1/2-y,z
loop_
_atom_site_type_symbol
_atom_site_label
_atom_site_fract_x
_atom_site_fract_y
_atom_site_fract_z
Si Si1 0.076600 0.682013 0.896599
Si Si2 0.761730 0.083229 0.745915
Si Si3 0.714916 0.963254 0.108142
Si Si4 0.179634 0.266481 0.193784
Si Si5 0.419640 0.614394 0.766416
Si Si6 0.660104 0.478365 0.602035
O O1 0.100170 0.597790 0.874394
O O2 0.177877 0.732539 0.838961
O O3 0.921573 0.705949 0.884862
O O4 0.621438 0.809737 0.000000
O O5 0.701350 0.162824 0.746164
O O6 0.923539 0.091821 0.764941
O O7 0.704543 0.032583 0.826886
O O8 0.755488 0.042257 0.649767
O O9 0.849494 0.920883 0.144620
O O10 0.718968 0.979528 0.000000
O O11 0.100418 0.199296 0.236079
O O12 0.341778 0.583099 0.678488
O O13 0.500000 0.500000 0.596403
O O14 0.705069 0.460593 0.500000
#
# Coordination Sequence:
#
# PCOD9425650 Si02
#       6
#     8   8   8   8   8   8
#     4  10  21  35  50  72 106 145 188 221 262 316
#     4  10  19  32  52  78 105 138 177 221 266 313
#     4   9  19  33  50  74 102 137 179 223 261 310
#     4  11  20  35  51  75 107 145 174 223 268 314
#     4   9  18  33  51  77 105 138 179 215 263 315
#     4   8  15  31  56  80 103 131 172 217 261 313
#
# _framework density 17.875582000000001
#
# number of rings (size 3 to 8) (size 9 to 14) (size 15 to 20)
#    0.000    2.500    1.667    2.000    0.000    4.000 
#    0.000    2.500    0.000    0.000    0.000   15.167 
#    0.000    0.000    0.000    0.000    0.000    0.000 
#
# Total GULP energy -267241.393862 kJ/mol
# GULP energy per Si atom -5567.529039 kJ/mol
# Density = 1.783490 g / cm^3
# Si number density = 17.875582 Si / 1000 Ang^3
#
#
#
# Elastic Constant Matrix: (Units=GPa)
#
#
# Indices 1 2 3 4 5 6 
#
# 1 38.8644 6.2864 6.0290 0.0000 0.0000 0.0000
# 2 6.2864 113.4872 40.5559 0.0000 0.0000 0.0000
# 3 6.0290 40.5559 91.0520 0.0000 0.0000 0.0000
# 4 0.0000 0.0000 0.0000 12.1587 0.0000 0.0000
# 5 0.0000 0.0000 0.0000 0.0000 9.4688 0.0000
# 6 0.0000 0.0000 0.0000 0.0000 0.0000 17.9397
#
#
#
# Elastic Compliance Matrix: (Units=1/GPa)
#
#
# Indices 1 2 3 4 5 6 
#
# 1 0.026090 -0.000985 -0.001289 0.000000 0.000000 0.000000
# 2 -0.000985 0.010517 -0.004619 0.000000 0.000000 0.000000
# 3 -0.001289 -0.004619 0.013126 0.000000 0.000000 0.000000
# 4 0.000000 0.000000 0.000000 0.082246 0.000000 0.000000
# 5 0.000000 0.000000 0.000000 0.000000 0.105610 0.000000
# 6 0.000000 0.000000 0.000000 0.000000 0.000000 0.055742
#
#
# Mechanical properties :
#
#
# Convention : Reuss Voigt Hill
#
# Bulk Modulus (GPa) = 27.81902 38.79402 33.30652
# Shear Modulus (GPa) = 15.66921 20.61560 18.14240
#
# Velocity S-wave (km/s) = 2.96391 3.39969 3.18925
# Velocity P-wave (km/s) = 5.22583 6.09589 5.67755
#
# Compressibility (1/GPa) = 0.03594664
#
# Stress axis : x y z
#
# Youngs Moduli (GPa) = 38.32928 95.08592 76.18748
#
# Poissons Ratio (x) = 0.09362 0.09821
# Poissons Ratio (y) = 0.03774 0.35192
# Poissons Ratio (z) = 0.04941 0.43922
#
# Static dielectric constant tensor:
#      x y z
#    x 1.637120 0.000000 0.000000 
#    y 0.000000 1.645430 0.000000 
#    z 0.000000 0.000000 1.588090 
# 
# From -- ./inp_files/17307.got.cif
#   From: 2010.05.17/outbox.cif.g08.bks.cpg/sg55_9_cif.got.tgz:17307.got - 2010.06.03 13:27:54.
