data_PCOD9425498
_publ_section_title
;
Structure prediction by ZEFSAII (Michael W. Deem and Ramdas Pophale) SiO2 
 PCOD9425498
Probable space group: P B A M
;
_chemical_formula_sum "Si O2"
_cell_formula_units_Z 56
_cell_length_a 14.389802
_cell_length_b 22.222163
_cell_length_c 7.500820
_cell_angle_alpha 90.000000
_cell_angle_beta 90.000000
_cell_angle_gamma 90.000000
_cell_volume 2398.556155
_symmetry_space_group_name_H-M "P B A M"
_symmetry_group_IT_number 55
_symmetry_cell_setting 'orthorhombic'
loop_
_space_group_symop_operation_xyz
x,y,z
-x,-y,z
1/2+x,1/2-y,-z
1/2-x,1/2+y,-z
-x,-y,-z
x,y,-z
1/2-x,1/2+y,z
1/2+x,1/2-y,z
loop_
_atom_site_type_symbol
_atom_site_label
_atom_site_fract_x
_atom_site_fract_y
_atom_site_fract_z
Si Si1 0.239428 0.106370 0.706091
Si Si2 0.789378 0.760259 0.708020
Si Si3 0.161375 0.848426 0.290772
Si Si4 0.938046 0.363184 0.214772
Si Si5 0.707359 0.522454 0.703777
Si Si6 0.083140 0.454470 0.214497
Si Si7 0.996613 0.236897 0.213761
O O1 0.208524 0.109674 0.500000
O O2 0.224700 0.172581 0.788563
O O3 0.351158 0.100696 0.710657
O O4 0.196617 0.044834 0.783707
O O5 0.761723 0.764121 0.500000
O O6 0.731654 0.703243 0.783606
O O7 0.899846 0.752521 0.719461
O O8 0.185407 0.854663 0.500000
O O9 0.168746 0.915730 0.213515
O O10 0.057904 0.821988 0.274391
O O11 0.935291 0.294197 0.271447
O O12 0.037667 0.390653 0.262721
O O13 0.931174 0.367313 0.000000
O O14 0.672355 0.518444 0.500000
O O15 0.818203 0.533734 0.701258
O O16 0.000000 0.500000 0.260311
O O17 0.096237 0.458003 0.000000
O O18 0.000091 0.236781 0.000000
#
# Coordination Sequence:
#
# PCOD9425498 Si02
#       7
#     8   8   8   8   8   8   8
#     4  10  20  35  56  82 110 143 185 228 274 328
#     4  10  21  38  60  83 111 150 191 231 281 337
#     4  10  21  39  60  84 115 150 188 233 285 337
#     4  10  20  34  52  78 111 145 180 224 277 332
#     4  10  21  35  54  82 113 145 185 234 281 327
#     4  10  19  31  49  76 112 149 180 214 272 342
#     4  11  23  37  58  86 113 145 190 240 285 331
#
# _framework density 23.347380999999999
#
# number of rings (size 3 to 8) (size 9 to 14) (size 15 to 20)
#    0.000    1.857    2.857    1.286    0.000    3.143 
#    0.000    0.714    0.000    4.286    0.000    0.000 
#    0.000    0.000    0.000    0.000    0.000    0.000 
#
# Total GULP energy -312566.053216 kJ/mol
# GULP energy per Si atom -5581.536665 kJ/mol
# Density = 2.329424 g / cm^3
# Si number density = 23.347381 Si / 1000 Ang^3
#
#
#
# Elastic Constant Matrix: (Units=GPa)
#
#
# Indices 1 2 3 4 5 6 
#
# 1 28.1365 -8.5885 -6.1863 0.0000 0.0000 0.0000
# 2 -8.5885 140.8937 13.7248 0.0000 0.0000 0.0000
# 3 -6.1863 13.7248 68.3845 0.0000 0.0000 0.0000
# 4 0.0000 0.0000 0.0000 -0.3425 0.0000 0.0000
# 5 0.0000 0.0000 0.0000 0.0000 29.0996 0.0000
# 6 0.0000 0.0000 0.0000 0.0000 0.0000 35.2859
#
#
#
# Elastic Compliance Matrix: (Units=1/GPa)
#
#
# Indices 1 2 3 4 5 6 
#
# 1 0.036783 0.001956 0.002935 0.000000 0.000000 0.000000
# 2 0.001956 0.007343 -0.001297 0.000000 0.000000 0.000000
# 3 0.002935 -0.001297 0.015149 0.000000 0.000000 0.000000
# 4 0.000000 0.000000 0.000000 -2.919633 0.000000 0.000000
# 5 0.000000 0.000000 0.000000 0.000000 0.034365 0.000000
# 6 0.000000 0.000000 0.000000 0.000000 0.000000 0.028340
#
#
# Mechanical properties :
#
#
# Convention : Reuss Voigt Hill
#
# Bulk Modulus (GPa) = 15.04564 26.14606 20.59585
# Shear Modulus (GPa) = -1.79682 28.70626 13.45472
#
# Velocity S-wave (km/s) = -0.87822 3.51027 2.40320
# Velocity P-wave (km/s) = 2.33021 5.25855 4.06707
#
# Compressibility (1/GPa) = 0.06646445
#
# Stress axis : x y z
#
# Youngs Moduli (GPa) = 27.18615 136.18180 66.01108
#
# Poissons Ratio (x) = -0.26642 -0.19374
# Poissons Ratio (y) = -0.05319 0.08560
# Poissons Ratio (z) = -0.07979 0.17660
#
# Static dielectric constant tensor:
#      x y z
#    x 1.838000 0.000000 0.000000 
#    y 0.000000 1.992100 0.000000 
#    z 0.000000 0.000000 1.862790 
# 
# From -- ./inp_files/6083.got.cif
#   From: 2010.05.17/outbox.cif.g08.bks.cpg/sg55_4_cif.got.tgz:6083.got - 2010.06.03 13:27:54.
