data_PCOD9425122
_publ_section_title
;
Structure prediction by ZEFSAII (Michael W. Deem and Ramdas Pophale) SiO2 
 PCOD9425122
Probable space group: P B A M
;
_chemical_formula_sum "Si O2"
_cell_formula_units_Z 64
_cell_length_a 23.702274
_cell_length_b 17.064424
_cell_length_c 8.920030
_cell_angle_alpha 90.000000
_cell_angle_beta 90.000000
_cell_angle_gamma 90.000000
_cell_volume 3607.845761
_symmetry_space_group_name_H-M "P B A M"
_symmetry_group_IT_number 55
_symmetry_cell_setting 'orthorhombic'
loop_
_space_group_symop_operation_xyz
x,y,z
-x,-y,z
1/2+x,1/2-y,-z
1/2-x,1/2+y,-z
-x,-y,-z
x,y,-z
1/2-x,1/2+y,z
1/2+x,1/2-y,z
loop_
_atom_site_type_symbol
_atom_site_label
_atom_site_fract_x
_atom_site_fract_y
_atom_site_fract_z
Si Si1 0.755808 0.896919 0.672307
Si Si2 0.045694 0.764731 0.177527
Si Si3 0.370357 0.675496 0.329901
Si Si4 0.855109 0.978979 0.823058
Si Si5 0.362302 0.142374 0.181475
Si Si6 0.428204 0.818554 0.822840
Si Si7 0.045132 0.932477 0.320398
Si Si8 0.564279 0.006592 0.817518
O O1 0.744520 0.918534 0.500000
O O2 0.802367 0.827411 0.671832
O O3 0.792476 0.965380 0.753863
O O4 0.699864 0.869271 0.754081
O O5 0.102765 0.720034 0.226816
O O6 0.031891 0.845234 0.261973
O O7 0.994338 0.703006 0.194161
O O8 0.050316 0.782303 0.000000
O O9 0.388791 0.656974 0.500000
O O10 0.385522 0.603516 0.220784
O O11 0.394646 0.755581 0.272112
O O12 0.893765 0.043905 0.745891
O O13 0.852268 0.989579 0.000000
O O14 0.398064 0.066136 0.230498
O O15 0.360125 0.142923 0.000000
O O16 0.415083 0.907014 0.775871
O O17 0.415336 0.809931 0.000000
O O18 0.047078 0.932546 0.500000
O O19 0.000000 0.000000 0.274150
O O20 0.500000 0.000000 0.765247
O O21 0.563017 0.004564 0.000000
#
# Coordination Sequence:
#
# PCOD9425122 Si02
#       8
#     8   8   8   8   8   8   8   8
#     4   9  20  37  57  79 111 154 190 227 280 336
#     4  10  21  34  53  84 115 147 187 233 280 333
#     4   9  19  34  53  78 111 146 181 225 275 331
#     4  10  19  35  59  82 106 140 187 236 277 327
#     4  10  19  35  59  84 112 149 192 232 276 332
#     4  10  18  31  55  84 112 145 187 231 279 329
#     4  11  23  37  54  81 117 154 186 225 284 347
#     4   9  16  31  55  83 115 146 181 231 283 328
#
# _framework density 17.739117
#
# number of rings (size 3 to 8) (size 9 to 14) (size 15 to 20)
#    0.750    1.500    1.250    2.625    0.000    4.000 
#    0.000    1.875    0.000    5.250    0.000    0.000 
#    0.000    0.000    0.000    0.000    0.000    0.000 
#
# Total GULP energy -356460.938792 kJ/mol
# GULP energy per Si atom -5569.702169 kJ/mol
# Density = 1.769874 g / cm^3
# Si number density = 17.739117 Si / 1000 Ang^3
#
#
#
# Elastic Constant Matrix: (Units=GPa)
#
#
# Indices 1 2 3 4 5 6 
#
# 1 66.4840 9.6382 25.1814 0.0000 0.0000 0.0000
# 2 9.6382 65.7436 21.0830 0.0000 0.0000 0.0000
# 3 25.1814 21.0830 55.2424 0.0000 0.0000 0.0000
# 4 0.0000 0.0000 0.0000 -5.1048 0.0000 0.0000
# 5 0.0000 0.0000 0.0000 0.0000 8.9385 0.0000
# 6 0.0000 0.0000 0.0000 0.0000 0.0000 26.8334
#
#
#
# Elastic Compliance Matrix: (Units=1/GPa)
#
#
# Indices 1 2 3 4 5 6 
#
# 1 0.018180 -0.000009 -0.008284 0.000000 0.000000 0.000000
# 2 -0.000009 0.017332 -0.006611 0.000000 0.000000 0.000000
# 3 -0.008284 -0.006611 0.024401 0.000000 0.000000 0.000000
# 4 0.000000 0.000000 0.000000 -0.195894 0.000000 0.000000
# 5 0.000000 0.000000 0.000000 0.000000 0.111876 0.000000
# 6 0.000000 0.000000 0.000000 0.000000 0.000000 0.037267
#
#
# Mechanical properties :
#
#
# Convention : Reuss Voigt Hill
#
# Bulk Modulus (GPa) = 33.21532 33.25277 33.23405
# Shear Modulus (GPa) = 94.33364 14.90458 54.61911
#
# Velocity S-wave (km/s) = 7.30026 2.90178 5.55491
# Velocity P-wave (km/s) = 9.47752 5.47844 7.74069
#
# Compressibility (1/GPa) = 0.03010659
#
# Stress axis : x y z
#
# Youngs Moduli (GPa) = 55.00544 57.69736 40.98204
#
# Poissons Ratio (x) = 0.00051 0.33948
# Poissons Ratio (y) = 0.00048 0.27092
# Poissons Ratio (z) = 0.45565 0.38141
#
# Static dielectric constant tensor:
#      x y z
#    x 1.617250 0.000000 0.000000 
#    y 0.000000 1.605780 0.000000 
#    z 0.000000 0.000000 1.597880 
# 
# From -- ./inp_files/9874.got.cif
#   From: 2010.05.17/outbox.cif.g08.bks.cpg/sg55_5_cif.got.tgz:9874.got - 2010.06.03 13:27:54.
