data_PCOD9425213
_publ_section_title
;
Structure prediction by ZEFSAII (Michael W. Deem and Ramdas Pophale) SiO2 
 PCOD9425213
Probable space group: P B A M
;
_chemical_formula_sum "Si O2"
_cell_formula_units_Z 56
_cell_length_a 15.159341
_cell_length_b 20.468585
_cell_length_c 9.729592
_cell_angle_alpha 90.000000
_cell_angle_beta 90.000000
_cell_angle_gamma 90.000000
_cell_volume 3018.997629
_symmetry_space_group_name_H-M "P B A M"
_symmetry_group_IT_number 55
_symmetry_cell_setting 'orthorhombic'
loop_
_space_group_symop_operation_xyz
x,y,z
-x,-y,z
1/2+x,1/2-y,-z
1/2-x,1/2+y,-z
-x,-y,-z
x,y,-z
1/2-x,1/2+y,z
1/2+x,1/2-y,z
loop_
_atom_site_type_symbol
_atom_site_label
_atom_site_fract_x
_atom_site_fract_y
_atom_site_fract_z
Si Si1 0.758146 0.381204 0.348925
Si Si2 0.328378 0.446767 0.150542
Si Si3 0.932842 0.139196 0.338183
Si Si4 0.009956 0.400743 0.157444
Si Si5 0.596961 0.411115 0.839104
Si Si6 0.928189 0.294428 0.657873
Si Si7 0.144027 0.503895 0.227452
O O1 0.716573 0.375099 0.500000
O O2 0.685435 0.382295 0.230520
O O3 0.829988 0.324510 0.330140
O O4 0.812325 0.449739 0.342434
O O5 0.348644 0.396370 0.270950
O O6 0.389619 0.510647 0.168613
O O7 0.229174 0.474259 0.153244
O O8 0.346975 0.417891 0.000000
O O9 0.940863 0.124125 0.500000
O O10 0.928144 0.217155 0.321988
O O11 0.015071 0.112487 0.250585
O O12 0.078994 0.442722 0.247988
O O13 0.987112 0.333584 0.232995
O O14 0.920374 0.444286 0.152469
O O15 0.041505 0.393681 0.000000
O O16 0.589032 0.393964 0.000000
O O17 0.956888 0.308093 0.500000
#
# Coordination Sequence:
#
# PCOD9425213 Si02
#       7
#     8   8   8   8   8   8   8
#     4   9  18  35  59  82 109 145 185 222 269 329
#     4  10  20  35  55  80 112 141 176 229 281 321
#     4  11  23  39  56  76 108 148 188 226 271 325
#     4  10  18  32  58  85 113 148 184 222 272 332
#     4  10  21  37  59  85 109 137 178 230 283 328
#     4   9  21  39  54  75 110 149 184 224 270 319
#     4   9  18  32  55  87 117 141 175 226 279 322
#
# _framework density 18.549204
#
# number of rings (size 3 to 8) (size 9 to 14) (size 15 to 20)
#    0.000    2.286    0.000    3.000    0.000   10.286 
#    2.571    2.857    0.000    0.000    0.000    0.000 
#    0.000    0.000    0.000    0.000    0.000    0.000 
#
# Total GULP energy -312004.765779 kJ/mol
# GULP energy per Si atom -5571.513675 kJ/mol
# Density = 1.850699 g / cm^3
# Si number density = 18.549204 Si / 1000 Ang^3
#
#
#
# Elastic Constant Matrix: (Units=GPa)
#
#
# Indices 1 2 3 4 5 6 
#
# 1 77.0750 34.3570 40.4510 0.0000 0.0000 0.0000
# 2 34.3570 76.1061 54.9705 0.0000 0.0000 0.0000
# 3 40.4510 54.9705 109.2391 0.0000 0.0000 0.0000
# 4 0.0000 0.0000 0.0000 9.6068 0.0000 0.0000
# 5 0.0000 0.0000 0.0000 0.0000 15.0766 0.0000
# 6 0.0000 0.0000 0.0000 0.0000 0.0000 15.2328
#
#
#
# Elastic Compliance Matrix: (Units=1/GPa)
#
#
# Indices 1 2 3 4 5 6 
#
# 1 0.017227 -0.004979 -0.003874 0.000000 0.000000 0.000000
# 2 -0.004979 0.022081 -0.009268 0.000000 0.000000 0.000000
# 3 -0.003874 -0.009268 0.015252 0.000000 0.000000 0.000000
# 4 0.000000 0.000000 0.000000 0.104093 0.000000 0.000000
# 5 0.000000 0.000000 0.000000 0.000000 0.066328 0.000000
# 6 0.000000 0.000000 0.000000 0.000000 0.000000 0.065648
#
#
# Mechanical properties :
#
#
# Convention : Reuss Voigt Hill
#
# Bulk Modulus (GPa) = 54.58646 57.99749 56.29198
# Shear Modulus (GPa) = 15.01610 16.82603 15.92107
#
# Velocity S-wave (km/s) = 2.84831 3.01508 2.93288
# Velocity P-wave (km/s) = 6.34893 6.59209 6.47165
#
# Compressibility (1/GPa) = 0.01831956
#
# Stress axis : x y z
#
# Youngs Moduli (GPa) = 58.04931 45.28716 65.56373
#
# Poissons Ratio (x) = 0.22548 0.25396
# Poissons Ratio (y) = 0.28902 0.60764
# Poissons Ratio (z) = 0.22486 0.41972
#
# Static dielectric constant tensor:
#      x y z
#    x 1.664820 0.000000 0.000000 
#    y 0.000000 1.616560 0.000000 
#    z 0.000000 0.000000 1.647160 
# 
# From -- ./inp_files/6080.got.cif
#   From: 2010.05.17/outbox.cif.g08.bks.cpg/sg55_4_cif.got.tgz:6080.got - 2010.06.03 13:27:54.
