data_PCOD9425893
_publ_section_title
;
Structure prediction by ZEFSAII (Michael W. Deem and Ramdas Pophale) SiO2 
 PCOD9425893
Probable space group: P B A M
;
_chemical_formula_sum "Si O2"
_cell_formula_units_Z 64
_cell_length_a 14.668913
_cell_length_b 10.600345
_cell_length_c 21.452565
_cell_angle_alpha 90.000000
_cell_angle_beta 90.000000
_cell_angle_gamma 90.000000
_cell_volume 3335.778148
_symmetry_space_group_name_H-M "P B A M"
_symmetry_group_IT_number 55
_symmetry_cell_setting 'orthorhombic'
loop_
_space_group_symop_operation_xyz
x,y,z
-x,-y,z
1/2+x,1/2-y,-z
1/2-x,1/2+y,-z
-x,-y,-z
x,y,-z
1/2-x,1/2+y,z
1/2+x,1/2-y,z
loop_
_atom_site_type_symbol
_atom_site_label
_atom_site_fract_x
_atom_site_fract_y
_atom_site_fract_z
Si Si1 0.827118 0.355694 0.845466
Si Si2 0.602333 0.500000 0.709178
Si Si3 0.250000 0.749999 0.390718
Si Si4 0.000000 0.347709 0.070598
Si Si5 0.890570 0.276354 0.714556
Si Si6 0.672882 0.144305 0.845466
Si Si7 0.109430 0.276354 0.714556
Si Si8 0.655441 0.500000 0.432558
O O1 0.909885 0.315550 0.890649
O O2 0.866293 0.355200 0.774979
O O3 0.750000 0.250000 0.850465
O O4 0.798453 0.500000 0.860386
O O5 0.500000 0.500000 0.733226
O O6 0.642278 0.632326 0.729659
O O7 0.642278 0.367674 0.729660
O O8 0.602215 0.500000 0.633479
O O9 0.168654 0.695863 0.346584
O O10 0.331345 0.804136 0.346584
O O11 0.287367 0.629794 0.427879
O O12 0.212632 0.870205 0.427879
O O13 0.000000 0.500000 0.067602
O O14 0.090115 0.315551 0.109352
O O15 0.000001 0.298488 0.000000
O O16 0.000000 0.277175 0.703017
O O17 0.633708 0.144800 0.774979
O O18 0.608019 0.500000 0.500000
#
# Coordination Sequence:
#
# PCOD9425893 Si02
#       8
#     8   8   8   8   8   8   8   8
#     4  11  23  36  59  91 118 155 192 239 291 341
#     4   8  18  33  52  83 109 144 178 237 295 329
#     4  10  21  34  54  78 109 142 182 238 286 332
#     4   9  20  42  63  85 119 161 202 233 277 345
#     4  10  19  33  55  83 116 144 187 233 290 348
#     4  11  23  36  59  91 118 155 192 239 291 341
#     4  10  19  33  55  83 116 144 187 233 290 348
#     4  10  20  35  53  74 104 147 187 224 281 345
#
# _framework density 19.185929000000002
#
# number of rings (size 3 to 8) (size 9 to 14) (size 15 to 20)
#    0.000    2.125    2.500    0.375    3.500    0.750 
#    0.000    0.625    0.000    3.750    0.000    0.000 
#    0.000    0.000    0.000    0.000    0.000    0.000 
#
# Total GULP energy -356586.311109 kJ/mol
# GULP energy per Si atom -5571.661111 kJ/mol
# Density = 1.914226 g / cm^3
# Si number density = 19.185929 Si / 1000 Ang^3
#
#
#
# Elastic Constant Matrix: (Units=GPa)
#
#
# Indices 1 2 3 4 5 6 
#
# 1 116.9886 32.2973 45.3421 0.0000 0.0000 0.0000
# 2 32.2973 87.2604 26.8561 0.0000 0.0000 0.0000
# 3 45.3421 26.8561 103.9055 0.0000 0.0000 0.0000
# 4 0.0000 0.0000 0.0000 -28.0084 0.0000 0.0000
# 5 0.0000 0.0000 0.0000 0.0000 -4.5053 0.0000
# 6 0.0000 0.0000 0.0000 0.0000 0.0000 15.8184
#
#
#
# Elastic Compliance Matrix: (Units=1/GPa)
#
#
# Indices 1 2 3 4 5 6 
#
# 1 0.010878 -0.002787 -0.004027 0.000000 0.000000 0.000000
# 2 -0.002787 0.013164 -0.002186 0.000000 0.000000 0.000000
# 3 -0.004027 -0.002186 0.011946 0.000000 0.000000 0.000000
# 4 0.000000 0.000000 0.000000 -0.035704 0.000000 0.000000
# 5 0.000000 0.000000 0.000000 0.000000 -0.221959 0.000000
# 6 0.000000 0.000000 0.000000 0.000000 0.000000 0.063217
#
#
# Mechanical properties :
#
#
# Convention : Reuss Voigt Hill
#
# Bulk Modulus (GPa) = 55.59001 57.46061 56.52531
# Shear Modulus (GPa) = -37.18564 10.23820 -13.47372
#
# Velocity S-wave (km/s) = -4.40724 2.31255 -2.65291
# Velocity P-wave (km/s) = 1.77168 6.09466 4.48797
#
# Compressibility (1/GPa) = 0.01798884
#
# Stress axis : x y z
#
# Youngs Moduli (GPa) = 91.93024 75.96262 83.70769
#
# Poissons Ratio (x) = 0.21170 0.33705
# Poissons Ratio (y) = 0.25620 0.18302
# Poissons Ratio (z) = 0.37016 0.16609
#
# Static dielectric constant tensor:
#      x y z
#    x 1.671680 0.000000 0.000000 
#    y 0.000000 1.704890 0.000000 
#    z 0.000000 0.000000 1.659380 
# 
# From -- ./inp_files/21652.got.cif
#   From: 2010.05.17/outbox.cif.g08.bks.cpg/sg55_11_cif.got.tgz:21652.got - 2010.06.03 13:27:54.
