data_PCOD9425278
_publ_section_title
;
Structure prediction by ZEFSAII (Michael W. Deem and Ramdas Pophale) SiO2 
 PCOD9425278
Probable space group: P B A M
;
_chemical_formula_sum "Si O2"
_cell_formula_units_Z 64
_cell_length_a 20.781673
_cell_length_b 19.125355
_cell_length_c 7.509603
_cell_angle_alpha 90.000000
_cell_angle_beta 90.000000
_cell_angle_gamma 90.000000
_cell_volume 2984.743330
_symmetry_space_group_name_H-M "P B A M"
_symmetry_group_IT_number 55
_symmetry_cell_setting 'orthorhombic'
loop_
_space_group_symop_operation_xyz
x,y,z
-x,-y,z
1/2+x,1/2-y,-z
1/2-x,1/2+y,-z
-x,-y,-z
x,y,-z
1/2-x,1/2+y,z
1/2+x,1/2-y,z
loop_
_atom_site_type_symbol
_atom_site_label
_atom_site_fract_x
_atom_site_fract_y
_atom_site_fract_z
Si Si1 0.699097 0.042906 0.292135
Si Si2 0.155387 0.205809 0.714123
Si Si3 0.735601 0.685640 0.281412
Si Si4 0.409187 0.299075 0.709038
Si Si5 0.815902 0.954680 0.790987
Si Si6 0.055056 0.446974 0.282163
Si Si7 0.437300 0.457248 0.784220
Si Si8 0.528584 0.212698 0.718064
O O1 0.689728 0.058895 0.500000
O O2 0.736748 0.110798 0.219689
O O3 0.627180 0.033835 0.220451
O O4 0.746456 0.977205 0.280024
O O5 0.154377 0.209401 0.500000
O O6 0.214576 0.254379 0.773167
O O7 0.165643 0.125527 0.762815
O O8 0.088223 0.238983 0.776903
O O9 0.733545 0.684198 0.500000
O O10 0.663157 0.699162 0.217243
O O11 0.402718 0.282773 0.500000
O O12 0.437426 0.377083 0.726622
O O13 0.461244 0.244762 0.781873
O O14 0.872539 0.004520 0.718307
O O15 0.812761 0.967783 0.000000
O O16 0.054051 0.449158 0.500000
O O17 0.040296 0.367235 0.229976
O O18 0.000000 0.500000 0.220964
O O19 0.500000 0.500000 0.725191
O O20 0.436923 0.458361 0.000000
O O21 0.528351 0.214257 0.500000
#
# Coordination Sequence:
#
# PCOD9425278 Si02
#       8
#     8   8   8   8   8   8   8   8
#     4  10  18  34  58  80 108 145 180 220 272 327
#     4  10  19  34  55  77 105 142 178 218 270 324
#     4   9  17  31  53  78 104 137 176 217 263 317
#     4  10  19  31  52  79 106 135 173 220 263 315
#     4  11  23  36  52  79 110 139 181 230 268 317
#     4   9  17  30  54  86 113 140 178 223 272 323
#     4  10  21  36  51  70 104 144 178 218 266 317
#     4   9  17  30  49  77 110 138 173 223 269 315
#
# _framework density 21.442378000000001
#
# number of rings (size 3 to 8) (size 9 to 14) (size 15 to 20)
#    0.000    2.250    2.500    1.125    0.000    1.750 
#    0.000    5.000    0.000    1.125    0.000    0.000 
#    0.000    0.000    0.000    0.000    0.000    0.000 
#
# Total GULP energy -357532.095254 kJ/mol
# GULP energy per Si atom -5586.438988 kJ/mol
# Density = 2.139357 g / cm^3
# Si number density = 21.442378 Si / 1000 Ang^3
#
#
#
# Elastic Constant Matrix: (Units=GPa)
#
#
# Indices 1 2 3 4 5 6 
#
# 1 210.0460 77.4380 9.7842 0.0000 0.0000 0.0000
# 2 77.4380 114.0425 -7.8183 0.0000 0.0000 0.0000
# 3 9.7842 -7.8183 52.8932 0.0000 0.0000 0.0000
# 4 0.0000 0.0000 0.0000********** 0.0000 0.0000
# 5 0.0000 0.0000 0.0000 0.0000 -2.0750 0.0000
# 6 0.0000 0.0000 0.0000 0.0000 0.0000 42.7163
#
#
#
# Elastic Compliance Matrix: (Units=1/GPa)
#
#
# Indices 1 2 3 4 5 6 
#
# 1 0.006531 -0.004564 -0.001883 0.000000 0.000000 0.000000
# 2 -0.004564 0.012048 0.002625 0.000000 0.000000 0.000000
# 3 -0.001883 0.002625 0.019642 0.000000 0.000000 0.000000
# 4 0.000000 0.000000 0.000000 -0.000031 0.000000 0.000000
# 5 0.000000 0.000000 0.000000 0.000000 -0.481924 0.000000
# 6 0.000000 0.000000 0.000000 0.000000 0.000000 0.023410
#
#
# Mechanical properties :
#
#
# Convention : Reuss Voigt Hill
#
# Bulk Modulus (GPa) = 32.70335 59.53217 46.11776
# Shear Modulus (GPa) = -12.42273 -6345.90781 -3179.16527
#
# Velocity S-wave (km/s) = -2.40959 -54.46046 -38.54703
# Velocity P-wave (km/s) = 2.74652 62.66390 44.26749
#
# Compressibility (1/GPa) = 0.03057791
#
# Stress axis : x y z
#
# Youngs Moduli (GPa) = 153.11252 83.00376 50.91046
#
# Poissons Ratio (x) = 0.37882 0.09585
# Poissons Ratio (y) = 0.69879 -0.13364
# Poissons Ratio (z) = 0.28827 -0.21789
#
# Static dielectric constant tensor:
#      x y z
#    x 1.778760 0.000000 0.000000 
#    y 0.000000 1.721530 0.000000 
#    z 0.000000 0.000000 1.820510 
# 
# From -- ./inp_files/8087.got.cif
#   From: 2010.05.17/outbox.cif.g08.bks.cpg/sg55_5_cif.got.tgz:8087.got - 2010.06.03 13:27:54.
