data_PCOD9425868
_publ_section_title
;
Structure prediction by ZEFSAII (Michael W. Deem and Ramdas Pophale) SiO2 
 PCOD9425868
Probable space group: P B A M
;
_chemical_formula_sum "Si O2"
_cell_formula_units_Z 56
_cell_length_a 14.605933
_cell_length_b 19.606707
_cell_length_c 7.589868
_cell_angle_alpha 90.000000
_cell_angle_beta 90.000000
_cell_angle_gamma 90.000000
_cell_volume 2173.542747
_symmetry_space_group_name_H-M "P B A M"
_symmetry_group_IT_number 55
_symmetry_cell_setting 'orthorhombic'
loop_
_space_group_symop_operation_xyz
x,y,z
-x,-y,z
1/2+x,1/2-y,-z
1/2-x,1/2+y,-z
-x,-y,-z
x,y,-z
1/2-x,1/2+y,z
1/2+x,1/2-y,z
loop_
_atom_site_type_symbol
_atom_site_label
_atom_site_fract_x
_atom_site_fract_y
_atom_site_fract_z
Si Si1 0.430743 0.715098 0.293381
Si Si2 0.950579 0.931502 0.212274
Si Si3 0.777558 0.302031 0.294472
Si Si4 0.223835 0.995463 0.215243
Si Si5 0.431197 0.861042 0.795982
Si Si6 0.777510 0.153155 0.213122
Si Si7 0.895480 0.430783 0.796331
O O1 0.424274 0.729121 0.500000
O O2 0.480930 0.643346 0.268241
O O3 0.326643 0.703826 0.222513
O O4 0.469674 0.783704 0.209989
O O5 0.845965 0.945700 0.269565
O O6 0.955739 0.931550 0.000000
O O7 0.000000 0.000000 0.274288
O O8 0.773383 0.320059 0.500000
O O9 0.815368 0.224699 0.280301
O O10 0.837487 0.360277 0.205789
O O11 0.185603 0.921214 0.264515
O O12 0.325699 0.013272 0.278689
O O13 0.226513 0.996099 0.000000
O O14 0.328763 0.853648 0.724409
O O15 0.506094 0.912016 0.716763
O O16 0.418787 0.880478 0.000000
O O17 0.780364 0.157457 0.000000
O O18 0.911158 0.449461 0.000000
#
# Coordination Sequence:
#
# PCOD9425868 Si02
#       7
#     8   8   8   8   8   8   8
#     4  10  20  35  54  75 104 140 178 220 266 316
#     4  10  20  34  54  79 108 141 177 220 270 323
#     4  10  20  34  53  77 104 141 184 223 265 317
#     4   9  18  33  54  79 107 140 177 219 269 321
#     4   9  19  33  53  80 105 136 178 223 268 316
#     4   9  18  34  54  77 108 142 177 221 271 321
#     4  10  19  33  55  80 105 138 180 222 269 324
#
# _framework density 25.764386999999999
#
# number of rings (size 3 to 8) (size 9 to 14) (size 15 to 20)
#    0.000    2.429    1.429    0.857    0.000    3.714 
#    0.000    7.143    0.000    0.000    0.000    5.000 
#    0.000    0.000    0.000    0.000    0.000    0.000 
#
# Total GULP energy -312981.225787 kJ/mol
# GULP energy per Si atom -5588.950460 kJ/mol
# Density = 2.570575 g / cm^3
# Si number density = 25.764387 Si / 1000 Ang^3
#
#
#
# Elastic Constant Matrix: (Units=GPa)
#
#
# Indices 1 2 3 4 5 6 
#
# 1 55.9258 7.8940 -1.6560 0.0000 0.0000 0.0000
# 2 7.8940 145.0488 -2.4378 0.0000 0.0000 0.0000
# 3 -1.6560 -2.4378 70.3127 0.0000 0.0000 0.0000
# 4 0.0000 0.0000 0.0000 88.7204 0.0000 0.0000
# 5 0.0000 0.0000 0.0000 0.0000 -0.8062 0.0000
# 6 0.0000 0.0000 0.0000 0.0000 0.0000 49.3133
#
#
#
# Elastic Compliance Matrix: (Units=1/GPa)
#
#
# Indices 1 2 3 4 5 6 
#
# 1 0.018030 -0.000975 0.000391 0.000000 0.000000 0.000000
# 2 -0.000975 0.006951 0.000218 0.000000 0.000000 0.000000
# 3 0.000391 0.000218 0.014239 0.000000 0.000000 0.000000
# 4 0.000000 0.000000 0.000000 0.011271 0.000000 0.000000
# 5 0.000000 0.000000 0.000000 0.000000 -1.240399 0.000000
# 6 0.000000 0.000000 0.000000 0.000000 0.000000 0.020279
#
#
# Mechanical properties :
#
#
# Convention : Reuss Voigt Hill
#
# Bulk Modulus (GPa) = 25.98193 30.98752 28.48473
# Shear Modulus (GPa) = -4.32500 45.27798 20.47649
#
# Velocity S-wave (km/s) = -1.29704 4.19667 2.82221
# Velocity P-wave (km/s) = 2.80415 5.96121 4.65829
#
# Compressibility (1/GPa) = 0.03848829
#
# Stress axis : x y z
#
# Youngs Moduli (GPa) = 55.46319 143.86539 70.22994
#
# Poissons Ratio (x) = 0.14022 -0.02745
# Poissons Ratio (y) = 0.05406 -0.01531
# Poissons Ratio (z) = -0.02168 -0.03137
#
# Static dielectric constant tensor:
#      x y z
#    x 2.110430 0.000000 0.000000 
#    y 0.000000 2.024350 0.000000 
#    z 0.000000 0.000000 1.985180 
# 
# From -- ./inp_files/6027.got.cif
#   From: 2010.05.17/outbox.cif.g08.bks.cpg/sg55_4_cif.got.tgz:6027.got - 2010.06.03 13:27:54.
