data_PCOD9425446
_publ_section_title
;
Structure prediction by ZEFSAII (Michael W. Deem and Ramdas Pophale) SiO2 
 PCOD9425446
Probable space group: P B A M
;
_chemical_formula_sum "Si O2"
_cell_formula_units_Z 64
_cell_length_a 19.905967
_cell_length_b 14.584030
_cell_length_c 14.454804
_cell_angle_alpha 90.000000
_cell_angle_beta 90.000000
_cell_angle_gamma 90.000000
_cell_volume 4196.362873
_symmetry_space_group_name_H-M "P B A M"
_symmetry_group_IT_number 55
_symmetry_cell_setting 'orthorhombic'
loop_
_space_group_symop_operation_xyz
x,y,z
-x,-y,z
1/2+x,1/2-y,-z
1/2-x,1/2+y,-z
-x,-y,-z
x,y,-z
1/2-x,1/2+y,z
1/2+x,1/2-y,z
loop_
_atom_site_type_symbol
_atom_site_label
_atom_site_fract_x
_atom_site_fract_y
_atom_site_fract_z
Si Si1 0.641732 0.473982 0.203398
Si Si2 0.890360 0.023879 0.603041
Si Si3 0.716288 0.959326 0.888912
Si Si4 0.938863 0.787209 0.205997
Si Si5 0.840842 0.650638 0.888008
Si Si6 0.987187 0.844406 0.396731
Si Si7 0.429638 0.365750 0.889207
Si Si8 0.201160 0.747815 0.111966
O O1 0.655059 0.509350 0.307490
O O2 0.708531 0.481565 0.143662
O O3 0.614771 0.370546 0.203305
O O4 0.583495 0.537148 0.159803
O O5 0.860137 0.029311 0.500000
O O6 0.938634 0.934034 0.604060
O O7 0.938967 0.111506 0.616568
O O8 0.698482 0.857369 0.854855
O O9 0.668655 0.043937 0.862849
O O10 0.716602 0.956975 0.000000
O O11 0.901908 0.699698 0.163665
O O12 0.964820 0.781787 0.311703
O O13 0.002618 0.818553 0.145535
O O14 0.770925 0.702455 0.862679
O O15 0.848850 0.658526 0.000000
O O16 0.983221 0.804136 0.500000
O O17 0.364720 0.304819 0.861670
O O18 0.430601 0.376647 0.000000
O O19 0.201041 0.745735 0.000000
#
# Coordination Sequence:
#
# PCOD9425446 Si02
#       8
#     8   8   8   8   8   8   8   8
#     4  11  18  27  46  71  96 121 150 188 239 280
#     4   8  14  25  40  62  93 123 148 175 224 288
#     4  10  19  32  49  66  88 127 169 189 211 274
#     4  11  20  29  45  72  96 120 151 198 240 271
#     4  10  19  31  46  66  93 124 159 190 221 272
#     4   8  14  26  42  61  91 124 149 179 223 283
#     4  11  21  30  42  68 101 124 148 189 238 275
#     4   9  18  33  47  61  90 131 160 183 221 275
#
# _framework density 15.251303999999999
#
# number of rings (size 3 to 8) (size 9 to 14) (size 15 to 20)
#    0.000    2.250    3.750    1.875    0.000    2.000 
#    0.000    0.625    0.000    3.750    0.000    1.750 
#    0.000    1.000    0.000    0.000    0.000    0.000 
#
# Total GULP energy -356491.063951 kJ/mol
# GULP energy per Si atom -5570.172874 kJ/mol
# Density = 1.521659 g / cm^3
# Si number density = 15.251304 Si / 1000 Ang^3
#
#
#
# Elastic Constant Matrix: (Units=GPa)
#
#
# Indices 1 2 3 4 5 6 
#
# 1 14.7418 -5.9818 -3.5577 0.0000 0.0000 0.0000
# 2 -5.9818 47.3921 9.0896 0.0000 0.0000 0.0000
# 3 -3.5577 9.0896 44.5430 0.0000 0.0000 0.0000
# 4 0.0000 0.0000 0.0000 11.4472 0.0000 0.0000
# 5 0.0000 0.0000 0.0000 0.0000 8.1491 0.0000
# 6 0.0000 0.0000 0.0000 0.0000 0.0000 21.1549
#
#
#
# Elastic Compliance Matrix: (Units=1/GPa)
#
#
# Indices 1 2 3 4 5 6 
#
# 1 0.072197 0.008333 0.004066 0.000000 0.000000 0.000000
# 2 0.008333 0.022922 -0.004012 0.000000 0.000000 0.000000
# 3 0.004066 -0.004012 0.023594 0.000000 0.000000 0.000000
# 4 0.000000 0.000000 0.000000 0.087358 0.000000 0.000000
# 5 0.000000 0.000000 0.000000 0.000000 0.122713 0.000000
# 6 0.000000 0.000000 0.000000 0.000000 0.000000 0.047270
#
#
# Mechanical properties :
#
#
# Convention : Reuss Voigt Hill
#
# Bulk Modulus (GPa) = 7.38085 11.75302 9.56693
# Shear Modulus (GPa) = 12.36273 15.29203 13.82738
#
# Velocity S-wave (km/s) = 2.85020 3.16993 3.01431
# Velocity P-wave (km/s) = 3.95998 4.59575 4.28966
#
# Compressibility (1/GPa) = 0.13548574
#
# Stress axis : x y z
#
# Youngs Moduli (GPa) = 13.85107 43.62660 42.38422
#
# Poissons Ratio (x) = -0.36353 -0.17234
# Poissons Ratio (y) = -0.11542 0.17004
# Poissons Ratio (z) = -0.05632 0.17503
#
# Static dielectric constant tensor:
#      x y z
#    x 1.496940 0.000000 0.000000 
#    y 0.000000 1.521870 0.000000 
#    z 0.000000 0.000000 1.524620 
# 
# From -- ./inp_files/19558.got.cif
#   From: 2010.05.17/outbox.cif.g08.bks.cpg/sg55_10_cif.got.tgz:19558.got - 2010.06.03 13:27:54.
