data_PCOD9425921
_publ_section_title
;
Structure prediction by ZEFSAII (Michael W. Deem and Ramdas Pophale) SiO2 
 PCOD9425921
Probable space group: P B A M
;
_chemical_formula_sum "Si O2"
_cell_formula_units_Z 64
_cell_length_a 19.753469
_cell_length_b 17.448321
_cell_length_c 7.351986
_cell_angle_alpha 90.000000
_cell_angle_beta 90.000000
_cell_angle_gamma 90.000000
_cell_volume 2533.971284
_symmetry_space_group_name_H-M "P B A M"
_symmetry_group_IT_number 55
_symmetry_cell_setting 'orthorhombic'
loop_
_space_group_symop_operation_xyz
x,y,z
-x,-y,z
1/2+x,1/2-y,-z
1/2-x,1/2+y,-z
-x,-y,-z
x,y,-z
1/2-x,1/2+y,z
1/2+x,1/2-y,z
loop_
_atom_site_type_symbol
_atom_site_label
_atom_site_fract_x
_atom_site_fract_y
_atom_site_fract_z
Si Si1 0.178492 0.498879 0.780620
Si Si2 0.290125 0.773411 0.706299
Si Si3 0.421789 0.504252 0.277052
Si Si4 0.471518 0.231747 0.780889
Si Si5 0.831093 0.327637 0.780164
Si Si6 0.595030 0.327517 0.287866
Si Si7 0.042642 0.425109 0.778703
Si Si8 0.696968 0.594607 0.707086
O O1 0.156276 0.584360 0.729321
O O2 0.120181 0.439302 0.724053
O O3 0.251485 0.476981 0.706421
O O4 0.182460 0.496882 0.000000
O O5 0.304803 0.799365 0.500000
O O6 0.239457 0.701441 0.705032
O O7 0.358805 0.740706 0.792075
O O8 0.243443 0.839235 0.794122
O O9 0.500000 0.500000 0.223765
O O10 0.419737 0.503364 0.500000
O O11 0.394830 0.587357 0.215107
O O12 0.373243 0.435667 0.213432
O O13 0.393876 0.225263 0.721380
O O14 0.516802 0.303053 0.723140
O O15 0.509267 0.153944 0.717843
O O16 0.471111 0.231092 0.000000
O O17 0.827485 0.324870 0.000000
O O18 0.613717 0.330337 0.500000
O O19 0.000000 0.500000 0.723160
O O20 0.040990 0.424104 0.000000
O O21 0.682914 0.619310 0.500000
#
# Coordination Sequence:
#
# PCOD9425921 Si02
#       8
#     8   8   8   8   8   8   8   8
#     4  10  19  33  56  83 110 145 184 222 269 329
#     4  10  22  38  57  83 112 144 184 234 289 340
#     4   9  19  36  58  79 102 144 194 228 263 330
#     4  10  20  34  55  83 112 145 184 226 274 330
#     4  10  21  35  54  82 113 144 183 228 273 333
#     4  10  21  37  57  81 111 143 185 235 281 332
#     4   9  15  29  52  76 107 146 184 215 254 322
#     4  10  21  37  58  82 110 142 184 234 282 334
#
# _framework density 25.256796999999999
#
# number of rings (size 3 to 8) (size 9 to 14) (size 15 to 20)
#    0.000    2.250    1.250    1.500    1.750    3.000 
#    0.000    0.625    0.000    1.500    0.000    0.000 
#    0.000    0.000    0.000    0.000    0.000    0.000 
#
# Total GULP energy -357954.524158 kJ/mol
# GULP energy per Si atom -5593.039440 kJ/mol
# Density = 2.519931 g / cm^3
# Si number density = 25.256797 Si / 1000 Ang^3
#
#
#
# Elastic Constant Matrix: (Units=GPa)
#
#
# Indices 1 2 3 4 5 6 
#
# 1 117.7539 4.5394 3.9665 0.0000 0.0000 0.0000
# 2 4.5394 69.3865 7.9216 0.0000 0.0000 0.0000
# 3 3.9665 7.9216 100.5106 0.0000 0.0000 0.0000
# 4 0.0000 0.0000 0.0000 3.1915 0.0000 0.0000
# 5 0.0000 0.0000 0.0000 0.0000 10.4803 0.0000
# 6 0.0000 0.0000 0.0000 0.0000 0.0000 50.4061
#
#
#
# Elastic Compliance Matrix: (Units=1/GPa)
#
#
# Indices 1 2 3 4 5 6 
#
# 1 0.008522 -0.000524 -0.000295 0.000000 0.000000 0.000000
# 2 -0.000524 0.014575 -0.001128 0.000000 0.000000 0.000000
# 3 -0.000295 -0.001128 0.010050 0.000000 0.000000 0.000000
# 4 0.000000 0.000000 0.000000 0.313328 0.000000 0.000000
# 5 0.000000 0.000000 0.000000 0.000000 0.095417 0.000000
# 6 0.000000 0.000000 0.000000 0.000000 0.000000 0.019839
#
#
# Mechanical properties :
#
#
# Convention : Reuss Voigt Hill
#
# Bulk Modulus (GPa) = 34.18410 35.61177 34.89794
# Shear Modulus (GPa) = 10.51797 30.89714 20.70756
#
# Velocity S-wave (km/s) = 2.04290 3.50139 2.86646
# Velocity P-wave (km/s) = 4.37363 5.52058 4.98023
#
# Compressibility (1/GPa) = 0.02925337
#
# Stress axis : x y z
#
# Youngs Moduli (GPa) = 117.33758 68.61020 99.50500
#
# Poissons Ratio (x) = 0.03594 0.02936
# Poissons Ratio (y) = 0.06147 0.11225
# Poissons Ratio (z) = 0.03462 0.07740
#
# Static dielectric constant tensor:
#      x y z
#    x 1.955100 0.000000 0.000000 
#    y 0.000000 1.994670 0.000000 
#    z 0.000000 0.000000 1.963430 
# 
# From -- ./inp_files/8986.got.cif
#   From: 2010.05.17/outbox.cif.g08.bks.cpg/sg55_5_cif.got.tgz:8986.got - 2010.06.03 13:27:54.
