data_PCOD9425471
_publ_section_title
;
Structure prediction by ZEFSAII (Michael W. Deem and Ramdas Pophale) SiO2 
 PCOD9425471
Probable space group: P B A M
;
_chemical_formula_sum "Si O2"
_cell_formula_units_Z 64
_cell_length_a 31.351366
_cell_length_b 14.983149
_cell_length_c 8.407000
_cell_angle_alpha 90.000000
_cell_angle_beta 90.000000
_cell_angle_gamma 90.000000
_cell_volume 3949.122576
_symmetry_space_group_name_H-M "P B A M"
_symmetry_group_IT_number 55
_symmetry_cell_setting 'orthorhombic'
loop_
_space_group_symop_operation_xyz
x,y,z
-x,-y,z
1/2+x,1/2-y,-z
1/2-x,1/2+y,-z
-x,-y,-z
x,y,-z
1/2-x,1/2+y,z
1/2+x,1/2-y,z
loop_
_atom_site_type_symbol
_atom_site_label
_atom_site_fract_x
_atom_site_fract_y
_atom_site_fract_z
Si Si1 0.704287 0.181195 0.810821
Si Si2 0.825635 0.001707 0.685368
Si Si3 0.213206 0.709763 0.310973
Si Si4 0.276128 0.009544 0.686430
Si Si5 0.549081 0.602212 0.805824
Si Si6 0.634271 0.318922 0.807076
Si Si7 0.547057 0.395726 0.193536
Si Si8 0.364435 0.321545 0.185885
O O1 0.747196 0.230977 0.751024
O O2 0.703667 0.077842 0.763440
O O3 0.662431 0.234943 0.753361
O O4 0.705395 0.187162 0.000000
O O5 0.836846 0.017034 0.500000
O O6 0.774746 0.002704 0.698408
O O7 0.845079 0.079634 0.791669
O O8 0.842345 0.906760 0.742856
O O9 0.218950 0.705128 0.500000
O O10 0.213960 0.608149 0.247386
O O11 0.168388 0.756313 0.272094
O O12 0.287619 0.008944 0.500000
O O13 0.501092 0.626447 0.755067
O O14 0.556627 0.498573 0.758035
O O15 0.587134 0.666802 0.752631
O O16 0.550152 0.602626 0.000000
O O17 0.585025 0.330356 0.755721
O O18 0.634741 0.320720 0.000000
O O19 0.546489 0.396279 0.000000
O O20 0.365276 0.297900 0.000000
#
# Coordination Sequence:
#
# PCOD9425471 Si02
#       8
#     8   8   8   8   8   8   8   8
#     4  11  22  32  49  74  97 123 157 201 243 274
#     4  11  20  30  46  68  96 132 165 194 232 279
#     4  11  22  36  50  67  93 129 165 194 233 284
#     4  10  22  37  50  64  92 132 168 198 230 279
#     4   8  14  24  44  70  95 125 156 189 233 283
#     4  10  19  31  48  72  98 127 162 199 237 277
#     4   8  13  25  44  68  97 126 156 189 230 286
#     4  11  20  31  48  73  97 124 161 201 238 278
#
# _framework density 16.206132
#
# number of rings (size 3 to 8) (size 9 to 14) (size 15 to 20)
#    0.000    2.000    3.750    2.250    0.000    2.000 
#    0.000    0.000    0.000    2.250    0.000    0.875 
#    0.000    7.000    0.000    0.000    0.000    0.000 
#
# Total GULP energy -356786.341130 kJ/mol
# GULP energy per Si atom -5574.786580 kJ/mol
# Density = 1.616925 g / cm^3
# Si number density = 16.206132 Si / 1000 Ang^3
#
#
#
# Elastic Constant Matrix: (Units=GPa)
#
#
# Indices 1 2 3 4 5 6 
#
# 1 95.8150 36.0496 10.4575 0.0000 0.0000 0.0000
# 2 36.0496 78.5452 7.8049 0.0000 0.0000 0.0000
# 3 10.4575 7.8049 10.9268 0.0000 0.0000 0.0000
# 4 0.0000 0.0000 0.0000 6.6797 0.0000 0.0000
# 5 0.0000 0.0000 0.0000 0.0000 -2.8180 0.0000
# 6 0.0000 0.0000 0.0000 0.0000 0.0000 20.3948
#
#
#
# Elastic Compliance Matrix: (Units=1/GPa)
#
#
# Indices 1 2 3 4 5 6 
#
# 1 0.013403 -0.005249 -0.009077 0.000000 0.000000 0.000000
# 2 -0.005249 0.015760 -0.006233 0.000000 0.000000 0.000000
# 3 -0.009077 -0.006233 0.104658 0.000000 0.000000 0.000000
# 4 0.000000 0.000000 0.000000 0.149708 0.000000 0.000000
# 5 0.000000 0.000000 0.000000 0.000000 -0.354862 0.000000
# 6 0.000000 0.000000 0.000000 0.000000 0.000000 0.049032
#
#
# Mechanical properties :
#
#
# Convention : Reuss Voigt Hill
#
# Bulk Modulus (GPa) = 10.78745 32.65679 21.72212
# Shear Modulus (GPa) = 100.56542 13.58296 57.07419
#
# Velocity S-wave (km/s) = 7.88598 2.89820 5.94088
# Velocity P-wave (km/s) = 9.46515 5.60304 7.77763
#
# Compressibility (1/GPa) = 0.09270032
#
# Stress axis : x y z
#
# Youngs Moduli (GPa) = 74.61289 63.45101 9.55494
#
# Poissons Ratio (x) = 0.33307 0.08673
# Poissons Ratio (y) = 0.39167 0.05956
# Poissons Ratio (z) = 0.67729 0.39552
#
# Static dielectric constant tensor:
#      x y z
#    x 1.568120 0.000000 0.000000 
#    y 0.000000 1.535080 0.000000 
#    z 0.000000 0.000000 1.556460 
# 
# From -- ./inp_files/10902.got.cif
#   From: 2010.05.17/outbox.cif.g08.bks.cpg/sg55_6_cif.got.tgz:10902.got - 2010.06.03 13:27:54.
