data_PCOD9425776
_publ_section_title
;
Structure prediction by ZEFSAII (Michael W. Deem and Ramdas Pophale) SiO2 
 PCOD9425776
Probable space group: P B A M
;
_chemical_formula_sum "Si O2"
_cell_formula_units_Z 56
_cell_length_a 22.030644
_cell_length_b 15.007594
_cell_length_c 7.391818
_cell_angle_alpha 90.000000
_cell_angle_beta 90.000000
_cell_angle_gamma 90.000000
_cell_volume 2443.934319
_symmetry_space_group_name_H-M "P B A M"
_symmetry_group_IT_number 55
_symmetry_cell_setting 'orthorhombic'
loop_
_space_group_symop_operation_xyz
x,y,z
-x,-y,z
1/2+x,1/2-y,-z
1/2-x,1/2+y,-z
-x,-y,-z
x,y,-z
1/2-x,1/2+y,z
1/2+x,1/2-y,z
loop_
_atom_site_type_symbol
_atom_site_label
_atom_site_fract_x
_atom_site_fract_y
_atom_site_fract_z
Si Si1 0.569573 0.510383 0.278009
Si Si2 0.404213 0.973013 0.220224
Si Si3 0.178213 0.099798 0.706550
Si Si4 0.233024 0.439917 0.781562
Si Si5 0.985031 0.359640 0.782592
Si Si6 0.101542 0.793815 0.712414
Si Si7 0.272009 0.239428 0.290087
O O1 0.500000 0.500000 0.224555
O O2 0.571332 0.510212 0.500000
O O3 0.614063 0.431769 0.214747
O O4 0.593689 0.606733 0.215189
O O5 0.335116 0.963992 0.278473
O O6 0.448456 0.891988 0.277123
O O7 0.437530 0.063878 0.278055
O O8 0.403659 0.973570 0.000000
O O9 0.165304 0.128088 0.500000
O O10 0.219262 0.010978 0.708053
O O11 0.220872 0.175310 0.792012
O O12 0.249891 0.340827 0.721476
O O13 0.235485 0.443228 0.000000
O O14 0.958925 0.264561 0.728704
O O15 0.985548 0.361612 0.000000
O O16 0.114529 0.804776 0.500000
O O17 0.159853 0.740991 0.788933
O O18 0.277261 0.210569 0.500000
#
# Coordination Sequence:
#
# PCOD9425776 Si02
#       7
#     8   8   8   8   8   8   8
#     4   9  18  34  55  75 102 142 180 217 269 329
#     4   8  17  33  51  75 106 141 175 215 262 322
#     4  10  20  37  58  79 108 144 185 230 279 330
#     4  11  21  34  55  81 111 142 179 225 274 326
#     4   9  17  33  55  74 101 141 180 210 261 328
#     4  10  19  33  52  78 108 133 175 230 271 316
#     4  10  21  36  56  81 108 143 184 229 280 329
#
# _framework density 22.913871
#
# number of rings (size 3 to 8) (size 9 to 14) (size 15 to 20)
#    0.000    2.429    1.429    2.143    0.000    2.286 
#    0.000    5.000    0.000    1.714    0.000    0.000 
#    0.000    0.000    0.000    0.000    0.000    0.000 
#
# Total GULP energy -312814.507876 kJ/mol
# GULP energy per Si atom -5585.973355 kJ/mol
# Density = 2.286172 g / cm^3
# Si number density = 22.913871 Si / 1000 Ang^3
#
#
#
# Elastic Constant Matrix: (Units=GPa)
#
#
# Indices 1 2 3 4 5 6 
#
# 1 108.9484 -15.9044 1.9425 0.0000 0.0000 0.0000
# 2 -15.9044 36.8570 -7.1043 0.0000 0.0000 0.0000
# 3 1.9425 -7.1043 84.6606 0.0000 0.0000 0.0000
# 4 0.0000 0.0000 0.0000 7.9072 0.0000 0.0000
# 5 0.0000 0.0000 0.0000 0.0000 3.0057 0.0000
# 6 0.0000 0.0000 0.0000 0.0000 0.0000 38.4553
#
#
#
# Elastic Compliance Matrix: (Units=1/GPa)
#
#
# Indices 1 2 3 4 5 6 
#
# 1 0.009797 0.004253 0.000132 0.000000 0.000000 0.000000
# 2 0.004253 0.029424 0.002372 0.000000 0.000000 0.000000
# 3 0.000132 0.002372 0.012008 0.000000 0.000000 0.000000
# 4 0.000000 0.000000 0.000000 0.126467 0.000000 0.000000
# 5 0.000000 0.000000 0.000000 0.000000 0.332698 0.000000
# 6 0.000000 0.000000 0.000000 0.000000 0.000000 0.026004
#
#
# Mechanical properties :
#
#
# Convention : Reuss Voigt Hill
#
# Bulk Modulus (GPa) = 15.44571 20.92595 18.18583
# Shear Modulus (GPa) = 9.18331 26.64245 17.91288
#
# Velocity S-wave (km/s) = 2.00411 3.41357 2.79901
# Velocity P-wave (km/s) = 3.48004 4.96879 4.28950
#
# Compressibility (1/GPa) = 0.06474289
#
# Stress axis : x y z
#
# Youngs Moduli (GPa) = 102.07022 33.98550 83.27888
#
# Poissons Ratio (x) = -0.14454 -0.01100
# Poissons Ratio (y) = -0.43411 -0.19750
# Poissons Ratio (z) = -0.01348 -0.08060
#
# Static dielectric constant tensor:
#      x y z
#    x 1.852150 0.000000 0.000000 
#    y 0.000000 1.812950 0.000000 
#    z 0.000000 0.000000 1.871230 
# 
# From -- ./inp_files/8781.got.cif
#   From: 2010.05.17/outbox.cif.g08.bks.cpg/sg55_5_cif.got.tgz:8781.got - 2010.06.03 13:27:54.
