data_PCOD9425080
_publ_section_title
;
Structure prediction by ZEFSAII (Michael W. Deem and Ramdas Pophale) SiO2 
 PCOD9425080
Probable space group: P B A M
;
_chemical_formula_sum "Si O2"
_cell_formula_units_Z 64
_cell_length_a 23.523568
_cell_length_b 19.597877
_cell_length_c 8.867583
_cell_angle_alpha 90.000000
_cell_angle_beta 90.000000
_cell_angle_gamma 90.000000
_cell_volume 4088.062105
_symmetry_space_group_name_H-M "P B A M"
_symmetry_group_IT_number 55
_symmetry_cell_setting 'orthorhombic'
loop_
_space_group_symop_operation_xyz
x,y,z
-x,-y,z
1/2+x,1/2-y,-z
1/2-x,1/2+y,-z
-x,-y,-z
x,y,-z
1/2-x,1/2+y,z
1/2+x,1/2-y,z
loop_
_atom_site_type_symbol
_atom_site_label
_atom_site_fract_x
_atom_site_fract_y
_atom_site_fract_z
Si Si1 0.217861 0.641163 0.179240
Si Si2 0.342524 0.265474 0.320877
Si Si3 0.117773 0.990166 0.680322
Si Si4 0.337846 0.717189 0.178639
Si Si5 0.264647 0.842874 0.819309
Si Si6 0.437805 0.354810 0.179616
Si Si7 0.256855 0.495703 0.181177
Si Si8 0.060763 0.135555 0.679196
O O1 0.174970 0.689922 0.267212
O O2 0.281515 0.671061 0.203765
O O3 0.220391 0.562014 0.223763
O O4 0.206483 0.646974 0.000000
O O5 0.346582 0.269208 0.500000
O O6 0.290965 0.313845 0.263412
O O7 0.399431 0.294020 0.245684
O O8 0.117918 0.980711 0.500000
O O9 0.088813 0.925104 0.757060
O O10 0.181952 0.997606 0.739615
O O11 0.083489 0.059388 0.715348
O O12 0.317275 0.793595 0.218294
O O13 0.390042 0.687611 0.271048
O O14 0.350930 0.714218 0.000000
O O15 0.271256 0.922591 0.786032
O O16 0.254903 0.835155 0.000000
O O17 0.502337 0.350394 0.235420
O O18 0.434513 0.354850 0.000000
O O19 0.266168 0.499821 0.000000
O O20 0.051372 0.138942 0.500000
#
# Coordination Sequence:
#
# PCOD9425080 Si02
#       8
#     8   8   8   8   8   8   8   8
#     4   9  18  32  51  74 101 133 170 207 246 298
#     4  11  21  33  50  73 100 131 166 210 258 299
#     4  11  22  34  48  72 105 136 169 211 249 293
#     4   9  17  31  49  72 100 131 170 208 245 292
#     4   9  18  32  51  75 101 132 168 208 248 296
#     4  12  24  37  53  70  95 134 177 213 250 300
#     4  10  18  31  53  76 102 138 173 205 245 295
#     4  11  23  36  50  71 101 134 172 212 253 296
#
# _framework density 15.655339
#
# number of rings (size 3 to 8) (size 9 to 14) (size 15 to 20)
#    0.000    1.750    2.500    4.125    0.000    5.500 
#    0.000    0.000    0.000    0.000    0.000    0.875 
#    0.000    7.000    0.000    0.000    0.000    0.000 
#
# Total GULP energy -357300.313285 kJ/mol
# GULP energy per Si atom -5582.817395 kJ/mol
# Density = 1.561971 g / cm^3
# Si number density = 15.655339 Si / 1000 Ang^3
#
#
#
# Elastic Constant Matrix: (Units=GPa)
#
#
# Indices 1 2 3 4 5 6 
#
# 1 56.4084 32.2461 34.7031 0.0000 0.0000 0.0000
# 2 32.2461 102.5501 39.9487 0.0000 0.0000 0.0000
# 3 34.7031 39.9487 57.5940 0.0000 0.0000 0.0000
# 4 0.0000 0.0000 0.0000 16.7953 0.0000 0.0000
# 5 0.0000 0.0000 0.0000 0.0000 104.4299 0.0000
# 6 0.0000 0.0000 0.0000 0.0000 0.0000 15.3154
#
#
#
# Elastic Compliance Matrix: (Units=1/GPa)
#
#
# Indices 1 2 3 4 5 6 
#
# 1 0.028897 -0.003157 -0.015223 0.000000 0.000000 0.000000
# 2 -0.003157 0.013707 -0.007605 0.000000 0.000000 0.000000
# 3 -0.015223 -0.007605 0.031810 0.000000 0.000000 0.000000
# 4 0.000000 0.000000 0.000000 0.059540 0.000000 0.000000
# 5 0.000000 0.000000 0.000000 0.000000 0.009576 0.000000
# 6 0.000000 0.000000 0.000000 0.000000 0.000000 0.065294
#
#
# Mechanical properties :
#
#
# Convention : Reuss Voigt Hill
#
# Bulk Modulus (GPa) = 44.55212 47.81649 46.18431
# Shear Modulus (GPa) = 18.63758 34.61842 26.62800
#
# Velocity S-wave (km/s) = 3.45410 4.70753 4.12866
# Velocity P-wave (km/s) = 6.66540 7.75612 7.23135
#
# Compressibility (1/GPa) = 0.02244562
#
# Stress axis : x y z
#
# Youngs Moduli (GPa) = 34.60511 72.95786 31.43619
#
# Poissons Ratio (x) = 0.23030 0.47854
# Poissons Ratio (y) = 0.10923 0.23908
# Poissons Ratio (z) = 0.52678 0.55486
#
# Static dielectric constant tensor:
#      x y z
#    x 1.487400 0.000000 0.000000 
#    y 0.000000 1.538950 0.000000 
#    z 0.000000 0.000000 1.521910 
# 
# From -- ./inp_files/9111.got.cif
#   From: 2010.05.17/outbox.cif.g08.bks.cpg/sg55_5_cif.got.tgz:9111.got - 2010.06.03 13:27:54.
