data_PCOD9425687
_publ_section_title
;
Structure prediction by ZEFSAII (Michael W. Deem and Ramdas Pophale) SiO2 
 PCOD9425687
Probable space group: P B A M
;
_chemical_formula_sum "Si O2"
_cell_formula_units_Z 56
_cell_length_a 5.310554
_cell_length_b 17.242641
_cell_length_c 27.263246
_cell_angle_alpha 90.000000
_cell_angle_beta 90.000000
_cell_angle_gamma 90.000000
_cell_volume 2496.440259
_symmetry_space_group_name_H-M "P B A M"
_symmetry_group_IT_number 55
_symmetry_cell_setting 'orthorhombic'
loop_
_space_group_symop_operation_xyz
x,y,z
-x,-y,z
1/2+x,1/2-y,-z
1/2-x,1/2+y,-z
-x,-y,-z
x,y,-z
1/2-x,1/2+y,z
1/2+x,1/2-y,z
loop_
_atom_site_type_symbol
_atom_site_label
_atom_site_fract_x
_atom_site_fract_y
_atom_site_fract_z
Si Si1 0.750935 0.041307 0.916732
Si Si2 0.099163 0.787139 0.058944
Si Si3 0.250496 0.024728 0.191576
Si Si4 0.809391 0.294193 0.691294
Si Si5 0.782734 0.296787 0.190647
Si Si6 0.491280 0.405535 0.443971
Si Si7 0.509992 0.906905 0.387269
O O1 0.779957 0.131246 0.926883
O O2 0.500000 0.000000 0.935950
O O3 0.750233 0.027069 0.857996
O O4 0.000000 0.000000 0.936685
O O5 0.309930 0.724514 0.075364
O O6 0.088025 0.783731 0.000000
O O7 0.256694 0.113888 0.175321
O O8 0.500000 0.000000 0.219584
O O9 0.000000 0.000000 0.219429
O O10 0.526019 0.268700 0.678021
O O11 0.801000 0.302318 0.750047
O O12 0.909541 0.370230 0.664285
O O13 0.538464 0.246870 0.176295
O O14 0.500000 0.500000 0.444114
O O15 0.451138 0.380329 0.500000
O O16 0.258476 0.381555 0.409478
O O17 0.763358 0.381915 0.423523
O O18 0.500000 0.000000 0.384262
#
# Coordination Sequence:
#
# PCOD9425687 Si02
#       7
#     8   8   8   8   8   8   8
#     4  10  21  38  57  85 119 152 191 237 293 342
#     4  10  21  38  60  86 117 156 201 244 286 341
#     4  10  21  39  58  85 119 148 186 236 290 340
#     4  10  21  37  56  78 108 143 174 217 278 331
#     4  10  21  39  61  83 109 148 192 228 277 349
#     4   9  17  30  50  76 106 138 176 222 265 312
#     4  10  19  32  53  80 103 133 180 223 265 316
#
# _framework density 22.431940000000001
#
# number of rings (size 3 to 8) (size 9 to 14) (size 15 to 20)
#    0.000    2.143    0.000    3.000    0.000    2.857 
#    0.000   19.286    0.000    8.571    0.000    0.000 
#    0.000    0.000    0.000    0.000    0.000    0.000 
#
# Total GULP energy -312893.914599 kJ/mol
# GULP energy per Si atom -5587.391332 kJ/mol
# Density = 2.238088 g / cm^3
# Si number density = 22.431940 Si / 1000 Ang^3
#
#
#
# Elastic Constant Matrix: (Units=GPa)
#
#
# Indices 1 2 3 4 5 6 
#
# 1 183.4341 30.2349 7.6801 0.0000 0.0000 0.0000
# 2 30.2349 48.1518 -10.8161 0.0000 0.0000 0.0000
# 3 7.6801 -10.8161 30.8027 0.0000 0.0000 0.0000
# 4 0.0000 0.0000 0.0000 27.2858 0.0000 0.0000
# 5 0.0000 0.0000 0.0000 0.0000 0.9343 0.0000
# 6 0.0000 0.0000 0.0000 0.0000 0.0000 36.2534
#
#
#
# Elastic Compliance Matrix: (Units=1/GPa)
#
#
# Indices 1 2 3 4 5 6 
#
# 1 0.006367 -0.004727 -0.003247 0.000000 0.000000 0.000000
# 2 -0.004727 0.026056 0.010328 0.000000 0.000000 0.000000
# 3 -0.003247 0.010328 0.036901 0.000000 0.000000 0.000000
# 4 0.000000 0.000000 0.000000 0.036649 0.000000 0.000000
# 5 0.000000 0.000000 0.000000 0.000000 1.070330 0.000000
# 6 0.000000 0.000000 0.000000 0.000000 0.000000 0.027584
#
#
# Mechanical properties :
#
#
# Convention : Reuss Voigt Hill
#
# Bulk Modulus (GPa) = 13.50802 35.17630 24.34216
# Shear Modulus (GPa) = 4.08545 28.58067 16.33306
#
# Velocity S-wave (km/s) = 1.35101 3.57333 2.70129
# Velocity P-wave (km/s) = 2.91006 5.72192 4.53921
#
# Compressibility (1/GPa) = 0.07403009
#
# Stress axis : x y z
#
# Youngs Moduli (GPa) = 157.06817 38.37932 27.09963
#
# Poissons Ratio (x) = 0.18142 0.08800
# Poissons Ratio (y) = 0.74248 -0.27988
# Poissons Ratio (z) = 0.51005 -0.39637
#
# Static dielectric constant tensor:
#      x y z
#    x 2.002500 0.000000 0.000000 
#    y 0.000000 1.822200 0.000000 
#    z 0.000000 0.000000 1.824020 
# 
# From -- ./inp_files/24066.got.cif
#   From: 2010.05.17/outbox.cif.g08.bks.cpg/sg55_13_cif.got.tgz:24066.got - 2010.06.03 13:27:54.
