data_PCOD9425728
_publ_section_title
;
Structure prediction by ZEFSAII (Michael W. Deem and Ramdas Pophale) SiO2 
 PCOD9425728
Probable space group: P B A M
;
_chemical_formula_sum "Si O2"
_cell_formula_units_Z 58
_cell_length_a 10.555190
_cell_length_b 26.457684
_cell_length_c 10.114936
_cell_angle_alpha 90.000000
_cell_angle_beta 90.000000
_cell_angle_gamma 90.000000
_cell_volume 2824.756519
_symmetry_space_group_name_H-M "P B A M"
_symmetry_group_IT_number 55
_symmetry_cell_setting 'orthorhombic'
loop_
_space_group_symop_operation_xyz
x,y,z
-x,-y,z
1/2+x,1/2-y,-z
1/2-x,1/2+y,-z
-x,-y,-z
x,y,-z
1/2-x,1/2+y,z
1/2+x,1/2-y,z
loop_
_atom_site_type_symbol
_atom_site_label
_atom_site_fract_x
_atom_site_fract_y
_atom_site_fract_z
Si Si1 0.417955 0.550397 0.851724
Si Si2 0.333688 0.191763 0.161569
Si Si3 0.597780 0.640186 0.846905
Si Si4 0.000000 0.500000 0.000000
Si Si5 0.595482 0.892446 0.646962
Si Si6 0.326628 0.004093 0.741049
Si Si7 0.070478 0.241033 0.847402
Si Si8 0.699067 0.109638 0.352507
O O1 0.500000 0.500000 0.863692
O O2 0.507643 0.594599 0.801465
O O3 0.302201 0.534988 0.762513
O O4 0.374490 0.565597 0.000000
O O5 0.332861 0.138220 0.237594
O O6 0.467243 0.218101 0.200795
O O7 0.211146 0.225773 0.202558
O O8 0.329457 0.185977 0.000000
O O9 0.513150 0.690033 0.843150
O O10 0.720419 0.639383 0.755843
O O11 0.634244 0.630833 0.000000
O O12 0.108327 0.494440 0.117275
O O13 0.645301 0.880726 0.500000
O O14 0.592902 0.953179 0.665658
O O15 0.448531 0.876873 0.653940
O O16 0.296578 0.950585 0.675588
O O17 0.094014 0.255609 0.000000
O O18 0.747073 0.119926 0.500000
#
# Coordination Sequence:
#
# PCOD9425728 Si02
#       8
#     8   8   8   2   8   8   8   8
#     4  10  19  32  54  87 122 154 190 247 303 352
#     4  10  22  41  70  96 125 157 205 256 316 375
#     4  10  21  37  61  88 123 161 203 253 308 364
#     4  12  24  32  60 100 116 152 218 254 296 364
#     4  11  25  42  60  87 126 169 206 249 312 368
#     4  12  22  38  60  89 128 158 206 256 303 361
#     4   9  20  40  64 100 127 154 196 263 322 369
#     4  11  24  40  58  86 126 170 208 249 303 358
#
# _framework density 20.532744000000001
#
# number of rings (size 3 to 8) (size 9 to 14) (size 15 to 20)
#    0.000    1.517    3.448    1.241    3.862    2.759 
#    0.000    5.517    0.000    0.000    0.000    0.000 
#    0.000    0.000    0.000    0.000    0.000    0.000 
#
# Total GULP energy -322990.510263 kJ/mol
# GULP energy per Si atom -5568.801901 kJ/mol
# Density = 2.048601 g / cm^3
# Si number density = 20.532744 Si / 1000 Ang^3
#
#
#
# Elastic Constant Matrix: (Units=GPa)
#
#
# Indices 1 2 3 4 5 6 
#
# 1 55.8476 3.3870 34.2298 0.0000 0.0000 0.0000
# 2 3.3870 67.4563 12.3889 0.0000 0.0000 0.0000
# 3 34.2298 12.3889 75.2805 0.0000 0.0000 0.0000
# 4 0.0000 0.0000 0.0000 11.0909 0.0000 0.0000
# 5 0.0000 0.0000 0.0000 0.0000 17.5983 0.0000
# 6 0.0000 0.0000 0.0000 0.0000 0.0000 23.8477
#
#
#
# Elastic Compliance Matrix: (Units=1/GPa)
#
#
# Indices 1 2 3 4 5 6 
#
# 1 0.024872 0.000854 -0.011450 0.000000 0.000000 0.000000
# 2 0.000854 0.015316 -0.002909 0.000000 0.000000 0.000000
# 3 -0.011450 -0.002909 0.018968 0.000000 0.000000 0.000000
# 4 0.000000 0.000000 0.000000 0.090164 0.000000 0.000000
# 5 0.000000 0.000000 0.000000 0.000000 0.056824 0.000000
# 6 0.000000 0.000000 0.000000 0.000000 0.000000 0.041933
#
#
# Mechanical properties :
#
#
# Convention : Reuss Voigt Hill
#
# Bulk Modulus (GPa) = 31.10708 33.17732 32.14220
# Shear Modulus (GPa) = 17.49469 20.41262 18.95365
#
# Velocity S-wave (km/s) = 2.92214 3.15643 3.04154
# Velocity P-wave (km/s) = 5.15442 5.42931 5.29365
#
# Compressibility (1/GPa) = 0.03214702
#
# Stress axis : x y z
#
# Youngs Moduli (GPa) = 40.20629 65.29221 52.71900
#
# Poissons Ratio (x) = -0.05576 0.60361
# Poissons Ratio (y) = -0.03434 0.15335
# Poissons Ratio (z) = 0.46035 0.18992
#
# Static dielectric constant tensor:
#      x y z
#    x 1.794630 0.000000 0.000000 
#    y 0.000000 1.761030 0.000000 
#    z 0.000000 0.000000 1.723470 
# 
# From -- ./inp_files/4312.got.cif
#   From: 2010.05.17/outbox.cif.g08.bks.cpg/sg55_3_cif.got.tgz:4312.got - 2010.06.03 13:27:54.
