data_PCOD9425536
_publ_section_title
;
Structure prediction by ZEFSAII (Michael W. Deem and Ramdas Pophale) SiO2 
 PCOD9425536
Probable space group: P B A M
;
_chemical_formula_sum "Si O2"
_cell_formula_units_Z 28
_cell_length_a 5.061725
_cell_length_b 23.971374
_cell_length_c 10.228823
_cell_angle_alpha 90.000000
_cell_angle_beta 90.000000
_cell_angle_gamma 90.000000
_cell_volume 1241.129613
_symmetry_space_group_name_H-M "P B A M"
_symmetry_group_IT_number 55
_symmetry_cell_setting 'orthorhombic'
loop_
_space_group_symop_operation_xyz
x,y,z
-x,-y,z
1/2+x,1/2-y,-z
1/2-x,1/2+y,-z
-x,-y,-z
x,y,-z
1/2-x,1/2+y,z
1/2+x,1/2-y,z
loop_
_atom_site_type_symbol
_atom_site_label
_atom_site_fract_x
_atom_site_fract_y
_atom_site_fract_z
Si Si1 0.598108 0.436814 0.156294
Si Si2 0.076954 0.374183 0.249027
Si Si3 0.915292 0.707793 0.500000
Si Si4 0.795916 0.272198 0.148089
O O1 0.500000 0.500000 0.174250
O O2 0.859176 0.423454 0.241356
O O3 0.357616 0.397123 0.202248
O O4 0.648360 0.429429 0.000000
O O5 0.087642 0.336083 0.378672
O O6 0.939963 0.330518 0.150430
O O7 0.175686 0.747371 0.500000
O O8 0.508016 0.269706 0.211437
O O9 0.729526 0.256062 0.000000
#
# Coordination Sequence:
#
# PCOD9425536 Si02
#       4
#     8   8   4   8
#     4  11  24  43  68  98 131 168 217 278 338 393
#     4  12  23  41  65  93 128 176 220 264 328 390
#     4  12  26  46  69  96 135 180 224 268 318 390
#     4  10  19  31  51  82 116 149 193 252 313 376
#
# _framework density 22.560095
#
# number of rings (size 3 to 8) (size 9 to 14) (size 15 to 20)
#    0.000    0.857    0.000    8.571    0.000    4.571 
#    0.000    4.286    0.000    0.000    0.000    0.000 
#    0.000    0.000    0.000    0.000    0.000    0.000 
#
# Total GULP energy -156309.283695 kJ/mol
# GULP energy per Si atom -5582.474418 kJ/mol
# Density = 2.250875 g / cm^3
# Si number density = 22.560095 Si / 1000 Ang^3
#
#
#
# Elastic Constant Matrix: (Units=GPa)
#
#
# Indices 1 2 3 4 5 6 
#
# 1 88.6112 5.9824 24.2547 0.0000 0.0000 0.0000
# 2 5.9824 114.0284 37.5685 0.0000 0.0000 0.0000
# 3 24.2547 37.5685 105.0666 0.0000 0.0000 0.0000
# 4 0.0000 0.0000 0.0000 39.9691 0.0000 0.0000
# 5 0.0000 0.0000 0.0000 0.0000 22.5545 0.0000
# 6 0.0000 0.0000 0.0000 0.0000 0.0000 51.5231
#
#
#
# Elastic Compliance Matrix: (Units=1/GPa)
#
#
# Indices 1 2 3 4 5 6 
#
# 1 0.012057 0.000322 -0.002899 0.000000 0.000000 0.000000
# 2 0.000322 0.009949 -0.003632 0.000000 0.000000 0.000000
# 3 -0.002899 -0.003632 0.011486 0.000000 0.000000 0.000000
# 4 0.000000 0.000000 0.000000 0.025019 0.000000 0.000000
# 5 0.000000 0.000000 0.000000 0.000000 0.044337 0.000000
# 6 0.000000 0.000000 0.000000 0.000000 0.000000 0.019409
#
#
# Mechanical properties :
#
#
# Convention : Reuss Voigt Hill
#
# Bulk Modulus (GPa) = 47.44844 49.25750 48.35297
# Shear Modulus (GPa) = 35.28613 38.80272 37.04442
#
# Velocity S-wave (km/s) = 3.95915 4.15175 4.05660
# Velocity P-wave (km/s) = 6.47901 6.69806 6.58945
#
# Compressibility (1/GPa) = 0.02107551
#
# Stress axis : x y z
#
# Youngs Moduli (GPa) = 82.93998 100.50787 87.06524
#
# Poissons Ratio (x) = -0.03241 0.25237
# Poissons Ratio (y) = -0.02674 0.31623
# Poissons Ratio (z) = 0.24041 0.36505
#
# Static dielectric constant tensor:
#      x y z
#    x 1.898800 0.000000 0.000000 
#    y 0.000000 1.905990 0.000000 
#    z 0.000000 0.000000 1.882870 
# 
# From -- ./inp_files/11186.got.cif
#   From: 2010.05.17/outbox.cif.g08.bks.cpg/sg55_6_cif.got.tgz:11186.got - 2010.06.03 13:27:54.
