data_PCOD9425950
_publ_section_title
;
Structure prediction by ZEFSAII (Michael W. Deem and Ramdas Pophale) SiO2 
 PCOD9425950
Probable space group: P B A M
;
_chemical_formula_sum "Si O2"
_cell_formula_units_Z 56
_cell_length_a 21.308922
_cell_length_b 15.103298
_cell_length_c 7.673181
_cell_angle_alpha 90.000000
_cell_angle_beta 90.000000
_cell_angle_gamma 90.000000
_cell_volume 2469.498200
_symmetry_space_group_name_H-M "P B A M"
_symmetry_group_IT_number 55
_symmetry_cell_setting 'orthorhombic'
loop_
_space_group_symop_operation_xyz
x,y,z
-x,-y,z
1/2+x,1/2-y,-z
1/2-x,1/2+y,-z
-x,-y,-z
x,y,-z
1/2-x,1/2+y,z
1/2+x,1/2-y,z
loop_
_atom_site_type_symbol
_atom_site_label
_atom_site_fract_x
_atom_site_fract_y
_atom_site_fract_z
Si Si1 0.577631 0.591476 0.288992
Si Si2 0.305146 0.935316 0.301054
Si Si3 0.801187 0.190906 0.799443
Si Si4 0.068087 0.106137 0.712488
Si Si5 0.476215 0.097206 0.788640
Si Si6 0.665077 0.874615 0.203917
Si Si7 0.903496 0.704813 0.294279
O O1 0.580952 0.596222 0.500000
O O2 0.626936 0.659596 0.212265
O O3 0.593077 0.490195 0.234720
O O4 0.505590 0.609438 0.238916
O O5 0.323562 0.953574 0.500000
O O6 0.241345 0.880489 0.296213
O O7 0.357885 0.870665 0.219502
O O8 0.301491 0.031252 0.216789
O O9 0.798461 0.289910 0.723019
O O10 0.779872 0.189532 0.000000
O O11 0.069575 0.107000 0.500000
O O12 0.101371 0.195410 0.776172
O O13 0.405607 0.114435 0.725446
O O14 0.525782 0.169976 0.727024
O O15 0.500000 0.000000 0.732401
O O16 0.476199 0.097361 0.000000
O O17 0.657462 0.853052 0.000000
O O18 0.888597 0.709910 0.500000
#
# Coordination Sequence:
#
# PCOD9425950 Si02
#       7
#     8   8   8   8   8   8   8
#     4   9  17  34  59  84 112 149 190 229 279 339
#     4  11  24  39  57  82 112 149 195 242 284 336
#     4  11  24  40  59  82 114 153 194 239 288 345
#     4   8  16  32  56  85 116 147 180 229 287 338
#     4  10  19  33  57  85 116 152 185 228 287 346
#     4  10  22  41  61  84 116 153 191 235 291 350
#     4  10  20  34  54  83 115 145 185 236 286 338
#
# _framework density 22.676673000000001
#
# number of rings (size 3 to 8) (size 9 to 14) (size 15 to 20)
#    0.000    2.143    1.429    2.571    0.000    3.714 
#    0.000    3.571    0.000    0.000    0.000    0.000 
#    0.000    0.000    0.000    0.000    0.000    0.000 
#
# Total GULP energy -312868.502660 kJ/mol
# GULP energy per Si atom -5586.937547 kJ/mol
# Density = 2.262506 g / cm^3
# Si number density = 22.676673 Si / 1000 Ang^3
#
#
#
# Elastic Constant Matrix: (Units=GPa)
#
#
# Indices 1 2 3 4 5 6 
#
# 1 36.9179 20.4785 -0.8463 0.0000 0.0000 0.0000
# 2 20.4785 162.9830 2.3311 0.0000 0.0000 0.0000
# 3 -0.8463 2.3311 40.7378 0.0000 0.0000 0.0000
# 4 0.0000 0.0000 0.0000 2.6039 0.0000 0.0000
# 5 0.0000 0.0000 0.0000 0.0000 19.3418 0.0000
# 6 0.0000 0.0000 0.0000 0.0000 0.0000 18.9181
#
#
#
# Elastic Compliance Matrix: (Units=1/GPa)
#
#
# Indices 1 2 3 4 5 6 
#
# 1 0.029144 -0.003673 0.000816 0.000000 0.000000 0.000000
# 2 -0.003673 0.006604 -0.000454 0.000000 0.000000 0.000000
# 3 0.000816 -0.000454 0.024590 0.000000 0.000000 0.000000
# 4 0.000000 0.000000 0.000000 0.384039 0.000000 0.000000
# 5 0.000000 0.000000 0.000000 0.000000 0.051701 0.000000
# 6 0.000000 0.000000 0.000000 0.000000 0.000000 0.052859
#
#
# Mechanical properties :
#
#
# Convention : Reuss Voigt Hill
#
# Bulk Modulus (GPa) = 18.61738 31.61837 25.11787
# Shear Modulus (GPa) = 8.71892 22.75114 15.73503
#
# Velocity S-wave (km/s) = 1.96296 3.17090 2.63703
# Velocity P-wave (km/s) = 3.65587 5.23255 4.51359
#
# Compressibility (1/GPa) = 0.05371326
#
# Stress axis : x y z
#
# Youngs Moduli (GPa) = 34.31296 151.43087 40.66672
#
# Poissons Ratio (x) = 0.55628 -0.03317
# Poissons Ratio (y) = 0.12605 0.01847
# Poissons Ratio (z) = -0.02799 0.06878
#
# Static dielectric constant tensor:
#      x y z
#    x 1.814610 0.000000 0.000000 
#    y 0.000000 1.858450 0.000000 
#    z 0.000000 0.000000 1.850720 
# 
# From -- ./inp_files/8799.got.cif
#   From: 2010.05.17/outbox.cif.g08.bks.cpg/sg55_5_cif.got.tgz:8799.got - 2010.06.03 13:27:54.
