data_PCOD9425131
_publ_section_title
;
Structure prediction by ZEFSAII (Michael W. Deem and Ramdas Pophale) SiO2 
 PCOD9425131
Probable space group: P B A M
;
_chemical_formula_sum "Si O2"
_cell_formula_units_Z 52
_cell_length_a 5.306557
_cell_length_b 14.061181
_cell_length_c 31.427815
_cell_angle_alpha 90.000000
_cell_angle_beta 90.000000
_cell_angle_gamma 90.000000
_cell_volume 2345.032253
_symmetry_space_group_name_H-M "P B A M"
_symmetry_group_IT_number 55
_symmetry_cell_setting 'orthorhombic'
loop_
_space_group_symop_operation_xyz
x,y,z
-x,-y,z
1/2+x,1/2-y,-z
1/2-x,1/2+y,-z
-x,-y,-z
x,y,-z
1/2-x,1/2+y,z
1/2+x,1/2-y,z
loop_
_atom_site_type_symbol
_atom_site_label
_atom_site_fract_x
_atom_site_fract_y
_atom_site_fract_z
Si Si1 0.611103 0.364775 0.907287
Si Si2 0.612162 0.148980 0.872581
Si Si3 0.597007 0.309847 0.634936
Si Si4 0.984322 0.185515 0.453848
Si Si5 0.994726 0.384359 0.222883
Si Si6 0.995180 0.113331 0.728140
Si Si7 0.506978 0.314469 0.000000
O O1 0.639088 0.252300 0.894857
O O2 0.381276 0.399523 0.878652
O O3 0.539172 0.372070 0.956463
O O4 0.883612 0.402784 0.895970
O O5 0.542574 0.158363 0.823444
O O6 0.386333 0.225446 0.633821
O O7 0.533592 0.365957 0.591122
O O8 0.545641 0.358909 0.679658
O O9 0.009196 0.136235 0.500000
O O10 0.208074 0.265449 0.453200
O O11 0.726347 0.355154 0.242049
O O12 0.000000 0.500000 0.218184
O O13 0.221940 0.357244 0.254545
O O14 0.000000 0.000000 0.730337
O O15 0.237590 0.261659 0.000000
#
# Coordination Sequence:
#
# PCOD9425131 Si02
#       7
#     8   8   8   8   8   8   4
#     4  10  19  30  48  75  99 123 148 190 241 292
#     4  10  18  32  45  70  97 117 157 194 234 276
#     4  10  19  33  50  77 105 126 170 217 257 295
#     4   8  14  25  44  68  97 130 159 198 250 305
#     4  10  21  37  54  68  92 134 175 201 236 297
#     4  10  21  38  53  70  98 139 177 204 252 312
#     4  12  16  30  48  70 102 130 152 176 232 306
#
# _framework density 22.174536
#
# number of rings (size 3 to 8) (size 9 to 14) (size 15 to 20)
#    0.000    2.154    3.077    1.846    0.000    0.000 
#   16.615    0.000    0.000    0.462    0.000    5.923 
#    0.000   16.000    0.000    0.000    0.000    2.462 
#
# Total GULP energy -290232.807750 kJ/mol
# GULP energy per Si atom -5581.400149 kJ/mol
# Density = 2.212407 g / cm^3
# Si number density = 22.174536 Si / 1000 Ang^3
#
#
#
# Elastic Constant Matrix: (Units=GPa)
#
#
# Indices 1 2 3 4 5 6 
#
# 1 132.3733 7.6237 3.8692 0.0000 0.0000 0.0000
# 2 7.6237 57.2206 3.4259 0.0000 0.0000 0.0000
# 3 3.8692 3.4259 162.4238 0.0000 0.0000 0.0000
# 4 0.0000 0.0000 0.0000 -52.4108 0.0000 0.0000
# 5 0.0000 0.0000 0.0000 0.0000 37.7175 0.0000
# 6 0.0000 0.0000 0.0000 0.0000 0.0000 3.1796
#
#
#
# Elastic Compliance Matrix: (Units=1/GPa)
#
#
# Indices 1 2 3 4 5 6 
#
# 1 0.007617 -0.001005 -0.000160 0.000000 0.000000 0.000000
# 2 -0.001005 0.017631 -0.000348 0.000000 0.000000 0.000000
# 3 -0.000160 -0.000348 0.006168 0.000000 0.000000 0.000000
# 4 0.000000 0.000000 0.000000 -0.019080 0.000000 0.000000
# 5 0.000000 0.000000 0.000000 0.000000 0.026513 0.000000
# 6 0.000000 0.000000 0.000000 0.000000 0.000000 0.314508
#
#
# Mechanical properties :
#
#
# Convention : Reuss Voigt Hill
#
# Bulk Modulus (GPa) = 35.22490 42.42837 38.82663
# Shear Modulus (GPa) = 13.66693 20.17052 16.91872
#
# Velocity S-wave (km/s) = 2.48530 3.01927 2.76521
# Velocity P-wave (km/s) = 4.91482 5.59732 5.26714
#
# Compressibility (1/GPa) = 0.02838901
#
# Stress axis : x y z
#
# Youngs Moduli (GPa) = 131.28580 56.71830 162.13002
#
# Poissons Ratio (x) = 0.05702 0.02598
# Poissons Ratio (y) = 0.13197 0.05641
# Poissons Ratio (z) = 0.02104 0.01973
#
# Static dielectric constant tensor:
#      x y z
#    x 1.857070 0.000000 0.000000 
#    y 0.000000 1.830660 0.000000 
#    z 0.000000 0.000000 1.823650 
# 
# From -- ./inp_files/24107.got.cif
#   From: 2010.05.17/outbox.cif.g08.bks.cpg/sg55_13_cif.got.tgz:24107.got - 2010.06.03 13:27:54.
