data_PCOD9425160
_publ_section_title
;
Structure prediction by ZEFSAII (Michael W. Deem and Ramdas Pophale) SiO2 
 PCOD9425160
Probable space group: P B A M
;
_chemical_formula_sum "Si O2"
_cell_formula_units_Z 64
_cell_length_a 20.092187
_cell_length_b 21.162110
_cell_length_c 8.797387
_cell_angle_alpha 90.000000
_cell_angle_beta 90.000000
_cell_angle_gamma 90.000000
_cell_volume 3740.587999
_symmetry_space_group_name_H-M "P B A M"
_symmetry_group_IT_number 55
_symmetry_cell_setting 'orthorhombic'
loop_
_space_group_symop_operation_xyz
x,y,z
-x,-y,z
1/2+x,1/2-y,-z
1/2-x,1/2+y,-z
-x,-y,-z
x,y,-z
1/2-x,1/2+y,z
1/2+x,1/2-y,z
loop_
_atom_site_type_symbol
_atom_site_label
_atom_site_fract_x
_atom_site_fract_y
_atom_site_fract_z
Si Si1 0.216747 0.432092 0.818086
Si Si2 0.706011 0.684268 0.681196
Si Si3 0.439824 0.118300 0.181928
Si Si4 0.917746 0.768702 0.320650
Si Si5 0.782909 0.804149 0.818540
Si Si6 0.066010 0.757592 0.317490
Si Si7 0.918990 0.616784 0.679702
Si Si8 0.796927 0.428098 0.184849
O O1 0.265853 0.380215 0.749159
O O2 0.142093 0.414938 0.765728
O O3 0.230344 0.503927 0.767271
O O4 0.220181 0.428880 0.000000
O O5 0.714240 0.682873 0.500000
O O6 0.748111 0.743062 0.745473
O O7 0.628864 0.698616 0.716686
O O8 0.427499 0.190971 0.231580
O O9 0.508739 0.097318 0.258148
O O10 0.374033 0.080407 0.230466
O O11 0.446495 0.114826 0.000000
O O12 0.907367 0.780217 0.500000
O O13 0.859997 0.802253 0.227780
O O14 0.913297 0.692782 0.297010
O O15 0.993652 0.785938 0.280145
O O16 0.745762 0.867721 0.764877
O O17 0.776233 0.799819 0.000000
O O18 0.065526 0.744410 0.500000
O O19 0.914451 0.604946 0.500000
O O20 0.796510 0.427119 0.000000
#
# Coordination Sequence:
#
# PCOD9425160 Si02
#       8
#     8   8   8   8   8   8   8   8
#     4  11  22  37  55  75 104 145 184 221 268 318
#     4  11  21  35  55  81 108 138 176 223 271 320
#     4  10  18  32  53  76 105 142 182 219 258 313
#     4   9  18  33  52  77 108 137 170 216 263 311
#     4  11  20  34  56  81 106 138 177 220 266 317
#     4   9  19  34  53  77 109 140 171 217 271 316
#     4  10  20  34  50  75 111 143 177 220 262 314
#     4   9  21  37  52  76 109 141 179 226 268 312
#
# _framework density 17.109608999999999
#
# number of rings (size 3 to 8) (size 9 to 14) (size 15 to 20)
#    0.000    2.000    2.500    2.625    0.000    3.000 
#    0.000    7.500    0.000    0.750    0.000    5.250 
#    0.000    0.000    0.000    0.000    0.000    0.000 
#
# Total GULP energy -357214.716394 kJ/mol
# GULP energy per Si atom -5581.479944 kJ/mol
# Density = 1.707067 g / cm^3
# Si number density = 17.109609 Si / 1000 Ang^3
#
#
#
# Elastic Constant Matrix: (Units=GPa)
#
#
# Indices 1 2 3 4 5 6 
#
# 1 88.8930 26.7939 24.0642 0.0000 0.0000 0.0000
# 2 26.7939 52.4040 16.8654 0.0000 0.0000 0.0000
# 3 24.0642 16.8654 36.2532 0.0000 0.0000 0.0000
# 4 0.0000 0.0000 0.0000 -1.9165 0.0000 0.0000
# 5 0.0000 0.0000 0.0000 0.0000 27.8420 0.0000
# 6 0.0000 0.0000 0.0000 0.0000 0.0000 18.2588
#
#
#
# Elastic Compliance Matrix: (Units=1/GPa)
#
#
# Indices 1 2 3 4 5 6 
#
# 1 0.014824 -0.005190 -0.007426 0.000000 0.000000 0.000000
# 2 -0.005190 0.024259 -0.007841 0.000000 0.000000 0.000000
# 3 -0.007426 -0.007841 0.036160 0.000000 0.000000 0.000000
# 4 0.000000 0.000000 0.000000 -0.521790 0.000000 0.000000
# 5 0.000000 0.000000 0.000000 0.000000 0.035917 0.000000
# 6 0.000000 0.000000 0.000000 0.000000 0.000000 0.054768
#
#
# Mechanical properties :
#
#
# Convention : Reuss Voigt Hill
#
# Bulk Modulus (GPa) = 29.12781 34.77748 31.95265
# Shear Modulus (GPa) = -16.47420 16.15865 -0.15778
#
# Velocity S-wave (km/s) = -3.10637 3.07647 -0.30400
# Velocity P-wave (km/s) = 2.04821 5.74369 4.31191
#
# Compressibility (1/GPa) = 0.03433145
#
# Stress axis : x y z
#
# Youngs Moduli (GPa) = 67.45871 41.22111 27.65453
#
# Poissons Ratio (x) = 0.21392 0.20535
# Poissons Ratio (y) = 0.35008 0.21684
# Poissons Ratio (z) = 0.50092 0.32321
#
# Static dielectric constant tensor:
#      x y z
#    x 1.588060 0.000000 0.000000 
#    y 0.000000 1.568310 0.000000 
#    z 0.000000 0.000000 1.574650 
# 
# From -- ./inp_files/8958.got.cif
#   From: 2010.05.17/outbox.cif.g08.bks.cpg/sg55_5_cif.got.tgz:8958.got - 2010.06.03 13:27:54.
