data_PCOD9425027
_publ_section_title
;
Structure prediction by ZEFSAII (Michael W. Deem and Ramdas Pophale) SiO2 
 PCOD9425027
Probable space group: P B A M
;
_chemical_formula_sum "Si O2"
_cell_formula_units_Z 58
_cell_length_a 15.512023
_cell_length_b 18.781397
_cell_length_c 7.991765
_cell_angle_alpha 90.000000
_cell_angle_beta 90.000000
_cell_angle_gamma 90.000000
_cell_volume 2328.300534
_symmetry_space_group_name_H-M "P B A M"
_symmetry_group_IT_number 55
_symmetry_cell_setting 'orthorhombic'
loop_
_space_group_symop_operation_xyz
x,y,z
-x,-y,z
1/2+x,1/2-y,-z
1/2-x,1/2+y,-z
-x,-y,-z
x,y,-z
1/2-x,1/2+y,z
1/2+x,1/2-y,z
loop_
_atom_site_type_symbol
_atom_site_label
_atom_site_fract_x
_atom_site_fract_y
_atom_site_fract_z
Si Si1 0.000000 0.500000 0.000000
Si Si2 0.779371 0.211350 0.699780
Si Si3 0.541927 0.355982 0.203170
Si Si4 0.791505 0.924625 0.192811
Si Si5 0.622211 0.986278 0.315218
Si Si6 0.607380 0.152129 0.691691
Si Si7 0.378932 0.433486 0.698498
Si Si8 0.057888 0.715616 0.803550
O O1 0.067926 0.523069 0.148622
O O2 0.770641 0.207941 0.500000
O O3 0.682250 0.201946 0.769762
O O4 0.830007 0.139235 0.752640
O O5 0.844928 0.276032 0.736765
O O6 0.639630 0.367771 0.259476
O O7 0.478977 0.417421 0.268533
O O8 0.497395 0.283353 0.261729
O O9 0.542176 0.357337 0.000000
O O10 0.706887 0.939059 0.297419
O O11 0.843105 0.999520 0.202184
O O12 0.769905 0.908305 0.000000
O O13 0.584299 0.971004 0.500000
O O14 0.642442 0.071241 0.309095
O O15 0.593340 0.172546 0.500000
O O16 0.512807 0.154524 0.772540
O O17 0.364222 0.444358 0.500000
O O18 0.067934 0.722278 0.000000
#
# Coordination Sequence:
#
# PCOD9425027 Si02
#       8
#     2   8   8   8   8   8   8   8
#     4  12  26  48  68  98 122 164 198 260 330 376
#     4   9  18  35  57  83 118 156 202 260 316 375
#     4   9  20  35  50  80 127 170 201 246 312 381
#     4  11  20  34  57  86 123 166 210 256 314 381
#     4  11  24  44  70  99 127 162 215 274 322 382
#     4  10  21  40  66  92 122 161 211 265 318 378
#     4  10  18  30  51  84 121 156 200 253 307 372
#     4  10  21  36  57  88 124 165 210 261 319 386
#
# _framework density 24.910872000000001
#
# number of rings (size 3 to 8) (size 9 to 14) (size 15 to 20)
#    0.000    1.931    2.069    1.862    0.966    4.414 
#    0.000    1.379    0.000    1.655    0.000    0.000 
#    0.000    0.000    0.000    0.000    0.000    0.000 
#
# Total GULP energy -323720.884139 kJ/mol
# GULP energy per Si atom -5581.394554 kJ/mol
# Density = 2.485417 g / cm^3
# Si number density = 24.910872 Si / 1000 Ang^3
#
#
#
# Elastic Constant Matrix: (Units=GPa)
#
#
# Indices 1 2 3 4 5 6 
#
# 1 136.4118 20.6710 51.6531 0.0000 0.0000 0.0000
# 2 20.6710 77.6699 5.0111 0.0000 0.0000 0.0000
# 3 51.6531 5.0111 93.2756 0.0000 0.0000 0.0000
# 4 0.0000 0.0000 0.0000 9.5889 0.0000 0.0000
# 5 0.0000 0.0000 0.0000 0.0000 39.5754 0.0000
# 6 0.0000 0.0000 0.0000 0.0000 0.0000 25.1255
#
#
#
# Elastic Compliance Matrix: (Units=1/GPa)
#
#
# Indices 1 2 3 4 5 6 
#
# 1 0.009646 -0.002230 -0.005222 0.000000 0.000000 0.000000
# 2 -0.002230 0.013435 0.000513 0.000000 0.000000 0.000000
# 3 -0.005222 0.000513 0.013585 0.000000 0.000000 0.000000
# 4 0.000000 0.000000 0.000000 0.104287 0.000000 0.000000
# 5 0.000000 0.000000 0.000000 0.000000 0.025268 0.000000
# 6 0.000000 0.000000 0.000000 0.000000 0.000000 0.039800
#
#
# Mechanical properties :
#
#
# Convention : Reuss Voigt Hill
#
# Bulk Modulus (GPa) = 43.88128 51.33642 47.60885
# Shear Modulus (GPa) = 21.97844 30.19277 26.08560
#
# Velocity S-wave (km/s) = 2.97355 3.48520 3.23949
# Velocity P-wave (km/s) = 5.42613 6.07028 5.75722
#
# Compressibility (1/GPa) = 0.02278876
#
# Stress axis : x y z
#
# Youngs Moduli (GPa) = 103.67010 74.43001 73.61045
#
# Poissons Ratio (x) = 0.16600 0.38438
# Poissons Ratio (y) = 0.23121 -0.03778
# Poissons Ratio (z) = 0.54135 -0.03820
#
# Static dielectric constant tensor:
#      x y z
#    x 2.036410 0.000000 0.000000 
#    y 0.000000 2.065070 0.000000 
#    z 0.000000 0.000000 1.845470 
# 
# From -- ./inp_files/6440.got.cif
#   From: 2010.05.17/outbox.cif.g08.bks.cpg/sg55_4_cif.got.tgz:6440.got - 2010.06.03 13:27:54.
