data_PCOD9425381
_publ_section_title
;
Structure prediction by ZEFSAII (Michael W. Deem and Ramdas Pophale) SiO2 
 PCOD9425381
Probable space group: P B A M
;
_chemical_formula_sum "Si O2"
_cell_formula_units_Z 56
_cell_length_a 6.996675
_cell_length_b 17.632337
_cell_length_c 19.410075
_cell_angle_alpha 90.000000
_cell_angle_beta 90.000000
_cell_angle_gamma 90.000000
_cell_volume 2394.576921
_symmetry_space_group_name_H-M "P B A M"
_symmetry_group_IT_number 55
_symmetry_cell_setting 'orthorhombic'
loop_
_space_group_symop_operation_xyz
x,y,z
-x,-y,z
1/2+x,1/2-y,-z
1/2-x,1/2+y,-z
-x,-y,-z
x,y,-z
1/2-x,1/2+y,z
1/2+x,1/2-y,z
loop_
_atom_site_type_symbol
_atom_site_label
_atom_site_fract_x
_atom_site_fract_y
_atom_site_fract_z
Si Si1 0.337885 0.386688 0.573907
Si Si2 0.722175 0.935979 0.426148
Si Si3 0.398813 0.311989 0.861311
Si Si4 0.662162 0.861638 0.861363
Si Si5 0.784574 0.440087 0.000000
Si Si6 0.162857 0.889580 0.000000
Si Si7 0.717836 0.938467 0.723137
Si Si8 0.165668 0.888695 0.723147
O O1 0.285780 0.350635 0.500000
O O2 0.256605 0.473079 0.574677
O O3 0.567251 0.399009 0.573015
O O4 0.288916 0.352403 0.648428
O O5 0.629606 0.916761 0.500000
O O6 0.633834 0.917308 0.351995
O O7 0.420940 0.222263 0.864592
O O8 0.608457 0.348899 0.860636
O O9 0.300122 0.342590 0.930571
O O10 0.301554 0.337516 0.789980
O O11 0.623101 0.909073 0.929989
O O12 0.619894 0.903173 0.789785
O O13 0.767489 0.530174 0.000000
O O14 0.564578 0.409526 0.000000
O O15 0.938249 0.909097 0.721681
O O16 0.734355 0.029240 0.729516
#
# Coordination Sequence:
#
# PCOD9425381 Si02
#       8
#     8   8   8   8   4   4   8   8
#     4   7   9  14  27  50  78 102 126 165 213 246
#     4   7   9  14  27  50  78 102 126 165 213 246
#     4  10  19  30  45  64  87 113 138 167 204 246
#     4  10  19  30  45  64  87 113 138 167 204 246
#     4   9  17  30  49  69  84 103 138 178 208 237
#     4   9  17  30  49  69  84 103 138 178 208 237
#     4   8  13  22  38  59  80 105 140 176 206 239
#     4   8  13  22  38  59  80 105 140 176 206 239
#
# _framework density 23.386178000000001
#
# number of rings (size 3 to 8) (size 9 to 14) (size 15 to 20)
#    0.000    3.571    0.000    3.857    0.000    3.429 
#    0.000    0.000    0.000    5.143    0.000    0.000 
#    0.000    0.000    0.000    7.143    0.000    5.714 
#
# Total GULP energy -312757.972404 kJ/mol
# GULP energy per Si atom -5584.963793 kJ/mol
# Density = 2.333295 g / cm^3
# Si number density = 23.386178 Si / 1000 Ang^3
#
#
#
# Elastic Constant Matrix: (Units=GPa)
#
#
# Indices 1 2 3 4 5 6 
#
# 1 80.2285 12.2438 33.9588 0.0000 0.0000 0.0000
# 2 12.2438 60.8400 87.3982 0.0000 0.0000 0.0000
# 3 33.9588 87.3982 302.3451 0.0000 0.0000 0.0000
# 4 0.0000 0.0000 0.0000 -19.6237 0.0000 0.0000
# 5 0.0000 0.0000 0.0000 0.0000 -5.7871 0.0000
# 6 0.0000 0.0000 0.0000 0.0000 0.0000 -66.0276
#
#
#
# Elastic Compliance Matrix: (Units=1/GPa)
#
#
# Indices 1 2 3 4 5 6 
#
# 1 0.013115 -0.000895 -0.001214 0.000000 0.000000 0.000000
# 2 -0.000895 0.028170 -0.008042 0.000000 0.000000 0.000000
# 3 -0.001214 -0.008042 0.005769 0.000000 0.000000 0.000000
# 4 0.000000 0.000000 0.000000 -0.050959 0.000000 0.000000
# 5 0.000000 0.000000 0.000000 0.000000 -0.172798 0.000000
# 6 0.000000 0.000000 0.000000 0.000000 0.000000 -0.015145
#
#
# Mechanical properties :
#
#
# Convention : Reuss Voigt Hill
#
# Bulk Modulus (GPa) = 37.38302 78.95725 58.17014
# Shear Modulus (GPa) = -30.74496 2.36651 -14.18922
#
# Velocity S-wave (km/s) = -3.62976 1.00704 -2.46587
# Velocity P-wave (km/s) = 1.24383 5.93193 4.10126
#
# Compressibility (1/GPa) = 0.02675011
#
# Stress axis : x y z
#
# Youngs Moduli (GPa) = 76.24871 35.49892 173.34931
#
# Poissons Ratio (x) = 0.03177 0.21051
# Poissons Ratio (y) = 0.06823 1.39416
# Poissons Ratio (z) = 0.09259 0.28550
#
# Static dielectric constant tensor:
#      x y z
#    x 1.951860 0.000000 0.000000 
#    y 0.000000 1.782830 0.000000 
#    z 0.000000 0.000000 1.908570 
# 
# From -- ./inp_files/22678.got.cif
#   From: 2010.05.17/outbox.cif.g08.bks.cpg/sg55_12_cif.got.tgz:22678.got - 2010.06.03 13:27:54.
