data_PCOD9425676
_publ_section_title
;
Structure prediction by ZEFSAII (Michael W. Deem and Ramdas Pophale) SiO2 
 PCOD9425676
Probable space group: P B A M
;
_chemical_formula_sum "Si O2"
_cell_formula_units_Z 48
_cell_length_a 27.546755
_cell_length_b 10.622733
_cell_length_c 7.431989
_cell_angle_alpha 90.000000
_cell_angle_beta 90.000000
_cell_angle_gamma 90.000000
_cell_volume 2174.762173
_symmetry_space_group_name_H-M "P B A M"
_symmetry_group_IT_number 55
_symmetry_cell_setting 'orthorhombic'
loop_
_space_group_symop_operation_xyz
x,y,z
-x,-y,z
1/2+x,1/2-y,-z
1/2-x,1/2+y,-z
-x,-y,-z
x,y,-z
1/2-x,1/2+y,z
1/2+x,1/2-y,z
loop_
_atom_site_type_symbol
_atom_site_label
_atom_site_fract_x
_atom_site_fract_y
_atom_site_fract_z
Si Si1 0.137362 0.358861 0.717607
Si Si2 0.691426 0.393691 0.280437
Si Si3 0.529458 0.617184 0.292359
Si Si4 0.976354 0.628419 0.209770
Si Si5 0.138329 0.850364 0.279905
Si Si6 0.196727 0.604027 0.280131
O O1 0.137937 0.358077 0.500000
O O2 0.160924 0.227716 0.778629
O O3 0.081563 0.373970 0.772129
O O4 0.169918 0.476598 0.777241
O O5 0.691454 0.392146 0.500000
O O6 0.666199 0.523351 0.225413
O O7 0.747380 0.388827 0.222926
O O8 0.500000 0.500000 0.210869
O O9 0.538855 0.580863 0.500000
O O10 0.498017 0.743928 0.290341
O O11 0.582774 0.643944 0.216447
O O12 0.000000 0.500000 0.284477
O O13 0.989452 0.634162 0.000000
O O14 0.138565 0.846197 0.500000
O O15 0.166406 0.725520 0.221341
O O16 0.197041 0.603405 0.500000
#
# Coordination Sequence:
#
# PCOD9425676 Si02
#       6
#     8   8   8   8   8   8
#     4  10  19  32  53  78 103 135 174 216 263 313
#     4   9  16  27  45  73 106 132 159 202 256 311
#     4  10  20  35  56  81 107 136 175 223 272 323
#     4  11  24  39  54  75 106 144 184 226 271 318
#     4   9  16  26  42  67  99 130 160 200 250 303
#     4   9  16  26  44  73 105 133 162 202 254 309
#
# _framework density 22.071376999999998
#
# number of rings (size 3 to 8) (size 9 to 14) (size 15 to 20)
#    0.000    2.333    0.000    3.500    0.000    9.667 
#    0.000    0.000    0.000    1.000    0.000    2.333 
#    0.000    0.000    0.000    0.000    0.000    0.000 
#
# Total GULP energy -268351.296045 kJ/mol
# GULP energy per Si atom -5590.652001 kJ/mol
# Density = 2.202114 g / cm^3
# Si number density = 22.071377 Si / 1000 Ang^3
#
#
#
# Elastic Constant Matrix: (Units=GPa)
#
#
# Indices 1 2 3 4 5 6 
#
# 1 164.5213 66.6823 -13.8693 0.0000 0.0000 0.0000
# 2 66.6823 165.9908 -9.0218 0.0000 0.0000 0.0000
# 3 -13.8693 -9.0218 67.0039 0.0000 0.0000 0.0000
# 4 0.0000 0.0000 0.0000 -9.8035 0.0000 0.0000
# 5 0.0000 0.0000 0.0000 0.0000 -82.1607 0.0000
# 6 0.0000 0.0000 0.0000 0.0000 0.0000 47.6843
#
#
#
# Elastic Compliance Matrix: (Units=1/GPa)
#
#
# Indices 1 2 3 4 5 6 
#
# 1 0.007345 -0.002889 0.001131 0.000000 0.000000 0.000000
# 2 -0.002889 0.007205 0.000372 0.000000 0.000000 0.000000
# 3 0.001131 0.000372 0.015209 0.000000 0.000000 0.000000
# 4 0.000000 0.000000 0.000000 -0.102004 0.000000 0.000000
# 5 0.000000 0.000000 0.000000 0.000000 -0.012171 0.000000
# 6 0.000000 0.000000 0.000000 0.000000 0.000000 0.020971
#
#
# Mechanical properties :
#
#
# Convention : Reuss Voigt Hill
#
# Bulk Modulus (GPa) = 37.05427 53.89981 45.47704
# Shear Modulus (GPa) = -96.75170 14.72567 -41.01302
#
# Velocity S-wave (km/s) = -6.62805 2.58579 -4.31536
# Velocity P-wave (km/s) = 6.46141 5.77830 2.04463
#
# Compressibility (1/GPa) = 0.02698744
#
# Stress axis : x y z
#
# Youngs Moduli (GPa) = 136.15543 138.78810 65.75153
#
# Poissons Ratio (x) = 0.40096 -0.07438
# Poissons Ratio (y) = 0.39335 -0.02447
# Poissons Ratio (z) = -0.15403 -0.05165
#
# Static dielectric constant tensor:
#      x y z
#    x 1.746530 0.000000 0.000000 
#    y 0.000000 1.755620 0.000000 
#    z 0.000000 0.000000 1.830630 
# 
# From -- ./inp_files/2818.got.cif
#   From: 2010.05.17/outbox.cif.g08.bks.cpg/sg55_2_cif.got.tgz:2818.got - 2010.06.03 13:27:54.
