data_PCOD9425630
_publ_section_title
;
Structure prediction by ZEFSAII (Michael W. Deem and Ramdas Pophale) SiO2 
 PCOD9425630
Probable space group: P B A M
;
_chemical_formula_sum "Si O2"
_cell_formula_units_Z 36
_cell_length_a 15.711369
_cell_length_b 5.105436
_cell_length_c 22.707362
_cell_angle_alpha 90.000000
_cell_angle_beta 90.000000
_cell_angle_gamma 90.000000
_cell_volume 1821.434459
_symmetry_space_group_name_H-M "P B A M"
_symmetry_group_IT_number 55
_symmetry_cell_setting 'orthorhombic'
loop_
_space_group_symop_operation_xyz
x,y,z
-x,-y,z
1/2+x,1/2-y,-z
1/2-x,1/2+y,-z
-x,-y,-z
x,y,-z
1/2-x,1/2+y,z
1/2+x,1/2-y,z
loop_
_atom_site_type_symbol
_atom_site_label
_atom_site_fract_x
_atom_site_fract_y
_atom_site_fract_z
Si Si1 0.602353 0.500298 0.684190
Si Si2 0.897287 0.500311 0.245836
Si Si3 0.308053 0.023531 0.000000
Si Si4 0.806851 0.852132 0.565670
Si Si5 0.192418 0.639198 0.874517
O O1 0.500000 0.500000 0.684261
O O2 0.631888 0.282847 0.731298
O O3 0.633423 0.421201 0.619881
O O4 0.631420 0.783286 0.706665
O O5 0.863293 0.422921 0.182161
O O6 0.000000 0.500000 0.244422
O O7 0.351905 0.084120 0.937701
O O8 0.228215 0.228785 0.000000
O O9 0.844666 0.887401 0.500000
O O10 0.771073 0.558310 0.569715
O O11 0.270897 0.432511 0.873078
#
# Coordination Sequence:
#
# PCOD9425630 Si02
#       5
#     8   8   4   8   8
#     4  10  21  36  53  73 101 135 166 200 245 296
#     4  10  21  35  50  74 105 131 162 207 250 288
#     4   8  16  30  47  70  99 126 160 206 244 284
#     4  10  21  36  54  77 103 129 162 207 250 288
#     4  10  19  32  52  75  98 130 169 204 244 294
#
# _framework density 19.76464
#
# number of rings (size 3 to 8) (size 9 to 14) (size 15 to 20)
#    0.000    2.222    0.000    2.667    0.000    5.778 
#    0.000    0.556    0.000    8.000    0.000   14.000 
#    0.000    0.000    0.000    0.000    0.000    0.000 
#
# Total GULP energy -200913.438359 kJ/mol
# GULP energy per Si atom -5580.928843 kJ/mol
# Density = 1.971966 g / cm^3
# Si number density = 19.764640 Si / 1000 Ang^3
#
#
#
# Elastic Constant Matrix: (Units=GPa)
#
#
# Indices 1 2 3 4 5 6 
#
# 1 3.4945 0.5857 10.0874 0.0000 0.0000 0.0000
# 2 0.5857 64.1506 -11.5614 0.0000 0.0000 0.0000
# 3 10.0874 -11.5614 117.4775 0.0000 0.0000 0.0000
# 4 0.0000 0.0000 0.0000 31.9508 0.0000 0.0000
# 5 0.0000 0.0000 0.0000 0.0000 -109.4563 0.0000
# 6 0.0000 0.0000 0.0000 0.0000 0.0000 8.3328
#
#
#
# Elastic Compliance Matrix: (Units=1/GPa)
#
#
# Indices 1 2 3 4 5 6 
#
# 1 0.386276 -0.009676 -0.034120 0.000000 0.000000 0.000000
# 2 -0.009676 0.016112 0.002417 0.000000 0.000000 0.000000
# 3 -0.034120 0.002417 0.011680 0.000000 0.000000 0.000000
# 4 0.000000 0.000000 0.000000 0.031298 0.000000 0.000000
# 5 0.000000 0.000000 0.000000 0.000000 -0.009136 0.000000
# 6 0.000000 0.000000 0.000000 0.000000 0.000000 0.120008
#
#
# Mechanical properties :
#
#
# Convention : Reuss Voigt Hill
#
# Bulk Modulus (GPa) = 3.01835 20.37180 11.69507
# Shear Modulus (GPa) = 6.67171 -1.43382 2.61894
#
# Velocity S-wave (km/s) = 1.83927 -0.85265 1.15236
# Velocity P-wave (km/s) = 2.45784 3.05945 2.77500
#
# Compressibility (1/GPa) = 0.33130731
#
# Stress axis : x y z
#
# Youngs Moduli (GPa) = 2.58883 62.06483 85.61720
#
# Poissons Ratio (x) = 0.60055 2.92130
# Poissons Ratio (y) = 0.02505 -0.20690
# Poissons Ratio (z) = 0.08833 -0.14998
#
# Static dielectric constant tensor:
#      x y z
#    x 1.661250 0.000000 0.000000 
#    y 0.000000 1.691770 0.000000 
#    z 0.000000 0.000000 1.714330 
# 
# From -- ./inp_files/20331.got.cif
#   From: 2010.05.17/outbox.cif.g08.bks.cpg/sg55_11_cif.got.tgz:20331.got - 2010.06.03 13:27:54.
