data_PCOD9425209
_publ_section_title
;
Structure prediction by ZEFSAII (Michael W. Deem and Ramdas Pophale) SiO2 
 PCOD9425209
Probable space group: P B A M
;
_chemical_formula_sum "Si O2"
_cell_formula_units_Z 44
_cell_length_a 16.702348
_cell_length_b 7.445364
_cell_length_c 14.146809
_cell_angle_alpha 90.000000
_cell_angle_beta 90.000000
_cell_angle_gamma 90.000000
_cell_volume 1759.227289
_symmetry_space_group_name_H-M "P B A M"
_symmetry_group_IT_number 55
_symmetry_cell_setting 'orthorhombic'
loop_
_space_group_symop_operation_xyz
x,y,z
-x,-y,z
1/2+x,1/2-y,-z
1/2-x,1/2+y,-z
-x,-y,-z
x,y,-z
1/2-x,1/2+y,z
1/2+x,1/2-y,z
loop_
_atom_site_type_symbol
_atom_site_label
_atom_site_fract_x
_atom_site_fract_y
_atom_site_fract_z
Si Si1 0.133617 0.921651 0.500000
Si Si2 0.321819 0.998906 0.500000
Si Si3 0.939082 0.273932 0.794116
Si Si4 0.351265 0.905097 0.295898
Si Si5 0.192756 0.038045 0.793739
Si Si6 0.500000 0.500000 0.655752
Si Si7 0.894778 0.344785 0.000000
Si Si8 0.244313 0.963478 0.000000
O O1 0.224269 0.998063 0.500000
O O2 0.078238 0.977305 0.589429
O O3 0.147037 0.704976 0.500000
O O4 0.355432 0.897843 0.408157
O O5 0.914772 0.459944 0.747614
O O6 0.000286 0.171168 0.725673
O O7 0.947371 0.310863 0.906129
O O8 0.865526 0.131625 0.790137
O O9 0.266326 0.001204 0.274970
O O10 0.343784 0.723103 0.239052
O O11 0.223083 0.056724 0.900782
O O12 0.820356 0.200914 0.000000
O O13 0.842575 0.531208 0.000000
#
# Coordination Sequence:
#
# PCOD9425209 Si02
#       8
#     4   4   8   8   8   4   4   4
#     4  11  24  44  78  95 142 175 236 291 358 400
#     4  12  24  42  66 110 122 177 235 291 333 422
#     4  11  23  40  64  94 137 184 230 273 353 419
#     4  12  21  37  62  97 134 172 224 287 350 399
#     4  11  21  36  61  97 137 172 224 297 340 409
#     4  11  24  47  66  96 140 203 214 285 358 428
#     4  10  20  33  60 101 131 182 222 295 335 424
#     4  10  18  32  56  95 138 165 226 290 366 375
#
# _framework density 25.010981000000001
#
# number of rings (size 3 to 8) (size 9 to 14) (size 15 to 20)
#    0.000    0.909    5.455    3.273    0.000    0.364 
#    0.000    1.818    4.000    2.182    0.000    5.091 
#    0.000    0.000    0.000    0.000    0.000    0.000 
#
# Total GULP energy -246371.573101 kJ/mol
# GULP energy per Si atom -5599.353934 kJ/mol
# Density = 2.495405 g / cm^3
# Si number density = 25.010981 Si / 1000 Ang^3
#
#
#
# Elastic Constant Matrix: (Units=GPa)
#
#
# Indices 1 2 3 4 5 6 
#
# 1 34.4028 1.8939 -16.2036 0.0000 0.0000 0.0000
# 2 1.8939 109.9099 14.8889 0.0000 0.0000 0.0000
# 3 -16.2036 14.8889 185.2531 0.0000 0.0000 0.0000
# 4 0.0000 0.0000 0.0000 -18.8414 0.0000 0.0000
# 5 0.0000 0.0000 0.0000 0.0000 30.3942 0.0000
# 6 0.0000 0.0000 0.0000 0.0000 0.0000 48.5976
#
#
#
# Elastic Compliance Matrix: (Units=1/GPa)
#
#
# Indices 1 2 3 4 5 6 
#
# 1 0.030403 -0.000894 0.002731 0.000000 0.000000 0.000000
# 2 -0.000894 0.009225 -0.000820 0.000000 0.000000 0.000000
# 3 0.002731 -0.000820 0.005703 0.000000 0.000000 0.000000
# 4 0.000000 0.000000 0.000000 -0.053075 0.000000 0.000000
# 5 0.000000 0.000000 0.000000 0.000000 0.032901 0.000000
# 6 0.000000 0.000000 0.000000 0.000000 0.000000 0.020577
#
#
# Mechanical properties :
#
#
# Convention : Reuss Voigt Hill
#
# Bulk Modulus (GPa) = 21.11227 36.74716 28.92971
# Shear Modulus (GPa) = 84.05137 33.96251 59.00694
#
# Velocity S-wave (km/s) = 5.80334 3.68897 4.86247
# Velocity P-wave (km/s) = 7.30510 5.73315 6.56634
#
# Compressibility (1/GPa) = 0.04736582
#
# Stress axis : x y z
#
# Youngs Moduli (GPa) = 32.89153 108.40360 175.35328
#
# Poissons Ratio (x) = 0.09690 -0.47891
# Poissons Ratio (y) = 0.02940 0.14372
# Poissons Ratio (z) = -0.08983 0.08885
#
# Static dielectric constant tensor:
#      x y z
#    x 2.049440 0.000000 0.000000 
#    y 0.000000 2.034920 0.000000 
#    z 0.000000 0.000000 1.959360 
# 
# From -- ./inp_files/19330.got.cif
#   From: 2010.05.17/outbox.cif.g08.bks.cpg/sg55_10_cif.got.tgz:19330.got - 2010.06.03 13:27:54.
