data_PCOD9425938
_publ_section_title
;
Structure prediction by ZEFSAII (Michael W. Deem and Ramdas Pophale) SiO2 
 PCOD9425938
Probable space group: P B A M
;
_chemical_formula_sum "Si O2"
_cell_formula_units_Z 56
_cell_length_a 16.119887
_cell_length_b 21.120355
_cell_length_c 8.253484
_cell_angle_alpha 90.000000
_cell_angle_beta 90.000000
_cell_angle_gamma 90.000000
_cell_volume 2809.962477
_symmetry_space_group_name_H-M "P B A M"
_symmetry_group_IT_number 55
_symmetry_cell_setting 'orthorhombic'
loop_
_space_group_symop_operation_xyz
x,y,z
-x,-y,z
1/2+x,1/2-y,-z
1/2-x,1/2+y,-z
-x,-y,-z
x,y,-z
1/2-x,1/2+y,z
1/2+x,1/2-y,z
loop_
_atom_site_type_symbol
_atom_site_label
_atom_site_fract_x
_atom_site_fract_y
_atom_site_fract_z
Si Si1 0.497836 0.812725 0.195651
Si Si2 0.716175 0.024739 0.689989
Si Si3 0.377783 0.534922 0.688475
Si Si4 0.967104 0.101095 0.688558
Si Si5 0.313486 0.831416 0.693043
Si Si6 0.861993 0.214578 0.189121
Si Si7 0.069590 0.553076 0.183687
O O1 0.402156 0.804275 0.248626
O O2 0.569798 0.764779 0.254485
O O3 0.528302 0.882630 0.244894
O O4 0.496954 0.809601 0.000000
O O5 0.737350 0.034512 0.500000
O O6 0.698756 0.095547 0.756265
O O7 0.791441 0.984777 0.766913
O O8 0.638724 0.978796 0.707032
O O9 0.364726 0.554111 0.500000
O O10 0.440482 0.587722 0.755804
O O11 0.424705 0.467610 0.686047
O O12 0.971177 0.122406 0.500000
O O13 0.909442 0.148259 0.785586
O O14 0.318653 0.834833 0.500000
O O15 0.230003 0.792609 0.736589
O O16 0.850054 0.228083 0.000000
O O17 0.000000 0.500000 0.171609
O O18 0.101956 0.564653 0.000000
#
# Coordination Sequence:
#
# PCOD9425938 Si02
#       7
#     8   8   8   8   8   8   8
#     4  10  23  43  61  82 117 156 194 239 294 348
#     4  10  19  33  56  86 115 144 182 232 289 341
#     4   8  15  30  53  80 112 148 182 232 290 330
#     4   9  16  32  57  80 110 149 191 234 279 336
#     4  11  22  38  64  90 112 146 196 242 283 344
#     4  11  23  39  60  84 119 160 194 237 292 349
#     4  10  20  36  59  83 109 146 188 234 287 344
#
# _framework density 19.929089999999999
#
# number of rings (size 3 to 8) (size 9 to 14) (size 15 to 20)
#    0.000    2.143    2.857    1.714    0.000    2.571 
#    2.571    2.143    0.000    0.000    0.000    0.000 
#    0.000    0.000    0.000    0.000    0.000    0.000 
#
# Total GULP energy -311845.577306 kJ/mol
# GULP energy per Si atom -5568.671023 kJ/mol
# Density = 1.988373 g / cm^3
# Si number density = 19.929090 Si / 1000 Ang^3
#
#
#
# Elastic Constant Matrix: (Units=GPa)
#
#
# Indices 1 2 3 4 5 6 
#
# 1 163.7089 53.4836 17.1429 0.0000 0.0000 0.0000
# 2 53.4836 59.5681 5.2042 0.0000 0.0000 0.0000
# 3 17.1429 5.2042 16.7554 0.0000 0.0000 0.0000
# 4 0.0000 0.0000 0.0000 15.7983 0.0000 0.0000
# 5 0.0000 0.0000 0.0000 0.0000 31.3528 0.0000
# 6 0.0000 0.0000 0.0000 0.0000 0.0000 29.3919
#
#
#
# Elastic Compliance Matrix: (Units=1/GPa)
#
#
# Indices 1 2 3 4 5 6 
#
# 1 0.009421 -0.007829 -0.007207 0.000000 0.000000 0.000000
# 2 -0.007829 0.023762 0.000630 0.000000 0.000000 0.000000
# 3 -0.007207 0.000630 0.066860 0.000000 0.000000 0.000000
# 4 0.000000 0.000000 0.000000 0.063298 0.000000 0.000000
# 5 0.000000 0.000000 0.000000 0.000000 0.031895 0.000000
# 6 0.000000 0.000000 0.000000 0.000000 0.000000 0.034023
#
#
# Mechanical properties :
#
#
# Convention : Reuss Voigt Hill
#
# Bulk Modulus (GPa) = 14.03896 43.52155 28.78026
# Shear Modulus (GPa) = 17.74214 26.25539 21.99876
#
# Velocity S-wave (km/s) = 2.98696 3.63359 3.32603
# Velocity P-wave (km/s) = 4.35381 6.28408 5.40580
#
# Compressibility (1/GPa) = 0.07123034
#
# Stress axis : x y z
#
# Youngs Moduli (GPa) = 106.14821 42.08452 14.95651
#
# Poissons Ratio (x) = 0.32947 0.10779
# Poissons Ratio (y) = 0.83102 -0.00942
# Poissons Ratio (z) = 0.76502 -0.02650
#
# Static dielectric constant tensor:
#      x y z
#    x 1.630540 0.000000 0.000000 
#    y 0.000000 1.662110 0.000000 
#    z 0.000000 0.000000 1.732560 
# 
# From -- ./inp_files/6029.got.cif
#   From: 2010.05.17/outbox.cif.g08.bks.cpg/sg55_4_cif.got.tgz:6029.got - 2010.06.03 13:27:54.
