data_PCOD9425749
_publ_section_title
;
Structure prediction by ZEFSAII (Michael W. Deem and Ramdas Pophale) SiO2 
 PCOD9425749
Probable space group: P B A M
;
_chemical_formula_sum "Si O2"
_cell_formula_units_Z 64
_cell_length_a 22.102353
_cell_length_b 15.576320
_cell_length_c 7.694130
_cell_angle_alpha 90.000000
_cell_angle_beta 90.000000
_cell_angle_gamma 90.000000
_cell_volume 2648.883703
_symmetry_space_group_name_H-M "P B A M"
_symmetry_group_IT_number 55
_symmetry_cell_setting 'orthorhombic'
loop_
_space_group_symop_operation_xyz
x,y,z
-x,-y,z
1/2+x,1/2-y,-z
1/2-x,1/2+y,-z
-x,-y,-z
x,y,-z
1/2-x,1/2+y,z
1/2+x,1/2-y,z
loop_
_atom_site_type_symbol
_atom_site_label
_atom_site_fract_x
_atom_site_fract_y
_atom_site_fract_z
Si Si1 0.506702 0.408363 0.192667
Si Si2 0.556712 0.050961 0.200440
Si Si3 0.356486 0.226864 0.306618
Si Si4 0.307812 0.937675 0.787031
Si Si5 0.365863 0.407458 0.807900
Si Si6 0.202242 0.067559 0.211500
Si Si7 0.774215 0.754231 0.800457
Si Si8 0.504214 0.778675 0.294503
O O1 0.500000 0.500000 0.287982
O O2 0.435759 0.393518 0.167862
O O3 0.524018 0.316229 0.267235
O O4 0.535621 0.421284 0.000000
O O5 0.624057 0.042818 0.274755
O O6 0.536893 0.150038 0.206373
O O7 0.500000 0.000000 0.281677
O O8 0.561287 0.021355 0.000000
O O9 0.352256 0.189936 0.500000
O O10 0.349023 0.330206 0.315061
O O11 0.295275 0.209325 0.202327
O O12 0.424556 0.210861 0.236126
O O13 0.286388 0.841671 0.729910
O O14 0.260796 0.011742 0.733455
O O15 0.308490 0.938199 0.000000
O O16 0.351900 0.502492 0.746221
O O17 0.335721 0.395382 0.000000
O O18 0.193359 0.163093 0.282301
O O19 0.204465 0.074669 0.000000
O O20 0.793610 0.746573 0.000000
O O21 0.506134 0.793788 0.500000
#
# Coordination Sequence:
#
# PCOD9425749 Si02
#       8
#     8   8   8   8   8   8   8   8
#     4   9  18  32  55  86 113 140 180 231 278 329
#     4  10  22  38  59  83 109 148 196 248 293 334
#     4  10  20  34  52  76 107 139 180 228 271 321
#     4   9  18  34  53  82 115 137 176 234 285 334
#     4   9  16  31  53  76 105 138 173 214 268 329
#     4   9  17  29  51  82 105 132 175 219 272 337
#     4  10  19  32  57  82 107 143 175 222 283 337
#     4  10  22  38  55  77 110 151 189 231 281 338
#
# _framework density 24.161121000000001
#
# number of rings (size 3 to 8) (size 9 to 14) (size 15 to 20)
#    0.000    2.500    1.250    0.750    1.750    3.000 
#    0.000    5.000    0.000    0.000    0.000    0.000 
#    0.000    0.000    0.000    0.000    0.000    0.000 
#
# Total GULP energy -356329.799460 kJ/mol
# GULP energy per Si atom -5567.653117 kJ/mol
# Density = 2.410613 g / cm^3
# Si number density = 24.161121 Si / 1000 Ang^3
#
#
#
# Elastic Constant Matrix: (Units=GPa)
#
#
# Indices 1 2 3 4 5 6 
#
# 1 45.7662 -5.6329 1.5058 0.0000 0.0000 0.0000
# 2 -5.6329 96.6763 -2.0234 0.0000 0.0000 0.0000
# 3 1.5058 -2.0234 42.1945 0.0000 0.0000 0.0000
# 4 0.0000 0.0000 0.0000 -5.1667 0.0000 0.0000
# 5 0.0000 0.0000 0.0000 0.0000 2.9353 0.0000
# 6 0.0000 0.0000 0.0000 0.0000 0.0000 21.9184
#
#
#
# Elastic Compliance Matrix: (Units=1/GPa)
#
#
# Indices 1 2 3 4 5 6 
#
# 1 0.022030 0.001268 -0.000725 0.000000 0.000000 0.000000
# 2 0.001268 0.010427 0.000455 0.000000 0.000000 0.000000
# 3 -0.000725 0.000455 0.023747 0.000000 0.000000 0.000000
# 4 0.000000 0.000000 0.000000 -0.193548 0.000000 0.000000
# 5 0.000000 0.000000 0.000000 0.000000 0.340684 0.000000
# 6 0.000000 0.000000 0.000000 0.000000 0.000000 0.045624
#
#
# Mechanical properties :
#
#
# Convention : Reuss Voigt Hill
#
# Bulk Modulus (GPa) = 17.18201 19.14846 18.16523
# Shear Modulus (GPa) = 18.77099 16.65656 17.71377
#
# Velocity S-wave (km/s) = 2.79033 2.62848 2.71062
# Velocity P-wave (km/s) = 4.18427 4.14179 4.16308
#
# Compressibility (1/GPa) = 0.05820042
#
# Stress axis : x y z
#
# Youngs Moduli (GPa) = 45.39233 95.90284 42.10973
#
# Poissons Ratio (x) = -0.12164 0.03055
# Poissons Ratio (y) = -0.05758 -0.01915
# Poissons Ratio (z) = 0.03293 -0.04361
#
# Static dielectric constant tensor:
#      x y z
#    x 2.000590 0.000000 0.000000 
#    y 0.000000 2.008730 0.000000 
#    z 0.000000 0.000000 1.966110 
# 
# From -- ./inp_files/9754.got.cif
#   From: 2010.05.17/outbox.cif.g08.bks.cpg/sg55_5_cif.got.tgz:9754.got - 2010.06.03 13:27:54.
