data_PCOD9425639
_publ_section_title
;
Structure prediction by ZEFSAII (Michael W. Deem and Ramdas Pophale) SiO2 
 PCOD9425639
Probable space group: P B A M
;
_chemical_formula_sum "Si O2"
_cell_formula_units_Z 64
_cell_length_a 21.448162
_cell_length_b 18.821996
_cell_length_c 8.985369
_cell_angle_alpha 90.000000
_cell_angle_beta 90.000000
_cell_angle_gamma 90.000000
_cell_volume 3627.368480
_symmetry_space_group_name_H-M "P B A M"
_symmetry_group_IT_number 55
_symmetry_cell_setting 'orthorhombic'
loop_
_space_group_symop_operation_xyz
x,y,z
-x,-y,z
1/2+x,1/2-y,-z
1/2-x,1/2+y,-z
-x,-y,-z
x,y,-z
1/2-x,1/2+y,z
1/2+x,1/2-y,z
loop_
_atom_site_type_symbol
_atom_site_label
_atom_site_fract_x
_atom_site_fract_y
_atom_site_fract_z
Si Si1 0.379181 0.577816 0.322526
Si Si2 0.886192 0.077470 0.179403
Si Si3 0.251303 0.586320 0.171868
Si Si4 0.503247 0.666908 0.321308
Si Si5 0.000092 0.331295 0.681288
Si Si6 0.377450 0.083046 0.320510
Si Si7 0.878621 0.583302 0.321326
Si Si8 0.751199 0.586580 0.171329
O O1 0.373354 0.568470 0.500000
O O2 0.391888 0.501338 0.247858
O O3 0.314180 0.606970 0.257446
O O4 0.437300 0.628993 0.291648
O O5 0.941785 0.125484 0.238941
O O6 0.817863 0.107678 0.224408
O O7 0.886615 0.072194 0.000000
O O8 0.187031 0.609103 0.248662
O O9 0.250371 0.499794 0.176082
O O10 0.253780 0.608101 0.000000
O O11 0.513875 0.663190 0.500000
O O12 0.501144 0.749109 0.275753
O O13 0.001079 0.333787 0.500000
O O14 0.937551 0.372307 0.727654
O O15 0.062534 0.371329 0.732718
O O16 0.372137 0.086692 0.500000
O O17 0.386543 0.999869 0.280537
O O18 0.877358 0.586424 0.500000
O O19 0.811888 0.609086 0.261631
O O20 0.758570 0.608208 0.000000
#
# Coordination Sequence:
#
# PCOD9425639 Si02
#       8
#     8   8   8   8   8   8   8   8
#     4  10  19  32  52  76  99 126 165 206 246 297
#     4  10  20  34  53  75 100 129 162 203 249 295
#     4   9  17  30  49  74 102 128 159 203 251 295
#     4  10  21  35  50  70  99 133 166 203 245 292
#     4   9  18  33  50  71 101 132 164 204 248 292
#     4   9  16  29  52  77  99 127 164 205 247 293
#     4   9  16  28  51  78  98 123 162 204 243 287
#     4   8  16  30  47  70  98 124 152 194 245 291
#
# _framework density 17.643643999999998
#
# number of rings (size 3 to 8) (size 9 to 14) (size 15 to 20)
#    0.000    2.750    0.000    2.625    0.000    7.500 
#    0.000    3.125    0.000    9.000    0.000    0.000 
#    0.000    0.000    0.000    0.000    0.000    0.000 
#
# Total GULP energy -356781.945310 kJ/mol
# GULP energy per Si atom -5574.717895 kJ/mol
# Density = 1.760349 g / cm^3
# Si number density = 17.643644 Si / 1000 Ang^3
#
#
#
# Elastic Constant Matrix: (Units=GPa)
#
#
# Indices 1 2 3 4 5 6 
#
# 1 197.1475 76.3207 67.0364 0.0000 0.0000 0.0000
# 2 76.3207 69.5005 36.6733 0.0000 0.0000 0.0000
# 3 67.0364 36.6733 40.8967 0.0000 0.0000 0.0000
# 4 0.0000 0.0000 0.0000 7.1350 0.0000 0.0000
# 5 0.0000 0.0000 0.0000 0.0000 6.7470 0.0000
# 6 0.0000 0.0000 0.0000 0.0000 0.0000 -3.4164
#
#
#
# Elastic Compliance Matrix: (Units=1/GPa)
#
#
# Indices 1 2 3 4 5 6 
#
# 1 0.012486 -0.005527 -0.015510 0.000000 0.000000 0.000000
# 2 -0.005527 0.029758 -0.017625 0.000000 0.000000 0.000000
# 3 -0.015510 -0.017625 0.065681 0.000000 0.000000 0.000000
# 4 0.000000 0.000000 0.000000 0.140154 0.000000 0.000000
# 5 0.000000 0.000000 0.000000 0.000000 0.148214 0.000000
# 6 0.000000 0.000000 0.000000 0.000000 0.000000 -0.292704
#
#
# Mechanical properties :
#
#
# Convention : Reuss Voigt Hill
#
# Bulk Modulus (GPa) = 32.68006 74.17838 53.42922
# Shear Modulus (GPa) = 26.16230 10.59407 18.37818
#
# Velocity S-wave (km/s) = 3.85491 2.45306 3.23093
# Velocity P-wave (km/s) = 6.19486 7.08217 6.65333
#
# Compressibility (1/GPa) = 0.03059970
#
# Stress axis : x y z
#
# Youngs Moduli (GPa) = 80.08992 33.60433 15.22505
#
# Poissons Ratio (x) = 0.18573 0.23615
# Poissons Ratio (y) = 0.44265 0.26835
# Poissons Ratio (z) = 1.24223 0.59229
#
# Static dielectric constant tensor:
#      x y z
#    x 1.604250 0.000000 0.000000 
#    y 0.000000 1.578130 0.000000 
#    z 0.000000 0.000000 1.594130 
# 
# From -- ./inp_files/9043.got.cif
#   From: 2010.05.17/outbox.cif.g08.bks.cpg/sg55_5_cif.got.tgz:9043.got - 2010.06.03 13:27:54.
