data_PCOD9425035
_publ_section_title
;
Structure prediction by ZEFSAII (Michael W. Deem and Ramdas Pophale) SiO2 
 PCOD9425035
Probable space group: P B A M
;
_chemical_formula_sum "Si O2"
_cell_formula_units_Z 64
_cell_length_a 22.277808
_cell_length_b 13.968817
_cell_length_c 9.506311
_cell_angle_alpha 90.000000
_cell_angle_beta 90.000000
_cell_angle_gamma 90.000000
_cell_volume 2958.312869
_symmetry_space_group_name_H-M "P B A M"
_symmetry_group_IT_number 55
_symmetry_cell_setting 'orthorhombic'
loop_
_space_group_symop_operation_xyz
x,y,z
-x,-y,z
1/2+x,1/2-y,-z
1/2-x,1/2+y,-z
-x,-y,-z
x,y,-z
1/2-x,1/2+y,z
1/2+x,1/2-y,z
loop_
_atom_site_type_symbol
_atom_site_label
_atom_site_fract_x
_atom_site_fract_y
_atom_site_fract_z
Si Si1 0.301474 0.867509 0.660267
Si Si2 0.471870 0.634530 0.161170
Si Si3 0.591081 0.651844 0.664281
Si Si4 0.169118 0.538703 0.839823
Si Si5 0.271937 0.683047 0.837574
Si Si6 0.068757 0.622107 0.339128
Si Si7 0.938635 0.691282 0.658632
Si Si8 0.143959 0.005607 0.161839
O O1 0.279753 0.875388 0.500000
O O2 0.277362 0.773357 0.737143
O O3 0.373975 0.856130 0.657286
O O4 0.292770 0.961871 0.752071
O O5 0.527822 0.623487 0.264599
O O6 0.439577 0.729193 0.220697
O O7 0.423037 0.550889 0.162371
O O8 0.492690 0.646994 0.000000
O O9 0.592429 0.627808 0.500000
O O10 0.591286 0.767345 0.676296
O O11 0.641227 0.589847 0.745074
O O12 0.206043 0.637441 0.837702
O O13 0.105462 0.558637 0.768627
O O14 0.163177 0.505851 0.000000
O O15 0.315016 0.594979 0.792115
O O16 0.288229 0.707456 0.000000
O O17 0.081251 0.591594 0.500000
O O18 0.996994 0.625347 0.319086
O O19 0.947945 0.733674 0.500000
O O20 0.160554 0.982898 0.000000
#
# Coordination Sequence:
#
# PCOD9425035 Si02
#       8
#     8   8   8   8   8   8   8   8
#     4  11  23  41  68  96 123 156 199 251 306 363
#     4  10  18  30  52  82 117 157 199 245 293 354
#     4  10  21  34  52  81 120 161 196 242 300 358
#     4  11  25  43  65  91 122 161 204 248 301 360
#     4  10  23  44  64  87 122 161 203 254 305 357
#     4   9  20  40  60  84 123 162 203 252 304 362
#     4   9  19  36  60  90 122 159 197 245 310 364
#     4  10  20  34  54  81 114 155 201 247 297 353
#
# _framework density 21.633953000000002
#
# number of rings (size 3 to 8) (size 9 to 14) (size 15 to 20)
#    0.000    2.000    1.250    2.625    0.000    8.500 
#    0.000    6.250    0.000    0.000    0.000    0.000 
#    0.000    0.000    0.000    0.000    0.000    0.000 
#
# Total GULP energy -357616.775792 kJ/mol
# GULP energy per Si atom -5587.762122 kJ/mol
# Density = 2.158471 g / cm^3
# Si number density = 21.633953 Si / 1000 Ang^3
#
#
#
# Elastic Constant Matrix: (Units=GPa)
#
#
# Indices 1 2 3 4 5 6 
#
# 1 25.3797 8.3772 15.5421 0.0000 0.0000 0.0000
# 2 8.3772 61.7076 56.7218 0.0000 0.0000 0.0000
# 3 15.5421 56.7218 116.4961 0.0000 0.0000 0.0000
# 4 0.0000 0.0000 0.0000 32.5704 0.0000 0.0000
# 5 0.0000 0.0000 0.0000 0.0000 16.8419 0.0000
# 6 0.0000 0.0000 0.0000 0.0000 0.0000 27.1070
#
#
#
# Elastic Compliance Matrix: (Units=1/GPa)
#
#
# Indices 1 2 3 4 5 6 
#
# 1 0.042943 -0.001020 -0.005232 0.000000 0.000000 0.000000
# 2 -0.001020 0.029358 -0.014158 0.000000 0.000000 0.000000
# 3 -0.005232 -0.014158 0.016176 0.000000 0.000000 0.000000
# 4 0.000000 0.000000 0.000000 0.030703 0.000000 0.000000
# 5 0.000000 0.000000 0.000000 0.000000 0.059376 0.000000
# 6 0.000000 0.000000 0.000000 0.000000 0.000000 0.036891
#
#
# Mechanical properties :
#
#
# Convention : Reuss Voigt Hill
#
# Bulk Modulus (GPa) = 20.98425 40.54065 30.76245
# Shear Modulus (GPa) = 18.37203 23.50004 20.93604
#
# Velocity S-wave (km/s) = 2.91730 3.29942 3.11423
# Velocity P-wave (km/s) = 4.59002 5.77017 5.21360
#
# Compressibility (1/GPa) = 0.04765478
#
# Stress axis : x y z
#
# Youngs Moduli (GPa) = 23.28694 34.06174 61.82073
#
# Poissons Ratio (x) = 0.03475 0.32347
# Poissons Ratio (y) = 0.02375 0.87529
# Poissons Ratio (z) = 0.12185 0.48226
#
# Static dielectric constant tensor:
#      x y z
#    x 1.819350 0.000000 0.000000 
#    y 0.000000 1.793550 0.000000 
#    z 0.000000 0.000000 1.763520 
# 
# From -- ./inp_files/9680.got.cif
#   From: 2010.05.17/outbox.cif.g08.bks.cpg/sg55_5_cif.got.tgz:9680.got - 2010.06.03 13:27:54.
