data_PCOD9425456
_publ_section_title
;
Structure prediction by ZEFSAII (Michael W. Deem and Ramdas Pophale) SiO2 
 PCOD9425456
Probable space group: P B A M
;
_chemical_formula_sum "Si O2"
_cell_formula_units_Z 48
_cell_length_a 23.500840
_cell_length_b 7.953577
_cell_length_c 13.236882
_cell_angle_alpha 90.000000
_cell_angle_beta 90.000000
_cell_angle_gamma 90.000000
_cell_volume 2474.181601
_symmetry_space_group_name_H-M "P B A M"
_symmetry_group_IT_number 55
_symmetry_cell_setting 'orthorhombic'
loop_
_space_group_symop_operation_xyz
x,y,z
-x,-y,z
1/2+x,1/2-y,-z
1/2-x,1/2+y,-z
-x,-y,-z
x,y,-z
1/2-x,1/2+y,z
1/2+x,1/2-y,z
loop_
_atom_site_type_symbol
_atom_site_label
_atom_site_fract_x
_atom_site_fract_y
_atom_site_fract_z
Si Si1 0.220416 0.626355 0.721586
Si Si2 0.777320 0.352731 0.500000
Si Si3 0.576415 0.364122 0.882953
Si Si4 0.970098 0.330404 0.877703
Si Si5 0.641560 0.004060 0.115876
Si Si6 0.158948 0.988362 0.276908
Si Si7 0.839345 0.992796 0.500000
O O1 0.206818 0.565453 0.607103
O O2 0.192599 0.511392 0.806824
O O3 0.288532 0.619898 0.732696
O O4 0.191896 0.810176 0.730223
O O5 0.708881 0.349277 0.500000
O O6 0.803652 0.167440 0.500000
O O7 0.511890 0.320298 0.849282
O O8 0.612183 0.480011 0.808340
O O9 0.609112 0.182954 0.882563
O O10 0.576039 0.424775 0.000000
O O11 0.904502 0.360514 0.853808
O O12 0.000000 0.500000 0.839031
O O13 0.972923 0.333922 0.000000
O O14 0.659523 0.974965 0.000000
O O15 0.132277 0.008477 0.389768
#
# Coordination Sequence:
#
# PCOD9425456 Si02
#       7
#     8   4   8   8   8   8   4
#     4  10  19  31  47  67  91 118 149 184 223 265
#     4   8  16  30  46  63  84 113 149 186 220 258
#     4   9  17  30  48  69  92 118 148 182 221 264
#     4   7  12  26  47  66  85 114 150 183 216 257
#     4   9  17  30  48  69  92 118 148 182 221 264
#     4  10  19  31  47  67  91 118 149 184 223 265
#     4   8  16  30  46  63  84 113 149 186 220 258
#
# _framework density 19.400355999999999
#
# number of rings (size 3 to 8) (size 9 to 14) (size 15 to 20)
#    0.000    3.167    0.000    3.000    0.000    2.667 
#    0.000    0.833    0.000    4.000    0.000    7.000 
#    0.000    0.000    0.000    0.000    0.000    0.000 
#
# Total GULP energy -267260.642524 kJ/mol
# GULP energy per Si atom -5567.930053 kJ/mol
# Density = 1.935620 g / cm^3
# Si number density = 19.400356 Si / 1000 Ang^3
#
#
#
# Elastic Constant Matrix: (Units=GPa)
#
#
# Indices 1 2 3 4 5 6 
#
# 1 27.4483 2.2653 22.3260 0.0000 0.0000 0.0000
# 2 2.2653 61.1993 24.1999 0.0000 0.0000 0.0000
# 3 22.3260 24.1999 83.5046 0.0000 0.0000 0.0000
# 4 0.0000 0.0000 0.0000 16.2010 0.0000 0.0000
# 5 0.0000 0.0000 0.0000 0.0000 1.2709 0.0000
# 6 0.0000 0.0000 0.0000 0.0000 0.0000 20.5629
#
#
#
# Elastic Compliance Matrix: (Units=1/GPa)
#
#
# Indices 1 2 3 4 5 6 
#
# 1 0.047275 0.003669 -0.013703 0.000000 0.000000 0.000000
# 2 0.003669 0.018740 -0.006412 0.000000 0.000000 0.000000
# 3 -0.013703 -0.006412 0.017497 0.000000 0.000000 0.000000
# 4 0.000000 0.000000 0.000000 0.061725 0.000000 0.000000
# 5 0.000000 0.000000 0.000000 0.000000 0.786843 0.000000
# 6 0.000000 0.000000 0.000000 0.000000 0.000000 0.048631
#
#
# Mechanical properties :
#
#
# Convention : Reuss Voigt Hill
#
# Bulk Modulus (GPa) = 19.75500 29.97051 24.86275
# Shear Modulus (GPa) = 4.85213 15.83102 10.34157
#
# Velocity S-wave (km/s) = 1.58319 2.85970 2.31132
# Velocity P-wave (km/s) = 3.68061 5.13671 4.46837
#
# Compressibility (1/GPa) = 0.05062009
#
# Stress axis : x y z
#
# Youngs Moduli (GPa) = 21.15283 53.36290 57.15229
#
# Poissons Ratio (x) = -0.19576 0.78314
# Poissons Ratio (y) = -0.07760 0.36644
# Poissons Ratio (z) = 0.28985 0.34214
#
# Static dielectric constant tensor:
#      x y z
#    x 1.676580 0.000000 0.000000 
#    y 0.000000 1.768450 0.000000 
#    z 0.000000 0.000000 1.671490 
# 
# From -- ./inp_files/15901.got.cif
#   From: 2010.05.17/outbox.cif.g08.bks.cpg/sg55_8_cif.got.tgz:15901.got - 2010.06.03 13:27:54.
