data_PCOD9425075
_publ_section_title
;
Structure prediction by ZEFSAII (Michael W. Deem and Ramdas Pophale) SiO2 
 PCOD9425075
Probable space group: P B A M
;
_chemical_formula_sum "Si O2"
_cell_formula_units_Z 64
_cell_length_a 34.615530
_cell_length_b 12.163647
_cell_length_c 9.009880
_cell_angle_alpha 90.000000
_cell_angle_beta 90.000000
_cell_angle_gamma 90.000000
_cell_volume 3793.619773
_symmetry_space_group_name_H-M "P B A M"
_symmetry_group_IT_number 55
_symmetry_cell_setting 'orthorhombic'
loop_
_space_group_symop_operation_xyz
x,y,z
-x,-y,z
1/2+x,1/2-y,-z
1/2-x,1/2+y,-z
-x,-y,-z
x,y,-z
1/2-x,1/2+y,z
1/2+x,1/2-y,z
loop_
_atom_site_type_symbol
_atom_site_label
_atom_site_fract_x
_atom_site_fract_y
_atom_site_fract_z
Si Si1 0.871090 0.817234 0.678005
Si Si2 0.816594 0.642254 0.820978
Si Si3 0.331864 0.454507 0.677254
Si Si4 0.449925 0.610852 0.821702
Si Si5 0.769813 0.193694 0.821360
Si Si6 0.672920 0.887719 0.821440
Si Si7 0.463068 0.353781 0.177879
Si Si8 0.890696 0.244093 0.323546
O O1 0.872058 0.813097 0.500000
O O2 0.850143 0.711595 0.744814
O O3 0.846182 0.925283 0.722838
O O4 0.913994 0.834669 0.740660
O O5 0.774676 0.688910 0.775237
O O6 0.818727 0.513414 0.782484
O O7 0.819813 0.651775 0.000000
O O8 0.325788 0.453902 0.500000
O O9 0.293951 0.408526 0.757018
O O10 0.365781 0.366385 0.710234
O O11 0.491911 0.659998 0.782136
O O12 0.452148 0.480561 0.785943
O O13 0.445392 0.619610 0.000000
O O14 0.792609 0.304370 0.775956
O O15 0.770825 0.187227 0.000000
O O16 0.633849 0.841875 0.748890
O O17 0.669558 0.880488 0.000000
O O18 0.432958 0.274399 0.257037
O O19 0.459764 0.342408 0.000000
O O20 0.892297 0.256799 0.500000
#
# Coordination Sequence:
#
# PCOD9425075 Si02
#       8
#     8   8   8   8   8   8   8   8
#     4  11  22  35  51  76 110 145 176 212 261 317
#     4  10  22  37  55  77 102 136 178 223 268 313
#     4   9  19  33  48  73 107 138 170 208 255 311
#     4   9  18  32  51  77 110 142 175 213 258 313
#     4   9  19  34  56  79  99 129 172 222 264 306
#     4   9  19  36  53  75 104 134 174 220 263 310
#     4   9  17  30  51  80 109 139 173 213 260 310
#     4  10  18  31  52  77 106 139 173 210 256 310
#
# _framework density 16.870431
#
# number of rings (size 3 to 8) (size 9 to 14) (size 15 to 20)
#    0.000    2.500    1.250    1.500    1.750    3.000 
#    0.000    1.250    0.000    0.750    0.000    5.250 
#    0.000    0.000    0.000    0.000    0.000    0.000 
#
# Total GULP energy -356987.810736 kJ/mol
# GULP energy per Si atom -5577.934543 kJ/mol
# Density = 1.683203 g / cm^3
# Si number density = 16.870431 Si / 1000 Ang^3
#
#
#
# Elastic Constant Matrix: (Units=GPa)
#
#
# Indices 1 2 3 4 5 6 
#
# 1 152.4106 67.7709 46.3412 0.0000 0.0000 0.0000
# 2 67.7709 93.3421 34.1125 0.0000 0.0000 0.0000
# 3 46.3412 34.1125 20.6967 0.0000 0.0000 0.0000
# 4 0.0000 0.0000 0.0000 20.9654 0.0000 0.0000
# 5 0.0000 0.0000 0.0000 0.0000 4.1601 0.0000
# 6 0.0000 0.0000 0.0000 0.0000 0.0000 21.9791
#
#
#
# Elastic Compliance Matrix: (Units=1/GPa)
#
#
# Indices 1 2 3 4 5 6 
#
# 1 0.021435 0.004972 -0.056188 0.000000 0.000000 0.000000
# 2 0.004972 0.028095 -0.057438 0.000000 0.000000 0.000000
# 3 -0.056188 -0.057438 0.268796 0.000000 0.000000 0.000000
# 4 0.000000 0.000000 0.000000 0.047698 0.000000 0.000000
# 5 0.000000 0.000000 0.000000 0.000000 0.240380 0.000000
# 6 0.000000 0.000000 0.000000 0.000000 0.000000 0.045498
#
#
# Mechanical properties :
#
#
# Convention : Reuss Voigt Hill
#
# Bulk Modulus (GPa) = 9.89940 62.54430 36.22185
# Shear Modulus (GPa) = 5.53783 17.30257 11.42020
#
# Velocity S-wave (km/s) = 1.81375 3.20600 2.60462
# Velocity P-wave (km/s) = 3.20420 7.13151 5.52835
#
# Compressibility (1/GPa) = 0.10101627
#
# Stress axis : x y z
#
# Youngs Moduli (GPa) = 46.65298 35.59401 3.72030
#
# Poissons Ratio (x) = -0.17696 0.20904
# Poissons Ratio (y) = -0.23194 0.21369
# Poissons Ratio (z) = 2.62135 2.04444
#
# Static dielectric constant tensor:
#      x y z
#    x 1.560530 0.000000 0.000000 
#    y 0.000000 1.552430 0.000000 
#    z 0.000000 0.000000 1.555760 
# 
# From -- ./inp_files/4669.got.cif
#   From: 2010.05.17/outbox.cif.g08.bks.cpg/sg55_3_cif.got.tgz:4669.got - 2010.06.03 13:27:54.
