data_PCOD9425593
_publ_section_title
;
Structure prediction by ZEFSAII (Michael W. Deem and Ramdas Pophale) SiO2 
 PCOD9425593
Probable space group: P B A M
;
_chemical_formula_sum "Si O2"
_cell_formula_units_Z 56
_cell_length_a 18.646121
_cell_length_b 9.514911
_cell_length_c 14.371061
_cell_angle_alpha 90.000000
_cell_angle_beta 90.000000
_cell_angle_gamma 90.000000
_cell_volume 2549.658771
_symmetry_space_group_name_H-M "P B A M"
_symmetry_group_IT_number 55
_symmetry_cell_setting 'orthorhombic'
loop_
_space_group_symop_operation_xyz
x,y,z
-x,-y,z
1/2+x,1/2-y,-z
1/2-x,1/2+y,-z
-x,-y,-z
x,y,-z
1/2-x,1/2+y,z
1/2+x,1/2-y,z
loop_
_atom_site_type_symbol
_atom_site_label
_atom_site_fract_x
_atom_site_fract_y
_atom_site_fract_z
Si Si1 0.382502 0.202374 0.393082
Si Si2 0.960395 0.779211 0.222586
Si Si3 0.913437 0.620534 0.608744
Si Si4 0.213180 0.157838 0.395251
Si Si5 0.585281 0.039077 0.892620
Si Si6 0.134662 0.955413 0.737181
Si Si7 0.608677 0.731758 0.111120
O O1 0.404489 0.226831 0.500000
O O2 0.295607 0.198102 0.390452
O O3 0.398779 0.334414 0.327967
O O4 0.404952 0.043155 0.366632
O O5 0.967106 0.700196 0.321922
O O6 0.904908 0.673841 0.170505
O O7 0.029228 0.790199 0.155534
O O8 0.924290 0.928010 0.238560
O O9 0.934155 0.627545 0.500000
O O10 0.838994 0.707708 0.617025
O O11 0.198723 0.101999 0.500000
O O12 0.193746 0.039956 0.320364
O O13 0.500000 0.000000 0.884663
O O14 0.625895 0.895193 0.868637
O O15 0.598776 0.072658 0.000000
O O16 0.157459 0.875515 0.831284
O O17 0.607536 0.712437 0.000000
#
# Coordination Sequence:
#
# PCOD9425593 Si02
#       7
#     8   8   8   8   8   8   8
#     4  10  19  34  56  79 106 141 181 225 272 327
#     4  10  19  32  50  76 112 147 179 222 270 320
#     4   9  18  31  48  72 103 140 180 219 265 326
#     4   9  18  34  55  79 106 138 178 222 269 323
#     4   8  15  30  52  73  95 131 179 224 261 304
#     4  11  21  31  52  85 114 139 176 228 278 320
#     4  10  21  37  57  81 109 143 185 228 269 320
#
# _framework density 21.963723000000002
#
# number of rings (size 3 to 8) (size 9 to 14) (size 15 to 20)
#    0.000    2.429    0.000    3.857    0.000    4.571 
#    0.000    1.429    0.000   12.429    0.000    8.000 
#    0.000    0.000    0.000    0.000    0.000    0.000 
#
# Total GULP energy -312828.842355 kJ/mol
# GULP energy per Si atom -5586.229328 kJ/mol
# Density = 2.191373 g / cm^3
# Si number density = 21.963723 Si / 1000 Ang^3
#
#
#
# Elastic Constant Matrix: (Units=GPa)
#
#
# Indices 1 2 3 4 5 6 
#
# 1 39.0716 25.6201 7.3349 0.0000 0.0000 0.0000
# 2 25.6201 171.0055 89.4042 0.0000 0.0000 0.0000
# 3 7.3349 89.4042 121.2610 0.0000 0.0000 0.0000
# 4 0.0000 0.0000 0.0000 30.0956 0.0000 0.0000
# 5 0.0000 0.0000 0.0000 0.0000 -744.0574 0.0000
# 6 0.0000 0.0000 0.0000 0.0000 0.0000 17.0931
#
#
#
# Elastic Compliance Matrix: (Units=1/GPa)
#
#
# Indices 1 2 3 4 5 6 
#
# 1 0.028785 -0.005536 0.002341 0.000000 0.000000 0.000000
# 2 -0.005536 0.010581 -0.007466 0.000000 0.000000 0.000000
# 3 0.002341 -0.007466 0.013610 0.000000 0.000000 0.000000
# 4 0.000000 0.000000 0.000000 0.033227 0.000000 0.000000
# 5 0.000000 0.000000 0.000000 0.000000 -0.001344 0.000000
# 6 0.000000 0.000000 0.000000 0.000000 0.000000 0.058503
#
#
# Mechanical properties :
#
#
# Convention : Reuss Voigt Hill
#
# Bulk Modulus (GPa) = 31.59371 64.00628 47.79999
# Shear Modulus (GPa) = 28.53300 -125.44181 -48.45441
#
# Velocity S-wave (km/s) = 3.60821 -7.56553 -4.70202
# Velocity P-wave (km/s) = 5.63690 6.86376 2.76916
#
# Compressibility (1/GPa) = 0.03165187
#
# Stress axis : x y z
#
# Youngs Moduli (GPa) = 34.74042 94.51286 73.47695
#
# Poissons Ratio (x) = 0.52325 -0.17199
# Poissons Ratio (y) = 0.19233 0.54858
# Poissons Ratio (z) = -0.08132 0.70564
#
# Static dielectric constant tensor:
#      x y z
#    x 1.847480 0.000000 0.000000 
#    y 0.000000 1.797750 0.000000 
#    z 0.000000 0.000000 1.835240 
# 
# From -- ./inp_files/19764.got.cif
#   From: 2010.05.17/outbox.cif.g08.bks.cpg/sg55_10_cif.got.tgz:19764.got - 2010.06.03 13:27:54.
