data_PCOD9425180
_publ_section_title
;
Structure prediction by ZEFSAII (Michael W. Deem and Ramdas Pophale) SiO2 
 PCOD9425180
Probable space group: P B A M
;
_chemical_formula_sum "Si O2"
_cell_formula_units_Z 56
_cell_length_a 15.094056
_cell_length_b 21.864769
_cell_length_c 7.447626
_cell_angle_alpha 90.000000
_cell_angle_beta 90.000000
_cell_angle_gamma 90.000000
_cell_volume 2457.925469
_symmetry_space_group_name_H-M "P B A M"
_symmetry_group_IT_number 55
_symmetry_cell_setting 'orthorhombic'
loop_
_space_group_symop_operation_xyz
x,y,z
-x,-y,z
1/2+x,1/2-y,-z
1/2-x,1/2+y,-z
-x,-y,-z
x,y,-z
1/2-x,1/2+y,z
1/2+x,1/2-y,z
loop_
_atom_site_type_symbol
_atom_site_label
_atom_site_fract_x
_atom_site_fract_y
_atom_site_fract_z
Si Si1 0.909038 0.424825 0.717026
Si Si2 0.069980 0.794223 0.794978
Si Si3 0.802181 0.306377 0.207813
Si Si4 0.892024 0.565582 0.718919
Si Si5 0.100269 0.016996 0.217005
Si Si6 0.294785 0.397102 0.293077
Si Si7 0.615805 0.343065 0.220728
O O1 0.906305 0.423560 0.500000
O O2 0.841999 0.374312 0.785988
O O3 0.886961 0.494151 0.772884
O O4 0.010736 0.411323 0.772615
O O5 0.126409 0.739630 0.709632
O O6 0.134318 0.852967 0.797813
O O7 0.975942 0.813649 0.715922
O O8 0.049706 0.775648 0.000000
O O9 0.703431 0.308222 0.283256
O O10 0.792308 0.287313 0.000000
O O11 0.889931 0.566096 0.500000
O O12 0.805161 0.601558 0.780848
O O13 0.167786 0.966001 0.284935
O O14 0.120505 0.085891 0.274945
O O15 0.103425 0.014768 0.000000
O O16 0.000000 0.000000 0.271148
O O17 0.291307 0.377423 0.500000
O O18 0.615220 0.343783 0.000000
#
# Coordination Sequence:
#
# PCOD9425180 Si02
#       7
#     8   8   8   8   8   8   8
#     4   9  17  35  58  76 103 141 176 205 259 327
#     4  10  21  38  54  71 104 146 179 206 261 327
#     4  10  21  35  55  79 103 135 179 227 261 297
#     4   8  17  33  54  79 107 141 169 207 265 321
#     4  10  18  32  55  77 105 145 177 205 265 335
#     4  11  21  33  52  81 111 133 173 226 264 300
#     4   9  18  35  55  76 105 139 175 214 261 320
#
# _framework density 22.783441
#
# number of rings (size 3 to 8) (size 9 to 14) (size 15 to 20)
#    0.000    2.429    1.429    2.143    0.000    2.000 
#    0.000    5.714    0.000    0.000    0.000    0.000 
#    0.000    0.000    0.000    0.000    0.000    0.000 
#
# Total GULP energy -312889.881312 kJ/mol
# GULP energy per Si atom -5587.319309 kJ/mol
# Density = 2.273159 g / cm^3
# Si number density = 22.783441 Si / 1000 Ang^3
#
#
#
# Elastic Constant Matrix: (Units=GPa)
#
#
# Indices 1 2 3 4 5 6 
#
# 1 157.8653 38.6908 -5.1823 0.0000 0.0000 0.0000
# 2 38.6908 53.8061 -3.7421 0.0000 0.0000 0.0000
# 3 -5.1823 -3.7421 68.9087 0.0000 0.0000 0.0000
# 4 0.0000 0.0000 0.0000 -8.6625 0.0000 0.0000
# 5 0.0000 0.0000 0.0000 0.0000 -2.7523 0.0000
# 6 0.0000 0.0000 0.0000 0.0000 0.0000 18.5564
#
#
#
# Elastic Compliance Matrix: (Units=1/GPa)
#
#
# Indices 1 2 3 4 5 6 
#
# 1 0.007695 -0.005514 0.000279 0.000000 0.000000 0.000000
# 2 -0.005514 0.022607 0.000813 0.000000 0.000000 0.000000
# 3 0.000279 0.000813 0.014577 0.000000 0.000000 0.000000
# 4 0.000000 0.000000 0.000000 -0.115440 0.000000 0.000000
# 5 0.000000 0.000000 0.000000 0.000000 -0.363332 0.000000
# 6 0.000000 0.000000 0.000000 0.000000 0.000000 0.053890
#
#
# Mechanical properties :
#
#
# Convention : Reuss Voigt Hill
#
# Bulk Modulus (GPa) = 27.75034 37.79030 32.77032
# Shear Modulus (GPa) = -13.92182 18.14925 2.11372
#
# Velocity S-wave (km/s) = -2.47462 2.82547 0.96424
# Velocity P-wave (km/s) = 2.01034 5.22179 3.95655
#
# Compressibility (1/GPa) = 0.03603559
#
# Stress axis : x y z
#
# Youngs Moduli (GPa) = 129.95325 44.23463 68.60072
#
# Poissons Ratio (x) = 0.24391 -0.01916
# Poissons Ratio (y) = 0.71655 -0.05577
# Poissons Ratio (z) = -0.03629 -0.03596
#
# Static dielectric constant tensor:
#      x y z
#    x 1.844250 0.000000 0.000000 
#    y 0.000000 1.801490 0.000000 
#    z 0.000000 0.000000 1.907690 
# 
# From -- ./inp_files/6102.got.cif
#   From: 2010.05.17/outbox.cif.g08.bks.cpg/sg55_4_cif.got.tgz:6102.got - 2010.06.03 13:27:54.
