data_PCOD9425933
_publ_section_title
;
Structure prediction by ZEFSAII (Michael W. Deem and Ramdas Pophale) SiO2 
 PCOD9425933
Probable space group: P B A M
;
_chemical_formula_sum "Si O2"
_cell_formula_units_Z 48
_cell_length_a 10.540860
_cell_length_b 29.005799
_cell_length_c 8.751775
_cell_angle_alpha 90.000000
_cell_angle_beta 90.000000
_cell_angle_gamma 90.000000
_cell_volume 2675.820781
_symmetry_space_group_name_H-M "P B A M"
_symmetry_group_IT_number 55
_symmetry_cell_setting 'orthorhombic'
loop_
_space_group_symop_operation_xyz
x,y,z
-x,-y,z
1/2+x,1/2-y,-z
1/2-x,1/2+y,-z
-x,-y,-z
x,y,-z
1/2-x,1/2+y,z
1/2+x,1/2-y,z
loop_
_atom_site_type_symbol
_atom_site_label
_atom_site_fract_x
_atom_site_fract_y
_atom_site_fract_z
Si Si1 0.643906 0.452496 0.316826
Si Si2 0.360759 0.450878 0.816758
Si Si3 0.498774 0.805320 0.316858
Si Si4 0.248313 0.353363 0.183886
Si Si5 0.998050 0.797294 0.183189
Si Si6 0.761235 0.853437 0.315856
O O1 0.640235 0.457030 0.500000
O O2 0.690064 0.500370 0.244131
O O3 0.500643 0.445096 0.255704
O O4 0.723834 0.407260 0.275169
O O5 0.277061 0.406509 0.776379
O O6 0.374385 0.452530 0.000000
O O7 0.497390 0.802153 0.500000
O O8 0.375940 0.832910 0.260857
O O9 0.497459 0.754154 0.248181
O O10 0.627553 0.831487 0.269290
O O11 0.372489 0.323639 0.227559
O O12 0.235142 0.350314 0.000000
O O13 0.877488 0.825319 0.244516
O O14 0.992532 0.795862 0.000000
O O15 0.771209 0.850201 0.500000
#
# Coordination Sequence:
#
# PCOD9425933 Si02
#       6
#     8   8   8   8   8   8
#     4  10  19  33  56  85 113 143 184 229 278 331
#     4  10  19  34  56  84 114 142 183 231 277 330
#     4  11  24  39  56  81 114 151 187 230 281 332
#     4  10  22  39  58  84 114 148 189 231 277 334
#     4  11  22  38  60  84 110 146 190 234 279 329
#     4  10  22  39  58  84 115 148 189 231 276 334
#
# _framework density 17.938421999999999
#
# number of rings (size 3 to 8) (size 9 to 14) (size 15 to 20)
#    0.000    1.667    1.667    4.000    0.000    7.333 
#    0.000    0.833    0.000    5.000    0.000    0.000 
#    0.000    0.000    0.000    0.000    0.000    0.000 
#
# Total GULP energy -268159.394836 kJ/mol
# GULP energy per Si atom -5586.654059 kJ/mol
# Density = 1.789759 g / cm^3
# Si number density = 17.938422 Si / 1000 Ang^3
#
#
#
# Elastic Constant Matrix: (Units=GPa)
#
#
# Indices 1 2 3 4 5 6 
#
# 1 137.1557 89.0776 39.2958 0.0000 0.0000 0.0000
# 2 89.0776 191.8598 50.1065 0.0000 0.0000 0.0000
# 3 39.2958 50.1065 38.0709 0.0000 0.0000 0.0000
# 4 0.0000 0.0000 0.0000 33.7563 0.0000 0.0000
# 5 0.0000 0.0000 0.0000 0.0000 15.7965 0.0000
# 6 0.0000 0.0000 0.0000 0.0000 0.0000 -14.0577
#
#
#
# Elastic Compliance Matrix: (Units=1/GPa)
#
#
# Indices 1 2 3 4 5 6 
#
# 1 0.011694 -0.003470 -0.007504 0.000000 0.000000 0.000000
# 2 -0.003470 0.008972 -0.008226 0.000000 0.000000 0.000000
# 3 -0.007504 -0.008226 0.044839 0.000000 0.000000 0.000000
# 4 0.000000 0.000000 0.000000 0.029624 0.000000 0.000000
# 5 0.000000 0.000000 0.000000 0.000000 0.063305 0.000000
# 6 0.000000 0.000000 0.000000 0.000000 0.000000 -0.071135
#
#
# Mechanical properties :
#
#
# Convention : Reuss Voigt Hill
#
# Bulk Modulus (GPa) = 36.89368 80.44959 58.67163
# Shear Modulus (GPa) = 37.11015 19.67278 28.39146
#
# Velocity S-wave (km/s) = 4.55329 3.31521 3.98265
# Velocity P-wave (km/s) = 6.94656 7.72005 7.34350
#
# Compressibility (1/GPa) = 0.02710492
#
# Stress axis : x y z
#
# Youngs Moduli (GPa) = 85.51097 111.46398 22.30196
#
# Poissons Ratio (x) = 0.38676 0.16735
# Poissons Ratio (y) = 0.29670 0.18346
# Poissons Ratio (z) = 0.64167 0.91694
#
# Static dielectric constant tensor:
#      x y z
#    x 1.576810 0.000000 0.000000 
#    y 0.000000 1.615480 0.000000 
#    z 0.000000 0.000000 1.605610 
# 
# From -- ./inp_files/2891.got.cif
#   From: 2010.05.17/outbox.cif.g08.bks.cpg/sg55_2_cif.got.tgz:2891.got - 2010.06.03 13:27:54.
