data_PCOD9425062
_publ_section_title
;
Structure prediction by ZEFSAII (Michael W. Deem and Ramdas Pophale) SiO2 
 PCOD9425062
Probable space group: P B A M
;
_chemical_formula_sum "Si O2"
_cell_formula_units_Z 32
_cell_length_a 4.955686
_cell_length_b 25.664797
_cell_length_c 11.225082
_cell_angle_alpha 90.000000
_cell_angle_beta 90.000000
_cell_angle_gamma 90.000000
_cell_volume 1427.680858
_symmetry_space_group_name_H-M "P B A M"
_symmetry_group_IT_number 55
_symmetry_cell_setting 'orthorhombic'
loop_
_space_group_symop_operation_xyz
x,y,z
-x,-y,z
1/2+x,1/2-y,-z
1/2-x,1/2+y,-z
-x,-y,-z
x,y,-z
1/2-x,1/2+y,z
1/2+x,1/2-y,z
loop_
_atom_site_type_symbol
_atom_site_label
_atom_site_fract_x
_atom_site_fract_y
_atom_site_fract_z
Si Si1 0.339905 0.107084 0.736082
Si Si2 0.737131 0.694741 0.000000
Si Si3 0.647680 0.552690 0.638785
Si Si4 0.390327 0.779525 0.736229
Si Si5 0.270886 0.125436 0.000000
O O1 0.581220 0.067596 0.706859
O O2 0.472118 0.164379 0.718154
O O3 0.234175 0.099885 0.871504
O O4 0.079871 0.096940 0.655246
O O5 0.832825 0.722041 0.120800
O O6 0.430644 0.675050 0.000000
O O7 0.916729 0.642235 0.000000
O O8 0.500000 0.500000 0.680016
O O9 0.717435 0.546543 0.500000
O O10 0.594602 0.735180 0.690693
#
# Coordination Sequence:
#
# PCOD9425062 Si02
#       5
#     8   4   8   8   4
#     4  11  22  40  63  92 130 163 199 258 318 371
#     4  10  18  31  50  82 123 168 211 242 276 335
#     4  11  24  44  69  91 112 153 218 276 317 364
#     4  11  20  32  54  86 124 164 203 239 287 359
#     4  10  20  35  57  90 128 164 194 236 309 383
#
# _framework density 22.413971
#
# number of rings (size 3 to 8) (size 9 to 14) (size 15 to 20)
#    0.000    1.250    0.000    9.750    0.000    2.000 
#    0.000    3.750    0.000   15.000    0.000    0.000 
#    0.000    0.000    0.000    0.000    0.000    0.000 
#
# Total GULP energy -178660.668223 kJ/mol
# GULP energy per Si atom -5583.145882 kJ/mol
# Density = 2.236296 g / cm^3
# Si number density = 22.413971 Si / 1000 Ang^3
#
#
#
# Elastic Constant Matrix: (Units=GPa)
#
#
# Indices 1 2 3 4 5 6 
#
# 1 101.8126 21.2694 7.7764 0.0000 0.0000 0.0000
# 2 21.2694 60.4875 18.3390 0.0000 0.0000 0.0000
# 3 7.7764 18.3390 26.6213 0.0000 0.0000 0.0000
# 4 0.0000 0.0000 0.0000 23.0278 0.0000 0.0000
# 5 0.0000 0.0000 0.0000 0.0000 -28.3943 0.0000
# 6 0.0000 0.0000 0.0000 0.0000 0.0000 50.6374
#
#
#
# Elastic Compliance Matrix: (Units=1/GPa)
#
#
# Indices 1 2 3 4 5 6 
#
# 1 0.010610 -0.003528 -0.000669 0.000000 0.000000 0.000000
# 2 -0.003528 0.022070 -0.014173 0.000000 0.000000 0.000000
# 3 -0.000669 -0.014173 0.047523 0.000000 0.000000 0.000000
# 4 0.000000 0.000000 0.000000 0.043426 0.000000 0.000000
# 5 0.000000 0.000000 0.000000 0.000000 -0.035218 0.000000
# 6 0.000000 0.000000 0.000000 0.000000 0.000000 0.019748
#
#
# Mechanical properties :
#
#
# Convention : Reuss Voigt Hill
#
# Bulk Modulus (GPa) = 23.00815 31.52124 27.26470
# Shear Modulus (GPa) = 31.37026 18.48995 24.93011
#
# Velocity S-wave (km/s) = 3.74516 2.87527 3.33867
# Velocity P-wave (km/s) = 5.38415 5.01165 5.20124
#
# Compressibility (1/GPa) = 0.04346286
#
# Stress axis : x y z
#
# Youngs Moduli (GPa) = 94.24987 45.31025 21.04247
#
# Poissons Ratio (x) = 0.15986 0.01408
# Poissons Ratio (y) = 0.33252 0.29824
# Poissons Ratio (z) = 0.06304 0.64219
#
# Static dielectric constant tensor:
#      x y z
#    x 1.810450 0.000000 0.000000 
#    y 0.000000 1.881190 0.000000 
#    z 0.000000 0.000000 1.876290 
# 
# From -- ./inp_files/11213.got.cif
#   From: 2010.05.17/outbox.cif.g08.bks.cpg/sg55_6_cif.got.tgz:11213.got - 2010.06.03 13:27:54.
