data_PCOD9425397
_publ_section_title
;
Structure prediction by ZEFSAII (Michael W. Deem and Ramdas Pophale) SiO2 
 PCOD9425397
Probable space group: P B A M
;
_chemical_formula_sum "Si O2"
_cell_formula_units_Z 48
_cell_length_a 9.578165
_cell_length_b 26.099081
_cell_length_c 11.965722
_cell_angle_alpha 90.000000
_cell_angle_beta 90.000000
_cell_angle_gamma 90.000000
_cell_volume 2991.206791
_symmetry_space_group_name_H-M "P B A M"
_symmetry_group_IT_number 55
_symmetry_cell_setting 'orthorhombic'
loop_
_space_group_symop_operation_xyz
x,y,z
-x,-y,z
1/2+x,1/2-y,-z
1/2-x,1/2+y,-z
-x,-y,-z
x,y,-z
1/2-x,1/2+y,z
1/2+x,1/2-y,z
loop_
_atom_site_type_symbol
_atom_site_label
_atom_site_fract_x
_atom_site_fract_y
_atom_site_fract_z
Si Si1 0.506523 0.671601 0.239660
Si Si2 0.985370 0.439994 0.631693
Si Si3 0.472304 0.717044 0.000000
Si Si4 0.693861 0.860093 0.241114
Si Si5 0.733198 0.138385 0.370091
Si Si6 0.345734 0.183608 0.000000
Si Si7 0.006783 0.721095 0.631933
O O1 0.360247 0.642277 0.250198
O O2 0.636456 0.640753 0.288514
O O3 0.497235 0.724180 0.310313
O O4 0.523757 0.688631 0.111387
O O5 0.948846 0.433198 0.500000
O O6 0.872846 0.411087 0.707644
O O7 0.000000 0.500000 0.654430
O O8 0.130865 0.409696 0.648020
O O9 0.531728 0.774486 0.000000
O O10 0.303481 0.713625 0.000000
O O11 0.627185 0.813017 0.311319
O O12 0.652137 0.849721 0.112581
O O13 0.778288 0.138346 0.500000
O O14 0.635683 0.188549 0.353004
O O15 0.032906 0.726046 0.500000
#
# Coordination Sequence:
#
# PCOD9425397 Si02
#       7
#     8   8   4   8   8   4   8
#     4  11  20  31  47  74 106 135 169 205 246 295
#     4   9  19  38  59  76  97 127 166 212 261 310
#     4  10  22  32  48  71 104 146 176 203 240 281
#     4  10  20  33  51  73 100 134 169 208 250 295
#     4   9  19  32  49  75 102 131 167 205 249 300
#     4  10  20  34  49  73 103 136 175 209 237 293
#     4  10  19  30  46  71 104 139 168 198 242 300
#
# _framework density 16.047035000000001
#
# number of rings (size 3 to 8) (size 9 to 14) (size 15 to 20)
#    0.000    2.167    1.667    3.000    2.333    4.000 
#    0.000    1.250    0.000    3.000    0.000    3.500 
#    0.000    0.000    0.000    0.000    0.000    0.000 
#
# Total GULP energy -267886.050681 kJ/mol
# GULP energy per Si atom -5580.959389 kJ/mol
# Density = 1.601051 g / cm^3
# Si number density = 16.047035 Si / 1000 Ang^3
#
#
#
# Elastic Constant Matrix: (Units=GPa)
#
#
# Indices 1 2 3 4 5 6 
#
# 1 70.2012 41.2100 62.7124 0.0000 0.0000 0.0000
# 2 41.2100 98.7117 51.5192 0.0000 0.0000 0.0000
# 3 62.7124 51.5192 120.6812 0.0000 0.0000 0.0000
# 4 0.0000 0.0000 0.0000 15.8224 0.0000 0.0000
# 5 0.0000 0.0000 0.0000 0.0000 25.0076 0.0000
# 6 0.0000 0.0000 0.0000 0.0000 0.0000 6.1452
#
#
#
# Elastic Compliance Matrix: (Units=1/GPa)
#
#
# Indices 1 2 3 4 5 6 
#
# 1 0.028657 -0.005393 -0.012589 0.000000 0.000000 0.000000
# 2 -0.005393 0.014050 -0.003195 0.000000 0.000000 0.000000
# 3 -0.012589 -0.003195 0.016193 0.000000 0.000000 0.000000
# 4 0.000000 0.000000 0.000000 0.063202 0.000000 0.000000
# 5 0.000000 0.000000 0.000000 0.000000 0.039988 0.000000
# 6 0.000000 0.000000 0.000000 0.000000 0.000000 0.162728
#
#
# Mechanical properties :
#
#
# Convention : Reuss Voigt Hill
#
# Bulk Modulus (GPa) = 60.44622 66.71971 63.58296
# Shear Modulus (GPa) = 13.41609 18.33855 15.87732
#
# Velocity S-wave (km/s) = 2.89459 3.38420 3.14892
# Velocity P-wave (km/s) = 6.99439 7.54574 7.27529
#
# Compressibility (1/GPa) = 0.01654363
#
# Stress axis : x y z
#
# Youngs Moduli (GPa) = 34.89535 71.17588 61.75679
#
# Poissons Ratio (x) = 0.38386 0.77748
# Poissons Ratio (y) = 0.18819 0.19733
# Poissons Ratio (z) = 0.43931 0.22743
#
# Static dielectric constant tensor:
#      x y z
#    x 1.541910 0.000000 0.000000 
#    y 0.000000 1.506340 0.000000 
#    z 0.000000 0.000000 1.537200 
# 
# From -- ./inp_files/12328.got.cif
#   From: 2010.05.17/outbox.cif.g08.bks.cpg/sg55_7_cif.got.tgz:12328.got - 2010.06.03 13:27:54.
