data_PCOD9425106
_publ_section_title
;
Structure prediction by ZEFSAII (Michael W. Deem and Ramdas Pophale) SiO2 
 PCOD9425106
Probable space group: P B A M
;
_chemical_formula_sum "Si O2"
_cell_formula_units_Z 64
_cell_length_a 14.697385
_cell_length_b 25.972500
_cell_length_c 7.513714
_cell_angle_alpha 90.000000
_cell_angle_beta 90.000000
_cell_angle_gamma 90.000000
_cell_volume 2868.193755
_symmetry_space_group_name_H-M "P B A M"
_symmetry_group_IT_number 55
_symmetry_cell_setting 'orthorhombic'
loop_
_space_group_symop_operation_xyz
x,y,z
-x,-y,z
1/2+x,1/2-y,-z
1/2-x,1/2+y,-z
-x,-y,-z
x,y,-z
1/2-x,1/2+y,z
1/2+x,1/2-y,z
loop_
_atom_site_type_symbol
_atom_site_label
_atom_site_fract_x
_atom_site_fract_y
_atom_site_fract_z
Si Si1 0.052881 0.678033 0.708760
Si Si2 0.043117 0.789598 0.295174
Si Si3 0.344907 0.560685 0.218871
Si Si4 0.535034 0.595336 0.794316
Si Si5 0.723450 0.549611 0.782192
Si Si6 0.255986 0.777840 0.217025
Si Si7 0.259571 0.665746 0.795833
Si Si8 0.875100 0.625256 0.785457
O O1 0.070650 0.686137 0.500000
O O2 0.978533 0.633897 0.730236
O O3 0.015582 0.733403 0.779493
O O4 0.149819 0.665509 0.793120
O O5 0.015113 0.792718 0.500000
O O6 0.153054 0.787584 0.279422
O O7 0.014251 0.843699 0.211759
O O8 0.449556 0.564168 0.279854
O O9 0.294392 0.508810 0.273647
O O10 0.297192 0.613089 0.282000
O O11 0.344418 0.560324 0.000000
O O12 0.634946 0.582417 0.721815
O O13 0.540488 0.579820 0.000000
O O14 0.816635 0.576501 0.723055
O O15 0.725981 0.550902 0.000000
O O16 0.286496 0.721339 0.280957
O O17 0.320135 0.824008 0.274416
O O18 0.252667 0.777416 0.000000
O O19 0.291142 0.666578 0.000000
O O20 0.874532 0.624990 0.000000
#
# Coordination Sequence:
#
# PCOD9425106 Si02
#       8
#     8   8   8   8   8   8   8   8
#     4  10  22  37  52  74 106 144 179 217 265 316
#     4  10  20  33  49  74 108 142 174 210 256 311
#     4   9  18  31  54  82 106 136 176 218 263 312
#     4  10  18  31  54  81 109 141 172 212 259 311
#     4   9  17  32  52  81 112 136 171 215 262 313
#     4   9  17  31  51  77 105 133 170 214 263 311
#     4   9  18  34  54  78 105 135 174 222 265 306
#     4  10  19  32  54  81 107 137 173 219 265 308
#
# _framework density 22.313694000000002
#
# number of rings (size 3 to 8) (size 9 to 14) (size 15 to 20)
#    0.000    2.500    1.250    1.125    1.750    3.500 
#    0.000    1.250    0.000    7.500    0.000    0.000 
#    0.000    0.000    0.000    0.000    0.000    0.000 
#
# Total GULP energy -357342.460063 kJ/mol
# GULP energy per Si atom -5583.475938 kJ/mol
# Density = 2.226291 g / cm^3
# Si number density = 22.313694 Si / 1000 Ang^3
#
#
#
# Elastic Constant Matrix: (Units=GPa)
#
#
# Indices 1 2 3 4 5 6 
#
# 1 29.2728 4.9040 -5.9648 0.0000 0.0000 0.0000
# 2 4.9040 86.8356 1.6296 0.0000 0.0000 0.0000
# 3 -5.9648 1.6296 59.9585 0.0000 0.0000 0.0000
# 4 0.0000 0.0000 0.0000 -6.7443 0.0000 0.0000
# 5 0.0000 0.0000 0.0000 0.0000 4146.0279 0.0000
# 6 0.0000 0.0000 0.0000 0.0000 0.0000 36.5907
#
#
#
# Elastic Compliance Matrix: (Units=1/GPa)
#
#
# Indices 1 2 3 4 5 6 
#
# 1 0.035232 -0.002057 0.003561 0.000000 0.000000 0.000000
# 2 -0.002057 0.011642 -0.000521 0.000000 0.000000 0.000000
# 3 0.003561 -0.000521 0.017047 0.000000 0.000000 0.000000
# 4 0.000000 0.000000 0.000000 -0.148273 0.000000 0.000000
# 5 0.000000 0.000000 0.000000 0.000000 0.000241 0.000000
# 6 0.000000 0.000000 0.000000 0.000000 0.000000 0.027329
#
#
# Mechanical properties :
#
#
# Convention : Reuss Voigt Hill
#
# Bulk Modulus (GPa) = 15.17759 19.68939 17.43349
# Shear Modulus (GPa) = -135.91688 846.87473 355.47893
#
# Velocity S-wave (km/s) = -7.81307 19.50270 12.63549
# Velocity P-wave (km/s) = 8.63571 22.71527 14.85611
#
# Compressibility (1/GPa) = 0.06588660
#
# Stress axis : x y z
#
# Youngs Moduli (GPa) = 28.38369 85.89636 58.66271
#
# Poissons Ratio (x) = 0.17665 -0.20889
# Poissons Ratio (y) = 0.05837 0.03056
# Poissons Ratio (z) = -0.10107 0.04475
#
# Static dielectric constant tensor:
#      x y z
#    x 1.805090 0.000000 0.000000 
#    y 0.000000 1.831330 0.000000 
#    z 0.000000 0.000000 1.883710 
# 
# From -- ./inp_files/6629.got.cif
#   From: 2010.05.17/outbox.cif.g08.bks.cpg/sg55_4_cif.got.tgz:6629.got - 2010.06.03 13:27:54.
