data_PCOD9425108
_publ_section_title
;
Structure prediction by ZEFSAII (Michael W. Deem and Ramdas Pophale) SiO2 
 PCOD9425108
Probable space group: P B A M
;
_chemical_formula_sum "Si O2"
_cell_formula_units_Z 56
_cell_length_a 20.438179
_cell_length_b 16.821786
_cell_length_c 7.818706
_cell_angle_alpha 90.000000
_cell_angle_beta 90.000000
_cell_angle_gamma 90.000000
_cell_volume 2688.123300
_symmetry_space_group_name_H-M "P B A M"
_symmetry_group_IT_number 55
_symmetry_cell_setting 'orthorhombic'
loop_
_space_group_symop_operation_xyz
x,y,z
-x,-y,z
1/2+x,1/2-y,-z
1/2-x,1/2+y,-z
-x,-y,-z
x,y,-z
1/2-x,1/2+y,z
1/2+x,1/2-y,z
loop_
_atom_site_type_symbol
_atom_site_label
_atom_site_fract_x
_atom_site_fract_y
_atom_site_fract_z
Si Si1 0.890458 0.630716 0.707754
Si Si2 0.120691 0.188830 0.199517
Si Si3 0.264849 0.182845 0.801617
Si Si4 0.662429 0.973342 0.707061
Si Si5 0.505568 0.591283 0.205254
Si Si6 0.893780 0.221508 0.297346
Si Si7 0.464357 0.121650 0.707693
O O1 0.887486 0.637772 0.500000
O O2 0.887607 0.717001 0.787091
O O3 0.836663 0.565420 0.759153
O O4 0.962711 0.601057 0.756284
O O5 0.192784 0.179121 0.280337
O O6 0.057119 0.142700 0.270906
O O7 0.124703 0.164373 0.000000
O O8 0.290914 0.093048 0.783017
O O9 0.320026 0.245662 0.737591
O O10 0.257142 0.203422 0.000000
O O11 0.668639 0.969851 0.500000
O O12 0.590980 0.940288 0.754956
O O13 0.500000 0.500000 0.268013
O O14 0.573600 0.638441 0.240438
O O15 0.500797 0.588521 0.000000
O O16 0.899425 0.220681 0.500000
O O17 0.940735 0.292097 0.227782
O O18 0.463832 0.124854 0.500000
#
# Coordination Sequence:
#
# PCOD9425108 Si02
#       7
#     8   8   8   8   8   8   8
#     4  10  18  31  54  82 112 144 177 221 282 337
#     4  10  22  39  57  80 112 151 193 237 285 341
#     4  10  21  38  57  78 112 155 193 234 287 343
#     4   9  18  32  52  80 112 143 181 223 272 335
#     4  10  21  39  62  86 115 153 196 242 295 351
#     4  10  19  35  60  86 112 144 188 238 287 342
#     4   8  14  27  50  78 107 138 167 207 264 326
#
# _framework density 20.832377000000001
#
# number of rings (size 3 to 8) (size 9 to 14) (size 15 to 20)
#    0.000    2.429    1.429    2.143    0.000    3.714 
#    2.571    0.000    0.000    2.571    0.000    0.000 
#    0.000    0.000    0.000    0.000    0.000    0.000 
#
# Total GULP energy -311839.118263 kJ/mol
# GULP energy per Si atom -5568.555683 kJ/mol
# Density = 2.078496 g / cm^3
# Si number density = 20.832377 Si / 1000 Ang^3
#
#
#
# Elastic Constant Matrix: (Units=GPa)
#
#
# Indices 1 2 3 4 5 6 
#
# 1 96.1524 35.3348 4.1216 0.0000 0.0000 0.0000
# 2 35.3348 112.6008 2.6285 0.0000 0.0000 0.0000
# 3 4.1216 2.6285 29.8489 0.0000 0.0000 0.0000
# 4 0.0000 0.0000 0.0000 22.2514 0.0000 0.0000
# 5 0.0000 0.0000 0.0000 0.0000 3.1217 0.0000
# 6 0.0000 0.0000 0.0000 0.0000 0.0000 -3.6375
#
#
#
# Elastic Compliance Matrix: (Units=1/GPa)
#
#
# Indices 1 2 3 4 5 6 
#
# 1 0.011806 -0.003674 -0.001307 0.000000 0.000000 0.000000
# 2 -0.003674 0.010043 -0.000377 0.000000 0.000000 0.000000
# 3 -0.001307 -0.000377 0.033716 0.000000 0.000000 0.000000
# 4 0.000000 0.000000 0.000000 0.044941 0.000000 0.000000
# 5 0.000000 0.000000 0.000000 0.000000 0.320334 0.000000
# 6 0.000000 0.000000 0.000000 0.000000 0.000000 -0.274915
#
#
# Mechanical properties :
#
#
# Convention : Reuss Voigt Hill
#
# Bulk Modulus (GPa) = 22.29720 35.86354 29.08037
# Shear Modulus (GPa) = 29.13921 17.44829 23.29375
#
# Velocity S-wave (km/s) = 3.74404 2.89720 3.34750
# Velocity P-wave (km/s) = 5.42373 5.33332 5.37871
#
# Compressibility (1/GPa) = 0.04484867
#
# Stress axis : x y z
#
# Youngs Moduli (GPa) = 84.69924 99.57393 29.65981
#
# Poissons Ratio (x) = 0.36588 0.03876
# Poissons Ratio (y) = 0.31122 0.01118
# Poissons Ratio (z) = 0.11068 0.03754
#
# Static dielectric constant tensor:
#      x y z
#    x 1.784990 0.000000 0.000000 
#    y 0.000000 1.786080 0.000000 
#    z 0.000000 0.000000 1.772880 
# 
# From -- ./inp_files/6060.got.cif
#   From: 2010.05.17/outbox.cif.g08.bks.cpg/sg55_4_cif.got.tgz:6060.got - 2010.06.03 13:27:54.
