data_PCOD9425753
_publ_section_title
;
Structure prediction by ZEFSAII (Michael W. Deem and Ramdas Pophale) SiO2 
 PCOD9425753
Probable space group: P B A M
;
_chemical_formula_sum "Si O2"
_cell_formula_units_Z 64
_cell_length_a 25.649898
_cell_length_b 15.090092
_cell_length_c 7.489224
_cell_angle_alpha 90.000000
_cell_angle_beta 90.000000
_cell_angle_gamma 90.000000
_cell_volume 2898.773953
_symmetry_space_group_name_H-M "P B A M"
_symmetry_group_IT_number 55
_symmetry_cell_setting 'orthorhombic'
loop_
_space_group_symop_operation_xyz
x,y,z
-x,-y,z
1/2+x,1/2-y,-z
1/2-x,1/2+y,-z
-x,-y,-z
x,y,-z
1/2-x,1/2+y,z
1/2+x,1/2-y,z
loop_
_atom_site_type_symbol
_atom_site_label
_atom_site_fract_x
_atom_site_fract_y
_atom_site_fract_z
Si Si1 0.017036 0.098737 0.217764
Si Si2 0.127632 0.054675 0.782372
Si Si3 0.351324 0.362435 0.783047
Si Si4 0.266712 0.642156 0.787765
Si Si5 0.052739 0.541570 0.294237
Si Si6 0.266199 0.844289 0.216483
Si Si7 0.441026 0.243198 0.217002
Si Si8 0.168777 0.517749 0.707126
O O1 0.077285 0.110219 0.271464
O O2 0.980712 0.179568 0.274149
O O3 0.014350 0.097955 0.000000
O O4 0.000000 0.000000 0.274589
O O5 0.183584 0.087839 0.718273
O O6 0.120043 0.952544 0.730368
O O7 0.128774 0.055354 0.000000
O O8 0.292040 0.369749 0.724706
O O9 0.383618 0.276903 0.726787
O O10 0.350577 0.359765 0.000000
O O11 0.271440 0.742885 0.720761
O O12 0.212484 0.589198 0.766703
O O13 0.273390 0.649029 0.000000
O O14 0.054613 0.509091 0.500000
O O15 0.046612 0.647246 0.289621
O O16 0.110336 0.522796 0.213141
O O17 0.000000 0.500000 0.213357
O O18 0.306773 0.919647 0.272194
O O19 0.267177 0.844866 0.000000
O O20 0.442163 0.238088 0.000000
O O21 0.162223 0.537680 0.500000
#
# Coordination Sequence:
#
# PCOD9425753 Si02
#       8
#     8   8   8   8   8   8   8   8
#     4   9  15  25  45  78 115 143 171 213 266 322
#     4   9  15  26  47  75 111 150 177 208 265 333
#     4   9  15  27  49  78 113 147 177 214 271 331
#     4  10  20  35  57  84 115 150 186 226 277 337
#     4  10  24  45  61  74 103 150 190 225 282 343
#     4  10  20  34  56  84 114 150 187 226 278 337
#     4  10  19  32  58  91 112 138 186 238 275 312
#     4  11  23  39  60  83 109 145 190 238 281 329
#
# _framework density 22.078298
#
# number of rings (size 3 to 8) (size 9 to 14) (size 15 to 20)
#    0.000    2.250    2.500    1.125    0.000    3.750 
#    0.000    1.875    0.000    1.125    0.000    0.000 
#    0.000    0.000    0.000    0.000    0.000    0.000 
#
# Total GULP energy -357158.183685 kJ/mol
# GULP energy per Si atom -5580.596620 kJ/mol
# Density = 2.202805 g / cm^3
# Si number density = 22.078298 Si / 1000 Ang^3
#
#
#
# Elastic Constant Matrix: (Units=GPa)
#
#
# Indices 1 2 3 4 5 6 
#
# 1 176.5196 79.4670 -4.2395 0.0000 0.0000 0.0000
# 2 79.4670 137.2896 -10.6213 0.0000 0.0000 0.0000
# 3 -4.2395 -10.6213 54.8925 0.0000 0.0000 0.0000
# 4 0.0000 0.0000 0.0000 23.0957 0.0000 0.0000
# 5 0.0000 0.0000 0.0000 0.0000 3.2531 0.0000
# 6 0.0000 0.0000 0.0000 0.0000 0.0000 39.2278
#
#
#
# Elastic Compliance Matrix: (Units=1/GPa)
#
#
# Indices 1 2 3 4 5 6 
#
# 1 0.007666 -0.004458 -0.000271 0.000000 0.000000 0.000000
# 2 -0.004458 0.009987 0.001588 0.000000 0.000000 0.000000
# 3 -0.000271 0.001588 0.018504 0.000000 0.000000 0.000000
# 4 0.000000 0.000000 0.000000 0.043298 0.000000 0.000000
# 5 0.000000 0.000000 0.000000 0.000000 0.307403 0.000000
# 6 0.000000 0.000000 0.000000 0.000000 0.000000 0.025492
#
#
# Mechanical properties :
#
#
# Convention : Reuss Voigt Hill
#
# Bulk Modulus (GPa) = 33.47198 55.32378 44.39788
# Shear Modulus (GPa) = 11.66619 33.38835 22.52727
#
# Velocity S-wave (km/s) = 2.30119 3.89301 3.19773
# Velocity P-wave (km/s) = 4.71743 6.73200 5.81265
#
# Compressibility (1/GPa) = 0.02987574
#
# Stress axis : x y z
#
# Youngs Moduli (GPa) = 130.45454 100.12906 54.04292
#
# Poissons Ratio (x) = 0.44637 0.01462
# Poissons Ratio (y) = 0.58156 -0.08583
# Poissons Ratio (z) = 0.03529 -0.15902
#
# Static dielectric constant tensor:
#      x y z
#    x 1.841810 0.000000 0.000000 
#    y 0.000000 1.791410 0.000000 
#    z 0.000000 0.000000 1.853730 
# 
# From -- ./inp_files/9751.got.cif
#   From: 2010.05.17/outbox.cif.g08.bks.cpg/sg55_5_cif.got.tgz:9751.got - 2010.06.03 13:27:54.
