data_PCOD9425859
_publ_section_title
;
Structure prediction by ZEFSAII (Michael W. Deem and Ramdas Pophale) SiO2 
 PCOD9425859
Probable space group: P B A M
;
_chemical_formula_sum "Si O2"
_cell_formula_units_Z 48
_cell_length_a 18.397231
_cell_length_b 16.036634
_cell_length_c 7.491664
_cell_angle_alpha 90.000000
_cell_angle_beta 90.000000
_cell_angle_gamma 90.000000
_cell_volume 2210.263084
_symmetry_space_group_name_H-M "P B A M"
_symmetry_group_IT_number 55
_symmetry_cell_setting 'orthorhombic'
loop_
_space_group_symop_operation_xyz
x,y,z
-x,-y,z
1/2+x,1/2-y,-z
1/2-x,1/2+y,-z
-x,-y,-z
x,y,-z
1/2-x,1/2+y,z
1/2+x,1/2-y,z
loop_
_atom_site_type_symbol
_atom_site_label
_atom_site_fract_x
_atom_site_fract_y
_atom_site_fract_z
Si Si1 0.291780 0.243946 0.780992
Si Si2 0.710999 0.424000 0.218569
Si Si3 0.457641 0.254054 0.212434
Si Si4 0.710931 0.090837 0.789486
Si Si5 0.956716 0.917212 0.781735
Si Si6 0.540875 0.082466 0.712554
O O1 0.254370 0.158086 0.724418
O O2 0.375103 0.250289 0.720280
O O3 0.245539 0.323686 0.719624
O O4 0.291674 0.243018 0.000000
O O5 0.750786 0.507725 0.281989
O O6 0.627115 0.420556 0.274099
O O7 0.711677 0.424249 0.000000
O O8 0.503246 0.333139 0.280392
O O9 0.498626 0.167011 0.240856
O O10 0.452024 0.266353 0.000000
O O11 0.624452 0.087106 0.770387
O O12 0.727108 0.091370 0.000000
O O13 0.956519 0.916298 0.000000
O O14 0.000000 0.000000 0.727094
O O15 0.541631 0.076145 0.500000
O O16 0.500000 0.000000 0.783839
#
# Coordination Sequence:
#
# PCOD9425859 Si02
#       6
#     8   8   8   8   8   8
#     4   9  17  29  48  78 107 129 164 213 258 303
#     4   9  16  26  43  70 102 130 160 205 254 300
#     4  10  19  33  56  82 108 140 176 214 261 320
#     4  10  19  33  55  79 103 134 173 215 260 315
#     4   9  16  27  47  78 111 137 164 206 260 311
#     4  11  24  39  53  73 105 142 181 227 273 313
#
# _framework density 21.716873
#
# number of rings (size 3 to 8) (size 9 to 14) (size 15 to 20)
#    0.000    2.333    0.000    3.500    0.000    9.333 
#    0.000    0.833    0.000    6.500    0.000    0.000 
#    0.000    0.000    0.000    0.000    0.000    0.000 
#
# Total GULP energy -268311.814330 kJ/mol
# GULP energy per Si atom -5589.829465 kJ/mol
# Density = 2.166744 g / cm^3
# Si number density = 21.716873 Si / 1000 Ang^3
#
#
#
# Elastic Constant Matrix: (Units=GPa)
#
#
# Indices 1 2 3 4 5 6 
#
# 1 201.7971 109.0868 -12.2610 0.0000 0.0000 0.0000
# 2 109.0868 222.9165 -4.6478 0.0000 0.0000 0.0000
# 3 -12.2610 -4.6478 55.6345 0.0000 0.0000 0.0000
# 4 0.0000 0.0000 0.0000 1.2067 0.0000 0.0000
# 5 0.0000 0.0000 0.0000 0.0000 -79.4991 0.0000
# 6 0.0000 0.0000 0.0000 0.0000 0.0000 50.9506
#
#
#
# Elastic Compliance Matrix: (Units=1/GPa)
#
#
# Indices 1 2 3 4 5 6 
#
# 1 0.006820 -0.003312 0.001226 0.000000 0.000000 0.000000
# 2 -0.003312 0.006102 -0.000220 0.000000 0.000000 0.000000
# 3 0.001226 -0.000220 0.018226 0.000000 0.000000 0.000000
# 4 0.000000 0.000000 0.000000 0.828734 0.000000 0.000000
# 5 0.000000 0.000000 0.000000 0.000000 -0.012579 0.000000
# 6 0.000000 0.000000 0.000000 0.000000 0.000000 0.019627
#
#
# Mechanical properties :
#
#
# Convention : Reuss Voigt Hill
#
# Bulk Modulus (GPa) = 37.68273 73.85602 55.76938
# Shear Modulus (GPa) = 5.67931 20.40965 13.04448
#
# Velocity S-wave (km/s) = 1.61890 3.06895 2.45350
# Velocity P-wave (km/s) = 4.56990 6.82938 5.81052
#
# Compressibility (1/GPa) = 0.02653735
#
# Stress axis : x y z
#
# Youngs Moduli (GPa) = 146.61850 163.87531 54.86564
#
# Poissons Ratio (x) = 0.54277 -0.06729
# Poissons Ratio (y) = 0.48561 0.01208
# Poissons Ratio (z) = -0.17982 0.03608
#
# Static dielectric constant tensor:
#      x y z
#    x 1.705520 0.000000 0.000000 
#    y 0.000000 1.756130 0.000000 
#    z 0.000000 0.000000 1.821440 
# 
# From -- ./inp_files/5582.got.cif
#   From: 2010.05.17/outbox.cif.g08.bks.cpg/sg55_3_cif.got.tgz:5582.got - 2010.06.03 13:27:54.
