data_PCOD9425657
_publ_section_title
;
Structure prediction by ZEFSAII (Michael W. Deem and Ramdas Pophale) SiO2 
 PCOD9425657
Probable space group: P B A M
;
_chemical_formula_sum "Si O2"
_cell_formula_units_Z 64
_cell_length_a 24.224889
_cell_length_b 15.790913
_cell_length_c 7.509108
_cell_angle_alpha 90.000000
_cell_angle_beta 90.000000
_cell_angle_gamma 90.000000
_cell_volume 2872.482471
_symmetry_space_group_name_H-M "P B A M"
_symmetry_group_IT_number 55
_symmetry_cell_setting 'orthorhombic'
loop_
_space_group_symop_operation_xyz
x,y,z
-x,-y,z
1/2+x,1/2-y,-z
1/2-x,1/2+y,-z
-x,-y,-z
x,y,-z
1/2-x,1/2+y,z
1/2+x,1/2-y,z
loop_
_atom_site_type_symbol
_atom_site_label
_atom_site_fract_x
_atom_site_fract_y
_atom_site_fract_z
Si Si1 0.868352 0.497361 0.714502
Si Si2 0.669870 0.572621 0.287707
Si Si3 0.755667 0.231000 0.717722
Si Si4 0.868067 0.684962 0.713958
Si Si5 0.539625 0.575295 0.214928
Si Si6 0.750818 0.426813 0.283128
Si Si7 0.024586 0.585467 0.207534
Si Si8 0.020856 0.241078 0.211056
O O1 0.870758 0.496808 0.500000
O O2 0.885146 0.591151 0.777892
O O3 0.806045 0.477515 0.765325
O O4 0.910087 0.426512 0.781071
O O5 0.678824 0.573215 0.500000
O O6 0.699854 0.659760 0.222573
O O7 0.604381 0.570273 0.257542
O O8 0.700056 0.486331 0.221999
O O9 0.758280 0.232003 0.500000
O O10 0.694274 0.201765 0.771199
O O11 0.758702 0.329380 0.776230
O O12 0.867266 0.682957 0.500000
O O13 0.913313 0.754130 0.766234
O O14 0.500000 0.500000 0.278915
O O15 0.511475 0.661142 0.283624
O O16 0.536671 0.574625 0.000000
O O17 0.747459 0.422442 0.500000
O O18 0.000000 0.500000 0.290419
O O19 0.002886 0.671732 0.288695
O O20 0.008358 0.586184 0.000000
O O21 0.010013 0.241085 0.000000
#
# Coordination Sequence:
#
# PCOD9425657 Si02
#       8
#     8   8   8   8   8   8   8   8
#     4  10  19  32  52  79 111 143 175 214 264 324
#     4  10  20  37  61  87 112 141 186 233 271 329
#     4   9  18  33  54  82 114 143 170 218 281 325
#     4  10  19  33  55  82 111 140 179 225 269 324
#     4  10  24  44  60  76 109 153 191 235 287 327
#     4   9  18  33  54  80 111 143 171 213 277 329
#     4  10  20  34  51  74 107 143 177 215 264 322
#     4  10  22  39  56  75 106 148 185 222 273 328
#
# _framework density 22.280379
#
# number of rings (size 3 to 8) (size 9 to 14) (size 15 to 20)
#    0.000    2.250    2.500    0.000    3.500    1.500 
#    0.000    1.250    0.000    1.500    0.000    0.000 
#    0.000    0.000    0.000    0.000    0.000    0.000 
#
# Total GULP energy -357246.562887 kJ/mol
# GULP energy per Si atom -5581.977545 kJ/mol
# Density = 2.222967 g / cm^3
# Si number density = 22.280379 Si / 1000 Ang^3
#
#
#
# Elastic Constant Matrix: (Units=GPa)
#
#
# Indices 1 2 3 4 5 6 
#
# 1 170.1313 92.7339 -5.5205 0.0000 0.0000 0.0000
# 2 92.7339 169.5100 13.8061 0.0000 0.0000 0.0000
# 3 -5.5205 13.8061 58.9470 0.0000 0.0000 0.0000
# 4 0.0000 0.0000 0.0000 -6.3296 0.0000 0.0000
# 5 0.0000 0.0000 0.0000 0.0000 27.3281 0.0000
# 6 0.0000 0.0000 0.0000 0.0000 0.0000 33.5003
#
#
#
# Elastic Compliance Matrix: (Units=1/GPa)
#
#
# Indices 1 2 3 4 5 6 
#
# 1 0.008588 -0.004856 0.001942 0.000000 0.000000 0.000000
# 2 -0.004856 0.008760 -0.002507 0.000000 0.000000 0.000000
# 3 0.001942 -0.002507 0.017733 0.000000 0.000000 0.000000
# 4 0.000000 0.000000 0.000000 -0.157989 0.000000 0.000000
# 5 0.000000 0.000000 0.000000 0.000000 0.036592 0.000000
# 6 0.000000 0.000000 0.000000 0.000000 0.000000 0.029850
#
#
# Mechanical properties :
#
#
# Convention : Reuss Voigt Hill
#
# Bulk Modulus (GPa) = 41.25577 66.73636 53.99607
# Shear Modulus (GPa) = -133.18175 30.73768 -51.22204
#
# Velocity S-wave (km/s) = -7.73984 3.71831 -4.79996
# Velocity P-wave (km/s) = 7.83050 6.96078 2.53616
#
# Compressibility (1/GPa) = 0.02423903
#
# Stress axis : x y z
#
# Youngs Moduli (GPa) = 116.44346 114.15199 56.39108
#
# Poissons Ratio (x) = 0.55436 -0.10949
# Poissons Ratio (y) = 0.56549 0.14135
# Poissons Ratio (z) = -0.22610 0.28613
#
# Static dielectric constant tensor:
#      x y z
#    x 1.802100 0.000000 0.000000 
#    y 0.000000 1.850700 0.000000 
#    z 0.000000 0.000000 1.838880 
# 
# From -- ./inp_files/9674.got.cif
#   From: 2010.05.17/outbox.cif.g08.bks.cpg/sg55_5_cif.got.tgz:9674.got - 2010.06.03 13:27:54.
