data_PCOD9425102
_publ_section_title
;
Structure prediction by ZEFSAII (Michael W. Deem and Ramdas Pophale) SiO2 
 PCOD9425102
Probable space group: P B A M
;
_chemical_formula_sum "Si O2"
_cell_formula_units_Z 64
_cell_length_a 29.489712
_cell_length_b 12.844311
_cell_length_c 7.491813
_cell_angle_alpha 90.000000
_cell_angle_beta 90.000000
_cell_angle_gamma 90.000000
_cell_volume 2837.711711
_symmetry_space_group_name_H-M "P B A M"
_symmetry_group_IT_number 55
_symmetry_cell_setting 'orthorhombic'
loop_
_space_group_symop_operation_xyz
x,y,z
-x,-y,z
1/2+x,1/2-y,-z
1/2-x,1/2+y,-z
-x,-y,-z
x,y,-z
1/2-x,1/2+y,z
1/2+x,1/2-y,z
loop_
_atom_site_type_symbol
_atom_site_label
_atom_site_fract_x
_atom_site_fract_y
_atom_site_fract_z
Si Si1 0.308251 0.570555 0.704920
Si Si2 0.431493 0.374353 0.790202
Si Si3 0.062138 0.330411 0.281648
Si Si4 0.535839 0.841869 0.295823
Si Si5 0.788182 0.378487 0.708389
Si Si6 0.589514 0.398060 0.715207
Si Si7 0.672327 0.655516 0.785049
Si Si8 0.379779 0.024329 0.281784
O O1 0.310994 0.608291 0.500000
O O2 0.262166 0.614207 0.787906
O O3 0.358365 0.591337 0.782589
O O4 0.303204 0.446175 0.711589
O O5 0.461326 0.283945 0.704372
O O6 0.438238 0.497536 0.762676
O O7 0.380042 0.352793 0.726286
O O8 0.433951 0.354431 0.000000
O O9 0.060940 0.329140 0.500000
O O10 0.070540 0.212282 0.222635
O O11 0.101240 0.411357 0.231517
O O12 0.013006 0.369391 0.217442
O O13 0.534838 0.879328 0.500000
O O14 0.581878 0.892203 0.220796
O O15 0.783122 0.408414 0.500000
O O16 0.805804 0.261239 0.720507
O O17 0.829585 0.447203 0.783638
O O18 0.590704 0.397059 0.500000
O O19 0.673118 0.652249 0.000000
O O20 0.377549 0.029876 0.500000
#
# Coordination Sequence:
#
# PCOD9425102 Si02
#       8
#     8   8   8   8   8   8   8   8
#     4   9  19  33  52  77 103 134 172 215 264 311
#     4  10  20  34  53  75 102 136 175 218 259 305
#     4   9  18  31  50  77 106 136 172 213 263 315
#     4  10  18  31  54  79 102 134 174 216 260 313
#     4  10  19  32  54  82 105 132 172 217 263 311
#     4   9  18  34  53  74 104 139 173 215 261 310
#     4  10  20  34  52  73 102 138 172 212 258 309
#     4   9  17  30  51  79 108 133 166 216 264 310
#
# _framework density 22.553383
#
# number of rings (size 3 to 8) (size 9 to 14) (size 15 to 20)
#    0.000    2.500    1.250    1.125    0.000    4.500 
#    0.000    6.875    0.000    3.750    0.000    0.000 
#    0.000    0.000    0.000    0.000    0.000    0.000 
#
# Total GULP energy -357229.839965 kJ/mol
# GULP energy per Si atom -5581.716249 kJ/mol
# Density = 2.250205 g / cm^3
# Si number density = 22.553383 Si / 1000 Ang^3
#
#
#
# Elastic Constant Matrix: (Units=GPa)
#
#
# Indices 1 2 3 4 5 6 
#
# 1 59.5182 -2.1283 0.7100 0.0000 0.0000 0.0000
# 2 -2.1283 67.8926 -16.4222 0.0000 0.0000 0.0000
# 3 0.7100 -16.4222 67.2523 0.0000 0.0000 0.0000
# 4 0.0000 0.0000 0.0000 551.6899 0.0000 0.0000
# 5 0.0000 0.0000 0.0000 0.0000 -5.4746 0.0000
# 6 0.0000 0.0000 0.0000 0.0000 0.0000 15.2204
#
#
#
# Elastic Compliance Matrix: (Units=1/GPa)
#
#
# Indices 1 2 3 4 5 6 
#
# 1 0.016821 0.000515 -0.000052 0.000000 0.000000 0.000000
# 2 0.000515 0.015670 0.003821 0.000000 0.000000 0.000000
# 3 -0.000052 0.003821 0.015803 0.000000 0.000000 0.000000
# 4 0.000000 0.000000 0.000000 0.001813 0.000000 0.000000
# 5 0.000000 0.000000 0.000000 0.000000 -0.182661 0.000000
# 6 0.000000 0.000000 0.000000 0.000000 0.000000 0.065701
#
#
# Mechanical properties :
#
#
# Convention : Reuss Voigt Hill
#
# Bulk Modulus (GPa) = 17.58688 17.66466 17.62577
# Shear Modulus (GPa) = -88.54623 126.45405 18.95391
#
# Velocity S-wave (km/s) = -6.27264 7.49603 2.90211
# Velocity P-wave (km/s) = 6.68180 9.09780 4.36598
#
# Compressibility (1/GPa) = 0.05686056
#
# Stress axis : x y z
#
# Youngs Moduli (GPa) = 59.45088 63.81825 63.27931
#
# Poissons Ratio (x) = -0.03285 0.00328
# Poissons Ratio (y) = -0.03060 -0.24178
# Poissons Ratio (z) = 0.00308 -0.24384
#
# Static dielectric constant tensor:
#      x y z
#    x 1.848830 0.000000 0.000000 
#    y 0.000000 1.813230 0.000000 
#    z 0.000000 0.000000 1.939710 
# 
# From -- ./inp_files/10835.got.cif
#   From: 2010.05.17/outbox.cif.g08.bks.cpg/sg55_6_cif.got.tgz:10835.got - 2010.06.03 13:27:54.
