data_PCOD9425362
_publ_section_title
;
Structure prediction by ZEFSAII (Michael W. Deem and Ramdas Pophale) SiO2 
 PCOD9425362
Probable space group: P B A M
;
_chemical_formula_sum "Si O2"
_cell_formula_units_Z 48
_cell_length_a 7.005818
_cell_length_b 15.975968
_cell_length_c 17.630788
_cell_angle_alpha 90.000000
_cell_angle_beta 90.000000
_cell_angle_gamma 90.000000
_cell_volume 1973.321084
_symmetry_space_group_name_H-M "P B A M"
_symmetry_group_IT_number 55
_symmetry_cell_setting 'orthorhombic'
loop_
_space_group_symop_operation_xyz
x,y,z
-x,-y,z
1/2+x,1/2-y,-z
1/2-x,1/2+y,-z
-x,-y,-z
x,y,-z
1/2-x,1/2+y,z
1/2+x,1/2-y,z
loop_
_atom_site_type_symbol
_atom_site_label
_atom_site_fract_x
_atom_site_fract_y
_atom_site_fract_z
Si Si1 0.871992 0.318000 0.681934
Si Si2 0.780594 0.067474 0.837612
Si Si3 0.664948 0.879304 0.161153
Si Si4 0.885421 0.318958 0.000000
Si Si5 0.824090 0.127214 0.000000
Si Si6 0.226466 0.525871 0.587234
Si Si7 0.813525 0.132816 0.320796
O O1 0.797556 0.317803 0.768679
O O2 0.757762 0.387499 0.634049
O O3 0.884336 0.223423 0.652480
O O4 0.085603 0.352854 0.684119
O O5 0.563251 0.102677 0.840835
O O6 0.876078 0.110351 0.764814
O O7 0.759529 0.968870 0.823689
O O8 0.868289 0.083431 0.920285
O O9 0.714299 0.845078 0.078292
O O10 0.093185 0.361810 0.000000
O O11 0.907547 0.219925 0.000000
O O12 0.280370 0.538059 0.500000
O O13 0.333075 0.447256 0.625360
O O14 0.000000 0.500000 0.588112
#
# Coordination Sequence:
#
# PCOD9425362 Si02
#       7
#     8   8   8   4   4   8   8
#     4  10  19  33  54  77 102 132 168 208 249 296
#     4   9  16  29  49  71  94 127 170 207 238 284
#     4   9  16  29  49  71  94 127 170 207 238 284
#     4  10  19  29  45  69  97 126 162 205 245 287
#     4  10  19  29  45  69  97 126 162 205 245 287
#     4   9  18  34  55  76 100 134 171 203 243 303
#     4  10  19  33  54  77 102 132 168 208 249 296
#
# _framework density 24.324477000000002
#
# number of rings (size 3 to 8) (size 9 to 14) (size 15 to 20)
#    0.000    2.500    1.667    1.500    0.000    2.667 
#    0.000    0.833    0.000    5.000    0.000    0.000 
#    0.000    0.000    0.000    0.000    0.000    0.000 
#
# Total GULP energy -268615.300939 kJ/mol
# GULP energy per Si atom -5596.152103 kJ/mol
# Density = 2.426911 g / cm^3
# Si number density = 24.324477 Si / 1000 Ang^3
#
#
#
# Elastic Constant Matrix: (Units=GPa)
#
#
# Indices 1 2 3 4 5 6 
#
# 1 75.4829 14.0893 17.2507 0.0000 0.0000 0.0000
# 2 14.0893 152.6445 90.5008 0.0000 0.0000 0.0000
# 3 17.2507 90.5008 170.1450 0.0000 0.0000 0.0000
# 4 0.0000 0.0000 0.0000 11.0395 0.0000 0.0000
# 5 0.0000 0.0000 0.0000 0.0000 -0.8005 0.0000
# 6 0.0000 0.0000 0.0000 0.0000 0.0000 48.5059
#
#
#
# Elastic Compliance Matrix: (Units=1/GPa)
#
#
# Indices 1 2 3 4 5 6 
#
# 1 0.013605 -0.000640 -0.001039 0.000000 0.000000 0.000000
# 2 -0.000640 0.009599 -0.005041 0.000000 0.000000 0.000000
# 3 -0.001039 -0.005041 0.008664 0.000000 0.000000 0.000000
# 4 0.000000 0.000000 0.000000 0.090584 0.000000 0.000000
# 5 0.000000 0.000000 0.000000 0.000000 -1.249211 0.000000
# 6 0.000000 0.000000 0.000000 0.000000 0.000000 0.020616
#
#
# Mechanical properties :
#
#
# Convention : Reuss Voigt Hill
#
# Bulk Modulus (GPa) = 54.26389 71.32824 62.79606
# Shear Modulus (GPa) = -4.60167 30.17775 12.78804
#
# Velocity S-wave (km/s) = -1.37691 3.52608 2.29536
# Velocity P-wave (km/s) = 4.45297 6.77975 5.73559
#
# Compressibility (1/GPa) = 0.01842846
#
# Stress axis : x y z
#
# Youngs Moduli (GPa) = 73.50282 104.17932 115.42118
#
# Poissons Ratio (x) = 0.06664 0.11994
# Poissons Ratio (y) = 0.04702 0.58182
# Poissons Ratio (z) = 0.07638 0.52515
#
# Static dielectric constant tensor:
#      x y z
#    x 2.034750 0.000000 0.000000 
#    y 0.000000 1.872800 0.000000 
#    z 0.000000 0.000000 1.888160 
# 
# From -- ./inp_files/20830.got.cif
#   From: 2010.05.17/outbox.cif.g08.bks.cpg/sg55_11_cif.got.tgz:20830.got - 2010.06.03 13:27:54.
