data_PCOD9425034
_publ_section_title
;
Structure prediction by ZEFSAII (Michael W. Deem and Ramdas Pophale) SiO2 
 PCOD9425034
Probable space group: P B A M
;
_chemical_formula_sum "Si O2"
_cell_formula_units_Z 64
_cell_length_a 30.774806
_cell_length_b 9.968865
_cell_length_c 11.609410
_cell_angle_alpha 90.000000
_cell_angle_beta 90.000000
_cell_angle_gamma 90.000000
_cell_volume 3561.649575
_symmetry_space_group_name_H-M "P B A M"
_symmetry_group_IT_number 55
_symmetry_cell_setting 'orthorhombic'
loop_
_space_group_symop_operation_xyz
x,y,z
-x,-y,z
1/2+x,1/2-y,-z
1/2-x,1/2+y,-z
-x,-y,-z
x,y,-z
1/2-x,1/2+y,z
1/2+x,1/2-y,z
loop_
_atom_site_type_symbol
_atom_site_label
_atom_site_fract_x
_atom_site_fract_y
_atom_site_fract_z
Si Si1 0.624884 0.000686 0.708390
Si Si2 0.156855 0.031051 0.862161
Si Si3 0.219057 0.439446 0.371405
Si Si4 0.006993 0.662338 0.128681
Si Si5 0.242064 0.177243 0.232630
Si Si6 0.165599 0.726679 0.133911
Si Si7 0.092048 0.257771 0.866373
Si Si8 0.537012 0.884533 0.626273
O O1 0.667479 0.038051 0.636914
O O2 0.639019 0.880251 0.792667
O O3 0.583786 0.954350 0.635200
O O4 0.610775 0.126283 0.786036
O O5 0.199184 0.112452 0.821782
O O6 0.114124 0.117225 0.831983
O O7 0.157899 0.877738 0.820456
O O8 0.158820 0.022182 0.000000
O O9 0.232011 0.401967 0.500000
O O10 0.231434 0.322359 0.283417
O O11 0.242024 0.576052 0.331907
O O12 0.959995 0.732563 0.137945
O O13 0.000000 0.500000 0.126206
O O14 0.031232 0.690432 0.249924
O O15 0.025607 0.695926 0.000000
O O16 0.283262 0.192333 0.148276
O O17 0.153533 0.718601 0.000000
O O18 0.104439 0.283702 0.000000
O O19 0.533406 0.815329 0.500000
O O20 0.500000 0.000000 0.626805
#
# Coordination Sequence:
#
# PCOD9425034 Si02
#       8
#     8   8   8   8   8   8   8   8
#     4  11  20  34  54  82 110 141 185 230 274 333
#     4  10  20  35  54  79 112 144 177 225 278 338
#     4  11  23  36  53  75 105 144 188 235 275 327
#     4   9  16  28  49  80 112 139 173 225 278 330
#     4  11  20  37  55  75 105 140 187 229 281 331
#     4  10  22  36  53  79 112 147 180 224 283 340
#     4  10  18  30  52  82 109 138 176 222 277 329
#     4  10  19  32  53  84 117 146 178 231 288 333
#
# _framework density 17.969203
#
# number of rings (size 3 to 8) (size 9 to 14) (size 15 to 20)
#    0.000    1.750    5.000    1.500    0.000    0.500 
#    0.000    0.000    0.000    0.750    0.000    4.375 
#    0.000    0.000    0.000    0.000    0.000    0.000 
#
# Total GULP energy -356722.706027 kJ/mol
# GULP energy per Si atom -5573.792282 kJ/mol
# Density = 1.792830 g / cm^3
# Si number density = 17.969203 Si / 1000 Ang^3
#
#
#
# Elastic Constant Matrix: (Units=GPa)
#
#
# Indices 1 2 3 4 5 6 
#
# 1 49.5228 0.0579 6.8331 0.0000 0.0000 0.0000
# 2 0.0579 47.2765 14.1814 0.0000 0.0000 0.0000
# 3 6.8331 14.1814 91.4707 0.0000 0.0000 0.0000
# 4 0.0000 0.0000 0.0000 -2.3640 0.0000 0.0000
# 5 0.0000 0.0000 0.0000 0.0000 30.9199 0.0000
# 6 0.0000 0.0000 0.0000 0.0000 0.0000 11.3683
#
#
#
# Elastic Compliance Matrix: (Units=1/GPa)
#
#
# Indices 1 2 3 4 5 6 
#
# 1 0.020412 0.000453 -0.001595 0.000000 0.000000 0.000000
# 2 0.000453 0.022194 -0.003475 0.000000 0.000000 0.000000
# 3 -0.001595 -0.003475 0.011590 0.000000 0.000000 0.000000
# 4 0.000000 0.000000 0.000000 -0.423018 0.000000 0.000000
# 5 0.000000 0.000000 0.000000 0.000000 0.032342 0.000000
# 6 0.000000 0.000000 0.000000 0.000000 0.000000 0.087964
#
#
# Mechanical properties :
#
#
# Convention : Reuss Voigt Hill
#
# Bulk Modulus (GPa) = 22.24018 25.60165 23.92091
# Shear Modulus (GPa) = -22.29205 19.13135 -1.58035
#
# Velocity S-wave (km/s) = -3.52599 3.26647 -0.93882
# Velocity P-wave (km/s) = 2.04283 5.33900 3.48796
#
# Compressibility (1/GPa) = 0.04496367
#
# Stress axis : x y z
#
# Youngs Moduli (GPa) = 48.99012 45.05743 86.27867
#
# Poissons Ratio (x) = -0.02043 0.13763
# Poissons Ratio (y) = -0.02222 0.29980
# Poissons Ratio (z) = 0.07815 0.15656
#
# Static dielectric constant tensor:
#      x y z
#    x 1.619250 0.000000 0.000000 
#    y 0.000000 1.597070 0.000000 
#    z 0.000000 0.000000 1.628910 
# 
# From -- ./inp_files/12623.got.cif
#   From: 2010.05.17/outbox.cif.g08.bks.cpg/sg55_7_cif.got.tgz:12623.got - 2010.06.03 13:27:54.
