data_PCOD9425497
_publ_section_title
;
Structure prediction by ZEFSAII (Michael W. Deem and Ramdas Pophale) SiO2 
 PCOD9425497
Probable space group: P B A M
;
_chemical_formula_sum "Si O2"
_cell_formula_units_Z 64
_cell_length_a 16.546256
_cell_length_b 23.634660
_cell_length_c 8.172428
_cell_angle_alpha 90.000000
_cell_angle_beta 90.000000
_cell_angle_gamma 90.000000
_cell_volume 3195.951658
_symmetry_space_group_name_H-M "P B A M"
_symmetry_group_IT_number 55
_symmetry_cell_setting 'orthorhombic'
loop_
_space_group_symop_operation_xyz
x,y,z
-x,-y,z
1/2+x,1/2-y,-z
1/2-x,1/2+y,-z
-x,-y,-z
x,y,-z
1/2-x,1/2+y,z
1/2+x,1/2-y,z
loop_
_atom_site_type_symbol
_atom_site_label
_atom_site_fract_x
_atom_site_fract_y
_atom_site_fract_z
Si Si1 0.564309 0.356215 0.197458
Si Si2 0.985149 0.437539 0.687079
Si Si3 0.385774 0.160777 0.813471
Si Si4 0.061630 0.948040 0.194124
Si Si5 0.760776 0.031703 0.690827
Si Si6 0.137516 0.379341 0.807456
Si Si7 0.763933 0.904165 0.306101
Si Si8 0.543128 0.228662 0.198389
O O1 0.487450 0.393021 0.251811
O O2 0.648034 0.386284 0.243208
O O3 0.558698 0.291838 0.258389
O O4 0.561445 0.355240 0.000000
O O5 0.953264 0.438573 0.500000
O O6 0.929438 0.399923 0.800237
O O7 0.000000 0.500000 0.747445
O O8 0.072319 0.409544 0.693703
O O9 0.300085 0.145662 0.733495
O O10 0.456607 0.202081 0.743680
O O11 0.370765 0.177772 0.000000
O O12 0.143574 0.960737 0.287845
O O13 0.080748 0.942337 0.000000
O O14 0.000000 0.000000 0.210693
O O15 0.737969 0.033715 0.500000
O O16 0.718562 0.085379 0.777162
O O17 0.740649 0.967894 0.755486
O O18 0.118870 0.313397 0.768886
O O19 0.116823 0.385867 0.000000
O O20 0.768464 0.909871 0.500000
O O21 0.535997 0.230440 0.000000
#
# Coordination Sequence:
#
# PCOD9425497 Si02
#       8
#     8   8   8   8   8   8   8   8
#     4  10  20  39  64  83 108 147 189 237 287 339
#     4  10  19  31  49  76 112 148 182 223 280 338
#     4  10  20  35  56  81 110 147 192 235 275 332
#     4  10  20  36  60  88 111 138 186 238 285 338
#     4  11  23  37  56  83 120 155 185 229 290 347
#     4  10  20  35  56  81 111 146 191 235 272 330
#     4  11  23  37  55  84 118 150 187 233 287 343
#     4   8  18  38  60  83 110 146 192 235 282 334
#
# _framework density 20.025334999999998
#
# number of rings (size 3 to 8) (size 9 to 14) (size 15 to 20)
#    0.000    2.000    1.250    3.375    0.000    6.250 
#    2.250    3.750    0.000    0.000    0.000    0.000 
#    0.000    0.000    0.000    0.000    0.000    0.000 
#
# Total GULP energy -356667.765616 kJ/mol
# GULP energy per Si atom -5572.933838 kJ/mol
# Density = 1.997976 g / cm^3
# Si number density = 20.025335 Si / 1000 Ang^3
#
#
#
# Elastic Constant Matrix: (Units=GPa)
#
#
# Indices 1 2 3 4 5 6 
#
# 1 72.0916 20.3626 5.0625 0.0000 0.0000 0.0000
# 2 20.3626 122.6246 14.4818 0.0000 0.0000 0.0000
# 3 5.0625 14.4818 20.0508 0.0000 0.0000 0.0000
# 4 0.0000 0.0000 0.0000 -60.7321 0.0000 0.0000
# 5 0.0000 0.0000 0.0000 0.0000 7.1148 0.0000
# 6 0.0000 0.0000 0.0000 0.0000 0.0000 26.3989
#
#
#
# Elastic Compliance Matrix: (Units=1/GPa)
#
#
# Indices 1 2 3 4 5 6 
#
# 1 0.014636 -0.002180 -0.002121 0.000000 0.000000 0.000000
# 2 -0.002180 0.009240 -0.006123 0.000000 0.000000 0.000000
# 3 -0.002121 -0.006123 0.054831 0.000000 0.000000 0.000000
# 4 0.000000 0.000000 0.000000 -0.016466 0.000000 0.000000
# 5 0.000000 0.000000 0.000000 0.000000 0.140552 0.000000
# 6 0.000000 0.000000 0.000000 0.000000 0.000000 0.037880
#
#
# Mechanical properties :
#
#
# Convention : Reuss Voigt Hill
#
# Bulk Modulus (GPa) = 17.28335 32.73121 25.00728
# Shear Modulus (GPa) = 17.80573 6.21365 12.00969
#
# Velocity S-wave (km/s) = 2.98511 1.76341 2.45158
# Velocity P-wave (km/s) = 4.53108 4.53062 4.53085
#
# Compressibility (1/GPa) = 0.05785915
#
# Stress axis : x y z
#
# Youngs Moduli (GPa) = 68.32507 108.22376 18.23773
#
# Poissons Ratio (x) = 0.23592 0.03868
# Poissons Ratio (y) = 0.14894 0.11168
# Poissons Ratio (z) = 0.14491 0.66269
#
# Static dielectric constant tensor:
#      x y z
#    x 1.683690 0.000000 0.000000 
#    y 0.000000 1.665130 0.000000 
#    z 0.000000 0.000000 1.705130 
# 
# From -- ./inp_files/6665.got.cif
#   From: 2010.05.17/outbox.cif.g08.bks.cpg/sg55_4_cif.got.tgz:6665.got - 2010.06.03 13:27:54.
