data_PCOD9425460
_publ_section_title
;
Structure prediction by ZEFSAII (Michael W. Deem and Ramdas Pophale) SiO2 
 PCOD9425460
Probable space group: P B A M
;
_chemical_formula_sum "Si O2"
_cell_formula_units_Z 64
_cell_length_a 18.965106
_cell_length_b 13.626389
_cell_length_c 14.156849
_cell_angle_alpha 90.000000
_cell_angle_beta 90.000000
_cell_angle_gamma 90.000000
_cell_volume 3658.496611
_symmetry_space_group_name_H-M "P B A M"
_symmetry_group_IT_number 55
_symmetry_cell_setting 'orthorhombic'
loop_
_space_group_symop_operation_xyz
x,y,z
-x,-y,z
1/2+x,1/2-y,-z
1/2-x,1/2+y,-z
-x,-y,-z
x,y,-z
1/2-x,1/2+y,z
1/2+x,1/2-y,z
loop_
_atom_site_type_symbol
_atom_site_label
_atom_site_fract_x
_atom_site_fract_y
_atom_site_fract_z
Si Si1 0.167147 0.502081 0.607204
Si Si2 0.078053 0.705462 0.605737
Si Si3 0.737483 0.134244 0.889668
Si Si4 0.362015 0.253661 0.797546
Si Si5 0.512546 0.222533 0.110380
Si Si6 0.956434 0.601356 0.291832
Si Si7 0.765192 0.439779 0.214206
Si Si8 0.147799 0.167225 0.891411
O O1 0.184220 0.473383 0.500000
O O2 0.120548 0.601923 0.602361
O O3 0.118465 0.422670 0.661236
O O4 0.230955 0.528386 0.676720
O O5 0.077915 0.746395 0.500000
O O6 0.114386 0.767193 0.688917
O O7 0.000404 0.676467 0.642661
O O8 0.808340 0.165641 0.835277
O O9 0.683654 0.225142 0.880348
O O10 0.710827 0.032747 0.847035
O O11 0.752573 0.122621 0.000000
O O12 0.432423 0.245357 0.860183
O O13 0.319638 0.150067 0.801445
O O14 0.540380 0.142844 0.185895
O O15 0.565021 0.315194 0.122639
O O16 0.517362 0.193012 0.000000
O O17 0.000000 0.500000 0.291698
O O18 0.689409 0.403835 0.178201
O O19 0.160685 0.136077 0.000000
#
# Coordination Sequence:
#
# PCOD9425460 Si02
#       8
#     8   8   8   8   8   8   8   8
#     4   9  16  27  45  68  93 122 157 197 239 283
#     4   8  14  26  45  67  95 129 157 190 239 289
#     4  10  19  32  50  71  97 130 165 199 241 295
#     4   9  19  33  50  72  97 126 168 213 245 287
#     4  10  19  31  47  68  99 133 163 203 248 286
#     4   9  16  26  42  70 102 129 157 192 242 302
#     4  10  19  33  51  69  94 130 166 197 244 303
#     4   9  19  33  48  69  97 127 158 198 246 294
#
# _framework density 17.493524000000001
#
# number of rings (size 3 to 8) (size 9 to 14) (size 15 to 20)
#    0.000    2.750    0.000    2.625    0.000    3.250 
#    0.000    3.125    0.000   11.250    0.000    0.000 
#    0.000    5.000    0.000    0.000    0.000    0.000 
#
# Total GULP energy -356520.605072 kJ/mol
# GULP energy per Si atom -5570.634454 kJ/mol
# Density = 1.745371 g / cm^3
# Si number density = 17.493524 Si / 1000 Ang^3
#
#
#
# Elastic Constant Matrix: (Units=GPa)
#
#
# Indices 1 2 3 4 5 6 
#
# 1 66.4397 5.7261 37.2642 0.0000 0.0000 0.0000
# 2 5.7261 20.3020 19.2349 0.0000 0.0000 0.0000
# 3 37.2642 19.2349 128.9510 0.0000 0.0000 0.0000
# 4 0.0000 0.0000 0.0000 14.5404 0.0000 0.0000
# 5 0.0000 0.0000 0.0000 0.0000 16.5008 0.0000
# 6 0.0000 0.0000 0.0000 0.0000 0.0000 14.5244
#
#
#
# Elastic Compliance Matrix: (Units=1/GPa)
#
#
# Indices 1 2 3 4 5 6 
#
# 1 0.017963 -0.000173 -0.005165 0.000000 0.000000 0.000000
# 2 -0.000173 0.057365 -0.008507 0.000000 0.000000 0.000000
# 3 -0.005165 -0.008507 0.010516 0.000000 0.000000 0.000000
# 4 0.000000 0.000000 0.000000 0.068774 0.000000 0.000000
# 5 0.000000 0.000000 0.000000 0.000000 0.060603 0.000000
# 6 0.000000 0.000000 0.000000 0.000000 0.000000 0.068849
#
#
# Mechanical properties :
#
#
# Convention : Reuss Voigt Hill
#
# Bulk Modulus (GPa) = 17.19551 37.79366 27.49459
# Shear Modulus (GPa) = 15.09912 19.34430 17.22171
#
# Velocity S-wave (km/s) = 2.94109 3.32896 3.14102
# Velocity P-wave (km/s) = 4.62432 6.03550 5.37641
#
# Compressibility (1/GPa) = 0.05815470
#
# Stress axis : x y z
#
# Youngs Moduli (GPa) = 55.66947 17.43236 95.08911
#
# Poissons Ratio (x) = 0.00301 0.49116
# Poissons Ratio (y) = 0.00961 0.80891
# Poissons Ratio (z) = 0.28755 0.14829
#
# Static dielectric constant tensor:
#      x y z
#    x 1.611020 0.000000 0.000000 
#    y 0.000000 1.580170 0.000000 
#    z 0.000000 0.000000 1.607990 
# 
# From -- ./inp_files/19569.got.cif
#   From: 2010.05.17/outbox.cif.g08.bks.cpg/sg55_10_cif.got.tgz:19569.got - 2010.06.03 13:27:54.
