data_PCOD9425551
_publ_section_title
;
Structure prediction by ZEFSAII (Michael W. Deem and Ramdas Pophale) SiO2 
 PCOD9425551
Probable space group: P B A M
;
_chemical_formula_sum "Si O2"
_cell_formula_units_Z 44
_cell_length_a 15.057134
_cell_length_b 11.157803
_cell_length_c 14.140058
_cell_angle_alpha 90.000000
_cell_angle_beta 90.000000
_cell_angle_gamma 90.000000
_cell_volume 2375.593868
_symmetry_space_group_name_H-M "P B A M"
_symmetry_group_IT_number 55
_symmetry_cell_setting 'orthorhombic'
loop_
_space_group_symop_operation_xyz
x,y,z
-x,-y,z
1/2+x,1/2-y,-z
1/2-x,1/2+y,-z
-x,-y,-z
x,y,-z
1/2-x,1/2+y,z
1/2+x,1/2-y,z
loop_
_atom_site_type_symbol
_atom_site_label
_atom_site_fract_x
_atom_site_fract_y
_atom_site_fract_z
Si Si1 0.084266 0.863207 0.108578
Si Si2 0.919898 0.098476 0.391484
Si Si3 0.000000 0.500000 0.816760
Si Si4 0.464141 0.749903 0.743803
Si Si5 0.675477 0.884092 0.893366
Si Si6 0.670910 0.450085 0.753754
O O1 0.159301 0.758961 0.114169
O O2 0.999575 0.800457 0.155828
O O3 0.110661 0.976447 0.171068
O O4 0.071014 0.893470 0.000000
O O5 0.901383 0.127917 0.500000
O O6 0.961089 0.207628 0.331354
O O7 0.837487 0.036426 0.337476
O O8 0.000000 0.000000 0.388692
O O9 0.038529 0.391570 0.753869
O O10 0.080332 0.552864 0.878630
O O11 0.374212 0.676507 0.726458
O O12 0.738587 0.927457 0.809199
O O13 0.709069 0.910479 0.000000
#
# Coordination Sequence:
#
# PCOD9425551 Si02
#       6
#     8   8   4   8   8   8
#     4   9  18  32  47  72 106 139 182 225 268 323
#     4   8  15  32  58  84 108 138 181 231 283 335
#     4  10  21  38  53  74 116 160 183 220 283 344
#     4   9  19  33  53  79 106 145 183 225 277 335
#     4  10  21  34  50  75 110 152 191 226 272 330
#     4  10  19  31  53  81 105 138 188 234 275 322
#
# _framework density 18.521685000000002
#
# number of rings (size 3 to 8) (size 9 to 14) (size 15 to 20)
#    0.000    2.727    0.000    2.455    2.545    2.909 
#    0.000    0.455    0.000   10.909    0.000    0.000 
#    0.000    0.000    0.000    0.000    0.000    0.000 
#
# Total GULP energy -245111.720358 kJ/mol
# GULP energy per Si atom -5570.720917 kJ/mol
# Density = 1.847953 g / cm^3
# Si number density = 18.521685 Si / 1000 Ang^3
#
#
#
# Elastic Constant Matrix: (Units=GPa)
#
#
# Indices 1 2 3 4 5 6 
#
# 1 54.5905 8.8464 13.2964 0.0000 0.0000 0.0000
# 2 8.8464 102.2057 26.2159 0.0000 0.0000 0.0000
# 3 13.2964 26.2159 110.3187 0.0000 0.0000 0.0000
# 4 0.0000 0.0000 0.0000 7.3966 0.0000 0.0000
# 5 0.0000 0.0000 0.0000 0.0000 20.1401 0.0000
# 6 0.0000 0.0000 0.0000 0.0000 0.0000 16.3825
#
#
#
# Elastic Compliance Matrix: (Units=1/GPa)
#
#
# Indices 1 2 3 4 5 6 
#
# 1 0.018993 -0.001125 -0.002022 0.000000 0.000000 0.000000
# 2 -0.001125 0.010486 -0.002356 0.000000 0.000000 0.000000
# 3 -0.002022 -0.002356 0.009868 0.000000 0.000000 0.000000
# 4 0.000000 0.000000 0.000000 0.135198 0.000000 0.000000
# 5 0.000000 0.000000 0.000000 0.000000 0.049652 0.000000
# 6 0.000000 0.000000 0.000000 0.000000 0.000000 0.061041
#
#
# Mechanical properties :
#
#
# Convention : Reuss Voigt Hill
#
# Bulk Modulus (GPa) = 35.28509 40.42579 37.85544
# Shear Modulus (GPa) = 16.35637 23.36759 19.86198
#
# Velocity S-wave (km/s) = 2.97491 3.55580 3.27825
# Velocity P-wave (km/s) = 5.55807 6.22349 5.90017
#
# Compressibility (1/GPa) = 0.02834058
#
# Stress axis : x y z
#
# Youngs Moduli (GPa) = 52.65094 95.36555 101.33513
#
# Poissons Ratio (x) = 0.10732 0.20487
# Poissons Ratio (y) = 0.05925 0.23877
# Poissons Ratio (z) = 0.10645 0.22470
#
# Static dielectric constant tensor:
#      x y z
#    x 1.666520 0.000000 0.000000 
#    y 0.000000 1.664250 0.000000 
#    z 0.000000 0.000000 1.636180 
# 
# From -- ./inp_files/18835.got.cif
#   From: 2010.05.17/outbox.cif.g08.bks.cpg/sg55_10_cif.got.tgz:18835.got - 2010.06.03 13:27:54.
