data_PCOD9425679
_publ_section_title
;
Structure prediction by ZEFSAII (Michael W. Deem and Ramdas Pophale) SiO2 
 PCOD9425679
Probable space group: P B A M
;
_chemical_formula_sum "Si O2"
_cell_formula_units_Z 34
_cell_length_a 11.937026
_cell_length_b 11.784761
_cell_length_c 9.971864
_cell_angle_alpha 90.000000
_cell_angle_beta 90.000000
_cell_angle_gamma 90.000000
_cell_volume 1402.791953
_symmetry_space_group_name_H-M "P B A M"
_symmetry_group_IT_number 55
_symmetry_cell_setting 'orthorhombic'
loop_
_space_group_symop_operation_xyz
x,y,z
-x,-y,z
1/2+x,1/2-y,-z
1/2-x,1/2+y,-z
-x,-y,-z
x,y,-z
1/2-x,1/2+y,z
1/2+x,1/2-y,z
loop_
_atom_site_type_symbol
_atom_site_label
_atom_site_fract_x
_atom_site_fract_y
_atom_site_fract_z
Si Si1 0.713820 0.401309 0.851672
Si Si2 0.000000 0.000000 0.500000
Si Si3 0.964543 0.699216 0.848965
Si Si4 0.115445 0.880791 0.262771
Si Si5 0.153028 0.460811 0.654538
O O1 0.638343 0.289947 0.841332
O O2 0.631814 0.510667 0.834466
O O3 0.801353 0.428699 0.733502
O O4 0.764938 0.406184 0.000000
O O5 0.028737 0.907436 0.381388
O O6 0.940368 0.605331 0.737588
O O7 0.074076 0.773755 0.819363
O O8 0.964385 0.652812 0.000000
O O9 0.236459 0.879383 0.334793
O O10 0.128447 0.482496 0.500000
#
# Coordination Sequence:
#
# PCOD9425679 Si02
#       5
#     8   2   8   8   8
#     4   9  18  34  52  76 106 133 175 223 266 315
#     4  12  16  32  54  84 108 136 172 230 288 320
#     4  11  21  32  55  80 106 146 177 219 277 325
#     4  10  19  32  53  78 110 137 177 225 271 316
#     4  10  22  33  49  79 111 141 175 221 274 319
#
# _framework density 24.237378
#
# number of rings (size 3 to 8) (size 9 to 14) (size 15 to 20)
#    1.412    0.471    3.529    1.412    1.647    2.824 
#    0.000    0.000    0.000    1.412    0.000    8.235 
#    0.000    0.000    0.000    0.000    0.000    0.000 
#
# Total GULP energy -189368.869833 kJ/mol
# GULP energy per Si atom -5569.672642 kJ/mol
# Density = 2.418221 g / cm^3
# Si number density = 24.237378 Si / 1000 Ang^3
#
#
#
# Elastic Constant Matrix: (Units=GPa)
#
#
# Indices 1 2 3 4 5 6 
#
# 1 69.9810 23.8040 30.5963 0.0000 0.0000 0.0000
# 2 23.8040 92.9568 62.6758 0.0000 0.0000 0.0000
# 3 30.5963 62.6758 217.1867 0.0000 0.0000 0.0000
# 4 0.0000 0.0000 0.0000 20.4968 0.0000 0.0000
# 5 0.0000 0.0000 0.0000 0.0000 12.2677 0.0000
# 6 0.0000 0.0000 0.0000 0.0000 0.0000 43.9244
#
#
#
# Elastic Compliance Matrix: (Units=1/GPa)
#
#
# Indices 1 2 3 4 5 6 
#
# 1 0.015955 -0.003191 -0.001327 0.000000 0.000000 0.000000
# 2 -0.003191 0.013995 -0.003589 0.000000 0.000000 0.000000
# 3 -0.001327 -0.003589 0.005827 0.000000 0.000000 0.000000
# 4 0.000000 0.000000 0.000000 0.048788 0.000000 0.000000
# 5 0.000000 0.000000 0.000000 0.000000 0.081515 0.000000
# 6 0.000000 0.000000 0.000000 0.000000 0.000000 0.022766
#
#
# Mechanical properties :
#
#
# Convention : Reuss Voigt Hill
#
# Bulk Modulus (GPa) = 51.11714 68.25294 59.68504
# Shear Modulus (GPa) = 23.63156 32.87433 28.25294
#
# Velocity S-wave (km/s) = 3.12589 3.68686 3.41790
# Velocity P-wave (km/s) = 5.84502 6.80773 6.34466
#
# Compressibility (1/GPa) = 0.01956291
#
# Stress axis : x y z
#
# Youngs Moduli (GPa) = 62.67575 71.45522 171.61556
#
# Poissons Ratio (x) = 0.22802 0.22770
# Poissons Ratio (y) = 0.20001 0.61594
# Poissons Ratio (z) = 0.08316 0.25646
#
# Static dielectric constant tensor:
#      x y z
#    x 2.063620 0.000000 0.000000 
#    y 0.000000 1.899530 0.000000 
#    z 0.000000 0.000000 1.812350 
# 
# From -- ./inp_files/5295.got.cif
#   From: 2010.05.17/outbox.cif.g08.bks.cpg/sg55_3_cif.got.tgz:5295.got - 2010.06.03 13:27:54.
