data_PCOD9425437
_publ_section_title
;
Structure prediction by ZEFSAII (Michael W. Deem and Ramdas Pophale) SiO2 
 PCOD9425437
Probable space group: P B A M
;
_chemical_formula_sum "Si O2"
_cell_formula_units_Z 32
_cell_length_a 7.588633
_cell_length_b 18.015260
_cell_length_c 11.244253
_cell_angle_alpha 90.000000
_cell_angle_beta 90.000000
_cell_angle_gamma 90.000000
_cell_volume 1537.215282
_symmetry_space_group_name_H-M "P B A M"
_symmetry_group_IT_number 55
_symmetry_cell_setting 'orthorhombic'
loop_
_space_group_symop_operation_xyz
x,y,z
-x,-y,z
1/2+x,1/2-y,-z
1/2-x,1/2+y,-z
-x,-y,-z
x,y,-z
1/2-x,1/2+y,z
1/2+x,1/2-y,z
loop_
_atom_site_type_symbol
_atom_site_label
_atom_site_fract_x
_atom_site_fract_y
_atom_site_fract_z
Si Si1 0.823986 0.564434 0.628338
Si Si2 0.654788 0.828475 0.638540
Si Si3 0.456066 0.330047 0.722696
Si Si4 0.321875 0.452514 0.870254
O O1 0.812082 0.525029 0.500000
O O2 0.668577 0.625881 0.630492
O O3 0.788436 0.524366 0.753685
O O4 0.007592 0.607825 0.638195
O O5 0.688092 0.808666 0.500000
O O6 0.575854 0.756747 0.705440
O O7 0.840918 0.847750 0.697628
O O8 0.384077 0.367677 0.843544
O O9 0.500000 0.500000 0.868858
O O10 0.237666 0.459367 0.000000
#
# Coordination Sequence:
#
# PCOD9425437 Si02
#       4
#     8   8   8   8
#     4   9  19  32  54  82 105 135 172 214 259 310
#     4  11  18  31  53  84 116 137 166 211 270 321
#     4  10  19  30  54  79 105 142 170 211 256 316
#     4   9  20  39  57  73 103 144 181 220 265 309
#
# _framework density 20.816863000000001
#
# number of rings (size 3 to 8) (size 9 to 14) (size 15 to 20)
#    1.500    0.750    2.500    2.250    0.000    0.500 
#    0.000    7.500    0.000    6.000    0.000    0.000 
#    0.000    0.000    0.000    0.000    0.000    0.000 
#
# Total GULP energy -178208.071772 kJ/mol
# GULP energy per Si atom -5569.002243 kJ/mol
# Density = 2.076948 g / cm^3
# Si number density = 20.816863 Si / 1000 Ang^3
#
#
#
# Elastic Constant Matrix: (Units=GPa)
#
#
# Indices 1 2 3 4 5 6 
#
# 1 102.6609 5.7843 24.5363 0.0000 0.0000 0.0000
# 2 5.7843 39.2952 40.8454 0.0000 0.0000 0.0000
# 3 24.5363 40.8454 154.9093 0.0000 0.0000 0.0000
# 4 0.0000 0.0000 0.0000 11.9404 0.0000 0.0000
# 5 0.0000 0.0000 0.0000 0.0000 -4.2857 0.0000
# 6 0.0000 0.0000 0.0000 0.0000 0.0000 33.0854
#
#
#
# Elastic Compliance Matrix: (Units=1/GPa)
#
#
# Indices 1 2 3 4 5 6 
#
# 1 0.010126 0.000243 -0.001668 0.000000 0.000000 0.000000
# 2 0.000243 0.035062 -0.009284 0.000000 0.000000 0.000000
# 3 -0.001668 -0.009284 0.009167 0.000000 0.000000 0.000000
# 4 0.000000 0.000000 0.000000 0.083750 0.000000 0.000000
# 5 0.000000 0.000000 0.000000 0.000000 -0.233335 0.000000
# 6 0.000000 0.000000 0.000000 0.000000 0.000000 0.030225
#
#
# Mechanical properties :
#
#
# Convention : Reuss Voigt Hill
#
# Bulk Modulus (GPa) = 30.35912 48.79969 39.57940
# Shear Modulus (GPa) = -153.33283 23.19465 -65.06909
#
# Velocity S-wave (km/s) = -8.59173 3.34162 -5.59694
# Velocity P-wave (km/s) = 9.15469 6.19531 4.76584
#
# Compressibility (1/GPa) = 0.03293903
#
# Stress axis : x y z
#
# Youngs Moduli (GPa) = 98.75807 28.52060 109.08225
#
# Poissons Ratio (x) = -0.00694 0.18195
# Poissons Ratio (y) = -0.02402 1.01267
# Poissons Ratio (z) = 0.16473 0.26477
#
# Static dielectric constant tensor:
#      x y z
#    x 1.717900 0.000000 0.000000 
#    y 0.000000 1.756210 0.000000 
#    z 0.000000 0.000000 1.761320 
# 
# From -- ./inp_files/2240.got.cif
#   From: 2010.05.17/outbox.cif.g08.bks.cpg/sg55_2_cif.got.tgz:2240.got - 2010.06.03 13:27:54.
