data_PCOD9425674
_publ_section_title
;
Structure prediction by ZEFSAII (Michael W. Deem and Ramdas Pophale) SiO2 
 PCOD9425674
Probable space group: P B A M
;
_chemical_formula_sum "Si O2"
_cell_formula_units_Z 40
_cell_length_a 16.239606
_cell_length_b 7.658628
_cell_length_c 13.997584
_cell_angle_alpha 90.000000
_cell_angle_beta 90.000000
_cell_angle_gamma 90.000000
_cell_volume 1740.922932
_symmetry_space_group_name_H-M "P B A M"
_symmetry_group_IT_number 55
_symmetry_cell_setting 'orthorhombic'
loop_
_space_group_symop_operation_xyz
x,y,z
-x,-y,z
1/2+x,1/2-y,-z
1/2-x,1/2+y,-z
-x,-y,-z
x,y,-z
1/2-x,1/2+y,z
1/2+x,1/2-y,z
loop_
_atom_site_type_symbol
_atom_site_label
_atom_site_fract_x
_atom_site_fract_y
_atom_site_fract_z
Si Si1 0.377137 0.891742 0.397862
Si Si2 0.200219 0.782518 0.808602
Si Si3 0.538707 0.220337 0.000000
Si Si4 0.691620 0.712089 0.397659
Si Si5 0.379427 0.897928 0.191543
Si Si6 0.373322 0.407906 0.000000
O O1 0.420290 0.858672 0.500000
O O2 0.291353 0.783958 0.398139
O O3 0.420537 0.865840 0.295731
O O4 0.345554 0.093111 0.398001
O O5 0.172538 0.865986 0.706754
O O6 0.158432 0.592673 0.811470
O O7 0.298933 0.774621 0.810301
O O8 0.176819 0.884942 0.903411
O O9 0.566822 0.132910 0.901550
O O10 0.442438 0.258089 0.000000
O O11 0.583015 0.407284 0.000000
O O12 0.667356 0.628750 0.500000
#
# Coordination Sequence:
#
# PCOD9425674 Si02
#       6
#     8   8   4   8   8   4
#     4   8  14  25  43  70 101 128 154 188 232 280
#     4  10  19  32  53  78 103 130 162 200 240 288
#     4  11  24  39  52  67  93 129 168 211 254 293
#     4   8  14  25  43  70 101 128 154 188 232 280
#     4  10  19  32  53  78 103 130 162 200 240 288
#     4  11  24  39  52  67  93 129 168 211 254 293
#
# _framework density 22.976320000000001
#
# number of rings (size 3 to 8) (size 9 to 14) (size 15 to 20)
#    0.000    2.600    0.000    2.400    0.000    3.200 
#    0.000    0.000    0.000    1.200    0.000    8.400 
#    0.000    0.000    0.000    0.000    0.000    0.000 
#
# Total GULP energy -223156.872198 kJ/mol
# GULP energy per Si atom -5578.921805 kJ/mol
# Density = 2.292402 g / cm^3
# Si number density = 22.976320 Si / 1000 Ang^3
#
#
#
# Elastic Constant Matrix: (Units=GPa)
#
#
# Indices 1 2 3 4 5 6 
#
# 1 36.9785 4.2287 47.7369 0.0000 0.0000 0.0000
# 2 4.2287 48.7052 36.1820 0.0000 0.0000 0.0000
# 3 47.7369 36.1820 293.9517 0.0000 0.0000 0.0000
# 4 0.0000 0.0000 0.0000-2851.2381 0.0000 0.0000
# 5 0.0000 0.0000 0.0000 0.0000 -29.5236 0.0000
# 6 0.0000 0.0000 0.0000 0.0000 0.0000 29.6238
#
#
#
# Elastic Compliance Matrix: (Units=1/GPa)
#
#
# Indices 1 2 3 4 5 6 
#
# 1 0.034288 0.001276 -0.005725 0.000000 0.000000 0.000000
# 2 0.001276 0.022646 -0.002995 0.000000 0.000000 0.000000
# 3 -0.005725 -0.002995 0.004700 0.000000 0.000000 0.000000
# 4 0.000000 0.000000 0.000000 -0.000351 0.000000 0.000000
# 5 0.000000 0.000000 0.000000 0.000000 -0.033871 0.000000
# 6 0.000000 0.000000 0.000000 0.000000 0.000000 0.033757
#
#
# Mechanical properties :
#
#
# Convention : Reuss Voigt Hill
#
# Bulk Modulus (GPa) = 21.39211 61.77006 41.58109
# Shear Modulus (GPa) = 54.56257 -550.79505 -248.11624
#
# Velocity S-wave (km/s) = 4.87841 -15.49979 -10.40299
# Velocity P-wave (km/s) = 6.40801 17.12839 11.23208
#
# Compressibility (1/GPa) = 0.04674621
#
# Stress axis : x y z
#
# Youngs Moduli (GPa) = 29.16487 44.15883 212.75217
#
# Poissons Ratio (x) = -0.05636 1.21808
# Poissons Ratio (y) = -0.03722 0.63712
# Poissons Ratio (z) = 0.16698 0.13224
#
# Static dielectric constant tensor:
#      x y z
#    x 1.803950 0.000000 0.000000 
#    y 0.000000 1.861220 0.000000 
#    z 0.000000 0.000000 1.936940 
# 
# From -- ./inp_files/18772.got.cif
#   From: 2010.05.17/outbox.cif.g08.bks.cpg/sg55_10_cif.got.tgz:18772.got - 2010.06.03 13:27:54.
