data_PCOD9425483
_publ_section_title
;
Structure prediction by ZEFSAII (Michael W. Deem and Ramdas Pophale) SiO2 
 PCOD9425483
Probable space group: P B A M
;
_chemical_formula_sum "Si O2"
_cell_formula_units_Z 52
_cell_length_a 17.622911
_cell_length_b 5.211293
_cell_length_c 31.176871
_cell_angle_alpha 90.000000
_cell_angle_beta 90.000000
_cell_angle_gamma 90.000000
_cell_volume 2863.226241
_symmetry_space_group_name_H-M "P B A M"
_symmetry_group_IT_number 55
_symmetry_cell_setting 'orthorhombic'
loop_
_space_group_symop_operation_xyz
x,y,z
-x,-y,z
1/2+x,1/2-y,-z
1/2-x,1/2+y,-z
-x,-y,-z
x,y,-z
1/2-x,1/2+y,z
1/2+x,1/2-y,z
loop_
_atom_site_type_symbol
_atom_site_label
_atom_site_fract_x
_atom_site_fract_y
_atom_site_fract_z
Si Si1 0.047366 0.748858 0.170466
Si Si2 0.698291 0.678671 0.409238
Si Si3 0.199701 0.704459 0.680792
Si Si4 0.697641 0.719594 0.224414
Si Si5 0.546522 0.751223 0.067049
Si Si6 0.198395 0.712592 0.500000
Si Si7 0.282027 0.354670 0.950453
O O1 0.130300 0.754761 0.190763
O O2 0.052703 0.744407 0.118766
O O3 0.000000 0.500000 0.184022
O O4 0.000000 0.000000 0.182807
O O5 0.733530 0.392591 0.409253
O O6 0.657621 0.733794 0.363908
O O7 0.657904 0.732789 0.454640
O O8 0.231162 0.413679 0.679962
O O9 0.163914 0.755214 0.727163
O O10 0.741842 0.450754 0.220100
O O11 0.500000 0.500000 0.054238
O O12 0.631833 0.735380 0.050489
O O13 0.500000 0.000000 0.053150
O O14 0.233281 0.425905 0.500000
O O15 0.269376 0.632870 0.929920
O O16 0.257879 0.394300 0.000000
#
# Coordination Sequence:
#
# PCOD9425483 Si02
#       7
#     8   8   8   8   8   4   8
#     4  10  21  36  51  71 100 128 155 195 242 278
#     4   8  12  18  27  41  64  94 126 162 203 249
#     4   8  14  23  35  53  77 102 134 177 217 255
#     4  10  19  31  49  71  91 119 159 193 227 279
#     4  10  21  36  54  75  99 130 165 196 232 281
#     4   8  12  16  24  38  58  90 128 156 192 252
#     4  10  21  36  54  78 106 132 160 198 240 276
#
# _framework density 18.161331000000001
#
# number of rings (size 3 to 8) (size 9 to 14) (size 15 to 20)
#    0.000    2.769    0.000    1.846    0.000    1.846 
#    0.000    0.000    0.000    0.000    0.000    0.000 
#    0.000    0.000    0.000    1.385    0.000    5.385 
#
# Total GULP energy -289482.468880 kJ/mol
# GULP energy per Si atom -5566.970555 kJ/mol
# Density = 1.811999 g / cm^3
# Si number density = 18.161331 Si / 1000 Ang^3
#
#
#
# Elastic Constant Matrix: (Units=GPa)
#
#
# Indices 1 2 3 4 5 6 
#
# 1 34.1939 7.9096 15.0897 0.0000 0.0000 0.0000
# 2 7.9096 109.2396 17.7981 0.0000 0.0000 0.0000
# 3 15.0897 17.7981 56.7336 0.0000 0.0000 0.0000
# 4 0.0000 0.0000 0.000036248.8050 0.0000 0.0000
# 5 0.0000 0.0000 0.0000 0.0000 15.5208 0.0000
# 6 0.0000 0.0000 0.0000 0.0000 0.0000 20.4310
#
#
#
# Elastic Compliance Matrix: (Units=1/GPa)
#
#
# Indices 1 2 3 4 5 6 
#
# 1 0.033241 -0.001018 -0.008522 0.000000 0.000000 0.000000
# 2 -0.001018 0.009678 -0.002765 0.000000 0.000000 0.000000
# 3 -0.008522 -0.002765 0.020760 0.000000 0.000000 0.000000
# 4 0.000000 0.000000 0.000000 0.000028 0.000000 0.000000
# 5 0.000000 0.000000 0.000000 0.000000 0.064430 0.000000
# 6 0.000000 0.000000 0.000000 0.000000 0.000000 0.048945
#
#
# Mechanical properties :
#
#
# Convention : Reuss Voigt Hill
#
# Bulk Modulus (GPa) = 25.59589 31.30688 28.45139
# Shear Modulus (GPa) = 23.28646 7267.57600 3645.43123
#
# Velocity S-wave (km/s) = 3.58467 63.32743 44.85094
# Velocity P-wave (km/s) = 5.59083 73.24225 51.94075
#
# Compressibility (1/GPa) = 0.03906877
#
# Stress axis : x y z
#
# Youngs Moduli (GPa) = 30.08312 103.32186 48.16862
#
# Poissons Ratio (x) = 0.10522 0.41049
# Poissons Ratio (y) = 0.03064 0.13321
# Poissons Ratio (z) = 0.25636 0.28573
#
# Static dielectric constant tensor:
#      x y z
#    x 1.558890 0.000000 0.000000 
#    y 0.000000 1.655320 0.000000 
#    z 0.000000 0.000000 1.717670 
# 
# From -- ./inp_files/24070.got.cif
#   From: 2010.05.17/outbox.cif.g08.bks.cpg/sg55_13_cif.got.tgz:24070.got - 2010.06.03 13:27:54.
