data_PCOD9425762
_publ_section_title
;
Structure prediction by ZEFSAII (Michael W. Deem and Ramdas Pophale) SiO2 
 PCOD9425762
Probable space group: P B A M
;
_chemical_formula_sum "Si O2"
_cell_formula_units_Z 44
_cell_length_a 30.013837
_cell_length_b 5.121590
_cell_length_c 15.587736
_cell_angle_alpha 90.000000
_cell_angle_beta 90.000000
_cell_angle_gamma 90.000000
_cell_volume 2396.124448
_symmetry_space_group_name_H-M "P B A M"
_symmetry_group_IT_number 55
_symmetry_cell_setting 'orthorhombic'
loop_
_space_group_symop_operation_xyz
x,y,z
-x,-y,z
1/2+x,1/2-y,-z
1/2-x,1/2+y,-z
-x,-y,-z
x,y,-z
1/2-x,1/2+y,z
1/2+x,1/2-y,z
loop_
_atom_site_type_symbol
_atom_site_label
_atom_site_fract_x
_atom_site_fract_y
_atom_site_fract_z
Si Si1 0.937748 0.067633 0.597898
Si Si2 0.046876 0.431238 0.290068
Si Si3 0.274483 0.584754 0.500000
Si Si4 0.779585 0.463507 0.897557
Si Si5 0.337809 0.429377 0.652495
Si Si6 0.852795 0.572477 0.237859
O O1 0.951822 0.033996 0.500000
O O2 0.948565 0.351470 0.635386
O O3 0.884457 0.040618 0.603050
O O4 0.955386 0.846943 0.662612
O O5 0.093050 0.443696 0.236392
O O6 0.000000 0.500000 0.244750
O O7 0.268651 0.896213 0.500000
O O8 0.299790 0.496170 0.585552
O O9 0.744682 0.692893 0.875146
O O10 0.825604 0.507207 0.847617
O O11 0.786794 0.470816 0.000000
O O12 0.339662 0.641635 0.728440
O O13 0.336766 0.141385 0.692353
#
# Coordination Sequence:
#
# PCOD9425762 Si02
#       6
#     8   8   4   8   8   8
#     4  10  19  33  51  66  98 137 174 223 264 299
#     4  10  21  33  49  76 102 134 177 216 260 309
#     4  12  24  34  48  70  99 136 179 224 258 292
#     4  10  21  37  59  86 110 131 166 216 264 318
#     4  10  21  36  49  71 101 140 179 212 254 310
#     4  10  21  36  57  75 105 142 168 212 267 311
#
# _framework density 18.362984999999998
#
# number of rings (size 3 to 8) (size 9 to 14) (size 15 to 20)
#    0.000    1.818    0.909    3.273    0.000    6.545 
#    0.000    0.000    0.000    0.545    0.000    0.000 
#    0.000   13.091    0.000    0.000    0.000    2.182 
#
# Total GULP energy -245597.861963 kJ/mol
# GULP energy per Si atom -5581.769590 kJ/mol
# Density = 1.832119 g / cm^3
# Si number density = 18.362985 Si / 1000 Ang^3
#
#
#
# Elastic Constant Matrix: (Units=GPa)
#
#
# Indices 1 2 3 4 5 6 
#
# 1 81.7265 -2.1599 36.0338 0.0000 0.0000 0.0000
# 2 -2.1599 75.0483 -2.2585 0.0000 0.0000 0.0000
# 3 36.0338 -2.2585 37.8797 0.0000 0.0000 0.0000
# 4 0.0000 0.0000 0.0000 11.8038 0.0000 0.0000
# 5 0.0000 0.0000 0.0000 0.0000 -28.1611 0.0000
# 6 0.0000 0.0000 0.0000 0.0000 0.0000 25.2998
#
#
#
# Elastic Compliance Matrix: (Units=1/GPa)
#
#
# Indices 1 2 3 4 5 6 
#
# 1 0.021075 0.000003 -0.020048 0.000000 0.000000 0.000000
# 2 0.000003 0.013349 0.000793 0.000000 0.000000 0.000000
# 3 -0.020048 0.000793 0.045518 0.000000 0.000000 0.000000
# 4 0.000000 0.000000 0.000000 0.084719 0.000000 0.000000
# 5 0.000000 0.000000 0.000000 0.000000 -0.035510 0.000000
# 6 0.000000 0.000000 0.000000 0.000000 0.000000 0.039526
#
#
# Mechanical properties :
#
#
# Convention : Reuss Voigt Hill
#
# Bulk Modulus (GPa) = 24.13260 28.65390 26.39325
# Shear Modulus (GPa) = 22.62506 12.65777 17.64141
#
# Velocity S-wave (km/s) = 3.51394 2.62832 3.10289
# Velocity P-wave (km/s) = 5.44373 4.98485 5.21934
#
# Compressibility (1/GPa) = 0.04143772
#
# Stress axis : x y z
#
# Youngs Moduli (GPa) = 47.44859 74.91367 21.96935
#
# Poissons Ratio (x) = -0.00024 0.44045
# Poissons Ratio (y) = -0.00015 -0.01742
# Poissons Ratio (z) = 0.95126 -0.05939
#
# Static dielectric constant tensor:
#      x y z
#    x 1.691920 0.000000 0.000000 
#    y 0.000000 1.627980 0.000000 
#    z 0.000000 0.000000 1.584500 
# 
# From -- ./inp_files/16620.got.cif
#   From: 2010.05.17/outbox.cif.g08.bks.cpg/sg55_9_cif.got.tgz:16620.got - 2010.06.03 13:27:54.
