data_PCOD9425729
_publ_section_title
;
Structure prediction by ZEFSAII (Michael W. Deem and Ramdas Pophale) SiO2 
 PCOD9425729
Probable space group: P B A M
;
_chemical_formula_sum "Si O2"
_cell_formula_units_Z 48
_cell_length_a 8.500282
_cell_length_b 21.433904
_cell_length_c 13.403072
_cell_angle_alpha 90.000000
_cell_angle_beta 90.000000
_cell_angle_gamma 90.000000
_cell_volume 2441.962361
_symmetry_space_group_name_H-M "P B A M"
_symmetry_group_IT_number 55
_symmetry_cell_setting 'orthorhombic'
loop_
_space_group_symop_operation_xyz
x,y,z
-x,-y,z
1/2+x,1/2-y,-z
1/2-x,1/2+y,-z
-x,-y,-z
x,y,-z
1/2-x,1/2+y,z
1/2+x,1/2-y,z
loop_
_atom_site_type_symbol
_atom_site_label
_atom_site_fract_x
_atom_site_fract_y
_atom_site_fract_z
Si Si1 0.212989 0.738118 0.883126
Si Si2 0.689754 0.553261 0.890218
Si Si3 0.160002 0.534923 0.272356
Si Si4 0.505865 0.656767 0.198342
Si Si5 0.021135 0.620925 0.107379
Si Si6 0.439263 0.571611 0.386694
O O1 0.153473 0.796484 0.818172
O O2 0.352202 0.695829 0.835844
O O3 0.058820 0.693304 0.886615
O O4 0.246813 0.754278 0.000000
O O5 0.727632 0.508185 0.797580
O O6 0.539913 0.597088 0.872249
O O7 0.842460 0.598471 0.890780
O O8 0.682294 0.523718 0.000000
O O9 0.107171 0.588551 0.197693
O O10 0.255031 0.562736 0.363593
O O11 0.000000 0.500000 0.301215
O O12 0.496507 0.623238 0.306517
O O13 0.085594 0.598966 0.000000
O O14 0.500000 0.500000 0.374092
O O15 0.473514 0.590374 0.500000
#
# Coordination Sequence:
#
# PCOD9425729 Si02
#       6
#     8   8   8   8   8   8
#     4  11  22  36  58  87 125 165 205 244 297 374
#     4  10  19  32  54  88 129 163 200 241 301 379
#     4  10  19  36  62  93 123 157 201 256 317 375
#     4  12  23  40  61  88 125 171 209 255 308 370
#     4   9  18  33  55  87 128 166 194 234 296 373
#     4  11  24  45  67  90 120 160 213 274 326 363
#
# _framework density 19.656323
#
# number of rings (size 3 to 8) (size 9 to 14) (size 15 to 20)
#    0.000    1.500    3.333    3.000    0.000    3.667 
#    0.000    1.667    0.000    0.000    0.000    0.000 
#    0.000    0.000    0.000    0.000    0.000    0.000 
#
# Total GULP energy -267629.893679 kJ/mol
# GULP energy per Si atom -5575.622785 kJ/mol
# Density = 1.961158 g / cm^3
# Si number density = 19.656323 Si / 1000 Ang^3
#
#
#
# Elastic Constant Matrix: (Units=GPa)
#
#
# Indices 1 2 3 4 5 6 
#
# 1 60.1022 36.3335 35.0114 0.0000 0.0000 0.0000
# 2 36.3335 81.6696 47.4344 0.0000 0.0000 0.0000
# 3 35.0114 47.4344 126.5353 0.0000 0.0000 0.0000
# 4 0.0000 0.0000 0.0000 20.3077 0.0000 0.0000
# 5 0.0000 0.0000 0.0000 0.0000 18.4512 0.0000
# 6 0.0000 0.0000 0.0000 0.0000 0.0000 50.6025
#
#
#
# Elastic Compliance Matrix: (Units=1/GPa)
#
#
# Indices 1 2 3 4 5 6 
#
# 1 0.023819 -0.008653 -0.003347 0.000000 0.000000 0.000000
# 2 -0.008653 0.018796 -0.004652 0.000000 0.000000 0.000000
# 3 -0.003347 -0.004652 0.010573 0.000000 0.000000 0.000000
# 4 0.000000 0.000000 0.000000 0.049242 0.000000 0.000000
# 5 0.000000 0.000000 0.000000 0.000000 0.054197 0.000000
# 6 0.000000 0.000000 0.000000 0.000000 0.000000 0.019762
#
#
# Mechanical properties :
#
#
# Convention : Reuss Voigt Hill
#
# Bulk Modulus (GPa) = 50.29028 56.20732 53.24880
# Shear Modulus (GPa) = 23.11396 27.84081 25.47738
#
# Velocity S-wave (km/s) = 3.43287 3.76756 3.60410
# Velocity P-wave (km/s) = 6.43064 6.89805 6.66844
#
# Compressibility (1/GPa) = 0.01988456
#
# Stress axis : x y z
#
# Youngs Moduli (GPa) = 41.98363 53.20359 94.58228
#
# Poissons Ratio (x) = 0.46036 0.31655
# Poissons Ratio (y) = 0.36327 0.43998
# Poissons Ratio (z) = 0.14051 0.24749
#
# Static dielectric constant tensor:
#      x y z
#    x 1.766710 0.000000 0.000000 
#    y 0.000000 1.727970 0.000000 
#    z 0.000000 0.000000 1.654610 
# 
# From -- ./inp_files/12231.got.cif
#   From: 2010.05.17/outbox.cif.g08.bks.cpg/sg55_7_cif.got.tgz:12231.got - 2010.06.03 13:27:54.
