data_PCOD9425314
_publ_section_title
;
Structure prediction by ZEFSAII (Michael W. Deem and Ramdas Pophale) SiO2 
 PCOD9425314
Probable space group: P B A M
;
_chemical_formula_sum "Si O2"
_cell_formula_units_Z 52
_cell_length_a 12.878917
_cell_length_b 27.122831
_cell_length_c 7.694313
_cell_angle_alpha 90.000000
_cell_angle_beta 90.000000
_cell_angle_gamma 90.000000
_cell_volume 2687.721166
_symmetry_space_group_name_H-M "P B A M"
_symmetry_group_IT_number 55
_symmetry_cell_setting 'orthorhombic'
loop_
_space_group_symop_operation_xyz
x,y,z
-x,-y,z
1/2+x,1/2-y,-z
1/2-x,1/2+y,-z
-x,-y,-z
x,y,-z
1/2-x,1/2+y,z
1/2+x,1/2-y,z
loop_
_atom_site_type_symbol
_atom_site_label
_atom_site_fract_x
_atom_site_fract_y
_atom_site_fract_z
Si Si1 0.125006 0.698464 0.000000
Si Si2 0.353987 0.657590 0.000000
Si Si3 0.349027 0.935462 0.291109
Si Si4 0.626177 0.608389 0.292347
Si Si5 0.045142 0.629158 0.299245
Si Si6 0.598406 0.419144 0.699350
Si Si7 0.422550 0.311852 0.000000
Si Si8 0.696650 0.957210 0.202491
O O1 0.244741 0.683203 0.000000
O O2 0.073543 0.673100 0.830627
O O3 0.120175 0.757136 0.000000
O O4 0.366341 0.623103 0.831484
O O5 0.452854 0.692844 0.000000
O O6 0.353235 0.937658 0.500000
O O7 0.235003 0.916106 0.241491
O O8 0.440670 0.898792 0.237198
O O9 0.360622 0.991083 0.226423
O O10 0.630447 0.619910 0.500000
O O11 0.524289 0.573548 0.265886
O O12 0.608393 0.655666 0.169087
O O13 0.032688 0.644930 0.500000
O O14 0.135005 0.587343 0.291670
O O15 0.606212 0.403175 0.500000
O O16 0.685054 0.461022 0.727518
O O17 0.701014 0.945206 0.000000
#
# Coordination Sequence:
#
# PCOD9425314 Si02
#       8
#     4   4   8   8   8   8   4   8
#     4  12  24  40  63  92 114 150 201 251 299 357
#     4  10  20  40  56  87 116 144 195 238 296 348
#     4  10  23  39  58  87 125 162 198 238 292 358
#     4   9  21  41  61  85 117 157 198 243 299 355
#     4  11  23  40  60  85 122 158 198 246 293 349
#     4  10  18  35  61  82 115 156 195 239 281 336
#     4  10  24  40  64  88 117 151 192 253 307 356
#     4  12  22  35  58  91 123 160 202 241 287 354
#
# _framework density 19.347245999999998
#
# number of rings (size 3 to 8) (size 9 to 14) (size 15 to 20)
#    0.000    1.538    3.077    1.846    2.154    4.308 
#    0.000    3.077    0.000    0.000    0.000    0.000 
#    0.000    0.000    0.000    0.000    0.000    0.000 
#
# Total GULP energy -290299.245610 kJ/mol
# GULP energy per Si atom -5582.677800 kJ/mol
# Density = 1.930321 g / cm^3
# Si number density = 19.347246 Si / 1000 Ang^3
#
#
#
# Elastic Constant Matrix: (Units=GPa)
#
#
# Indices 1 2 3 4 5 6 
#
# 1 95.7787 6.5779 8.3819 0.0000 0.0000 0.0000
# 2 6.5779 39.5992 7.6625 0.0000 0.0000 0.0000
# 3 8.3819 7.6625 75.7678 0.0000 0.0000 0.0000
# 4 0.0000 0.0000 0.0000 12.4109 0.0000 0.0000
# 5 0.0000 0.0000 0.0000 0.0000 18.0446 0.0000
# 6 0.0000 0.0000 0.0000 0.0000 0.0000 16.8264
#
#
#
# Elastic Compliance Matrix: (Units=1/GPa)
#
#
# Indices 1 2 3 4 5 6 
#
# 1 0.010638 -0.001570 -0.001018 0.000000 0.000000 0.000000
# 2 -0.001570 0.025989 -0.002455 0.000000 0.000000 0.000000
# 3 -0.001018 -0.002455 0.013559 0.000000 0.000000 0.000000
# 4 0.000000 0.000000 0.000000 0.080574 0.000000 0.000000
# 5 0.000000 0.000000 0.000000 0.000000 0.055418 0.000000
# 6 0.000000 0.000000 0.000000 0.000000 0.000000 0.059430
#
#
# Mechanical properties :
#
#
# Convention : Reuss Voigt Hill
#
# Bulk Modulus (GPa) = 24.93753 28.48782 26.71268
# Shear Modulus (GPa) = 18.58318 22.02461 20.30389
#
# Velocity S-wave (km/s) = 3.10257 3.37766 3.24303
# Velocity P-wave (km/s) = 5.07464 5.47429 5.27825
#
# Compressibility (1/GPa) = 0.04010020
#
# Stress axis : x y z
#
# Youngs Moduli (GPa) = 94.00570 38.47805 73.75138
#
# Poissons Ratio (x) = 0.06041 0.07508
# Poissons Ratio (y) = 0.14760 0.18103
# Poissons Ratio (z) = 0.09570 0.09445
#
# Static dielectric constant tensor:
#      x y z
#    x 1.727690 0.000000 0.000000 
#    y 0.000000 1.629560 0.000000 
#    z 0.000000 0.000000 1.682280 
# 
# From -- ./inp_files/4275.got.cif
#   From: 2010.05.17/outbox.cif.g08.bks.cpg/sg55_3_cif.got.tgz:4275.got - 2010.06.03 13:27:54.
