data_PCOD9425538
_publ_section_title
;
Structure prediction by ZEFSAII (Michael W. Deem and Ramdas Pophale) SiO2 
 PCOD9425538
Probable space group: P B A M
;
_chemical_formula_sum "Si O2"
_cell_formula_units_Z 56
_cell_length_a 24.414741
_cell_length_b 12.007510
_cell_length_c 11.827411
_cell_angle_alpha 90.000000
_cell_angle_beta 90.000000
_cell_angle_gamma 90.000000
_cell_volume 3467.326727
_symmetry_space_group_name_H-M "P B A M"
_symmetry_group_IT_number 55
_symmetry_cell_setting 'orthorhombic'
loop_
_space_group_symop_operation_xyz
x,y,z
-x,-y,z
1/2+x,1/2-y,-z
1/2-x,1/2+y,-z
-x,-y,-z
x,y,-z
1/2-x,1/2+y,z
1/2+x,1/2-y,z
loop_
_atom_site_type_symbol
_atom_site_label
_atom_site_fract_x
_atom_site_fract_y
_atom_site_fract_z
Si Si1 0.666838 0.378378 0.862972
Si Si2 0.990820 0.311311 0.500000
Si Si3 0.367028 0.372709 0.135179
Si Si4 0.424368 0.799384 0.864416
Si Si5 0.410367 0.973835 0.500000
Si Si6 0.383211 0.022468 0.747258
Si Si7 0.790998 0.338778 0.864857
Si Si8 0.539289 0.760452 0.254110
O O1 0.652232 0.504553 0.830677
O O2 0.620382 0.291860 0.826494
O O3 0.727989 0.344034 0.827849
O O4 0.667051 0.375996 0.000000
O O5 0.951656 0.420381 0.500000
O O6 0.977355 0.246581 0.614910
O O7 0.051827 0.363428 0.500000
O O8 0.319263 0.281278 0.153573
O O9 0.419962 0.331508 0.203632
O O10 0.379054 0.372564 0.000000
O O11 0.483946 0.769578 0.817198
O O12 0.406013 0.918498 0.816847
O O13 0.425696 0.802219 0.000000
O O14 0.377786 0.985383 0.616786
O O15 0.327831 0.070837 0.800445
O O16 0.427489 0.122718 0.753986
O O17 0.793603 0.361096 0.000000
#
# Coordination Sequence:
#
# PCOD9425538 Si02
#       8
#     8   4   8   8   4   8   8   8
#     4   9  20  34  49  73 103 138 172 203 245 309
#     4   9  16  30  50  72  99 134 170 201 248 303
#     4   9  18  33  51  72 101 135 168 204 253 305
#     4  11  21  30  47  77 108 134 164 204 254 302
#     4   9  16  30  50  73 102 131 167 204 250 308
#     4  10  19  31  52  78 102 131 168 211 259 298
#     4   9  18  32  52  76 101 129 166 210 254 299
#     4  10  19  32  51  75 103 135 166 210 254 302
#
# _framework density 16.150770999999999
#
# number of rings (size 3 to 8) (size 9 to 14) (size 15 to 20)
#    0.000    2.429    1.429    1.286    2.000    2.857 
#    0.000    2.143    0.000    5.143    0.000    0.000 
#    0.000    0.000    0.000    0.000    0.000    0.000 
#
# Total GULP energy -312178.281087 kJ/mol
# GULP energy per Si atom -5574.612162 kJ/mol
# Density = 1.611401 g / cm^3
# Si number density = 16.150771 Si / 1000 Ang^3
#
#
#
# Elastic Constant Matrix: (Units=GPa)
#
#
# Indices 1 2 3 4 5 6 
#
# 1 118.6733 42.7672 41.9057 0.0000 0.0000 0.0000
# 2 42.7672 42.1015 23.9108 0.0000 0.0000 0.0000
# 3 41.9057 23.9108 77.8332 0.0000 0.0000 0.0000
# 4 0.0000 0.0000 0.0000 8.6278 0.0000 0.0000
# 5 0.0000 0.0000 0.0000 0.0000 4.9786 0.0000
# 6 0.0000 0.0000 0.0000 0.0000 0.0000 9.9474
#
#
#
# Elastic Compliance Matrix: (Units=1/GPa)
#
#
# Indices 1 2 3 4 5 6 
#
# 1 0.014205 -0.012217 -0.003895 0.000000 0.000000 0.000000
# 2 -0.012217 0.039280 -0.005489 0.000000 0.000000 0.000000
# 3 -0.003895 -0.005489 0.016631 0.000000 0.000000 0.000000
# 4 0.000000 0.000000 0.000000 0.115905 0.000000 0.000000
# 5 0.000000 0.000000 0.000000 0.000000 0.200858 0.000000
# 6 0.000000 0.000000 0.000000 0.000000 0.000000 0.100529
#
#
# Mechanical properties :
#
#
# Convention : Reuss Voigt Hill
#
# Bulk Modulus (GPa) = 37.15593 50.64173 43.89883
# Shear Modulus (GPa) = 9.26644 13.37904 11.32274
#
# Velocity S-wave (km/s) = 2.39790 2.88129 2.65064
# Velocity P-wave (km/s) = 5.54276 6.51865 6.05041
#
# Compressibility (1/GPa) = 0.02691361
#
# Stress axis : x y z
#
# Youngs Moduli (GPa) = 70.39973 25.45817 60.12803
#
# Poissons Ratio (x) = 0.31103 0.23417
# Poissons Ratio (y) = 0.86010 0.33006
# Poissons Ratio (z) = 0.27418 0.13975
#
# Static dielectric constant tensor:
#      x y z
#    x 1.525710 0.000000 0.000000 
#    y 0.000000 1.527070 0.000000 
#    z 0.000000 0.000000 1.536090 
# 
# From -- ./inp_files/15720.got.cif
#   From: 2010.05.17/outbox.cif.g08.bks.cpg/sg55_8_cif.got.tgz:15720.got - 2010.06.03 13:27:54.
