data_PCOD9425049
_publ_section_title
;
Structure prediction by ZEFSAII (Michael W. Deem and Ramdas Pophale) SiO2 
 PCOD9425049
Probable space group: P B A M
;
_chemical_formula_sum "Si O2"
_cell_formula_units_Z 46
_cell_length_a 26.338681
_cell_length_b 5.429915
_cell_length_c 18.919259
_cell_angle_alpha 90.000000
_cell_angle_beta 90.000000
_cell_angle_gamma 90.000000
_cell_volume 2705.771862
_symmetry_space_group_name_H-M "P B A M"
_symmetry_group_IT_number 55
_symmetry_cell_setting 'orthorhombic'
loop_
_space_group_symop_operation_xyz
x,y,z
-x,-y,z
1/2+x,1/2-y,-z
1/2-x,1/2+y,-z
-x,-y,-z
x,y,-z
1/2-x,1/2+y,z
1/2+x,1/2-y,z
loop_
_atom_site_type_symbol
_atom_site_label
_atom_site_fract_x
_atom_site_fract_y
_atom_site_fract_z
Si Si1 0.561975 0.248736 0.655830
Si Si2 0.948232 0.247932 0.713683
Si Si3 0.500000 0.000000 0.000000
Si Si4 0.943474 0.240582 0.875537
Si Si5 0.608155 0.230528 0.918336
Si Si6 0.965882 0.749840 0.500000
Si Si7 0.771565 0.813961 0.917425
O O1 0.580654 0.499509 0.691966
O O2 0.500968 0.250411 0.670441
O O3 0.566732 0.248964 0.571706
O O4 0.580175 0.998042 0.692430
O O5 0.963257 0.242300 0.795725
O O6 0.516686 0.802399 0.063404
O O7 0.905422 0.475123 0.880748
O O8 0.917007 0.979036 0.889673
O O9 0.668332 0.272365 0.917878
O O10 0.589483 0.189185 0.000000
O O11 0.000000 0.500000 0.500000
O O12 0.000000 0.000000 0.500000
O O13 0.744151 0.575642 0.885527
O O14 0.754415 0.829561 0.000000
#
# Coordination Sequence:
#
# PCOD9425049 Si02
#       7
#     8   8   2   8   8   4   8
#     4  10  18  31  45  65  82 109 146 207 227 284
#     4  10  19  31  43  60  83 112 150 185 241 264
#     4  12  24  38  48  62  80 124 188 206 252 254
#     4  12  24  35  49  62  88 129 162 213 235 273
#     4  11  21  38  49  68  93 110 151 203 249 284
#     4  12  16  28  48  66  86 102 136 196 270 260
#     4   9  17  30  53  75  88 106 128 174 248 316
#
# _framework density 17.000695
#
# number of rings (size 3 to 8) (size 9 to 14) (size 15 to 20)
#    0.000    1.391    5.217    3.130    0.000    5.565 
#    0.000    0.000    0.000    0.000    0.000    0.000 
#    0.000    0.000    0.000    0.000    0.000    0.000 
#
# Total GULP energy -256159.800147 kJ/mol
# GULP energy per Si atom -5568.691308 kJ/mol
# Density = 1.696200 g / cm^3
# Si number density = 17.000695 Si / 1000 Ang^3
#
#
#
# Elastic Constant Matrix: (Units=GPa)
#
#
# Indices 1 2 3 4 5 6 
#
# 1 13.3707 9.7267 3.1750 0.0000 0.0000 0.0000
# 2 9.7267 155.5199 24.2790 0.0000 0.0000 0.0000
# 3 3.1750 24.2790 123.2684 0.0000 0.0000 0.0000
# 4 0.0000 0.0000 0.0000 14.4425 0.0000 0.0000
# 5 0.0000 0.0000 0.0000 0.0000 0.1204 0.0000
# 6 0.0000 0.0000 0.0000 0.0000 0.0000 21.2806
#
#
#
# Elastic Compliance Matrix: (Units=1/GPa)
#
#
# Indices 1 2 3 4 5 6 
#
# 1 0.078497 -0.004740 -0.001088 0.000000 0.000000 0.000000
# 2 -0.004740 0.006920 -0.001241 0.000000 0.000000 0.000000
# 3 -0.001088 -0.001241 0.008385 0.000000 0.000000 0.000000
# 4 0.000000 0.000000 0.000000 0.069240 0.000000 0.000000
# 5 0.000000 0.000000 0.000000 0.000000 8.302850 0.000000
# 6 0.000000 0.000000 0.000000 0.000000 0.000000 0.046991
#
#
# Mechanical properties :
#
#
# Convention : Reuss Voigt Hill
#
# Bulk Modulus (GPa) = 12.55270 40.72449 26.63860
# Shear Modulus (GPa) = 0.58455 24.16728 12.37591
#
# Velocity S-wave (km/s) = 0.58701 3.77443 2.70101
# Velocity P-wave (km/s) = 2.80341 6.55757 5.04286
#
# Compressibility (1/GPa) = 0.07966411
#
# Stress axis : x y z
#
# Youngs Moduli (GPa) = 12.73941 144.50458 119.26306
#
# Poissons Ratio (x) = 0.68488 0.12979
# Poissons Ratio (y) = 0.06038 0.14800
# Poissons Ratio (z) = 0.01386 0.17932
#
# Static dielectric constant tensor:
#      x y z
#    x 1.499390 0.000000 0.000000 
#    y 0.000000 2.156010 0.000000 
#    z 0.000000 0.000000 1.574740 
# 
# From -- ./inp_files/22067.got.cif
#   From: 2010.05.17/outbox.cif.g08.bks.cpg/sg55_12_cif.got.tgz:22067.got - 2010.06.03 13:27:54.
