data_PCOD9425964
_publ_section_title
;
Structure prediction by ZEFSAII (Michael W. Deem and Ramdas Pophale) SiO2 
 PCOD9425964
Probable space group: P B A M
;
_chemical_formula_sum "Si O2"
_cell_formula_units_Z 64
_cell_length_a 14.269334
_cell_length_b 18.908945
_cell_length_c 13.079529
_cell_angle_alpha 90.000000
_cell_angle_beta 90.000000
_cell_angle_gamma 90.000000
_cell_volume 3529.093033
_symmetry_space_group_name_H-M "P B A M"
_symmetry_group_IT_number 55
_symmetry_cell_setting 'orthorhombic'
loop_
_space_group_symop_operation_xyz
x,y,z
-x,-y,z
1/2+x,1/2-y,-z
1/2-x,1/2+y,-z
-x,-y,-z
x,y,-z
1/2-x,1/2+y,z
1/2+x,1/2-y,z
loop_
_atom_site_type_symbol
_atom_site_label
_atom_site_fract_x
_atom_site_fract_y
_atom_site_fract_z
Si Si1 0.326469 0.615396 0.619736
Si Si2 0.437883 0.899809 0.617946
Si Si3 0.002171 0.799164 0.883414
Si Si4 0.723354 0.678197 0.881051
Si Si5 0.776535 0.514532 0.884142
Si Si6 0.132824 0.547143 0.687616
Si Si7 0.084433 0.054449 0.817541
Si Si8 0.634635 0.236928 0.725956
O O1 0.346387 0.604929 0.500000
O O2 0.219718 0.591753 0.643919
O O3 0.389037 0.570121 0.699303
O O4 0.345781 0.696214 0.653432
O O5 0.461046 0.887101 0.500000
O O6 0.535367 0.911708 0.677551
O O7 0.381074 0.834424 0.663064
O O8 0.381440 0.973341 0.627342
O O9 0.111957 0.814534 0.865794
O O10 0.947036 0.872858 0.869813
O O11 0.956343 0.750031 0.797343
O O12 0.990883 0.772866 0.000000
O O13 0.758086 0.597654 0.863223
O O14 0.779516 0.727775 0.804286
O O15 0.742793 0.695291 0.000000
O O16 0.843723 0.477918 0.802259
O O17 0.676109 0.477043 0.870706
O O18 0.810166 0.507235 0.000000
O O19 0.000000 0.000000 0.825121
#
# Coordination Sequence:
#
# PCOD9425964 Si02
#       8
#     8   8   8   8   8   8   8   8
#     4  10  22  39  59  83 116 152 192 249 300 341
#     4  11  22  39  63  84 112 156 203 245 290 353
#     4  10  21  36  56  83 116 157 193 232 294 358
#     4  10  20  36  58  83 117 156 191 233 292 352
#     4  10  19  34  58  87 117 147 186 237 290 346
#     4  10  21  40  60  86 113 151 197 240 295 350
#     4  10  19  33  58  85 115 149 190 237 284 358
#     4  11  23  38  59  86 120 151 202 246 295 350
#
# _framework density 18.134971
#
# number of rings (size 3 to 8) (size 9 to 14) (size 15 to 20)
#    0.000    1.750    2.500    2.625    1.750    0.750 
#    0.000    3.125    0.000    0.750    0.000    0.000 
#    0.000    0.000    0.000    0.000    0.000    0.000 
#
# Total GULP energy -357268.518298 kJ/mol
# GULP energy per Si atom -5582.320598 kJ/mol
# Density = 1.809370 g / cm^3
# Si number density = 18.134971 Si / 1000 Ang^3
#
#
#
# Elastic Constant Matrix: (Units=GPa)
#
#
# Indices 1 2 3 4 5 6 
#
# 1 56.0569 -0.3258 26.3952 0.0000 0.0000 0.0000
# 2 -0.3258 37.7480 2.8387 0.0000 0.0000 0.0000
# 3 26.3952 2.8387 99.1795 0.0000 0.0000 0.0000
# 4 0.0000 0.0000 0.0000 20.9565 0.0000 0.0000
# 5 0.0000 0.0000 0.0000 0.0000 -6.5818 0.0000
# 6 0.0000 0.0000 0.0000 0.0000 0.0000 22.6150
#
#
#
# Elastic Compliance Matrix: (Units=1/GPa)
#
#
# Indices 1 2 3 4 5 6 
#
# 1 0.020408 0.000586 -0.005448 0.000000 0.000000 0.000000
# 2 0.000586 0.026565 -0.000916 0.000000 0.000000 0.000000
# 3 -0.005448 -0.000916 0.011559 0.000000 0.000000 0.000000
# 4 0.000000 0.000000 0.000000 0.047718 0.000000 0.000000
# 5 0.000000 0.000000 0.000000 0.000000 -0.151933 0.000000
# 6 0.000000 0.000000 0.000000 0.000000 0.000000 0.044218
#
#
# Mechanical properties :
#
#
# Convention : Reuss Voigt Hill
#
# Bulk Modulus (GPa) = 21.28788 27.86675 24.57731
# Shear Modulus (GPa) = 194.17070 18.33635 106.25352
#
# Velocity S-wave (km/s) = 10.35868 3.18324 7.66274
# Velocity P-wave (km/s) = 12.44322 5.37683 9.58499
#
# Compressibility (1/GPa) = 0.04697510
#
# Stress axis : x y z
#
# Youngs Moduli (GPa) = 49.00117 37.64295 86.51379
#
# Poissons Ratio (x) = -0.02205 0.47132
# Poissons Ratio (y) = -0.02871 0.07927
# Poissons Ratio (z) = 0.26696 0.03449
#
# Static dielectric constant tensor:
#      x y z
#    x 1.596840 0.000000 0.000000 
#    y 0.000000 1.606300 0.000000 
#    z 0.000000 0.000000 1.613800 
# 
# From -- ./inp_files/14408.got.cif
#   From: 2010.05.17/outbox.cif.g08.bks.cpg/sg55_8_cif.got.tgz:14408.got - 2010.06.03 13:27:54.
