data_PCOD9425866
_publ_section_title
;
Structure prediction by ZEFSAII (Michael W. Deem and Ramdas Pophale) SiO2 
 PCOD9425866
Probable space group: P B A M
;
_chemical_formula_sum "Si O2"
_cell_formula_units_Z 56
_cell_length_a 21.436209
_cell_length_b 15.106243
_cell_length_c 7.573982
_cell_angle_alpha 90.000000
_cell_angle_beta 90.000000
_cell_angle_gamma 90.000000
_cell_volume 2452.611260
_symmetry_space_group_name_H-M "P B A M"
_symmetry_group_IT_number 55
_symmetry_cell_setting 'orthorhombic'
loop_
_space_group_symop_operation_xyz
x,y,z
-x,-y,z
1/2+x,1/2-y,-z
1/2-x,1/2+y,-z
-x,-y,-z
x,y,-z
1/2-x,1/2+y,z
1/2+x,1/2-y,z
loop_
_atom_site_type_symbol
_atom_site_label
_atom_site_fract_x
_atom_site_fract_y
_atom_site_fract_z
Si Si1 0.563087 0.602072 0.203064
Si Si2 0.299332 0.912504 0.213212
Si Si3 0.816770 0.202738 0.782996
Si Si4 0.077947 0.092328 0.699843
Si Si5 0.473644 0.096728 0.714096
Si Si6 0.671080 0.895007 0.794297
Si Si7 0.913906 0.716541 0.289267
O O1 0.615647 0.667441 0.273474
O O2 0.589156 0.501410 0.207906
O O3 0.497416 0.603357 0.301364
O O4 0.549157 0.624124 0.000000
O O5 0.237257 0.863357 0.274242
O O6 0.359094 0.853123 0.258480
O O7 0.306779 0.011989 0.283434
O O8 0.297232 0.916827 0.000000
O O9 0.804884 0.302324 0.720033
O O10 0.818004 0.202625 0.000000
O O11 0.101204 0.082796 0.500000
O O12 0.100939 0.185089 0.780426
O O13 0.471427 0.098893 0.500000
O O14 0.403964 0.107821 0.782577
O O15 0.521825 0.172202 0.775771
O O16 0.500000 0.000000 0.764893
O O17 0.689188 0.895764 0.000000
O O18 0.921157 0.727932 0.500000
#
# Coordination Sequence:
#
# PCOD9425866 Si02
#       7
#     8   8   8   8   8   8   8
#     4  10  19  34  56  80 106 139 181 222 264 317
#     4  10  21  36  55  78 105 140 179 220 264 311
#     4   9  20  37  55  78 109 143 179 222 269 318
#     4  10  20  34  54  79 111 141 172 219 271 318
#     4  10  19  33  55  79 109 143 172 215 274 325
#     4  10  20  35  56  81 108 139 180 224 266 319
#     4  10  21  36  53  78 110 143 176 216 269 325
#
# _framework density 22.832808
#
# number of rings (size 3 to 8) (size 9 to 14) (size 15 to 20)
#    0.000    2.143    1.429    2.571    0.000    3.143 
#    0.000    5.714    0.000    0.000    0.000    0.000 
#    0.000    0.000    0.000    0.000    0.000    0.000 
#
# Total GULP energy -312982.156956 kJ/mol
# GULP energy per Si atom -5588.967089 kJ/mol
# Density = 2.278084 g / cm^3
# Si number density = 22.832808 Si / 1000 Ang^3
#
#
#
# Elastic Constant Matrix: (Units=GPa)
#
#
# Indices 1 2 3 4 5 6 
#
# 1 43.4206 28.3950 -10.5434 0.0000 0.0000 0.0000
# 2 28.3950 157.7175 0.9151 0.0000 0.0000 0.0000
# 3 -10.5434 0.9151 57.6713 0.0000 0.0000 0.0000
# 4 0.0000 0.0000 0.0000 0.9184 0.0000 0.0000
# 5 0.0000 0.0000 0.0000 0.0000 14.7228 0.0000
# 6 0.0000 0.0000 0.0000 0.0000 0.0000 21.9785
#
#
#
# Elastic Compliance Matrix: (Units=1/GPa)
#
#
# Indices 1 2 3 4 5 6 
#
# 1 0.027533 -0.004987 0.005113 0.000000 0.000000 0.000000
# 2 -0.004987 0.007244 -0.001027 0.000000 0.000000 0.000000
# 3 0.005113 -0.001027 0.018291 0.000000 0.000000 0.000000
# 4 0.000000 0.000000 0.000000 1.088859 0.000000 0.000000
# 5 0.000000 0.000000 0.000000 0.000000 0.067922 0.000000
# 6 0.000000 0.000000 0.000000 0.000000 0.000000 0.045499
#
#
# Mechanical properties :
#
#
# Convention : Reuss Voigt Hill
#
# Bulk Modulus (GPa) = 19.50582 32.92699 26.21641
# Shear Modulus (GPa) = 3.92392 23.52679 13.72535
#
# Velocity S-wave (km/s) = 1.31235 3.21346 2.45444
# Velocity P-wave (km/s) = 3.29512 5.31231 4.42032
#
# Compressibility (1/GPa) = 0.05126674
#
# Stress axis : x y z
#
# Youngs Moduli (GPa) = 36.32000 138.04171 54.67281
#
# Poissons Ratio (x) = 0.68836 -0.27952
# Poissons Ratio (y) = 0.18111 0.05613
# Poissons Ratio (z) = -0.18569 0.14171
#
# Static dielectric constant tensor:
#      x y z
#    x 1.787440 0.000000 0.000000 
#    y 0.000000 1.882650 0.000000 
#    z 0.000000 0.000000 1.838880 
# 
# From -- ./inp_files/8798.got.cif
#   From: 2010.05.17/outbox.cif.g08.bks.cpg/sg55_5_cif.got.tgz:8798.got - 2010.06.03 13:27:54.
