data_PCOD9425997
_publ_section_title
;
Structure prediction by ZEFSAII (Michael W. Deem and Ramdas Pophale) SiO2 
 PCOD9425997
Probable space group: P B A M
;
_chemical_formula_sum "Si O2"
_cell_formula_units_Z 64
_cell_length_a 12.995207
_cell_length_b 28.531399
_cell_length_c 9.288317
_cell_angle_alpha 90.000000
_cell_angle_beta 90.000000
_cell_angle_gamma 90.000000
_cell_volume 3443.842632
_symmetry_space_group_name_H-M "P B A M"
_symmetry_group_IT_number 55
_symmetry_cell_setting 'orthorhombic'
loop_
_space_group_symop_operation_xyz
x,y,z
-x,-y,z
1/2+x,1/2-y,-z
1/2-x,1/2+y,-z
-x,-y,-z
x,y,-z
1/2-x,1/2+y,z
1/2+x,1/2-y,z
loop_
_atom_site_type_symbol
_atom_site_label
_atom_site_fract_x
_atom_site_fract_y
_atom_site_fract_z
Si Si1 0.451414 0.111590 0.170597
Si Si2 0.357064 0.675053 0.333441
Si Si3 0.416555 0.565082 0.333168
Si Si4 0.692778 0.961526 0.673388
Si Si5 0.058261 0.803018 0.827419
Si Si6 0.155662 0.445045 0.827861
Si Si7 0.846350 0.294905 0.828928
Si Si8 0.116506 0.909191 0.828024
O O1 0.367362 0.082706 0.261036
O O2 0.564552 0.091628 0.202808
O O3 0.436385 0.166908 0.195893
O O4 0.432037 0.103205 0.000000
O O5 0.353973 0.688386 0.500000
O O6 0.381328 0.619571 0.326063
O O7 0.449402 0.700048 0.250616
O O8 0.251423 0.686881 0.256502
O O9 0.435476 0.553044 0.500000
O O10 0.313836 0.538364 0.282043
O O11 0.523236 0.562766 0.247086
O O12 0.689546 0.960152 0.500000
O O13 0.640509 0.007597 0.738714
O O14 0.124711 0.757835 0.787301
O O15 0.105072 0.853942 0.790605
O O16 0.544004 0.697963 0.000000
O O17 0.268947 0.425730 0.790980
O O18 0.153320 0.454886 0.000000
O O19 0.824326 0.295214 0.000000
O O20 0.103751 0.913479 0.000000
#
# Coordination Sequence:
#
# PCOD9425997 Si02
#       8
#     8   8   8   8   8   8   8   8
#     4  10  21  37  57  81 112 147 183 228 280 333
#     4  10  19  34  54  77 109 145 179 224 277 328
#     4   9  19  35  55  78 107 141 179 227 274 322
#     4  11  22  37  57  82 109 144 187 233 279 327
#     4   9  19  35  56  83 110 142 185 228 275 330
#     4  10  22  38  54  78 113 149 183 225 280 334
#     4  10  20  34  57  85 109 141 185 231 276 328
#     4   9  19  36  57  80 110 146 182 226 276 330
#
# _framework density 18.583893
#
# number of rings (size 3 to 8) (size 9 to 14) (size 15 to 20)
#    0.000    2.250    1.250    1.125    0.000    6.000 
#    0.000    6.250    0.000    1.500    0.000    0.000 
#    0.000    0.000    0.000    0.000    0.000    0.000 
#
# Total GULP energy -357144.342980 kJ/mol
# GULP energy per Si atom -5580.380359 kJ/mol
# Density = 1.854159 g / cm^3
# Si number density = 18.583893 Si / 1000 Ang^3
#
#
#
# Elastic Constant Matrix: (Units=GPa)
#
#
# Indices 1 2 3 4 5 6 
#
# 1 86.9026 12.4703 25.1507 0.0000 0.0000 0.0000
# 2 12.4703 45.9198 16.1893 0.0000 0.0000 0.0000
# 3 25.1507 16.1893 15.4332 0.0000 0.0000 0.0000
# 4 0.0000 0.0000 0.0000 11.8827 0.0000 0.0000
# 5 0.0000 0.0000 0.0000 0.0000 -13.7577 0.0000
# 6 0.0000 0.0000 0.0000 0.0000 0.0000 26.0379
#
#
#
# Elastic Compliance Matrix: (Units=1/GPa)
#
#
# Indices 1 2 3 4 5 6 
#
# 1 0.025493 0.012256 -0.054401 0.000000 0.000000 0.000000
# 2 0.012256 0.040450 -0.062405 0.000000 0.000000 0.000000
# 3 -0.054401 -0.062405 0.218912 0.000000 0.000000 0.000000
# 4 0.000000 0.000000 0.000000 0.084156 0.000000 0.000000
# 5 0.000000 0.000000 0.000000 0.000000 -0.072687 0.000000
# 6 0.000000 0.000000 0.000000 0.000000 0.000000 0.038405
#
#
# Mechanical properties :
#
#
# Convention : Reuss Voigt Hill
#
# Bulk Modulus (GPa) = 13.20039 28.43068 20.81554
# Shear Modulus (GPa) = 8.78609 11.12896 9.95753
#
# Velocity S-wave (km/s) = 2.17671 2.44980 2.31728
# Velocity P-wave (km/s) = 3.66551 4.83050 4.28776
#
# Compressibility (1/GPa) = 0.07575531
#
# Stress axis : x y z
#
# Youngs Moduli (GPa) = 39.22686 24.72188 4.56804
#
# Poissons Ratio (x) = -0.30300 0.24851
# Poissons Ratio (y) = -0.48078 0.28507
# Poissons Ratio (z) = 2.13398 1.54278
#
# Static dielectric constant tensor:
#      x y z
#    x 1.629060 0.000000 0.000000 
#    y 0.000000 1.647860 0.000000 
#    z 0.000000 0.000000 1.616950 
# 
# From -- ./inp_files/4520.got.cif
#   From: 2010.05.17/outbox.cif.g08.bks.cpg/sg55_3_cif.got.tgz:4520.got - 2010.06.03 13:27:54.
