data_PCOD9425974
_publ_section_title
;
Structure prediction by ZEFSAII (Michael W. Deem and Ramdas Pophale) SiO2 
 PCOD9425974
Probable space group: P B A M
;
_chemical_formula_sum "Si O2"
_cell_formula_units_Z 40
_cell_length_a 20.885208
_cell_length_b 10.454685
_cell_length_c 8.057242
_cell_angle_alpha 90.000000
_cell_angle_beta 90.000000
_cell_angle_gamma 90.000000
_cell_volume 1759.284858
_symmetry_space_group_name_H-M "P B A M"
_symmetry_group_IT_number 55
_symmetry_cell_setting 'orthorhombic'
loop_
_space_group_symop_operation_xyz
x,y,z
-x,-y,z
1/2+x,1/2-y,-z
1/2-x,1/2+y,-z
-x,-y,-z
x,y,-z
1/2-x,1/2+y,z
1/2+x,1/2-y,z
loop_
_atom_site_type_symbol
_atom_site_label
_atom_site_fract_x
_atom_site_fract_y
_atom_site_fract_z
Si Si1 0.700126 0.056837 0.692800
Si Si2 0.581585 0.387344 0.806794
Si Si3 0.723405 0.318877 0.805978
Si Si4 0.569406 0.951172 0.296680
Si Si5 0.442894 0.333872 0.692933
O O1 0.697015 0.091359 0.500000
O O2 0.738479 0.170041 0.780860
O O3 0.733110 0.919568 0.711575
O O4 0.628051 0.038644 0.760208
O O5 0.649842 0.336308 0.748897
O O6 0.520334 0.336379 0.707458
O O7 0.580942 0.541305 0.788336
O O8 0.572410 0.354311 0.000000
O O9 0.726385 0.351619 0.000000
O O10 0.569841 0.951241 0.500000
O O11 0.579612 0.804058 0.245131
O O12 0.500000 0.000000 0.242775
O O13 0.424943 0.348493 0.500000
#
# Coordination Sequence:
#
# PCOD9425974 Si02
#       5
#     8   8   8   8   8
#     4  11  24  42  67  96 124 164 215 263 312 378
#     4  10  21  37  57  84 122 163 203 249 307 373
#     4  11  25  44  63  89 128 170 209 258 318 379
#     4   9  19  36  59  89 123 153 195 256 315 365
#     4  10  19  33  59  91 120 155 202 255 311 368
#
# _framework density 22.736512000000001
#
# number of rings (size 3 to 8) (size 9 to 14) (size 15 to 20)
#    0.000    1.800    0.000    4.800    2.800    4.800 
#    0.000    3.000    0.000    7.200    0.000    0.000 
#    0.000    0.000    0.000    0.000    0.000    0.000 
#
# Total GULP energy -223736.078556 kJ/mol
# GULP energy per Si atom -5593.401964 kJ/mol
# Density = 2.268476 g / cm^3
# Si number density = 22.736512 Si / 1000 Ang^3
#
#
#
# Elastic Constant Matrix: (Units=GPa)
#
#
# Indices 1 2 3 4 5 6 
#
# 1 43.8085 20.3448 -0.3038 0.0000 0.0000 0.0000
# 2 20.3448 88.7347 -5.7036 0.0000 0.0000 0.0000
# 3 -0.3038 -5.7036 31.9528 0.0000 0.0000 0.0000
# 4 0.0000 0.0000 0.0000 202.7694 0.0000 0.0000
# 5 0.0000 0.0000 0.0000 0.0000 16.6926 0.0000
# 6 0.0000 0.0000 0.0000 0.0000 0.0000 31.1843
#
#
#
# Elastic Compliance Matrix: (Units=1/GPa)
#
#
# Indices 1 2 3 4 5 6 
#
# 1 0.025568 -0.005914 -0.000813 0.000000 0.000000 0.000000
# 2 -0.005914 0.012768 0.002223 0.000000 0.000000 0.000000
# 3 -0.000813 0.002223 0.031685 0.000000 0.000000 0.000000
# 4 0.000000 0.000000 0.000000 0.004932 0.000000 0.000000
# 5 0.000000 0.000000 0.000000 0.000000 0.059907 0.000000
# 6 0.000000 0.000000 0.000000 0.000000 0.000000 0.032067
#
#
# Mechanical properties :
#
#
# Convention : Reuss Voigt Hill
#
# Bulk Modulus (GPa) = 16.38984 21.46342 18.92663
# Shear Modulus (GPa) = 25.47473 60.13983 42.80728
#
# Velocity S-wave (km/s) = 3.35092 5.14861 4.34378
# Velocity P-wave (km/s) = 4.71124 6.69364 5.78794
#
# Compressibility (1/GPa) = 0.06101339
#
# Stress axis : x y z
#
# Youngs Moduli (GPa) = 39.11198 78.31811 31.56045
#
# Poissons Ratio (x) = 0.46320 0.02565
# Poissons Ratio (y) = 0.23132 -0.07016
# Poissons Ratio (z) = 0.03178 -0.17410
#
# Static dielectric constant tensor:
#      x y z
#    x 1.847160 0.000000 0.000000 
#    y 0.000000 1.853370 0.000000 
#    z 0.000000 0.000000 1.796240 
# 
# From -- ./inp_files/8485.got.cif
#   From: 2010.05.17/outbox.cif.g08.bks.cpg/sg55_5_cif.got.tgz:8485.got - 2010.06.03 13:27:54.
