data_PCOD9425450
_publ_section_title
;
Structure prediction by ZEFSAII (Michael W. Deem and Ramdas Pophale) SiO2 
 PCOD9425450
Probable space group: P B A M
;
_chemical_formula_sum "Si O2"
_cell_formula_units_Z 40
_cell_length_a 14.273379
_cell_length_b 13.283603
_cell_length_c 8.873410
_cell_angle_alpha 90.000000
_cell_angle_beta 90.000000
_cell_angle_gamma 90.000000
_cell_volume 1682.415396
_symmetry_space_group_name_H-M "P B A M"
_symmetry_group_IT_number 55
_symmetry_cell_setting 'orthorhombic'
loop_
_space_group_symop_operation_xyz
x,y,z
-x,-y,z
1/2+x,1/2-y,-z
1/2-x,1/2+y,-z
-x,-y,-z
x,y,-z
1/2-x,1/2+y,z
1/2+x,1/2-y,z
loop_
_atom_site_type_symbol
_atom_site_label
_atom_site_fract_x
_atom_site_fract_y
_atom_site_fract_z
Si Si1 0.231941 0.975654 0.172425
Si Si2 0.551869 0.203072 0.820479
Si Si3 0.741814 0.298066 0.826860
Si Si4 0.393733 0.084615 0.676037
Si Si5 0.947285 0.107564 0.322713
O O1 0.193213 0.091153 0.171813
O O2 0.334109 0.998177 0.240972
O O3 0.158243 0.909886 0.262981
O O4 0.239338 0.942815 0.000000
O O5 0.661810 0.219562 0.784744
O O6 0.493953 0.114736 0.740516
O O7 0.500341 0.305764 0.768602
O O8 0.544430 0.191200 0.000000
O O9 0.827269 0.318174 0.714537
O O10 0.775318 0.283354 0.000000
O O11 0.397358 0.066074 0.500000
O O12 0.948095 0.133313 0.500000
O O13 0.000000 0.000000 0.305937
#
# Coordination Sequence:
#
# PCOD9425450 Si02
#       5
#     8   8   8   8   8
#     4   9  17  31  46  62  90 126 158 188 230 279
#     4  11  20  31  49  71  97 130 165 196 233 287
#     4   8  17  31  47  65  91 125 160 194 230 276
#     4  10  19  31  46  67  96 125 159 200 239 282
#     4  11  20  28  43  70 100 126 154 193 242 289
#
# _framework density 23.77534
#
# number of rings (size 3 to 8) (size 9 to 14) (size 15 to 20)
#    1.200    1.000    2.000    3.000    0.000    2.400 
#    0.000    0.000    0.000    0.000    0.000    1.400 
#    0.000   11.200    0.000    0.000    0.000    0.000 
#
# Total GULP energy -223576.777021 kJ/mol
# GULP energy per Si atom -5589.419426 kJ/mol
# Density = 2.372123 g / cm^3
# Si number density = 23.775340 Si / 1000 Ang^3
#
#
#
# Elastic Constant Matrix: (Units=GPa)
#
#
# Indices 1 2 3 4 5 6 
#
# 1 133.4203 -0.0261 16.2673 0.0000 0.0000 0.0000
# 2 -0.0261 87.8758 -16.0674 0.0000 0.0000 0.0000
# 3 16.2673 -16.0674 48.8530 0.0000 0.0000 0.0000
# 4 0.0000 0.0000 0.0000 5.2587 0.0000 0.0000
# 5 0.0000 0.0000 0.0000 0.0000 8.0050 0.0000
# 6 0.0000 0.0000 0.0000 0.0000 0.0000 47.0925
#
#
#
# Elastic Compliance Matrix: (Units=1/GPa)
#
#
# Indices 1 2 3 4 5 6 
#
# 1 0.007833 -0.000505 -0.002774 0.000000 0.000000 0.000000
# 2 -0.000505 0.012140 0.004161 0.000000 0.000000 0.000000
# 3 -0.002774 0.004161 0.022762 0.000000 0.000000 0.000000
# 4 0.000000 0.000000 0.000000 0.190159 0.000000 0.000000
# 5 0.000000 0.000000 0.000000 0.000000 0.124923 0.000000
# 6 0.000000 0.000000 0.000000 0.000000 0.000000 0.021235
#
#
# Mechanical properties :
#
#
# Convention : Reuss Voigt Hill
#
# Bulk Modulus (GPa) = 22.47250 30.05518 26.26384
# Shear Modulus (GPa) = 12.75113 30.06959 21.41036
#
# Velocity S-wave (km/s) = 2.31837 3.56017 3.00414
# Velocity P-wave (km/s) = 4.07909 5.43770 4.80664
#
# Compressibility (1/GPa) = 0.04449883
#
# Stress axis : x y z
#
# Youngs Moduli (GPa) = 127.66035 82.36992 43.93297
#
# Poissons Ratio (x) = 0.04159 0.12189
# Poissons Ratio (y) = 0.06446 -0.18281
# Poissons Ratio (z) = 0.35419 -0.34274
#
# Static dielectric constant tensor:
#      x y z
#    x 1.909360 0.000000 0.000000 
#    y 0.000000 2.031430 0.000000 
#    z 0.000000 0.000000 1.781010 
# 
# From -- ./inp_files/7493.got.cif
#   From: 2010.05.17/outbox.cif.g08.bks.cpg/sg55_4_cif.got.tgz:7493.got - 2010.06.03 13:27:54.
