data_PCOD9425638
_publ_section_title
;
Structure prediction by ZEFSAII (Michael W. Deem and Ramdas Pophale) SiO2 
 PCOD9425638
Probable space group: P B A M
;
_chemical_formula_sum "Si O2"
_cell_formula_units_Z 64
_cell_length_a 23.399484
_cell_length_b 16.890756
_cell_length_c 7.595957
_cell_angle_alpha 90.000000
_cell_angle_beta 90.000000
_cell_angle_gamma 90.000000
_cell_volume 3002.187873
_symmetry_space_group_name_H-M "P B A M"
_symmetry_group_IT_number 55
_symmetry_cell_setting 'orthorhombic'
loop_
_space_group_symop_operation_xyz
x,y,z
-x,-y,z
1/2+x,1/2-y,-z
1/2-x,1/2+y,-z
-x,-y,-z
x,y,-z
1/2-x,1/2+y,z
1/2+x,1/2-y,z
loop_
_atom_site_type_symbol
_atom_site_label
_atom_site_fract_x
_atom_site_fract_y
_atom_site_fract_z
Si Si1 0.280065 0.957182 0.199608
Si Si2 0.825409 0.955242 0.213203
Si Si3 0.018239 0.588832 0.714926
Si Si4 0.252496 0.192448 0.789171
Si Si5 0.540202 0.250921 0.701972
Si Si6 0.648394 0.898438 0.297778
Si Si7 0.159921 0.311346 0.211560
Si Si8 0.041673 0.070116 0.710086
O O1 0.329042 0.900220 0.275019
O O2 0.217169 0.974342 0.276391
O O3 0.311396 0.041309 0.194748
O O4 0.270783 0.927891 0.000000
O O5 0.792076 0.875737 0.271198
O O6 0.891649 0.952648 0.262969
O O7 0.823592 0.956595 0.000000
O O8 0.013176 0.587890 0.500000
O O9 0.084075 0.602345 0.764973
O O10 0.000000 0.500000 0.773589
O O11 0.984870 0.667961 0.777729
O O12 0.315453 0.181823 0.713680
O O13 0.220519 0.272437 0.745660
O O14 0.256433 0.187930 0.000000
O O15 0.519355 0.254039 0.500000
O O16 0.607912 0.235046 0.704489
O O17 0.530765 0.339541 0.778908
O O18 0.647571 0.924859 0.500000
O O19 0.149275 0.306703 0.000000
O O20 0.032799 0.074734 0.500000
O O21 0.000000 0.000000 0.777700
#
# Coordination Sequence:
#
# PCOD9425638 Si02
#       8
#     8   8   8   8   8   8   8   8
#     4   9  19  34  53  78 107 138 169 211 270 326
#     4   9  17  33  54  75 100 132 171 211 261 319
#     4   9  18  33  52  76 107 142 175 213 265 319
#     4   9  18  33  53  74 103 137 166 210 270 319
#     4  10  20  35  56  78 106 142 182 226 268 314
#     4  10  19  32  52  76 103 137 178 213 254 316
#     4  10  19  34  55  78 105 135 173 217 266 324
#     4  10  21  36  53  75 103 139 180 224 271 314
#
# _framework density 21.317788
#
# number of rings (size 3 to 8) (size 9 to 14) (size 15 to 20)
#    0.000    2.500    1.250    1.875    0.000    4.250 
#    2.250    1.250    0.000    3.375    0.000    0.000 
#    0.000    0.000    0.000    0.000    0.000    0.000 
#
# Total GULP energy -356330.468176 kJ/mol
# GULP energy per Si atom -5567.663565 kJ/mol
# Density = 2.126927 g / cm^3
# Si number density = 21.317788 Si / 1000 Ang^3
#
#
#
# Elastic Constant Matrix: (Units=GPa)
#
#
# Indices 1 2 3 4 5 6 
#
# 1 120.1765 49.1280 1.7628 0.0000 0.0000 0.0000
# 2 49.1280 105.8082 6.9677 0.0000 0.0000 0.0000
# 3 1.7628 6.9677 43.1142 0.0000 0.0000 0.0000
# 4 0.0000 0.0000 0.0000 -0.7071 0.0000 0.0000
# 5 0.0000 0.0000 0.0000 0.0000 20.3893 0.0000
# 6 0.0000 0.0000 0.0000 0.0000 0.0000 34.5418
#
#
#
# Elastic Compliance Matrix: (Units=1/GPa)
#
#
# Indices 1 2 3 4 5 6 
#
# 1 0.010276 -0.004795 0.000355 0.000000 0.000000 0.000000
# 2 -0.004795 0.011790 -0.001709 0.000000 0.000000 0.000000
# 3 0.000355 -0.001709 0.023456 0.000000 0.000000 0.000000
# 4 0.000000 0.000000 0.000000 -1.414322 0.000000 0.000000
# 5 0.000000 0.000000 0.000000 0.000000 0.049045 0.000000
# 6 0.000000 0.000000 0.000000 0.000000 0.000000 0.028950
#
#
# Mechanical properties :
#
#
# Convention : Reuss Voigt Hill
#
# Bulk Modulus (GPa) = 30.09939 42.75733 36.42836
# Shear Modulus (GPa) = -3.94499 24.92749 10.49125
#
# Velocity S-wave (km/s) = -1.36183 3.42325 2.22082
# Velocity P-wave (km/s) = 3.41720 5.97708 4.86841
#
# Compressibility (1/GPa) = 0.03322327
#
# Stress axis : x y z
#
# Youngs Moduli (GPa) = 97.31501 84.81904 42.63309
#
# Poissons Ratio (x) = 0.40667 -0.01512
# Poissons Ratio (y) = 0.46658 0.07287
# Poissons Ratio (z) = -0.03452 0.14498
#
# Static dielectric constant tensor:
#      x y z
#    x 1.764330 0.000000 0.000000 
#    y 0.000000 1.826830 0.000000 
#    z 0.000000 0.000000 1.828240 
# 
# From -- ./inp_files/9013.got.cif
#   From: 2010.05.17/outbox.cif.g08.bks.cpg/sg55_5_cif.got.tgz:9013.got - 2010.06.03 13:27:54.
