data_PCOD9425116
_publ_section_title
;
Structure prediction by ZEFSAII (Michael W. Deem and Ramdas Pophale) SiO2 
 PCOD9425116
Probable space group: P B A M
;
_chemical_formula_sum "Si O2"
_cell_formula_units_Z 64
_cell_length_a 22.116753
_cell_length_b 16.887874
_cell_length_c 7.328198
_cell_angle_alpha 90.000000
_cell_angle_beta 90.000000
_cell_angle_gamma 90.000000
_cell_volume 2737.118139
_symmetry_space_group_name_H-M "P B A M"
_symmetry_group_IT_number 55
_symmetry_cell_setting 'orthorhombic'
loop_
_space_group_symop_operation_xyz
x,y,z
-x,-y,z
1/2+x,1/2-y,-z
1/2-x,1/2+y,-z
-x,-y,-z
x,y,-z
1/2-x,1/2+y,z
1/2+x,1/2-y,z
loop_
_atom_site_type_symbol
_atom_site_label
_atom_site_fract_x
_atom_site_fract_y
_atom_site_fract_z
Si Si1 0.067390 0.028115 0.799289
Si Si2 0.109531 0.865844 0.223301
Si Si3 0.597150 0.304769 0.780248
Si Si4 0.941129 0.449437 0.220296
Si Si5 0.264738 0.673838 0.708795
Si Si6 0.248644 0.846973 0.709770
Si Si7 0.699252 0.986136 0.713651
Si Si8 0.480380 0.224582 0.777226
O O1 0.097549 0.954273 0.705739
O O2 0.062561 0.115334 0.726145
O O3 0.097182 0.037657 0.000000
O O4 0.000000 0.000000 0.822895
O O5 0.176948 0.851187 0.284685
O O6 0.062690 0.797493 0.279132
O O7 0.106195 0.868342 0.000000
O O8 0.662809 0.326983 0.706572
O O9 0.550680 0.236236 0.720382
O O10 0.602815 0.295070 0.000000
O O11 0.873518 0.477827 0.271883
O O12 0.952350 0.358915 0.279648
O O13 0.000000 0.500000 0.280553
O O14 0.941700 0.451141 0.000000
O O15 0.241153 0.679241 0.500000
O O16 0.257414 0.760467 0.797570
O O17 0.232987 0.594101 0.785801
O O18 0.271826 0.841458 0.500000
O O19 0.277628 0.928341 0.787150
O O20 0.716191 0.988219 0.500000
O O21 0.480782 0.225702 0.000000
#
# Coordination Sequence:
#
# PCOD9425116 Si02
#       8
#     8   8   8   8   8   8   8   8
#     4   9  15  27  48  77 108 137 166 205 257 312
#     4  10  18  31  55  82 108 140 180 219 262 319
#     4  10  19  32  55  82 110 143 180 218 266 324
#     4  10  22  38  58  83 112 141 178 231 280 319
#     4  10  22  39  56  77 110 146 181 225 272 316
#     4  10  22  38  56  78 108 144 181 223 270 318
#     4  10  22  41  60  79 109 149 186 224 273 328
#     4   9  18  33  53  81 113 143 176 223 275 321
#
# _framework density 23.382259000000001
#
# number of rings (size 3 to 8) (size 9 to 14) (size 15 to 20)
#    0.000    2.250    1.250    1.500    1.750    1.750 
#    0.000    1.250    0.000    0.750    0.000    0.000 
#    0.000    0.000    0.000    0.000    0.000    0.000 
#
# Total GULP energy -356481.551710 kJ/mol
# GULP energy per Si atom -5570.024245 kJ/mol
# Density = 2.332904 g / cm^3
# Si number density = 23.382259 Si / 1000 Ang^3
#
#
#
# Elastic Constant Matrix: (Units=GPa)
#
#
# Indices 1 2 3 4 5 6 
#
# 1 118.7928 43.6647 -13.6442 0.0000 0.0000 0.0000
# 2 43.6647 139.9093 8.1488 0.0000 0.0000 0.0000
# 3 -13.6442 8.1488 93.8957 0.0000 0.0000 0.0000
# 4 0.0000 0.0000 0.0000 -5.1712 0.0000 0.0000
# 5 0.0000 0.0000 0.0000 0.0000 38.3201 0.0000
# 6 0.0000 0.0000 0.0000 0.0000 0.0000 39.6335
#
#
#
# Elastic Compliance Matrix: (Units=1/GPa)
#
#
# Indices 1 2 3 4 5 6 
#
# 1 0.009769 -0.003148 0.001693 0.000000 0.000000 0.000000
# 2 -0.003148 0.008198 -0.001169 0.000000 0.000000 0.000000
# 3 0.001693 -0.001169 0.010998 0.000000 0.000000 0.000000
# 4 0.000000 0.000000 0.000000 -0.193380 0.000000 0.000000
# 5 0.000000 0.000000 0.000000 0.000000 0.026096 0.000000
# 6 0.000000 0.000000 0.000000 0.000000 0.000000 0.025231
#
#
# Mechanical properties :
#
#
# Convention : Reuss Voigt Hill
#
# Bulk Modulus (GPa) = 42.16281 47.65960 44.91120
# Shear Modulus (GPa) = -50.03247 35.51840 -7.25703
#
# Velocity S-wave (km/s) = -4.63077 3.90170 -1.76363
# Velocity P-wave (km/s) = 3.24361 6.38160 3.88612
#
# Compressibility (1/GPa) = 0.02371759
#
# Stress axis : x y z
#
# Youngs Moduli (GPa) = 102.36052 121.98257 90.92953
#
# Poissons Ratio (x) = 0.38395 -0.15392
# Poissons Ratio (y) = 0.32218 0.10628
# Poissons Ratio (z) = -0.17327 0.14258
#
# Static dielectric constant tensor:
#      x y z
#    x 2.253610 0.000000 0.000000 
#    y 0.000000 1.890820 0.000000 
#    z 0.000000 0.000000 1.978900 
# 
# From -- ./inp_files/9684.got.cif
#   From: 2010.05.17/outbox.cif.g08.bks.cpg/sg55_5_cif.got.tgz:9684.got - 2010.06.03 13:27:54.
