data_PCOD9425745
_publ_section_title
;
Structure prediction by ZEFSAII (Michael W. Deem and Ramdas Pophale) SiO2 
 PCOD9425745
Probable space group: P B A M
;
_chemical_formula_sum "Si O2"
_cell_formula_units_Z 64
_cell_length_a 16.317663
_cell_length_b 16.287386
_cell_length_c 11.666632
_cell_angle_alpha 90.000000
_cell_angle_beta 90.000000
_cell_angle_gamma 90.000000
_cell_volume 3100.665005
_symmetry_space_group_name_H-M "P B A M"
_symmetry_group_IT_number 55
_symmetry_cell_setting 'orthorhombic'
loop_
_space_group_symop_operation_xyz
x,y,z
-x,-y,z
1/2+x,1/2-y,-z
1/2-x,1/2+y,-z
-x,-y,-z
x,y,-z
1/2-x,1/2+y,z
1/2+x,1/2-y,z
loop_
_atom_site_type_symbol
_atom_site_label
_atom_site_fract_x
_atom_site_fract_y
_atom_site_fract_z
Si Si1 0.557301 0.707476 0.765283
Si Si2 0.976293 0.380183 0.122729
Si Si3 0.335511 0.189636 0.374867
Si Si4 0.661807 0.566395 0.866387
Si Si5 0.837945 0.602865 0.187212
Si Si6 0.917843 0.897045 0.132333
Si Si7 0.410456 0.019724 0.334503
Si Si8 0.762081 0.780424 0.134747
O O1 0.539826 0.785054 0.848072
O O2 0.584404 0.752715 0.648352
O O3 0.631295 0.647517 0.801882
O O4 0.478610 0.649470 0.781669
O O5 0.073658 0.395642 0.126710
O O6 0.933072 0.438164 0.213034
O O7 0.941956 0.400172 0.000000
O O8 0.298372 0.213365 0.500000
O O9 0.359965 0.094316 0.385742
O O10 0.289745 0.198194 0.250789
O O11 0.758694 0.550353 0.850552
O O12 0.605631 0.489321 0.833261
O O13 0.648833 0.580768 0.000000
O O14 0.861662 0.564258 0.310926
O O15 0.805236 0.694380 0.166698
O O16 0.832908 0.848130 0.128659
O O17 0.950786 0.896880 0.000000
O O18 0.500000 0.000000 0.383679
O O19 0.728992 0.774584 0.000000
#
# Coordination Sequence:
#
# PCOD9425745 Si02
#       8
#     8   8   8   8   8   8   8   8
#     4  11  21  36  57  82 121 168 214 253 311 371
#     4  10  19  32  55  88 128 166 202 255 321 382
#     4  11  25  45  66  92 131 171 217 269 322 391
#     4  11  21  32  54  89 128 167 210 261 316 378
#     4  11  20  35  58  91 128 163 211 265 321 378
#     4  10  21  36  59  92 129 164 209 268 323 383
#     4   9  22  39  61  91 124 166 212 267 325 381
#     4  11  22  39  66  95 129 171 215 268 326 384
#
# _framework density 20.640734999999999
#
# number of rings (size 3 to 8) (size 9 to 14) (size 15 to 20)
#    0.000    1.500    2.500    3.375    0.000    7.000 
#    0.000    1.250    0.000    1.500    0.000    0.000 
#    0.000    0.000    0.000    0.000    0.000    0.000 
#
# Total GULP energy -356271.983312 kJ/mol
# GULP energy per Si atom -5566.749739 kJ/mol
# Density = 2.059376 g / cm^3
# Si number density = 20.640735 Si / 1000 Ang^3
#
#
#
# Elastic Constant Matrix: (Units=GPa)
#
#
# Indices 1 2 3 4 5 6 
#
# 1 75.8300 16.3971 34.9025 0.0000 0.0000 0.0000
# 2 16.3971 92.4488 31.1293 0.0000 0.0000 0.0000
# 3 34.9025 31.1293 125.3432 0.0000 0.0000 0.0000
# 4 0.0000 0.0000 0.0000 15.7334 0.0000 0.0000
# 5 0.0000 0.0000 0.0000 0.0000 -11.7888 0.0000
# 6 0.0000 0.0000 0.0000 0.0000 0.0000 37.3896
#
#
#
# Elastic Compliance Matrix: (Units=1/GPa)
#
#
# Indices 1 2 3 4 5 6 
#
# 1 0.015289 -0.001395 -0.003911 0.000000 0.000000 0.000000
# 2 -0.001395 0.011931 -0.002575 0.000000 0.000000 0.000000
# 3 -0.003911 -0.002575 0.009707 0.000000 0.000000 0.000000
# 4 0.000000 0.000000 0.000000 0.063559 0.000000 0.000000
# 5 0.000000 0.000000 0.000000 0.000000 -0.084826 0.000000
# 6 0.000000 0.000000 0.000000 0.000000 0.000000 0.026745
#
#
# Mechanical properties :
#
#
# Convention : Reuss Voigt Hill
#
# Bulk Modulus (GPa) = 47.24602 50.94219 49.09411
# Shear Modulus (GPa) = 76.66230 22.34638 49.50434
#
# Velocity S-wave (km/s) = 6.10097 3.29391 4.90264
# Velocity P-wave (km/s) = 8.51872 6.26103 7.47560
#
# Compressibility (1/GPa) = 0.02116580
#
# Stress axis : x y z
#
# Youngs Moduli (GPa) = 65.40614 83.81422 103.02322
#
# Poissons Ratio (x) = 0.11691 0.40291
# Poissons Ratio (y) = 0.09123 0.26526
# Poissons Ratio (z) = 0.25580 0.21580
#
# Static dielectric constant tensor:
#      x y z
#    x 1.814210 0.000000 0.000000 
#    y 0.000000 1.762000 0.000000 
#    z 0.000000 0.000000 1.765040 
# 
# From -- ./inp_files/15029.got.cif
#   From: 2010.05.17/outbox.cif.g08.bks.cpg/sg55_8_cif.got.tgz:15029.got - 2010.06.03 13:27:54.
