data_PCOD9425828
_publ_section_title
;
Structure prediction by ZEFSAII (Michael W. Deem and Ramdas Pophale) SiO2 
 PCOD9425828
Probable space group: P B A M
;
_chemical_formula_sum "Si O2"
_cell_formula_units_Z 64
_cell_length_a 20.106006
_cell_length_b 19.326406
_cell_length_c 7.790943
_cell_angle_alpha 90.000000
_cell_angle_beta 90.000000
_cell_angle_gamma 90.000000
_cell_volume 3027.379973
_symmetry_space_group_name_H-M "P B A M"
_symmetry_group_IT_number 55
_symmetry_cell_setting 'orthorhombic'
loop_
_space_group_symop_operation_xyz
x,y,z
-x,-y,z
1/2+x,1/2-y,-z
1/2-x,1/2+y,-z
-x,-y,-z
x,y,-z
1/2-x,1/2+y,z
1/2+x,1/2-y,z
loop_
_atom_site_type_symbol
_atom_site_label
_atom_site_fract_x
_atom_site_fract_y
_atom_site_fract_z
Si Si1 0.756247 0.019995 0.298907
Si Si2 0.251817 0.639610 0.200356
Si Si3 0.610173 0.022471 0.291863
Si Si4 0.900294 0.041581 0.290898
Si Si5 0.964754 0.656231 0.202261
Si Si6 0.628810 0.271262 0.801253
Si Si7 0.534256 0.393758 0.708074
Si Si8 0.391800 0.135557 0.298565
O O1 0.755390 0.037785 0.500000
O O2 0.758046 0.936169 0.284961
O O3 0.684487 0.042299 0.228653
O O4 0.825158 0.049181 0.225541
O O5 0.304794 0.694062 0.274118
O O6 0.175574 0.663737 0.215852
O O7 0.267755 0.628798 0.000000
O O8 0.609411 0.022052 0.500000
O O9 0.556243 0.077374 0.234090
O O10 0.599070 0.943593 0.234284
O O11 0.898590 0.043652 0.500000
O O12 0.957672 0.094985 0.238207
O O13 0.927164 0.964864 0.247691
O O14 0.905950 0.703951 0.277495
O O15 0.037852 0.672063 0.272915
O O16 0.968160 0.668833 0.000000
O O17 0.572441 0.330256 0.790209
O O18 0.644619 0.255044 0.000000
O O19 0.536546 0.386633 0.500000
O O20 0.377599 0.132181 0.500000
#
# Coordination Sequence:
#
# PCOD9425828 Si02
#       8
#     8   8   8   8   8   8   8   8
#     4   9  16  30  52  77 108 138 169 216 268 311
#     4  10  19  33  54  79 106 138 174 211 255 310
#     4   9  19  34  54  80 107 134 169 223 278 317
#     4   8  14  26  47  77 107 135 173 221 267 304
#     4  11  23  38  55  76 107 145 178 213 262 318
#     4  10  22  37  51  74 110 146 179 217 259 309
#     4   9  16  28  50  75 101 139 182 220 259 309
#     4  10  21  38  60  84 107 130 169 224 272 313
#
# _framework density 21.140391999999999
#
# number of rings (size 3 to 8) (size 9 to 14) (size 15 to 20)
#    0.000    2.500    1.250    3.000    0.000    5.500 
#    0.000    3.125    0.000    3.000    0.000    0.000 
#    0.000    0.000    0.000    0.000    0.000    0.000 
#
# Total GULP energy -356984.351788 kJ/mol
# GULP energy per Si atom -5577.880497 kJ/mol
# Density = 2.109228 g / cm^3
# Si number density = 21.140392 Si / 1000 Ang^3
#
#
#
# Elastic Constant Matrix: (Units=GPa)
#
#
# Indices 1 2 3 4 5 6 
#
# 1 152.2268 17.1517 -3.3846 0.0000 0.0000 0.0000
# 2 17.1517 30.3905 -4.4207 0.0000 0.0000 0.0000
# 3 -3.3846 -4.4207 27.4866 0.0000 0.0000 0.0000
# 4 0.0000 0.0000 0.0000 13.8842 0.0000 0.0000
# 5 0.0000 0.0000 0.0000 0.0000 18.5987 0.0000
# 6 0.0000 0.0000 0.0000 0.0000 0.0000 26.6309
#
#
#
# Elastic Compliance Matrix: (Units=1/GPa)
#
#
# Indices 1 2 3 4 5 6 
#
# 1 0.007017 -0.003926 0.000233 0.000000 0.000000 0.000000
# 2 -0.003926 0.035890 0.005289 0.000000 0.000000 0.000000
# 3 0.000233 0.005289 0.037261 0.000000 0.000000 0.000000
# 4 0.000000 0.000000 0.000000 0.072024 0.000000 0.000000
# 5 0.000000 0.000000 0.000000 0.000000 0.053767 0.000000
# 6 0.000000 0.000000 0.000000 0.000000 0.000000 0.037550
#
#
# Mechanical properties :
#
#
# Convention : Reuss Voigt Hill
#
# Bulk Modulus (GPa) = 11.99649 25.42186 18.70917
# Shear Modulus (GPa) = 18.64942 25.20661 21.92802
#
# Velocity S-wave (km/s) = 2.97336 3.45678 3.22414
# Velocity P-wave (km/s) = 4.18029 5.28997 4.76752
#
# Compressibility (1/GPa) = 0.08335773
#
# Stress axis : x y z
#
# Youngs Moduli (GPa) = 142.51737 27.86279 26.83799
#
# Poissons Ratio (x) = 0.10940 -0.00624
# Poissons Ratio (y) = 0.55955 -0.14194
# Poissons Ratio (z) = -0.03314 -0.14736
#
# Static dielectric constant tensor:
#      x y z
#    x 1.810450 0.000000 0.000000 
#    y 0.000000 1.748220 0.000000 
#    z 0.000000 0.000000 1.763700 
# 
# From -- ./inp_files/8975.got.cif
#   From: 2010.05.17/outbox.cif.g08.bks.cpg/sg55_5_cif.got.tgz:8975.got - 2010.06.03 13:27:54.
