data_PCOD9425658
_publ_section_title
;
Structure prediction by ZEFSAII (Michael W. Deem and Ramdas Pophale) SiO2 
 PCOD9425658
Probable space group: P B A M
;
_chemical_formula_sum "Si O2"
_cell_formula_units_Z 64
_cell_length_a 14.559275
_cell_length_b 25.738738
_cell_length_c 9.044349
_cell_angle_alpha 90.000000
_cell_angle_beta 90.000000
_cell_angle_gamma 90.000000
_cell_volume 3389.255510
_symmetry_space_group_name_H-M "P B A M"
_symmetry_group_IT_number 55
_symmetry_cell_setting 'orthorhombic'
loop_
_space_group_symop_operation_xyz
x,y,z
-x,-y,z
1/2+x,1/2-y,-z
1/2-x,1/2+y,-z
-x,-y,-z
x,y,-z
1/2-x,1/2+y,z
1/2+x,1/2-y,z
loop_
_atom_site_type_symbol
_atom_site_label
_atom_site_fract_x
_atom_site_fract_y
_atom_site_fract_z
Si Si1 0.181900 0.387600 0.667622
Si Si2 0.383039 0.336241 0.333190
Si Si3 0.263761 0.482831 0.827573
Si Si4 0.463158 0.428140 0.830169
Si Si5 0.628023 0.772998 0.825318
Si Si6 0.309507 0.693140 0.322893
Si Si7 0.853573 0.926445 0.673736
Si Si8 0.086374 0.291222 0.825545
O O1 0.146780 0.392760 0.500000
O O2 0.284574 0.363920 0.658506
O O3 0.195048 0.443365 0.745361
O O4 0.126393 0.344320 0.758057
O O5 0.422631 0.335212 0.500000
O O6 0.442891 0.369469 0.220198
O O7 0.368662 0.280185 0.266115
O O8 0.365853 0.457042 0.815683
O O9 0.276964 0.539350 0.756387
O O10 0.240794 0.486047 0.000000
O O11 0.546690 0.445375 0.728209
O O12 0.492981 0.432129 0.000000
O O13 0.709741 0.806014 0.754246
O O14 0.523777 0.792499 0.809323
O O15 0.645478 0.764752 0.000000
O O16 0.302157 0.701440 0.500000
O O17 0.348003 0.635227 0.297160
O O18 0.369897 0.740412 0.254730
O O19 0.844103 0.935126 0.500000
O O20 0.108706 0.287697 0.000000
#
# Coordination Sequence:
#
# PCOD9425658 Si02
#       8
#     8   8   8   8   8   8   8   8
#     4  10  20  35  57  83 111 146 187 231 281 334
#     4  10  19  32  52  79 111 147 186 229 278 336
#     4  10  21  36  56  81 112 151 192 238 288 342
#     4  10  20  33  52  80 113 150 192 234 283 342
#     4  11  23  37  57  84 115 153 193 238 291 347
#     4  11  24  40  58  84 118 157 195 238 289 345
#     4  11  23  37  54  79 113 151 194 239 289 347
#     4  11  23  38  59  87 117 150 191 238 290 346
#
# _framework density 18.883203000000002
#
# number of rings (size 3 to 8) (size 9 to 14) (size 15 to 20)
#    0.000    1.500    1.250    4.125    0.000   10.000 
#    0.000    0.000    0.000    0.750    0.000    5.250 
#    0.000    0.000    0.000    0.000    0.000    0.000 
#
# Total GULP energy -357318.716120 kJ/mol
# GULP energy per Si atom -5583.104939 kJ/mol
# Density = 1.884022 g / cm^3
# Si number density = 18.883203 Si / 1000 Ang^3
#
#
#
# Elastic Constant Matrix: (Units=GPa)
#
#
# Indices 1 2 3 4 5 6 
#
# 1 54.3082 15.6221 35.1261 0.0000 0.0000 0.0000
# 2 15.6221 44.9031 28.2982 0.0000 0.0000 0.0000
# 3 35.1261 28.2982 90.3564 0.0000 0.0000 0.0000
# 4 0.0000 0.0000 0.0000 24.9567 0.0000 0.0000
# 5 0.0000 0.0000 0.0000 0.0000 19.7370 0.0000
# 6 0.0000 0.0000 0.0000 0.0000 0.0000 12.2223
#
#
#
# Elastic Compliance Matrix: (Units=1/GPa)
#
#
# Indices 1 2 3 4 5 6 
#
# 1 0.024962 -0.003201 -0.008702 0.000000 0.000000 0.000000
# 2 -0.003201 0.028157 -0.007574 0.000000 0.000000 0.000000
# 3 -0.008702 -0.007574 0.016822 0.000000 0.000000 0.000000
# 4 0.000000 0.000000 0.000000 0.040069 0.000000 0.000000
# 5 0.000000 0.000000 0.000000 0.000000 0.050666 0.000000
# 6 0.000000 0.000000 0.000000 0.000000 0.000000 0.081818
#
#
# Mechanical properties :
#
#
# Convention : Reuss Voigt Hill
#
# Bulk Modulus (GPa) = 32.27002 38.62893 35.44948
# Shear Modulus (GPa) = 17.13636 18.75128 17.94382
#
# Velocity S-wave (km/s) = 3.01573 3.15463 3.08596
# Velocity P-wave (km/s) = 5.40856 5.81121 5.61349
#
# Compressibility (1/GPa) = 0.03098851
#
# Stress axis : x y z
#
# Youngs Moduli (GPa) = 40.06038 35.51525 59.44547
#
# Poissons Ratio (x) = 0.11367 0.51728
# Poissons Ratio (y) = 0.12822 0.45024
# Poissons Ratio (z) = 0.34859 0.26899
#
# Static dielectric constant tensor:
#      x y z
#    x 1.673030 0.000000 0.000000 
#    y 0.000000 1.672440 0.000000 
#    z 0.000000 0.000000 1.645200 
# 
# From -- ./inp_files/6728.got.cif
#   From: 2010.05.17/outbox.cif.g08.bks.cpg/sg55_4_cif.got.tgz:6728.got - 2010.06.03 13:27:54.
