data_PCOD9425334
_publ_section_title
;
Structure prediction by ZEFSAII (Michael W. Deem and Ramdas Pophale) SiO2 
 PCOD9425334
Probable space group: P B A M
;
_chemical_formula_sum "Si O2"
_cell_formula_units_Z 48
_cell_length_a 26.482621
_cell_length_b 5.847780
_cell_length_c 13.343048
_cell_angle_alpha 90.000000
_cell_angle_beta 90.000000
_cell_angle_gamma 90.000000
_cell_volume 2066.365010
_symmetry_space_group_name_H-M "P B A M"
_symmetry_group_IT_number 55
_symmetry_cell_setting 'orthorhombic'
loop_
_space_group_symop_operation_xyz
x,y,z
-x,-y,z
1/2+x,1/2-y,-z
1/2-x,1/2+y,-z
-x,-y,-z
x,y,-z
1/2-x,1/2+y,z
1/2+x,1/2-y,z
loop_
_atom_site_type_symbol
_atom_site_label
_atom_site_fract_x
_atom_site_fract_y
_atom_site_fract_z
Si Si1 0.569776 0.630633 0.389048
Si Si2 0.180736 0.624988 0.387276
Si Si3 0.452019 0.133040 0.804983
Si Si4 0.369402 0.425702 0.108919
Si Si5 0.620510 0.239641 0.712406
Si Si6 0.274083 0.207618 0.822174
O O1 0.549310 0.661915 0.500000
O O2 0.582105 0.371271 0.360200
O O3 0.626252 0.744175 0.386050
O O4 0.536992 0.740544 0.300761
O O5 0.200985 0.637845 0.500000
O O6 0.164376 0.370741 0.353462
O O7 0.215372 0.714047 0.297716
O O8 0.410251 0.948664 0.773445
O O9 0.500000 0.000000 0.845710
O O10 0.424630 0.317087 0.874652
O O11 0.359638 0.590499 0.202590
O O12 0.327615 0.229973 0.121605
O O13 0.365228 0.534705 0.000000
O O14 0.252641 0.953128 0.846862
#
# Coordination Sequence:
#
# PCOD9425334 Si02
#       6
#     8   8   8   8   8   8
#     4   9  18  33  60  92 126 174 222 269 336 414
#     4  10  20  38  64  97 136 179 221 272 342 415
#     4  10  22  40  64  94 132 173 222 288 355 427
#     4  11  25  45  67  94 130 178 232 294 362 419
#     4  10  18  40  64  93 132 180 224 283 343 417
#     4  12  26  45  69 102 140 177 232 288 343 416
#
# _framework density 23.229195000000001
#
# number of rings (size 3 to 8) (size 9 to 14) (size 15 to 20)
#    0.000    1.667    5.000    1.500    0.000    6.000 
#    0.000    1.667    0.000    0.000    0.000    0.000 
#    0.000    0.000    0.000    0.000    0.000    0.000 
#
# Total GULP energy -268075.902873 kJ/mol
# GULP energy per Si atom -5584.914643 kJ/mol
# Density = 2.317632 g / cm^3
# Si number density = 23.229195 Si / 1000 Ang^3
#
#
#
# Elastic Constant Matrix: (Units=GPa)
#
#
# Indices 1 2 3 4 5 6 
#
# 1 47.7146 10.1685 -1.5360 0.0000 0.0000 0.0000
# 2 10.1685 79.4572 7.7112 0.0000 0.0000 0.0000
# 3 -1.5360 7.7112 92.4271 0.0000 0.0000 0.0000
# 4 0.0000 0.0000 0.0000 9.8413 0.0000 0.0000
# 5 0.0000 0.0000 0.0000 0.0000 1.3461 0.0000
# 6 0.0000 0.0000 0.0000 0.0000 0.0000 30.0777
#
#
#
# Elastic Compliance Matrix: (Units=1/GPa)
#
#
# Indices 1 2 3 4 5 6 
#
# 1 0.021578 -0.002819 0.000594 0.000000 0.000000 0.000000
# 2 -0.002819 0.013056 -0.001136 0.000000 0.000000 0.000000
# 3 0.000594 -0.001136 0.010924 0.000000 0.000000 0.000000
# 4 0.000000 0.000000 0.000000 0.101612 0.000000 0.000000
# 5 0.000000 0.000000 0.000000 0.000000 0.742908 0.000000
# 6 0.000000 0.000000 0.000000 0.000000 0.000000 0.033247
#
#
# Mechanical properties :
#
#
# Convention : Reuss Voigt Hill
#
# Bulk Modulus (GPa) = 25.74969 28.03183 26.89076
# Shear Modulus (GPa) = 5.30226 21.80335 13.55281
#
# Velocity S-wave (km/s) = 1.51246 3.06701 2.41807
# Velocity P-wave (km/s) = 3.76287 4.96344 4.40426
#
# Compressibility (1/GPa) = 0.03883542
#
# Stress axis : x y z
#
# Youngs Moduli (GPa) = 46.34384 76.59066 91.54161
#
# Poissons Ratio (x) = 0.21591 -0.05436
# Poissons Ratio (y) = 0.13065 0.10400
# Poissons Ratio (z) = -0.02752 0.08702
#
# Static dielectric constant tensor:
#      x y z
#    x 1.897180 0.000000 0.000000 
#    y 0.000000 1.935590 0.000000 
#    z 0.000000 0.000000 1.831090 
# 
# From -- ./inp_files/20046.got.cif
#   From: 2010.05.17/outbox.cif.g08.bks.cpg/sg55_11_cif.got.tgz:20046.got - 2010.06.03 13:27:54.
