data_PCOD9425943
_publ_section_title
;
Structure prediction by ZEFSAII (Michael W. Deem and Ramdas Pophale) SiO2 
 PCOD9425943
Probable space group: P B A M
;
_chemical_formula_sum "Si O2"
_cell_formula_units_Z 44
_cell_length_a 7.790810
_cell_length_b 17.599595
_cell_length_c 11.455831
_cell_angle_alpha 90.000000
_cell_angle_beta 90.000000
_cell_angle_gamma 90.000000
_cell_volume 1570.767421
_symmetry_space_group_name_H-M "P B A M"
_symmetry_group_IT_number 55
_symmetry_cell_setting 'orthorhombic'
loop_
_space_group_symop_operation_xyz
x,y,z
-x,-y,z
1/2+x,1/2-y,-z
1/2-x,1/2+y,-z
-x,-y,-z
x,y,-z
1/2-x,1/2+y,z
1/2+x,1/2-y,z
loop_
_atom_site_type_symbol
_atom_site_label
_atom_site_fract_x
_atom_site_fract_y
_atom_site_fract_z
Si Si1 0.974732 0.098745 0.745830
Si Si2 0.123305 0.565985 0.257573
Si Si3 0.030392 0.268729 0.000000
Si Si4 0.729987 0.260009 0.500000
Si Si5 0.557482 0.223237 0.259319
Si Si6 0.935911 0.091913 0.000000
Si Si7 0.470690 0.370155 0.500000
Si Si8 0.672369 0.911371 0.000000
O O1 0.168471 0.064623 0.736078
O O2 0.992759 0.190158 0.752103
O O3 0.878219 0.076210 0.865749
O O4 0.904955 0.087986 0.615091
O O5 0.000000 0.500000 0.309877
O O6 0.065601 0.652112 0.287990
O O7 0.090791 0.563974 0.119020
O O8 0.118139 0.289518 0.124348
O O9 0.973228 0.182161 0.000000
O O10 0.856099 0.320289 0.000000
O O11 0.676123 0.227701 0.627463
O O12 0.917824 0.219756 0.500000
O O13 0.676008 0.349875 0.500000
O O14 0.132137 0.061376 0.000000
#
# Coordination Sequence:
#
# PCOD9425943 Si02
#       8
#     8   8   4   4   8   4   4   4
#     4   9  19  32  55  79 116 147 194 231 290 333
#     4  10  19  33  56  89 120 154 196 245 289 343
#     4   8  14  29  45  78 106 147 178 239 279 335
#     4  10  22  36  56  81 115 151 195 239 289 345
#     4   9  19  32  55  79 116 147 194 231 290 333
#     4   8  14  29  45  78 106 147 178 239 279 335
#     4  10  22  36  56  81 115 151 195 239 289 345
#     4   8  15  28  50  78 120 152 187 234 293 340
#
# _framework density 28.011783000000001
#
# number of rings (size 3 to 8) (size 9 to 14) (size 15 to 20)
#    0.000    2.909    0.000    0.273   10.182    0.000 
#    3.273    1.818    0.000    2.182    0.000    0.000 
#    0.000    8.727    0.000    0.000    0.000    0.000 
#
# Total GULP energy -245168.444110 kJ/mol
# GULP energy per Si atom -5572.010093 kJ/mol
# Density = 2.794803 g / cm^3
# Si number density = 28.011783 Si / 1000 Ang^3
#
#
#
# Elastic Constant Matrix: (Units=GPa)
#
#
# Indices 1 2 3 4 5 6 
#
# 1 38.2063 21.0379 49.7420 0.0000 0.0000 0.0000
# 2 21.0379 111.7784 28.5062 0.0000 0.0000 0.0000
# 3 49.7420 28.5062 253.4873 0.0000 0.0000 0.0000
# 4 0.0000 0.0000 0.0000 25.6541 0.0000 0.0000
# 5 0.0000 0.0000 0.0000 0.0000 26.8031 0.0000
# 6 0.0000 0.0000 0.0000 0.0000 0.0000 29.0303
#
#
#
# Elastic Compliance Matrix: (Units=1/GPa)
#
#
# Indices 1 2 3 4 5 6 
#
# 1 0.038097 -0.005419 -0.006866 0.000000 0.000000 0.000000
# 2 -0.005419 0.009981 -0.000059 0.000000 0.000000 0.000000
# 3 -0.006866 -0.000059 0.005299 0.000000 0.000000 0.000000
# 4 0.000000 0.000000 0.000000 0.038980 0.000000 0.000000
# 5 0.000000 0.000000 0.000000 0.000000 0.037309 0.000000
# 6 0.000000 0.000000 0.000000 0.000000 0.000000 0.034447
#
#
# Mechanical properties :
#
#
# Convention : Reuss Voigt Hill
#
# Bulk Modulus (GPa) = 34.85743 66.89378 50.87560
# Shear Modulus (GPa) = 25.20594 36.57657 30.89125
#
# Velocity S-wave (km/s) = 3.00298 3.61745 3.32444
# Velocity P-wave (km/s) = 4.94921 6.43275 5.73912
#
# Compressibility (1/GPa) = 0.02868829
#
# Stress axis : x y z
#
# Youngs Moduli (GPa) = 26.24849 100.18754 188.71410
#
# Poissons Ratio (x) = 0.54294 1.29580
# Poissons Ratio (y) = 0.14225 0.01114
# Poissons Ratio (z) = 0.18023 0.00591
#
# Static dielectric constant tensor:
#      x y z
#    x 2.304730 0.000000 0.000000 
#    y 0.000000 2.222830 0.000000 
#    z 0.000000 0.000000 2.161490 
# 
# From -- ./inp_files/13174.got.cif
#   From: 2010.05.17/outbox.cif.g08.bks.cpg/sg55_7_cif.got.tgz:13174.got - 2010.06.03 13:27:54.
