data_PCOD9425451
_publ_section_title
;
Structure prediction by ZEFSAII (Michael W. Deem and Ramdas Pophale) SiO2 
 PCOD9425451
Probable space group: P B A M
;
_chemical_formula_sum "Si O2"
_cell_formula_units_Z 64
_cell_length_a 19.723638
_cell_length_b 23.870549
_cell_length_c 8.606787
_cell_angle_alpha 90.000000
_cell_angle_beta 90.000000
_cell_angle_gamma 90.000000
_cell_volume 4052.196394
_symmetry_space_group_name_H-M "P B A M"
_symmetry_group_IT_number 55
_symmetry_cell_setting 'orthorhombic'
loop_
_space_group_symop_operation_xyz
x,y,z
-x,-y,z
1/2+x,1/2-y,-z
1/2-x,1/2+y,-z
-x,-y,-z
x,y,-z
1/2-x,1/2+y,z
1/2+x,1/2-y,z
loop_
_atom_site_type_symbol
_atom_site_label
_atom_site_fract_x
_atom_site_fract_y
_atom_site_fract_z
Si Si1 0.001075 0.249366 0.686256
Si Si2 0.767224 0.338500 0.313832
Si Si3 0.351438 0.271211 0.311495
Si Si4 0.221082 0.335541 0.686472
Si Si5 0.643163 0.935110 0.187629
Si Si6 0.856037 0.773001 0.815262
Si Si7 0.862366 0.563686 0.812543
Si Si8 0.497964 0.124529 0.812163
O O1 0.005085 0.245806 0.500000
O O2 0.067120 0.221001 0.758725
O O3 0.001015 0.314574 0.735533
O O4 0.928852 0.224435 0.740563
O O5 0.763650 0.337843 0.500000
O O6 0.819151 0.288637 0.264391
O O7 0.797597 0.396532 0.255006
O O8 0.694715 0.320666 0.246208
O O9 0.352624 0.271190 0.500000
O O10 0.297185 0.318171 0.263365
O O11 0.218380 0.334771 0.500000
O O12 0.172719 0.285734 0.747919
O O13 0.193927 0.394181 0.748202
O O14 0.570994 0.907460 0.231495
O O15 0.645816 0.999613 0.238904
O O16 0.646785 0.934048 0.000000
O O17 0.853434 0.770336 0.000000
O O18 0.935954 0.588522 0.768266
O O19 0.859569 0.564488 0.000000
O O20 0.498670 0.131294 0.000000
#
# Coordination Sequence:
#
# PCOD9425451 Si02
#       8
#     8   8   8   8   8   8   8   8
#     4  11  19  31  50  73  99 131 163 201 247 296
#     4  10  19  34  51  71  96 128 167 208 248 290
#     4   8  17  31  48  69  96 124 157 201 248 291
#     4  10  19  33  50  71  96 128 166 207 247 290
#     4  10  20  33  49  70  99 137 174 207 245 287
#     4  11  21  33  49  72  99 128 161 202 250 301
#     4  10  20  33  48  69 100 137 173 207 243 288
#     4  10  19  31  46  68 100 137 174 206 237 284
#
# _framework density 15.793903999999999
#
# number of rings (size 3 to 8) (size 9 to 14) (size 15 to 20)
#    0.000    2.000    2.500    3.375    0.000    2.000 
#    0.000    1.875    0.000    2.250    0.000    0.875 
#    0.000    7.000    0.000    0.000    0.000    0.000 
#
# Total GULP energy -357113.212428 kJ/mol
# GULP energy per Si atom -5579.893944 kJ/mol
# Density = 1.575796 g / cm^3
# Si number density = 15.793904 Si / 1000 Ang^3
#
#
#
# Elastic Constant Matrix: (Units=GPa)
#
#
# Indices 1 2 3 4 5 6 
#
# 1 147.7549 64.8602 30.1020 0.0000 0.0000 0.0000
# 2 64.8602 86.0239 24.9043 0.0000 0.0000 0.0000
# 3 30.1020 24.9043 32.1686 0.0000 0.0000 0.0000
# 4 0.0000 0.0000 0.0000 -6.1890 0.0000 0.0000
# 5 0.0000 0.0000 0.0000 0.0000 19.8145 0.0000
# 6 0.0000 0.0000 0.0000 0.0000 0.0000 21.0742
#
#
#
# Elastic Compliance Matrix: (Units=1/GPa)
#
#
# Indices 1 2 3 4 5 6 
#
# 1 0.010671 -0.006644 -0.004842 0.000000 0.000000 0.000000
# 2 -0.006644 0.019119 -0.008585 0.000000 0.000000 0.000000
# 3 -0.004842 -0.008585 0.042263 0.000000 0.000000 0.000000
# 4 0.000000 0.000000 0.000000 -0.161577 0.000000 0.000000
# 5 0.000000 0.000000 0.000000 0.000000 0.050468 0.000000
# 6 0.000000 0.000000 0.000000 0.000000 0.000000 0.047451
#
#
# Mechanical properties :
#
#
# Convention : Reuss Voigt Hill
#
# Bulk Modulus (GPa) = 31.33570 56.18670 43.76120
# Shear Modulus (GPa) = 84.49618 16.67867 50.58743
#
# Velocity S-wave (km/s) = 7.32225 3.25317 5.66562
# Velocity P-wave (km/s) = 9.55880 7.05429 8.40040
#
# Compressibility (1/GPa) = 0.03191248
#
# Stress axis : x y z
#
# Youngs Moduli (GPa) = 93.71318 52.30303 23.66131
#
# Poissons Ratio (x) = 0.34750 0.11456
# Poissons Ratio (y) = 0.62262 0.20313
# Poissons Ratio (z) = 0.45374 0.44901
#
# Static dielectric constant tensor:
#      x y z
#    x 1.538870 0.000000 0.000000 
#    y 0.000000 1.500990 0.000000 
#    z 0.000000 0.000000 1.534100 
# 
# From -- ./inp_files/8084.got.cif
#   From: 2010.05.17/outbox.cif.g08.bks.cpg/sg55_5_cif.got.tgz:8084.got - 2010.06.03 13:27:54.
