data_PCOD9425307
_publ_section_title
;
Structure prediction by ZEFSAII (Michael W. Deem and Ramdas Pophale) SiO2 
 PCOD9425307
Probable space group: P B A M
;
_chemical_formula_sum "Si O2"
_cell_formula_units_Z 64
_cell_length_a 19.057895
_cell_length_b 20.484583
_cell_length_c 7.515892
_cell_angle_alpha 90.000000
_cell_angle_beta 90.000000
_cell_angle_gamma 90.000000
_cell_volume 2934.151866
_symmetry_space_group_name_H-M "P B A M"
_symmetry_group_IT_number 55
_symmetry_cell_setting 'orthorhombic'
loop_
_space_group_symop_operation_xyz
x,y,z
-x,-y,z
1/2+x,1/2-y,-z
1/2-x,1/2+y,-z
-x,-y,-z
x,y,-z
1/2-x,1/2+y,z
1/2+x,1/2-y,z
loop_
_atom_site_type_symbol
_atom_site_label
_atom_site_fract_x
_atom_site_fract_y
_atom_site_fract_z
Si Si1 0.796602 0.403473 0.718005
Si Si2 0.054047 0.551057 0.299648
Si Si3 0.193962 0.745398 0.717371
Si Si4 0.302760 0.856068 0.285064
Si Si5 0.540620 0.704285 0.285699
Si Si6 0.448472 0.442487 0.717716
Si Si7 0.291122 0.476894 0.283055
Si Si8 0.464121 0.832480 0.200717
O O1 0.798922 0.402070 0.500000
O O2 0.869913 0.435396 0.779587
O O3 0.792375 0.328605 0.775636
O O4 0.733978 0.451337 0.771069
O O5 0.067908 0.524981 0.500000
O O6 0.000000 0.500000 0.214236
O O7 0.014115 0.619971 0.311409
O O8 0.193484 0.745864 0.500000
O O9 0.253822 0.795953 0.773926
O O10 0.117036 0.769883 0.774282
O O11 0.302496 0.856369 0.500000
O O12 0.265583 0.922875 0.226086
O O13 0.382829 0.847898 0.229233
O O14 0.542548 0.702863 0.500000
O O15 0.529690 0.630144 0.224642
O O16 0.482632 0.757217 0.234352
O O17 0.500000 0.500000 0.775741
O O18 0.448894 0.442399 0.500000
O O19 0.368809 0.457036 0.774136
O O20 0.291749 0.475806 0.500000
O O21 0.483430 0.848294 0.000000
#
# Coordination Sequence:
#
# PCOD9425307 Si02
#       8
#     8   8   8   8   8   8   8   8
#     4   9  16  26  47  79 111 137 172 221 271 330
#     4  10  19  34  57  83 109 144 186 230 282 337
#     4   9  16  29  53  80 105 139 182 228 278 327
#     4  10  19  34  56  79 104 143 188 232 282 334
#     4  10  18  35  59  82 112 148 186 234 284 343
#     4   9  17  29  52  88 120 143 176 232 295 340
#     4   9  16  28  48  78 113 142 175 223 279 337
#     4  12  25  37  52  80 115 151 190 235 281 334
#
# _framework density 21.812094999999999
#
# number of rings (size 3 to 8) (size 9 to 14) (size 15 to 20)
#    0.000    2.250    2.500    1.875    0.000    3.250 
#    0.000    4.375    0.000    0.375    0.000    0.000 
#    0.000    0.000    0.000    0.000    0.000    0.000 
#
# Total GULP energy -357587.795470 kJ/mol
# GULP energy per Si atom -5587.309304 kJ/mol
# Density = 2.176245 g / cm^3
# Si number density = 21.812095 Si / 1000 Ang^3
#
#
#
# Elastic Constant Matrix: (Units=GPa)
#
#
# Indices 1 2 3 4 5 6 
#
# 1 90.7441 40.2224 -2.7226 0.0000 0.0000 0.0000
# 2 40.2224 153.0360 2.5664 0.0000 0.0000 0.0000
# 3 -2.7226 2.5664 62.3148 0.0000 0.0000 0.0000
# 4 0.0000 0.0000 0.0000 -10.4648 0.0000 0.0000
# 5 0.0000 0.0000 0.0000 0.0000 -0.9999 0.0000
# 6 0.0000 0.0000 0.0000 0.0000 0.0000 45.1383
#
#
#
# Elastic Compliance Matrix: (Units=1/GPa)
#
#
# Indices 1 2 3 4 5 6 
#
# 1 0.012502 -0.003297 0.000682 0.000000 0.000000 0.000000
# 2 -0.003297 0.007409 -0.000449 0.000000 0.000000 0.000000
# 3 0.000682 -0.000449 0.016096 0.000000 0.000000 0.000000
# 4 0.000000 0.000000 0.000000 -0.095559 0.000000 0.000000
# 5 0.000000 0.000000 0.000000 0.000000 -1.000070 0.000000
# 6 0.000000 0.000000 0.000000 0.000000 0.000000 0.022154
#
#
# Mechanical properties :
#
#
# Convention : Reuss Voigt Hill
#
# Bulk Modulus (GPa) = 33.47004 42.91413 38.19209
# Shear Modulus (GPa) = -4.89534 24.46995 9.78731
#
# Velocity S-wave (km/s) = -1.49973 3.35304 2.12058
# Velocity P-wave (km/s) = 3.51839 5.89132 4.85215
#
# Compressibility (1/GPa) = 0.02987746
#
# Stress axis : x y z
#
# Youngs Moduli (GPa) = 79.98712 134.97867 62.12777
#
# Poissons Ratio (x) = 0.44507 -0.04237
# Poissons Ratio (y) = 0.26374 0.02791
# Poissons Ratio (z) = -0.05455 0.06063
#
# Static dielectric constant tensor:
#      x y z
#    x 1.740180 0.000000 0.000000 
#    y 0.000000 1.776080 0.000000 
#    z 0.000000 0.000000 1.870140 
# 
# From -- ./inp_files/8060.got.cif
#   From: 2010.05.17/outbox.cif.g08.bks.cpg/sg55_5_cif.got.tgz:8060.got - 2010.06.03 13:27:54.
