data_PCOD9425457
_publ_section_title
;
Structure prediction by ZEFSAII (Michael W. Deem and Ramdas Pophale) SiO2 
 PCOD9425457
Probable space group: P B A M
;
_chemical_formula_sum "Si O2"
_cell_formula_units_Z 64
_cell_length_a 20.417433
_cell_length_b 21.048665
_cell_length_c 7.421289
_cell_angle_alpha 90.000000
_cell_angle_beta 90.000000
_cell_angle_gamma 90.000000
_cell_volume 3189.370989
_symmetry_space_group_name_H-M "P B A M"
_symmetry_group_IT_number 55
_symmetry_cell_setting 'orthorhombic'
loop_
_space_group_symop_operation_xyz
x,y,z
-x,-y,z
1/2+x,1/2-y,-z
1/2-x,1/2+y,-z
-x,-y,-z
x,y,-z
1/2-x,1/2+y,z
1/2+x,1/2-y,z
loop_
_atom_site_type_symbol
_atom_site_label
_atom_site_fract_x
_atom_site_fract_y
_atom_site_fract_z
Si Si1 0.052840 0.269299 0.720228
Si Si2 0.690566 0.176959 0.279425
Si Si3 0.771865 0.059468 0.293324
Si Si4 0.599155 0.633453 0.208812
Si Si5 0.410292 0.219272 0.706716
Si Si6 0.267898 0.196691 0.720473
Si Si7 0.184023 0.074296 0.720807
Si Si8 0.546525 0.378192 0.282844
O O1 0.051592 0.269209 0.500000
O O2 0.116311 0.308514 0.775884
O O3 0.058873 0.195201 0.773313
O O4 0.982137 0.293687 0.785133
O O5 0.692033 0.176268 0.500000
O O6 0.722101 0.111267 0.214888
O O7 0.735093 0.236892 0.224245
O O8 0.750885 0.049857 0.500000
O O9 0.843406 0.092139 0.292649
O O10 0.781732 0.989826 0.213430
O O11 0.596052 0.703881 0.292380
O O12 0.526630 0.604033 0.224933
O O13 0.615037 0.641677 0.000000
O O14 0.412445 0.197298 0.500000
O O15 0.342786 0.193172 0.785208
O O16 0.269126 0.197623 0.500000
O O17 0.223576 0.137217 0.773723
O O18 0.183385 0.072781 0.500000
O O19 0.108293 0.080590 0.777963
O O20 0.546038 0.378905 0.500000
#
# Coordination Sequence:
#
# PCOD9425457 Si02
#       8
#     8   8   8   8   8   8   8   8
#     4   8  13  22  41  68  90 113 145 184 224 264
#     4   9  14  23  43  68  92 115 148 190 229 263
#     4  10  19  31  47  68  92 122 158 192 225 267
#     4  11  21  31  44  65  95 125 152 186 229 277
#     4   9  16  28  49  71  91 117 154 191 228 272
#     4   9  14  24  45  72  93 114 148 194 233 264
#     4   9  17  28  46  71  94 118 155 197 227 261
#     4   9  16  29  47  65  87 118 156 191 221 266
#
# _framework density 20.066652000000001
#
# number of rings (size 3 to 8) (size 9 to 14) (size 15 to 20)
#    0.000    2.750    2.500    1.875    0.000    0.500 
#    0.000    3.125    0.000    8.250    0.000    5.250 
#    0.000    0.000    0.000    5.625    0.000    6.250 
#
# Total GULP energy -357066.788557 kJ/mol
# GULP energy per Si atom -5579.168571 kJ/mol
# Density = 2.002098 g / cm^3
# Si number density = 20.066652 Si / 1000 Ang^3
#
#
#
# Elastic Constant Matrix: (Units=GPa)
#
#
# Indices 1 2 3 4 5 6 
#
# 1 103.1315 5.8507 -6.6596 0.0000 0.0000 0.0000
# 2 5.8507 29.5659 -8.8096 0.0000 0.0000 0.0000
# 3 -6.6596 -8.8096 67.3463 0.0000 0.0000 0.0000
# 4 0.0000 0.0000 0.0000 -20.5970 0.0000 0.0000
# 5 0.0000 0.0000 0.0000 0.0000 -34.4386 0.0000
# 6 0.0000 0.0000 0.0000 0.0000 0.0000 21.7375
#
#
#
# Elastic Compliance Matrix: (Units=1/GPa)
#
#
# Indices 1 2 3 4 5 6 
#
# 1 0.009842 -0.001725 0.000748 0.000000 0.000000 0.000000
# 2 -0.001725 0.035497 0.004473 0.000000 0.000000 0.000000
# 3 0.000748 0.004473 0.015508 0.000000 0.000000 0.000000
# 4 0.000000 0.000000 0.000000 -0.048551 0.000000 0.000000
# 5 0.000000 0.000000 0.000000 0.000000 -0.029037 0.000000
# 6 0.000000 0.000000 0.000000 0.000000 0.000000 0.046003
#
#
# Mechanical properties :
#
#
# Convention : Reuss Voigt Hill
#
# Bulk Modulus (GPa) = 14.74101 20.08964 17.41532
# Shear Modulus (GPa) = 111.39803 7.31786 59.35794
#
# Velocity S-wave (km/s) = 7.45886 1.91173 5.44469
# Velocity P-wave (km/s) = 9.03002 3.86084 6.94433
#
# Compressibility (1/GPa) = 0.06783794
#
# Stress axis : x y z
#
# Youngs Moduli (GPa) = 101.60029 28.17155 64.48432
#
# Poissons Ratio (x) = 0.04859 -0.04821
# Poissons Ratio (y) = 0.17525 -0.28842
# Poissons Ratio (z) = -0.07596 -0.12601
#
# Static dielectric constant tensor:
#      x y z
#    x 1.722350 0.000000 0.000000 
#    y 0.000000 1.675300 0.000000 
#    z 0.000000 0.000000 1.794420 
# 
# From -- ./inp_files/9141.got.cif
#   From: 2010.05.17/outbox.cif.g08.bks.cpg/sg55_5_cif.got.tgz:9141.got - 2010.06.03 13:27:54.
