data_PCOD9425858
_publ_section_title
;
Structure prediction by ZEFSAII (Michael W. Deem and Ramdas Pophale) SiO2 
 PCOD9425858
Probable space group: P B A M
;
_chemical_formula_sum "Si O2"
_cell_formula_units_Z 56
_cell_length_a 18.708024
_cell_length_b 19.631623
_cell_length_c 8.539871
_cell_angle_alpha 90.000000
_cell_angle_beta 90.000000
_cell_angle_gamma 90.000000
_cell_volume 3136.428808
_symmetry_space_group_name_H-M "P B A M"
_symmetry_group_IT_number 55
_symmetry_cell_setting 'orthorhombic'
loop_
_space_group_symop_operation_xyz
x,y,z
-x,-y,z
1/2+x,1/2-y,-z
1/2-x,1/2+y,-z
-x,-y,-z
x,y,-z
1/2-x,1/2+y,z
1/2+x,1/2-y,z
loop_
_atom_site_type_symbol
_atom_site_label
_atom_site_fract_x
_atom_site_fract_y
_atom_site_fract_z
Si Si1 0.341386 0.244938 0.818801
Si Si2 0.308182 0.389644 0.810000
Si Si3 0.167168 0.458131 0.312423
Si Si4 0.031278 0.927814 0.191387
Si Si5 0.884949 0.397438 0.188360
Si Si6 0.959848 0.641776 0.313777
Si Si7 0.010517 0.216725 0.180832
O O1 0.302371 0.311145 0.750885
O O2 0.341188 0.169023 0.750635
O O3 0.425486 0.265739 0.819419
O O4 0.318352 0.239205 0.000000
O O5 0.243491 0.434731 0.751098
O O6 0.385990 0.418078 0.762445
O O7 0.307767 0.387705 0.000000
O O8 0.168414 0.458670 0.500000
O O9 0.144800 0.532220 0.252274
O O10 0.107135 0.403366 0.261061
O O11 0.986984 0.860678 0.242235
O O12 0.029669 0.926174 0.000000
O O13 0.000000 0.000000 0.242751
O O14 0.967264 0.386212 0.237269
O O15 0.881733 0.396991 0.000000
O O16 0.967267 0.635084 0.500000
O O17 0.952718 0.721422 0.270732
O O18 0.034429 0.218209 0.000000
#
# Coordination Sequence:
#
# PCOD9425858 Si02
#       7
#     8   8   8   8   8   8   8
#     4   7  13  28  49  71  91 113 150 199 241 281
#     4   9  17  32  53  73  96 129 166 202 245 297
#     4  11  23  35  46  68 105 140 167 200 245 295
#     4   8  14  28  53  81 103 124 159 212 263 297
#     4  10  19  33  55  78  97 123 165 211 250 293
#     4  10  20  33  48  68  99 135 166 202 249 296
#     4   8  14  27  49  74  96 120 156 199 240 291
#
# _framework density 17.854700999999999
#
# number of rings (size 3 to 8) (size 9 to 14) (size 15 to 20)
#    0.000    3.000    0.000    4.286    0.000    4.000 
#    0.000    8.571    0.000    8.571    0.000    0.000 
#    0.000    0.000    0.000    0.000    0.000    0.000 
#
# Total GULP energy -311874.609587 kJ/mol
# GULP energy per Si atom -5569.189457 kJ/mol
# Density = 1.781406 g / cm^3
# Si number density = 17.854701 Si / 1000 Ang^3
#
#
#
# Elastic Constant Matrix: (Units=GPa)
#
#
# Indices 1 2 3 4 5 6 
#
# 1 65.4620 72.5429 15.6105 0.0000 0.0000 0.0000
# 2 72.5429 193.5854 23.5737 0.0000 0.0000 0.0000
# 3 15.6105 23.5737 19.8894 0.0000 0.0000 0.0000
# 4 0.0000 0.0000 0.0000 -3.4224 0.0000 0.0000
# 5 0.0000 0.0000 0.0000 0.0000 20.5712 0.0000
# 6 0.0000 0.0000 0.0000 0.0000 0.0000 15.1971
#
#
#
# Elastic Compliance Matrix: (Units=1/GPa)
#
#
# Indices 1 2 3 4 5 6 
#
# 1 0.028106 -0.009169 -0.011192 0.000000 0.000000 0.000000
# 2 -0.009169 0.009028 -0.003504 0.000000 0.000000 0.000000
# 3 -0.011192 -0.003504 0.063215 0.000000 0.000000 0.000000
# 4 0.000000 0.000000 0.000000 -0.292195 0.000000 0.000000
# 5 0.000000 0.000000 0.000000 0.000000 0.048612 0.000000
# 6 0.000000 0.000000 0.000000 0.000000 0.000000 0.065802
#
#
# Mechanical properties :
#
#
# Convention : Reuss Voigt Hill
#
# Bulk Modulus (GPa) = 19.00434 55.82120 37.41277
# Shear Modulus (GPa) = -411.17222 17.61648 -196.77787
#
# Velocity S-wave (km/s) = -15.19170 3.14452 -10.50952
# Velocity P-wave (km/s) = 17.23514 6.67203 11.23686
#
# Compressibility (1/GPa) = 0.05261956
#
# Stress axis : x y z
#
# Youngs Moduli (GPa) = 35.57931 110.76046 15.81895
#
# Poissons Ratio (x) = 1.01562 0.17704
# Poissons Ratio (y) = 0.32624 0.05543
# Poissons Ratio (z) = 0.39819 0.38811
#
# Static dielectric constant tensor:
#      x y z
#    x 1.581610 0.000000 0.000000 
#    y 0.000000 1.652100 0.000000 
#    z 0.000000 0.000000 1.605990 
# 
# From -- ./inp_files/7809.got.cif
#   From: 2010.05.17/outbox.cif.g08.bks.cpg/sg55_4_cif.got.tgz:7809.got - 2010.06.03 13:27:54.
