data_PCOD9425929
_publ_section_title
;
Structure prediction by ZEFSAII (Michael W. Deem and Ramdas Pophale) SiO2 
 PCOD9425929
Probable space group: P B A M
;
_chemical_formula_sum "Si O2"
_cell_formula_units_Z 64
_cell_length_a 29.762652
_cell_length_b 12.872415
_cell_length_c 7.642759
_cell_angle_alpha 90.000000
_cell_angle_beta 90.000000
_cell_angle_gamma 90.000000
_cell_volume 2928.072490
_symmetry_space_group_name_H-M "P B A M"
_symmetry_group_IT_number 55
_symmetry_cell_setting 'orthorhombic'
loop_
_space_group_symop_operation_xyz
x,y,z
-x,-y,z
1/2+x,1/2-y,-z
1/2-x,1/2+y,-z
-x,-y,-z
x,y,-z
1/2-x,1/2+y,z
1/2+x,1/2-y,z
loop_
_atom_site_type_symbol
_atom_site_label
_atom_site_fract_x
_atom_site_fract_y
_atom_site_fract_z
Si Si1 0.703952 0.431870 0.789748
Si Si2 0.520975 0.895094 0.795924
Si Si3 0.198114 0.511867 0.792171
Si Si4 0.661833 0.207876 0.708375
Si Si5 0.450068 0.528524 0.212041
Si Si6 0.865865 0.105350 0.786575
Si Si7 0.436921 0.764774 0.296989
Si Si8 0.880004 0.338020 0.214858
O O1 0.754531 0.446310 0.721547
O O2 0.682700 0.319319 0.754837
O O3 0.672140 0.525244 0.724833
O O4 0.705505 0.442369 0.000000
O O5 0.482077 0.809033 0.787366
O O6 0.569083 0.859643 0.723933
O O7 0.500000 0.000000 0.716866
O O8 0.530042 0.917773 0.000000
O O9 0.191633 0.389368 0.765282
O O10 0.154758 0.574107 0.724926
O O11 0.198832 0.530641 0.000000
O O12 0.658275 0.205097 0.500000
O O13 0.610716 0.196495 0.778866
O O14 0.500000 0.500000 0.269756
O O15 0.413863 0.442701 0.264117
O O16 0.436154 0.640763 0.280740
O O17 0.449957 0.534596 0.000000
O O18 0.863063 0.224263 0.729752
O O19 0.864334 0.105452 0.000000
O O20 0.439421 0.794704 0.500000
O O21 0.880731 0.336873 0.000000
#
# Coordination Sequence:
#
# PCOD9425929 Si02
#       8
#     8   8   8   8   8   8   8   8
#     4  10  21  37  62  91 114 147 196 251 302 346
#     4  10  20  35  58  84 113 153 199 245 296 352
#     4  10  22  38  64  93 117 148 195 252 301 350
#     4  11  24  41  60  84 122 162 197 239 294 359
#     4  10  19  33  56  84 113 150 192 238 293 348
#     4   9  17  31  53  83 117 146 181 237 294 347
#     4  11  23  37  55  82 117 157 197 242 290 345
#     4   9  18  34  56  87 121 149 186 242 303 357
#
# _framework density 21.857382000000001
#
# number of rings (size 3 to 8) (size 9 to 14) (size 15 to 20)
#    0.000    2.000    1.250    2.250    1.750    5.500 
#    0.000    0.625    0.000    0.750    0.000    0.000 
#    0.000    0.000    0.000    0.000    0.000    0.000 
#
# Total GULP energy -357600.152092 kJ/mol
# GULP energy per Si atom -5587.502376 kJ/mol
# Density = 2.180763 g / cm^3
# Si number density = 21.857382 Si / 1000 Ang^3
#
#
#
# Elastic Constant Matrix: (Units=GPa)
#
#
# Indices 1 2 3 4 5 6 
#
# 1 169.4192 60.6872 8.0439 0.0000 0.0000 0.0000
# 2 60.6872 128.0159 -7.0741 0.0000 0.0000 0.0000
# 3 8.0439 -7.0741 38.5956 0.0000 0.0000 0.0000
# 4 0.0000 0.0000 0.0000 0.0025 0.0000 0.0000
# 5 0.0000 0.0000 0.0000 0.0000 -6.7455 0.0000
# 6 0.0000 0.0000 0.0000 0.0000 0.0000 33.2886
#
#
#
# Elastic Compliance Matrix: (Units=1/GPa)
#
#
# Indices 1 2 3 4 5 6 
#
# 1 0.007286 -0.003574 -0.002174 0.000000 0.000000 0.000000
# 2 -0.003574 0.009645 0.002513 0.000000 0.000000 0.000000
# 3 -0.002174 0.002513 0.026823 0.000000 0.000000 0.000000
# 4 0.000000 0.000000 0.000000399.811089 0.000000 0.000000
# 5 0.000000 0.000000 0.000000 0.000000 -0.148247 0.000000
# 6 0.000000 0.000000 0.000000 0.000000 0.000000 0.030040
#
#
# Mechanical properties :
#
#
# Convention : Reuss Voigt Hill
#
# Bulk Modulus (GPa) = 26.82125 51.03830 38.92978
# Shear Modulus (GPa) = 0.01251 23.60070 11.80660
#
# Velocity S-wave (km/s) = 0.07573 3.28953 2.32667
# Velocity P-wave (km/s) = 3.50789 6.15056 5.00673
#
# Compressibility (1/GPa) = 0.03728387
#
# Stress axis : x y z
#
# Youngs Moduli (GPa) = 137.24969 103.68371 37.28107
#
# Poissons Ratio (x) = 0.37058 0.08103
# Poissons Ratio (y) = 0.49055 -0.09367
# Poissons Ratio (z) = 0.29833 -0.26052
#
# Static dielectric constant tensor:
#      x y z
#    x 1.799240 0.000000 0.000000 
#    y 0.000000 1.759350 0.000000 
#    z 0.000000 0.000000 1.816680 
# 
# From -- ./inp_files/4648.got.cif
#   From: 2010.05.17/outbox.cif.g08.bks.cpg/sg55_3_cif.got.tgz:4648.got - 2010.06.03 13:27:54.
