data_PCOD9425442
_publ_section_title
;
Structure prediction by ZEFSAII (Michael W. Deem and Ramdas Pophale) SiO2 
 PCOD9425442
Probable space group: P B A M
;
_chemical_formula_sum "Si O2"
_cell_formula_units_Z 64
_cell_length_a 20.063983
_cell_length_b 20.077684
_cell_length_c 8.545049
_cell_angle_alpha 90.000000
_cell_angle_beta 90.000000
_cell_angle_gamma 90.000000
_cell_volume 3442.273102
_symmetry_space_group_name_H-M "P B A M"
_symmetry_group_IT_number 55
_symmetry_cell_setting 'orthorhombic'
loop_
_space_group_symop_operation_xyz
x,y,z
-x,-y,z
1/2+x,1/2-y,-z
1/2-x,1/2+y,-z
-x,-y,-z
x,y,-z
1/2-x,1/2+y,z
1/2+x,1/2-y,z
loop_
_atom_site_type_symbol
_atom_site_label
_atom_site_fract_x
_atom_site_fract_y
_atom_site_fract_z
Si Si1 0.408050 0.485866 0.680215
Si Si2 0.008099 0.106253 0.816746
Si Si3 0.729306 0.118806 0.813503
Si Si4 0.379913 0.774192 0.813363
Si Si5 0.833700 0.220601 0.686755
Si Si6 0.279180 0.668637 0.312925
Si Si7 0.746107 0.480265 0.320396
Si Si8 0.983025 0.245420 0.681969
O O1 0.429018 0.473489 0.500000
O O2 0.440542 0.552776 0.748782
O O3 0.436443 0.428261 0.790083
O O4 0.330097 0.495344 0.679421
O O5 0.008132 0.170543 0.710167
O O6 0.019458 0.120407 0.000000
O O7 0.668853 0.166444 0.757729
O O8 0.796820 0.155043 0.752467
O O9 0.718711 0.042488 0.762280
O O10 0.731842 0.121168 0.000000
O O11 0.344086 0.705562 0.756704
O O12 0.455849 0.785036 0.758920
O O13 0.379328 0.772473 0.000000
O O14 0.840705 0.209876 0.500000
O O15 0.782155 0.280967 0.713912
O O16 0.907119 0.241968 0.746509
O O17 0.290431 0.662226 0.500000
O O18 0.258786 0.594969 0.254009
O O19 0.770203 0.475337 0.500000
O O20 0.979377 0.263094 0.500000
#
# Coordination Sequence:
#
# PCOD9425442 Si02
#       8
#     8   8   8   8   8   8   8   8
#     4  10  19  31  45  66  98 133 167 202 240 295
#     4  11  21  31  44  66  97 133 167 202 245 296
#     4  10  21  35  53  77 106 136 169 208 253 303
#     4  10  21  36  53  77 105 135 171 211 253 304
#     4   9  19  35  55  77 103 134 172 213 255 303
#     4   9  18  35  56  78 104 135 170 212 257 304
#     4  10  20  32  51  75  98 128 167 206 250 300
#     4  11  21  33  51  74  98 130 169 210 255 303
#
# _framework density 18.592365999999998
#
# number of rings (size 3 to 8) (size 9 to 14) (size 15 to 20)
#    0.000    2.000    0.000    4.875    0.000    8.000 
#    0.000    0.000    0.000    0.750    0.000    5.250 
#    0.000    0.000    0.000    0.000    0.000    0.000 
#
# Total GULP energy -356803.913876 kJ/mol
# GULP energy per Si atom -5575.061154 kJ/mol
# Density = 1.855005 g / cm^3
# Si number density = 18.592366 Si / 1000 Ang^3
#
#
#
# Elastic Constant Matrix: (Units=GPa)
#
#
# Indices 1 2 3 4 5 6 
#
# 1 60.7853 -12.4802 14.9566 0.0000 0.0000 0.0000
# 2 -12.4802 60.1387 12.5045 0.0000 0.0000 0.0000
# 3 14.9566 12.5045 26.7026 0.0000 0.0000 0.0000
# 4 0.0000 0.0000 0.0000 10.0117 0.0000 0.0000
# 5 0.0000 0.0000 0.0000 0.0000 11.6144 0.0000
# 6 0.0000 0.0000 0.0000 0.0000 0.0000 13.2932
#
#
#
# Elastic Compliance Matrix: (Units=1/GPa)
#
#
# Indices 1 2 3 4 5 6 
#
# 1 0.022020 0.007904 -0.016035 0.000000 0.000000 0.000000
# 2 0.007904 0.021259 -0.014382 0.000000 0.000000 0.000000
# 3 -0.016035 -0.014382 0.053166 0.000000 0.000000 0.000000
# 4 0.000000 0.000000 0.000000 0.099883 0.000000 0.000000
# 5 0.000000 0.000000 0.000000 0.000000 0.086100 0.000000
# 6 0.000000 0.000000 0.000000 0.000000 0.000000 0.075227
#
#
# Mechanical properties :
#
#
# Convention : Reuss Voigt Hill
#
# Bulk Modulus (GPa) = 19.44857 19.73205 19.59031
# Shear Modulus (GPa) = 11.90987 15.82690 13.86838
#
# Velocity S-wave (km/s) = 2.53371 2.92080 2.73411
# Velocity P-wave (km/s) = 4.36381 4.69156 4.53065
#
# Compressibility (1/GPa) = 0.05141767
#
# Stress axis : x y z
#
# Youngs Moduli (GPa) = 45.41417 47.03917 18.80902
#
# Poissons Ratio (x) = -0.37178 0.30160
# Poissons Ratio (y) = -0.35894 0.27052
# Poissons Ratio (z) = 0.72821 0.67653
#
# Static dielectric constant tensor:
#      x y z
#    x 1.685670 0.000000 0.000000 
#    y 0.000000 1.674580 0.000000 
#    z 0.000000 0.000000 1.647940 
# 
# From -- ./inp_files/9165.got.cif
#   From: 2010.05.17/outbox.cif.g08.bks.cpg/sg55_5_cif.got.tgz:9165.got - 2010.06.03 13:27:54.
