data_PCOD9425623
_publ_section_title
;
Structure prediction by ZEFSAII (Michael W. Deem and Ramdas Pophale) SiO2 
 PCOD9425623
Probable space group: P B A M
;
_chemical_formula_sum "Si O2"
_cell_formula_units_Z 64
_cell_length_a 15.242806
_cell_length_b 28.321257
_cell_length_c 8.369245
_cell_angle_alpha 90.000000
_cell_angle_beta 90.000000
_cell_angle_gamma 90.000000
_cell_volume 3612.964787
_symmetry_space_group_name_H-M "P B A M"
_symmetry_group_IT_number 55
_symmetry_cell_setting 'orthorhombic'
loop_
_space_group_symop_operation_xyz
x,y,z
-x,-y,z
1/2+x,1/2-y,-z
1/2-x,1/2+y,-z
-x,-y,-z
x,y,-z
1/2-x,1/2+y,z
1/2+x,1/2-y,z
loop_
_atom_site_type_symbol
_atom_site_label
_atom_site_fract_x
_atom_site_fract_y
_atom_site_fract_z
Si Si1 0.409579 0.717744 0.307075
Si Si2 0.100621 0.674096 0.306894
Si Si3 0.596129 0.173546 0.305380
Si Si4 0.219237 0.133414 0.306747
Si Si5 0.099662 0.948893 0.309762
Si Si6 0.104066 0.780766 0.189328
Si Si7 0.409572 0.554578 0.187604
Si Si8 0.723778 0.634773 0.692375
O O1 0.417462 0.716987 0.500000
O O2 0.387542 0.771632 0.260394
O O3 0.336714 0.679857 0.260341
O O4 0.504372 0.705771 0.235587
O O5 0.099840 0.673622 0.500000
O O6 0.180674 0.641277 0.253276
O O7 0.118244 0.727985 0.255382
O O8 0.002394 0.661080 0.251507
O O9 0.595905 0.172100 0.500000
O O10 0.676551 0.141475 0.249245
O O11 0.218245 0.130636 0.500000
O O12 0.169184 0.088258 0.239833
O O13 0.109193 0.954684 0.500000
O O14 0.169811 0.910680 0.249633
O O15 0.000401 0.931872 0.275283
O O16 0.108979 0.000125 0.230704
O O17 0.170122 0.818330 0.263978
O O18 0.113788 0.780621 0.000000
O O19 0.425031 0.558795 0.000000
O O20 0.726151 0.631394 0.500000
#
# Coordination Sequence:
#
# PCOD9425623 Si02
#       8
#     8   8   8   8   8   8   8   8
#     4   9  17  30  48  69  97 131 163 196 234 281
#     4   9  18  34  53  70  95 131 167 203 240 280
#     4   8  15  30  51  73  95 123 162 202 239 278
#     4  10  19  32  53  76  96 126 168 206 241 286
#     4  10  20  35  55  76  99 127 162 201 240 291
#     4  11  21  30  44  70 104 135 164 199 238 286
#     4  11  22  35  52  74 103 131 155 194 248 300
#     4  10  19  32  52  74  96 126 164 203 243 288
#
# _framework density 17.713984
#
# number of rings (size 3 to 8) (size 9 to 14) (size 15 to 20)
#    0.000    2.250    0.000    5.625    0.000    7.000 
#    0.000    5.000    0.000    0.750    0.000    5.250 
#    0.000    0.000    0.000    0.000    0.000    0.000 
#
# Total GULP energy -357176.870266 kJ/mol
# GULP energy per Si atom -5580.888598 kJ/mol
# Density = 1.767367 g / cm^3
# Si number density = 17.713984 Si / 1000 Ang^3
#
#
#
# Elastic Constant Matrix: (Units=GPa)
#
#
# Indices 1 2 3 4 5 6 
#
# 1 126.7669 72.3852 6.1679 0.0000 0.0000 0.0000
# 2 72.3852 66.1559 3.5318 0.0000 0.0000 0.0000
# 3 6.1679 3.5318 10.2054 0.0000 0.0000 0.0000
# 4 0.0000 0.0000 0.0000 -11.2364 0.0000 0.0000
# 5 0.0000 0.0000 0.0000 0.0000 -9.0568 0.0000
# 6 0.0000 0.0000 0.0000 0.0000 0.0000 31.9324
#
#
#
# Elastic Compliance Matrix: (Units=1/GPa)
#
#
# Indices 1 2 3 4 5 6 
#
# 1 0.021260 -0.023001 -0.004889 0.000000 0.000000 0.000000
# 2 -0.023001 0.040285 -0.000040 0.000000 0.000000 0.000000
# 3 -0.004889 -0.000040 0.100956 0.000000 0.000000 0.000000
# 4 0.000000 0.000000 0.000000 -0.088997 0.000000 0.000000
# 5 0.000000 0.000000 0.000000 0.000000 -0.110415 0.000000
# 6 0.000000 0.000000 0.000000 0.000000 0.000000 0.031316
#
#
# Mechanical properties :
#
#
# Convention : Reuss Voigt Hill
#
# Bulk Modulus (GPa) = 9.37730 40.81087 25.09409
# Shear Modulus (GPa) = 58.26582 10.39740 34.33161
#
# Velocity S-wave (km/s) = 5.74143 2.42535 4.40717
# Velocity P-wave (km/s) = 7.01835 5.56165 6.33203
#
# Compressibility (1/GPa) = 0.10664046
#
# Stress axis : x y z
#
# Youngs Moduli (GPa) = 47.03612 24.82321 9.90531
#
# Poissons Ratio (x) = 0.57096 0.04843
# Poissons Ratio (y) = 1.08188 0.00040
# Poissons Ratio (z) = 0.22997 0.00099
#
# Static dielectric constant tensor:
#      x y z
#    x 1.627010 0.000000 0.000000 
#    y 0.000000 1.582420 0.000000 
#    z 0.000000 0.000000 1.596520 
# 
# From -- ./inp_files/6939.got.cif
#   From: 2010.05.17/outbox.cif.g08.bks.cpg/sg55_4_cif.got.tgz:6939.got - 2010.06.03 13:27:54.
