data_PCOD9425252
_publ_section_title
;
Structure prediction by ZEFSAII (Michael W. Deem and Ramdas Pophale) SiO2 
 PCOD9425252
Probable space group: P B A M
;
_chemical_formula_sum "Si O2"
_cell_formula_units_Z 64
_cell_length_a 14.309853
_cell_length_b 13.575687
_cell_length_c 18.327287
_cell_angle_alpha 90.000000
_cell_angle_beta 90.000000
_cell_angle_gamma 90.000000
_cell_volume 3560.370300
_symmetry_space_group_name_H-M "P B A M"
_symmetry_group_IT_number 55
_symmetry_cell_setting 'orthorhombic'
loop_
_space_group_symop_operation_xyz
x,y,z
-x,-y,z
1/2+x,1/2-y,-z
1/2-x,1/2+y,-z
-x,-y,-z
x,y,-z
1/2-x,1/2+y,z
1/2+x,1/2-y,z
loop_
_atom_site_type_symbol
_atom_site_label
_atom_site_fract_x
_atom_site_fract_y
_atom_site_fract_z
Si Si1 0.282378 0.735084 0.415834
Si Si2 0.139860 0.197612 0.811457
Si Si3 0.079926 0.574000 0.252875
Si Si4 0.485573 0.383836 0.086564
Si Si5 0.040435 0.276654 0.330880
Si Si6 0.373418 0.355379 0.657506
Si Si7 0.719067 0.446945 0.695455
Si Si8 0.158013 0.765592 0.817878
O O1 0.290327 0.708493 0.500000
O O2 0.375604 0.789905 0.386983
O O3 0.192941 0.803107 0.400915
O O4 0.272499 0.640975 0.362945
O O5 0.085199 0.258786 0.749188
O O6 0.171613 0.099840 0.767281
O O7 0.234020 0.250712 0.836329
O O8 0.073318 0.171254 0.877552
O O9 0.175474 0.523085 0.281127
O O10 0.110969 0.657783 0.194623
O O11 0.000000 0.500000 0.225966
O O12 0.031638 0.634144 0.319718
O O13 0.500000 0.500000 0.101672
O O14 0.397225 0.335612 0.127399
O O15 0.479176 0.370568 0.000000
O O16 0.979827 0.179966 0.351970
O O17 0.345900 0.468674 0.662848
O O18 0.346128 0.312569 0.737210
#
# Coordination Sequence:
#
# PCOD9425252 Si02
#       8
#     8   8   8   8   8   8   8   8
#     4  11  23  38  53  80 117 147 188 242 293 345
#     4  10  19  35  60  85 115 149 193 235 281 336
#     4  10  18  33  59  87 112 139 191 239 278 334
#     4  11  23  38  59  90 123 155 191 237 292 343
#     4  10  19  36  57  85 108 147 193 235 283 340
#     4  11  19  37  61  82 111 150 195 235 289 337
#     4  10  21  35  57  85 110 150 192 240 283 343
#     4  10  20  38  59  89 113 151 190 238 280 336
#
# _framework density 17.975659
#
# number of rings (size 3 to 8) (size 9 to 14) (size 15 to 20)
#    0.000    1.625    7.500    1.500    0.000    3.000 
#    0.000    0.625    0.000    1.875    0.000    0.000 
#    0.000    0.000    0.000    0.000    0.000    0.000 
#
# Total GULP energy -356977.391586 kJ/mol
# GULP energy per Si atom -5577.771744 kJ/mol
# Density = 1.793475 g / cm^3
# Si number density = 17.975659 Si / 1000 Ang^3
#
#
#
# Elastic Constant Matrix: (Units=GPa)
#
#
# Indices 1 2 3 4 5 6 
#
# 1 102.1768 6.2382 21.6796 0.0000 0.0000 0.0000
# 2 6.2382 42.2826 5.1692 0.0000 0.0000 0.0000
# 3 21.6796 5.1692 64.4887 0.0000 0.0000 0.0000
# 4 0.0000 0.0000 0.0000 11.5715 0.0000 0.0000
# 5 0.0000 0.0000 0.0000 0.0000 18.5756 0.0000
# 6 0.0000 0.0000 0.0000 0.0000 0.0000 20.4758
#
#
#
# Elastic Compliance Matrix: (Units=1/GPa)
#
#
# Indices 1 2 3 4 5 6 
#
# 1 0.010593 -0.001139 -0.003470 0.000000 0.000000 0.000000
# 2 -0.001139 0.024007 -0.001542 0.000000 0.000000 0.000000
# 3 -0.003470 -0.001542 0.016797 0.000000 0.000000 0.000000
# 4 0.000000 0.000000 0.000000 0.086420 0.000000 0.000000
# 5 0.000000 0.000000 0.000000 0.000000 0.053834 0.000000
# 6 0.000000 0.000000 0.000000 0.000000 0.000000 0.048838
#
#
# Mechanical properties :
#
#
# Convention : Reuss Voigt Hill
#
# Bulk Modulus (GPa) = 25.57783 30.56912 28.07348
# Shear Modulus (GPa) = 18.80975 21.84866 20.32920
#
# Velocity S-wave (km/s) = 3.23832 3.49012 3.36658
# Velocity P-wave (km/s) = 5.31435 5.76923 5.54646
#
# Compressibility (1/GPa) = 0.03909635
#
# Stress axis : x y z
#
# Youngs Moduli (GPa) = 94.40489 41.65479 59.53590
#
# Poissons Ratio (x) = 0.04743 0.20657
# Poissons Ratio (y) = 0.10749 0.09178
# Poissons Ratio (z) = 0.32756 0.06421
#
# Static dielectric constant tensor:
#      x y z
#    x 1.658540 0.000000 0.000000 
#    y 0.000000 1.667730 0.000000 
#    z 0.000000 0.000000 1.563200 
# 
# From -- ./inp_files/21681.got.cif
#   From: 2010.05.17/outbox.cif.g08.bks.cpg/sg55_11_cif.got.tgz:21681.got - 2010.06.03 13:27:54.
