data_PCOD9425889
_publ_section_title
;
Structure prediction by ZEFSAII (Michael W. Deem and Ramdas Pophale) SiO2 
 PCOD9425889
Probable space group: P B A M
;
_chemical_formula_sum "Si O2"
_cell_formula_units_Z 58
_cell_length_a 12.646567
_cell_length_b 23.023224
_cell_length_c 7.426836
_cell_angle_alpha 90.000000
_cell_angle_beta 90.000000
_cell_angle_gamma 90.000000
_cell_volume 2162.432809
_symmetry_space_group_name_H-M "P B A M"
_symmetry_group_IT_number 55
_symmetry_cell_setting 'orthorhombic'
loop_
_space_group_symop_operation_xyz
x,y,z
-x,-y,z
1/2+x,1/2-y,-z
1/2-x,1/2+y,-z
-x,-y,-z
x,y,-z
1/2-x,1/2+y,z
1/2+x,1/2-y,z
loop_
_atom_site_type_symbol
_atom_site_label
_atom_site_fract_x
_atom_site_fract_y
_atom_site_fract_z
Si Si1 0.000000 0.000000 0.500000
Si Si2 0.640353 0.809025 0.711410
Si Si3 0.799001 0.651419 0.291171
Si Si4 0.051960 0.244931 0.289419
Si Si5 0.881598 0.070908 0.791825
Si Si6 0.998576 0.424143 0.784816
Si Si7 0.215098 0.526321 0.780519
Si Si8 0.344402 0.634315 0.801114
O O1 0.025167 0.949652 0.659213
O O2 0.666510 0.800828 0.500000
O O3 0.563046 0.760245 0.784013
O O4 0.572040 0.867405 0.738178
O O5 0.748215 0.819728 0.810835
O O6 0.777347 0.662238 0.500000
O O7 0.860358 0.708800 0.217524
O O8 0.686160 0.630566 0.215091
O O9 0.886904 0.599247 0.276871
O O10 0.046531 0.260580 0.500000
O O11 0.069058 0.176335 0.278820
O O12 0.788495 0.026561 0.729649
O O13 0.907777 0.059254 0.000000
O O14 0.908452 0.472185 0.724731
O O15 0.009927 0.431426 0.000000
O O16 0.284525 0.580700 0.711427
O O17 0.211312 0.530011 0.000000
O O18 0.378356 0.616277 0.000000
#
# Coordination Sequence:
#
# PCOD9425889 Si02
#       8
#     2   8   8   8   8   8   8   8
#     4  12  26  48  64  92 112 152 214 264 316 374
#     4   9  17  31  49  74 110 151 188 226 287 344
#     4  10  20  37  57  89 125 155 202 246 294 366
#     4   9  19  34  54  79 115 155 190 240 292 346
#     4  11  23  44  69  88 119 160 203 259 313 360
#     4   9  16  30  54  86 123 155 183 224 286 354
#     4   8  18  36  57  86 120 155 195 243 301 364
#     4  10  19  33  55  82 114 150 194 241 288 357
#
# _framework density 26.821641
#
# number of rings (size 3 to 8) (size 9 to 14) (size 15 to 20)
#    0.000    2.483    0.690    3.517    0.000    3.862 
#    7.448    4.138    3.034    1.655    0.000    0.000 
#    0.000    0.000    0.000    0.000    0.000    0.000 
#
# Total GULP energy -323148.031393 kJ/mol
# GULP energy per Si atom -5571.517783 kJ/mol
# Density = 2.676059 g / cm^3
# Si number density = 26.821641 Si / 1000 Ang^3
#
#
#
# Elastic Constant Matrix: (Units=GPa)
#
#
# Indices 1 2 3 4 5 6 
#
# 1 94.4213 30.9504 -16.3399 0.0000 0.0000 0.0000
# 2 30.9504 62.2644 2.5804 0.0000 0.0000 0.0000
# 3 -16.3399 2.5804 119.9301 0.0000 0.0000 0.0000
# 4 0.0000 0.0000 0.0000 8.7823 0.0000 0.0000
# 5 0.0000 0.0000 0.0000 0.0000 2.6670 0.0000
# 6 0.0000 0.0000 0.0000 0.0000 0.0000 32.8155
#
#
#
# Elastic Compliance Matrix: (Units=1/GPa)
#
#
# Indices 1 2 3 4 5 6 
#
# 1 0.013081 -0.006582 0.001924 0.000000 0.000000 0.000000
# 2 -0.006582 0.019387 -0.001314 0.000000 0.000000 0.000000
# 3 0.001924 -0.001314 0.008629 0.000000 0.000000 0.000000
# 4 0.000000 0.000000 0.000000 0.113866 0.000000 0.000000
# 5 0.000000 0.000000 0.000000 0.000000 0.374954 0.000000
# 6 0.000000 0.000000 0.000000 0.000000 0.000000 0.030473
#
#
# Mechanical properties :
#
#
# Convention : Reuss Voigt Hill
#
# Bulk Modulus (GPa) = 34.30256 34.55528 34.42892
# Shear Modulus (GPa) = 8.59030 26.14794 17.36912
#
# Velocity S-wave (km/s) = 1.79156 3.12570 2.54752
# Velocity P-wave (km/s) = 4.13479 5.09293 4.63867
#
# Compressibility (1/GPa) = 0.02915234
#
# Stress axis : x y z
#
# Youngs Moduli (GPa) = 76.44466 51.58124 115.89386
#
# Poissons Ratio (x) = 0.33952 -0.22297
# Poissons Ratio (y) = 0.50318 0.15228
# Poissons Ratio (z) = -0.14707 0.06777
#
# Static dielectric constant tensor:
#      x y z
#    x 2.178170 0.000000 0.000000 
#    y 0.000000 2.206720 0.000000 
#    z 0.000000 0.000000 1.830250 
# 
# From -- ./inp_files/6459.got.cif
#   From: 2010.05.17/outbox.cif.g08.bks.cpg/sg55_4_cif.got.tgz:6459.got - 2010.06.03 13:27:54.
