data_PCOD9425063
_publ_section_title
;
Structure prediction by ZEFSAII (Michael W. Deem and Ramdas Pophale) SiO2 
 PCOD9425063
Probable space group: P B A M
;
_chemical_formula_sum "Si O2"
_cell_formula_units_Z 64
_cell_length_a 22.242741
_cell_length_b 15.374316
_cell_length_c 7.285661
_cell_angle_alpha 90.000000
_cell_angle_beta 90.000000
_cell_angle_gamma 90.000000
_cell_volume 2491.455117
_symmetry_space_group_name_H-M "P B A M"
_symmetry_group_IT_number 55
_symmetry_cell_setting 'orthorhombic'
loop_
_space_group_symop_operation_xyz
x,y,z
-x,-y,z
1/2+x,1/2-y,-z
1/2-x,1/2+y,-z
-x,-y,-z
x,y,-z
1/2-x,1/2+y,z
1/2+x,1/2-y,z
loop_
_atom_site_type_symbol
_atom_site_label
_atom_site_fract_x
_atom_site_fract_y
_atom_site_fract_z
Si Si1 0.055866 0.052483 0.288699
Si Si2 0.107573 0.878881 0.221114
Si Si3 0.605668 0.275065 0.200811
Si Si4 0.063748 0.542159 0.223237
Si Si5 0.276787 0.624810 0.778737
Si Si6 0.232722 0.805248 0.221693
Si Si7 0.692770 0.033538 0.776269
Si Si8 0.481676 0.227403 0.776284
O O1 0.045441 0.075387 0.500000
O O2 0.066915 0.137634 0.179234
O O3 0.106153 0.979204 0.279245
O O4 0.000000 0.000000 0.213544
O O5 0.170497 0.843171 0.286735
O O6 0.053719 0.814890 0.282752
O O7 0.106345 0.877698 0.000000
O O8 0.662900 0.324086 0.290028
O O9 0.552067 0.216978 0.284081
O O10 0.623771 0.238894 0.000000
O O11 0.126252 0.497000 0.283187
O O12 0.057613 0.643546 0.275239
O O13 0.000000 0.500000 0.279702
O O14 0.065075 0.537813 0.000000
O O15 0.231644 0.703369 0.738440
O O16 0.245097 0.535569 0.719413
O O17 0.287110 0.615626 0.000000
O O18 0.287352 0.868826 0.281041
O O19 0.233677 0.810106 0.000000
O O20 0.692616 0.030985 0.000000
O O21 0.484575 0.227189 0.000000
#
# Coordination Sequence:
#
# PCOD9425063 Si02
#       8
#     8   8   8   8   8   8   8   8
#     4  11  22  34  48  71 103 134 166 207 257 302
#     4  10  18  31  51  73 100 132 170 206 247 300
#     4  10  19  31  50  73 100 131 168 205 246 298
#     4   9  17  26  39  59  93 133 163 194 244 300
#     4   9  17  28  44  68  98 128 161 204 247 292
#     4   9  17  27  45  70  97 130 165 202 246 295
#     4   9  16  26  37  56  89 127 162 194 239 293
#     4   9  17  27  42  66  92 126 165 202 238 288
#
# _framework density 25.687798999999998
#
# number of rings (size 3 to 8) (size 9 to 14) (size 15 to 20)
#    0.000    2.500    1.250    1.875    1.750    5.500 
#    0.000    0.000    0.000    0.750    0.000    0.000 
#    0.000    2.000    0.000    0.000    0.000    0.250 
#
# Total GULP energy -357031.616577 kJ/mol
# GULP energy per Si atom -5578.619009 kJ/mol
# Density = 2.562933 g / cm^3
# Si number density = 25.687799 Si / 1000 Ang^3
#
#
#
# Elastic Constant Matrix: (Units=GPa)
#
#
# Indices 1 2 3 4 5 6 
#
# 1 96.4287 -7.1521 1.2711 0.0000 0.0000 0.0000
# 2 -7.1521 81.8630 -0.4107 0.0000 0.0000 0.0000
# 3 1.2711 -0.4107 111.1585 0.0000 0.0000 0.0000
# 4 0.0000 0.0000 0.0000 38.2704 0.0000 0.0000
# 5 0.0000 0.0000 0.0000 0.0000 -12.4414 0.0000
# 6 0.0000 0.0000 0.0000 0.0000 0.0000 44.6749
#
#
#
# Elastic Compliance Matrix: (Units=1/GPa)
#
#
# Indices 1 2 3 4 5 6 
#
# 1 0.010439 0.000911 -0.000116 0.000000 0.000000 0.000000
# 2 0.000911 0.012295 0.000035 0.000000 0.000000 0.000000
# 3 -0.000116 0.000035 0.008998 0.000000 0.000000 0.000000
# 4 0.000000 0.000000 0.000000 0.026130 0.000000 0.000000
# 5 0.000000 0.000000 0.000000 0.000000 -0.080377 0.000000
# 6 0.000000 0.000000 0.000000 0.000000 0.000000 0.022384
#
#
# Mechanical properties :
#
#
# Convention : Reuss Voigt Hill
#
# Bulk Modulus (GPa) = 29.94603 30.76297 30.35450
# Shear Modulus (GPa) = 535.33985 33.81690 284.57837
#
# Velocity S-wave (km/s) = 14.45181 3.63224 10.53679
# Velocity P-wave (km/s) = 17.03397 5.43991 12.64414
#
# Compressibility (1/GPa) = 0.03339341
#
# Stress axis : x y z
#
# Youngs Moduli (GPa) = 95.79010 81.33166 111.14053
#
# Poissons Ratio (x) = -0.07413 0.01289
# Poissons Ratio (y) = -0.08731 -0.00389
# Poissons Ratio (z) = 0.01111 -0.00285
#
# Static dielectric constant tensor:
#      x y z
#    x 2.157080 0.000000 0.000000 
#    y 0.000000 2.007020 0.000000 
#    z 0.000000 0.000000 2.034380 
# 
# From -- ./inp_files/9687.got.cif
#   From: 2010.05.17/outbox.cif.g08.bks.cpg/sg55_5_cif.got.tgz:9687.got - 2010.06.03 13:27:54.
