data_PCOD9425518
_publ_section_title
;
Structure prediction by ZEFSAII (Michael W. Deem and Ramdas Pophale) SiO2 
 PCOD9425518
Probable space group: P B A M
;
_chemical_formula_sum "Si O2"
_cell_formula_units_Z 56
_cell_length_a 19.928511
_cell_length_b 18.509848
_cell_length_c 7.616233
_cell_angle_alpha 90.000000
_cell_angle_beta 90.000000
_cell_angle_gamma 90.000000
_cell_volume 2809.428119
_symmetry_space_group_name_H-M "P B A M"
_symmetry_group_IT_number 55
_symmetry_cell_setting 'orthorhombic'
loop_
_space_group_symop_operation_xyz
x,y,z
-x,-y,z
1/2+x,1/2-y,-z
1/2-x,1/2+y,-z
-x,-y,-z
x,y,-z
1/2-x,1/2+y,z
1/2+x,1/2-y,z
loop_
_atom_site_type_symbol
_atom_site_label
_atom_site_fract_x
_atom_site_fract_y
_atom_site_fract_z
Si Si1 0.810212 0.648839 0.287979
Si Si2 0.168860 0.514981 0.803416
Si Si3 0.724575 0.377649 0.288475
Si Si4 0.813152 0.239557 0.713847
Si Si5 0.897586 0.787621 0.713950
Si Si6 0.966611 0.428809 0.301796
Si Si7 0.962974 0.266273 0.284320
O O1 0.811094 0.646273 0.500000
O O2 0.830371 0.570407 0.223584
O O3 0.735936 0.674643 0.231571
O O4 0.860754 0.712817 0.235086
O O5 0.242114 0.548320 0.771368
O O6 0.112500 0.554180 0.688734
O O7 0.148103 0.532189 0.000000
O O8 0.723562 0.378699 0.500000
O O9 0.775548 0.313516 0.233845
O O10 0.650874 0.352721 0.227890
O O11 0.813712 0.239227 0.500000
O O12 0.889750 0.240074 0.773646
O O13 0.897407 0.789036 0.500000
O O14 0.974454 0.782866 0.770324
O O15 0.995596 0.424449 0.500000
O O16 0.975278 0.349102 0.225188
O O17 0.000000 0.500000 0.217945
O O18 0.961565 0.268290 0.500000
#
# Coordination Sequence:
#
# PCOD9425518 Si02
#       7
#     8   8   8   8   8   8   8
#     4   9  17  31  49  69  93 126 165 202 242 290
#     4  12  23  32  45  69 101 135 165 200 240 282
#     4   9  16  31  51  71  94 125 162 200 239 288
#     4   8  14  26  48  72  93 119 158 206 247 282
#     4   8  15  27  49  77  99 118 153 202 248 288
#     4  10  19  31  51  75 101 133 162 190 236 300
#     4   9  14  24  46  77 101 117 148 199 247 287
#
# _framework density 19.932883
#
# number of rings (size 3 to 8) (size 9 to 14) (size 15 to 20)
#    0.000    2.714    1.429    3.857    0.000    2.571 
#    0.000    2.857    0.000    1.714    0.000    6.000 
#    0.000    0.000    0.000    0.000    0.000    0.000 
#
# Total GULP energy -312333.475682 kJ/mol
# GULP energy per Si atom -5577.383494 kJ/mol
# Density = 1.988752 g / cm^3
# Si number density = 19.932883 Si / 1000 Ang^3
#
#
#
# Elastic Constant Matrix: (Units=GPa)
#
#
# Indices 1 2 3 4 5 6 
#
# 1 99.3466 -14.1958 1.0889 0.0000 0.0000 0.0000
# 2 -14.1958 10.4746 -2.3406 0.0000 0.0000 0.0000
# 3 1.0889 -2.3406 46.9641 0.0000 0.0000 0.0000
# 4 0.0000 0.0000 0.0000 55.4362 0.0000 0.0000
# 5 0.0000 0.0000 0.0000 0.0000 -18.2768 0.0000
# 6 0.0000 0.0000 0.0000 0.0000 0.0000 30.8241
#
#
#
# Elastic Compliance Matrix: (Units=1/GPa)
#
#
# Indices 1 2 3 4 5 6 
#
# 1 0.012498 0.017063 0.000561 0.000000 0.000000 0.000000
# 2 0.017063 0.119840 0.005577 0.000000 0.000000 0.000000
# 3 0.000561 0.005577 0.021558 0.000000 0.000000 0.000000
# 4 0.000000 0.000000 0.000000 0.018039 0.000000 0.000000
# 5 0.000000 0.000000 0.000000 0.000000 -0.054714 0.000000
# 6 0.000000 0.000000 0.000000 0.000000 0.000000 0.032442
#
#
# Mechanical properties :
#
#
# Convention : Reuss Voigt Hill
#
# Bulk Modulus (GPa) = 4.99261 13.98783 9.49022
# Shear Modulus (GPa) = 29.40719 25.07887 27.24303
#
# Velocity S-wave (km/s) = 3.84514 3.55091 3.70095
# Velocity P-wave (km/s) = 4.71420 4.88310 4.79939
#
# Compressibility (1/GPa) = 0.20029614
#
# Stress axis : x y z
#
# Youngs Moduli (GPa) = 80.01424 8.34448 46.38694
#
# Poissons Ratio (x) = -0.14238 -0.02600
# Poissons Ratio (y) = -1.36528 -0.25870
# Poissons Ratio (z) = -0.04486 -0.04654
#
# Static dielectric constant tensor:
#      x y z
#    x 1.732140 0.000000 0.000000 
#    y 0.000000 1.673310 0.000000 
#    z 0.000000 0.000000 1.778380 
# 
# From -- ./inp_files/8893.got.cif
#   From: 2010.05.17/outbox.cif.g08.bks.cpg/sg55_5_cif.got.tgz:8893.got - 2010.06.03 13:27:54.
