data_PCOD9425271
_publ_section_title
;
Structure prediction by ZEFSAII (Michael W. Deem and Ramdas Pophale) SiO2 
 PCOD9425271
Probable space group: P B A M
;
_chemical_formula_sum "Si O2"
_cell_formula_units_Z 56
_cell_length_a 12.512506
_cell_length_b 15.615378
_cell_length_c 13.940698
_cell_angle_alpha 90.000000
_cell_angle_beta 90.000000
_cell_angle_gamma 90.000000
_cell_volume 2723.838283
_symmetry_space_group_name_H-M "P B A M"
_symmetry_group_IT_number 55
_symmetry_cell_setting 'orthorhombic'
loop_
_space_group_symop_operation_xyz
x,y,z
-x,-y,z
1/2+x,1/2-y,-z
1/2-x,1/2+y,-z
-x,-y,-z
x,y,-z
1/2-x,1/2+y,z
1/2+x,1/2-y,z
loop_
_atom_site_type_symbol
_atom_site_label
_atom_site_fract_x
_atom_site_fract_y
_atom_site_fract_z
Si Si1 0.104923 0.558618 0.112802
Si Si2 0.583385 0.068179 0.391157
Si Si3 0.736635 0.512773 0.262530
Si Si4 0.515853 0.746329 0.394224
Si Si5 0.340974 0.663716 0.276600
Si Si6 0.358974 0.245587 0.197517
Si Si7 0.538660 0.588305 0.837677
O O1 0.202425 0.508526 0.163437
O O2 0.097285 0.654299 0.158087
O O3 0.000000 0.500000 0.125328
O O4 0.875115 0.431311 0.000000
O O5 0.611484 0.042132 0.500000
O O6 0.688198 0.071319 0.326784
O O7 0.519163 0.155441 0.395589
O O8 0.500000 0.000000 0.349370
O O9 0.726955 0.418585 0.308905
O O10 0.620385 0.550837 0.242459
O O11 0.556148 0.721339 0.500000
O O12 0.406324 0.698939 0.365932
O O13 0.593209 0.736285 0.303577
O O14 0.265969 0.729494 0.219093
O O15 0.429966 0.628697 0.202982
O O16 0.393995 0.326508 0.131362
O O17 0.500000 0.500000 0.890075
#
# Coordination Sequence:
#
# PCOD9425271 Si02
#       7
#     8   8   8   8   8   8   8
#     4  10  21  37  60  90 117 146 192 245 296 353
#     4  10  19  30  48  77 107 139 184 231 278 340
#     4  10  18  34  57  77 110 151 184 233 293 348
#     4  10  20  32  49  77 110 143 187 236 281 337
#     4   9  19  33  52  77 105 146 190 231 281 341
#     4  10  19  35  59  79 112 157 192 235 295 352
#     4   9  19  35  57  84 114 150 194 238 290 352
#
# _framework density 20.559222999999999
#
# number of rings (size 3 to 8) (size 9 to 14) (size 15 to 20)
#    0.000    2.286    0.000    3.857    0.000    2.286 
#    0.000    5.000    0.000   49.286    0.000    0.000 
#    0.000    0.000    0.000    0.000    0.000    0.000 
#
# Total GULP energy -311817.873303 kJ/mol
# GULP energy per Si atom -5568.176309 kJ/mol
# Density = 2.051243 g / cm^3
# Si number density = 20.559223 Si / 1000 Ang^3
#
#
#
# Elastic Constant Matrix: (Units=GPa)
#
#
# Indices 1 2 3 4 5 6 
#
# 1 94.4213 27.6760 24.6536 0.0000 0.0000 0.0000
# 2 27.6760 95.3794 22.2010 0.0000 0.0000 0.0000
# 3 24.6536 22.2010 94.9504 0.0000 0.0000 0.0000
# 4 0.0000 0.0000 0.0000 5.6904 0.0000 0.0000
# 5 0.0000 0.0000 0.0000 0.0000 -0.0515 0.0000
# 6 0.0000 0.0000 0.0000 0.0000 0.0000 38.7281
#
#
#
# Elastic Compliance Matrix: (Units=1/GPa)
#
#
# Indices 1 2 3 4 5 6 
#
# 1 0.012092 -0.002938 -0.002453 0.000000 0.000000 0.000000
# 2 -0.002938 0.011802 -0.001997 0.000000 0.000000 0.000000
# 3 -0.002453 -0.001997 0.011636 0.000000 0.000000 0.000000
# 4 0.000000 0.000000 0.000000 0.175733 0.000000 0.000000
# 5 0.000000 0.000000 0.000000 0.000000-19.401020 0.000000
# 6 0.000000 0.000000 0.000000 0.000000 0.000000 0.025821
#
#
# Mechanical properties :
#
#
# Convention : Reuss Voigt Hill
#
# Bulk Modulus (GPa) = 48.18132 48.20136 48.19134
# Shear Modulus (GPa) = -0.26120 22.88809 11.31345
#
# Velocity S-wave (km/s) = -0.35683 3.34020 2.34836
# Velocity P-wave (km/s) = 4.82872 6.19451 5.55376
#
# Compressibility (1/GPa) = 0.02075493
#
# Stress axis : x y z
#
# Youngs Moduli (GPa) = 82.69658 84.73379 85.94371
#
# Poissons Ratio (x) = 0.24894 0.21081
# Poissons Ratio (y) = 0.24295 0.17160
# Poissons Ratio (z) = 0.20284 0.16918
#
# Static dielectric constant tensor:
#      x y z
#    x 1.766590 0.000000 0.000000 
#    y 0.000000 1.819800 0.000000 
#    z 0.000000 0.000000 1.741260 
# 
# From -- ./inp_files/18394.got.cif
#   From: 2010.05.17/outbox.cif.g08.bks.cpg/sg55_10_cif.got.tgz:18394.got - 2010.06.03 13:27:54.
