data_PCOD9425769
_publ_section_title
;
Structure prediction by ZEFSAII (Michael W. Deem and Ramdas Pophale) SiO2 
 PCOD9425769
Probable space group: P B A M
;
_chemical_formula_sum "Si O2"
_cell_formula_units_Z 32
_cell_length_a 23.652418
_cell_length_b 4.938505
_cell_length_c 15.485509
_cell_angle_alpha 90.000000
_cell_angle_beta 90.000000
_cell_angle_gamma 90.000000
_cell_volume 1808.824902
_symmetry_space_group_name_H-M "P B A M"
_symmetry_group_IT_number 55
_symmetry_cell_setting 'orthorhombic'
loop_
_space_group_symop_operation_xyz
x,y,z
-x,-y,z
1/2+x,1/2-y,-z
1/2-x,1/2+y,-z
-x,-y,-z
x,y,-z
1/2-x,1/2+y,z
1/2+x,1/2-y,z
loop_
_atom_site_type_symbol
_atom_site_label
_atom_site_fract_x
_atom_site_fract_y
_atom_site_fract_z
Si Si1 0.709491 0.280255 0.187886
Si Si2 0.286998 0.383810 0.500000
Si Si3 0.711943 0.399021 0.000000
Si Si4 0.132241 0.090358 0.349299
Si Si5 0.938064 0.389856 0.398834
O O1 0.737224 0.985187 0.196180
O O2 0.664429 0.343441 0.261224
O O3 0.684711 0.326749 0.091620
O O4 0.231397 0.572671 0.500000
O O5 0.322838 0.463527 0.583761
O O6 0.768524 0.210158 0.000000
O O7 0.083227 0.864990 0.344104
O O8 0.105385 0.363765 0.386797
O O9 0.939146 0.306184 0.500000
O O10 0.000000 0.500000 0.376387
#
# Coordination Sequence:
#
# PCOD9425769 Si02
#       5
#     8   4   4   8   8
#     4  10  19  33  51  77 107 136 166 200 241 300
#     4  12  22  32  45  70 105 136 158 186 236 302
#     4   8  16  30  50  72 101 134 167 202 236 280
#     4  12  21  35  52  75 100 136 167 205 254 298
#     4  11  22  38  54  71  95 130 177 224 252 284
#
# _framework density 17.691041999999999
#
# number of rings (size 3 to 8) (size 9 to 14) (size 15 to 20)
#    0.000    1.250    2.500    5.250    0.000    2.000 
#    0.000    0.000    0.000    0.000    0.000    5.250 
#    0.000    0.000    0.000    0.000    0.000    0.000 
#
# Total GULP energy -178786.755395 kJ/mol
# GULP energy per Si atom -5587.086106 kJ/mol
# Density = 1.765078 g / cm^3
# Si number density = 17.691042 Si / 1000 Ang^3
#
#
#
# Elastic Constant Matrix: (Units=GPa)
#
#
# Indices 1 2 3 4 5 6 
#
# 1 45.7143 -6.3010 27.0825 0.0000 0.0000 0.0000
# 2 -6.3010 50.9304 -25.8784 0.0000 0.0000 0.0000
# 3 27.0825 -25.8784 80.3204 0.0000 0.0000 0.0000
# 4 0.0000 0.0000 0.0000 16.1015 0.0000 0.0000
# 5 0.0000 0.0000 0.0000 0.0000 12.0500 0.0000
# 6 0.0000 0.0000 0.0000 0.0000 0.0000 25.3154
#
#
#
# Elastic Compliance Matrix: (Units=1/GPa)
#
#
# Indices 1 2 3 4 5 6 
#
# 1 0.027439 -0.001562 -0.009755 0.000000 0.000000 0.000000
# 2 -0.001562 0.023567 0.008120 0.000000 0.000000 0.000000
# 3 -0.009755 0.008120 0.018355 0.000000 0.000000 0.000000
# 4 0.000000 0.000000 0.000000 0.062106 0.000000 0.000000
# 5 0.000000 0.000000 0.000000 0.000000 0.082988 0.000000
# 6 0.000000 0.000000 0.000000 0.000000 0.000000 0.039502
#
#
# Mechanical properties :
#
#
# Convention : Reuss Voigt Hill
#
# Bulk Modulus (GPa) = 15.88140 18.53015 17.20577
# Shear Modulus (GPa) = 17.77206 22.83084 20.30145
#
# Velocity S-wave (km/s) = 3.17295 3.59629 3.39123
# Velocity P-wave (km/s) = 4.73498 5.26702 5.00807
#
# Compressibility (1/GPa) = 0.06296674
#
# Stress axis : x y z
#
# Youngs Moduli (GPa) = 36.44460 42.43196 54.47969
#
# Poissons Ratio (x) = 0.06628 0.53146
# Poissons Ratio (y) = 0.05693 -0.44236
# Poissons Ratio (z) = 0.35552 -0.34454
#
# Static dielectric constant tensor:
#      x y z
#    x 1.596030 0.000000 0.000000 
#    y 0.000000 1.618760 0.000000 
#    z 0.000000 0.000000 1.615130 
# 
# From -- ./inp_files/16411.got.cif
#   From: 2010.05.17/outbox.cif.g08.bks.cpg/sg55_9_cif.got.tgz:16411.got - 2010.06.03 13:27:54.
