data_PCOD9425445
_publ_section_title
;
Structure prediction by ZEFSAII (Michael W. Deem and Ramdas Pophale) SiO2 
 PCOD9425445
Probable space group: P B A M
;
_chemical_formula_sum "Si O2"
_cell_formula_units_Z 64
_cell_length_a 20.088480
_cell_length_b 20.325903
_cell_length_c 8.115761
_cell_angle_alpha 90.000000
_cell_angle_beta 90.000000
_cell_angle_gamma 90.000000
_cell_volume 3313.799093
_symmetry_space_group_name_H-M "P B A M"
_symmetry_group_IT_number 55
_symmetry_cell_setting 'orthorhombic'
loop_
_space_group_symop_operation_xyz
x,y,z
-x,-y,z
1/2+x,1/2-y,-z
1/2-x,1/2+y,-z
-x,-y,-z
x,y,-z
1/2-x,1/2+y,z
1/2+x,1/2-y,z
loop_
_atom_site_type_symbol
_atom_site_label
_atom_site_fract_x
_atom_site_fract_y
_atom_site_fract_z
Si Si1 0.839607 0.727180 0.200158
Si Si2 0.513115 0.907644 0.810421
Si Si3 0.988906 0.745925 0.191028
Si Si4 0.764348 0.121911 0.804199
Si Si5 0.390815 0.989844 0.688109
Si Si6 0.727781 0.835964 0.198213
Si Si7 0.130577 0.773091 0.691530
Si Si8 0.748053 0.982400 0.187299
O O1 0.913612 0.745032 0.260861
O O2 0.801633 0.660842 0.260132
O O3 0.788657 0.786555 0.233959
O O4 0.845256 0.720421 0.000000
O O5 0.509821 0.830248 0.804275
O O6 0.442870 0.935992 0.749965
O O7 0.568781 0.941870 0.700765
O O8 0.525104 0.927488 0.000000
O O9 0.052203 0.780414 0.273167
O O10 0.985511 0.767670 0.000000
O O11 0.825157 0.172147 0.782166
O O12 0.779604 0.048768 0.735979
O O13 0.754121 0.113158 0.000000
O O14 0.370239 0.978203 0.500000
O O15 0.328831 0.995721 0.807397
O O16 0.661771 0.798065 0.258980
O O17 0.745021 0.909079 0.263084
O O18 0.720298 0.841472 0.000000
O O19 0.143067 0.781428 0.500000
O O20 0.773396 0.974417 0.000000
#
# Coordination Sequence:
#
# PCOD9425445 Si02
#       8
#     8   8   8   8   8   8   8   8
#     4   8  15  30  52  75  98 125 162 208 253 296
#     4  10  19  31  46  64  91 129 172 208 240 289
#     4  10  19  32  52  73  94 127 168 208 251 298
#     4   9  18  35  56  76 100 131 169 212 254 298
#     4  11  21  30  42  65 100 134 161 196 246 300
#     4   9  18  34  55  78 103 132 168 211 257 304
#     4  11  22  34  50  75 106 137 169 206 250 302
#     4  10  19  32  53  76  97 127 168 209 251 301
#
# _framework density 19.313179999999999
#
# number of rings (size 3 to 8) (size 9 to 14) (size 15 to 20)
#    0.000    2.250    0.000    5.625    0.000    7.000 
#    0.000    2.500    0.000    0.750    0.000    5.250 
#    0.000    0.000    0.000    0.000    0.000    0.000 
#
# Total GULP energy -356690.508048 kJ/mol
# GULP energy per Si atom -5573.289188 kJ/mol
# Density = 1.926922 g / cm^3
# Si number density = 19.313180 Si / 1000 Ang^3
#
#
#
# Elastic Constant Matrix: (Units=GPa)
#
#
# Indices 1 2 3 4 5 6 
#
# 1 69.0464 -2.9989 4.3466 0.0000 0.0000 0.0000
# 2 -2.9989 73.1955 10.8309 0.0000 0.0000 0.0000
# 3 4.3466 10.8309 37.5624 0.0000 0.0000 0.0000
# 4 0.0000 0.0000 0.0000 -15.5960 0.0000 0.0000
# 5 0.0000 0.0000 0.0000 0.0000 -14.4528 0.0000
# 6 0.0000 0.0000 0.0000 0.0000 0.0000 7.1530
#
#
#
# Elastic Compliance Matrix: (Units=1/GPa)
#
#
# Indices 1 2 3 4 5 6 
#
# 1 0.014644 0.000889 -0.001951 0.000000 0.000000 0.000000
# 2 0.000889 0.014325 -0.004233 0.000000 0.000000 0.000000
# 3 -0.001951 -0.004233 0.028069 0.000000 0.000000 0.000000
# 4 0.000000 0.000000 0.000000 -0.064119 0.000000 0.000000
# 5 0.000000 0.000000 0.000000 0.000000 -0.069191 0.000000
# 6 0.000000 0.000000 0.000000 0.000000 0.000000 0.139801
#
#
# Mechanical properties :
#
#
# Convention : Reuss Voigt Hill
#
# Bulk Modulus (GPa) = 21.52990 22.68461 22.10726
# Shear Modulus (GPa) = 55.80185 6.59590 31.19887
#
# Velocity S-wave (km/s) = 5.38107 1.85004 4.02359
# Velocity P-wave (km/s) = 7.05548 4.04162 5.74954
#
# Compressibility (1/GPa) = 0.04644703
#
# Stress axis : x y z
#
# Youngs Moduli (GPa) = 68.28534 69.80870 35.62678
#
# Poissons Ratio (x) = -0.06204 0.06950
# Poissons Ratio (y) = -0.06068 0.15082
# Poissons Ratio (z) = 0.13322 0.29552
#
# Static dielectric constant tensor:
#      x y z
#    x 1.679400 0.000000 0.000000 
#    y 0.000000 1.732070 0.000000 
#    z 0.000000 0.000000 1.688200 
# 
# From -- ./inp_files/8015.got.cif
#   From: 2010.05.17/outbox.cif.g08.bks.cpg/sg55_5_cif.got.tgz:8015.got - 2010.06.03 13:27:54.
