data_PCOD9425093
_publ_section_title
;
Structure prediction by ZEFSAII (Michael W. Deem and Ramdas Pophale) SiO2 
 PCOD9425093
Probable space group: P B A M
;
_chemical_formula_sum "Si O2"
_cell_formula_units_Z 64
_cell_length_a 22.216574
_cell_length_b 14.549742
_cell_length_c 7.631368
_cell_angle_alpha 90.000000
_cell_angle_beta 90.000000
_cell_angle_gamma 90.000000
_cell_volume 2466.804753
_symmetry_space_group_name_H-M "P B A M"
_symmetry_group_IT_number 55
_symmetry_cell_setting 'orthorhombic'
loop_
_space_group_symop_operation_xyz
x,y,z
-x,-y,z
1/2+x,1/2-y,-z
1/2-x,1/2+y,-z
-x,-y,-z
x,y,-z
1/2-x,1/2+y,z
1/2+x,1/2-y,z
loop_
_atom_site_type_symbol
_atom_site_label
_atom_site_fract_x
_atom_site_fract_y
_atom_site_fract_z
Si Si1 0.976909 0.856688 0.797009
Si Si2 0.846806 0.862076 0.291076
Si Si3 0.892735 0.131097 0.788131
Si Si4 0.473823 0.858097 0.287409
Si Si5 0.821780 0.307345 0.795620
Si Si6 0.595138 0.967600 0.289723
Si Si7 0.707673 0.191042 0.700894
Si Si8 0.774381 0.022277 0.297359
O O1 0.914213 0.896314 0.731208
O O2 0.973865 0.746081 0.776607
O O3 0.040523 0.888592 0.720831
O O4 0.979315 0.879904 0.000000
O O5 0.836937 0.857272 0.500000
O O6 0.840852 0.759069 0.218472
O O7 0.794935 0.927006 0.213648
O O8 0.877475 0.238478 0.756627
O O9 0.838401 0.075542 0.703547
O O10 0.889588 0.116356 0.000000
O O11 0.472246 0.853709 0.500000
O O12 0.536221 0.908541 0.235127
O O13 0.419859 0.927916 0.232371
O O14 0.845314 0.410347 0.761173
O O15 0.766343 0.258530 0.697778
O O16 0.807757 0.297934 0.000000
O O17 0.595392 0.969440 0.500000
O O18 0.690038 0.170123 0.500000
O O19 0.728352 0.095331 0.783107
O O20 0.756634 0.006497 0.500000
#
# Coordination Sequence:
#
# PCOD9425093 Si02
#       8
#     8   8   8   8   8   8   8   8
#     4  11  22  36  54  79 116 154 188 227 284 347
#     4  10  22  40  59  82 112 145 187 238 288 338
#     4   9  19  34  53  81 114 149 181 221 278 334
#     4   9  18  32  50  75 109 148 188 229 273 326
#     4  10  18  31  53  80 110 142 183 230 276 332
#     4   9  17  30  50  77 108 144 187 231 277 327
#     4   9  19  38  60  80 106 142 184 233 283 331
#     4   9  19  37  62  86 107 141 187 234 284 335
#
# _framework density 25.944493999999999
#
# number of rings (size 3 to 8) (size 9 to 14) (size 15 to 20)
#    0.000    2.500    1.250    1.500    0.000    3.500 
#    2.250    3.750    0.000    0.000    0.000    0.000 
#    0.000    0.000    0.000    0.000    0.000    0.000 
#
# Total GULP energy -357670.045317 kJ/mol
# GULP energy per Si atom -5588.594458 kJ/mol
# Density = 2.588544 g / cm^3
# Si number density = 25.944494 Si / 1000 Ang^3
#
#
#
# Elastic Constant Matrix: (Units=GPa)
#
#
# Indices 1 2 3 4 5 6 
#
# 1 94.3942 8.4833 1.6436 0.0000 0.0000 0.0000
# 2 8.4833 117.4728 -4.6383 0.0000 0.0000 0.0000
# 3 1.6436 -4.6383 55.2306 0.0000 0.0000 0.0000
# 4 0.0000 0.0000 0.0000 19.8191 0.0000 0.0000
# 5 0.0000 0.0000 0.0000 0.0000 36.7110 0.0000
# 6 0.0000 0.0000 0.0000 0.0000 0.0000 46.6156
#
#
#
# Elastic Compliance Matrix: (Units=1/GPa)
#
#
# Indices 1 2 3 4 5 6 
#
# 1 0.010671 -0.000786 -0.000384 0.000000 0.000000 0.000000
# 2 -0.000786 0.008599 0.000746 0.000000 0.000000 0.000000
# 3 -0.000384 0.000746 0.018180 0.000000 0.000000 0.000000
# 4 0.000000 0.000000 0.000000 0.050456 0.000000 0.000000
# 5 0.000000 0.000000 0.000000 0.000000 0.027240 0.000000
# 6 0.000000 0.000000 0.000000 0.000000 0.000000 0.021452
#
#
# Mechanical properties :
#
#
# Convention : Reuss Voigt Hill
#
# Bulk Modulus (GPa) = 27.32069 30.89719 29.10894
# Shear Modulus (GPa) = 33.41211 38.06975 35.74093
#
# Velocity S-wave (km/s) = 3.59253 3.83476 3.71562
# Velocity P-wave (km/s) = 5.26893 5.61623 5.44535
#
# Compressibility (1/GPa) = 0.03660229
#
# Stress axis : x y z
#
# Youngs Moduli (GPa) = 93.71043 116.29544 55.00575
#
# Poissons Ratio (x) = 0.09138 0.02110
# Poissons Ratio (y) = 0.07363 -0.04101
# Poissons Ratio (z) = 0.03594 -0.08670
#
# Static dielectric constant tensor:
#      x y z
#    x 2.071140 0.000000 0.000000 
#    y 0.000000 2.110930 0.000000 
#    z 0.000000 0.000000 1.972570 
# 
# From -- ./inp_files/9817.got.cif
#   From: 2010.05.17/outbox.cif.g08.bks.cpg/sg55_5_cif.got.tgz:9817.got - 2010.06.03 13:27:54.
