data_PCOD9425204
_publ_section_title
;
Structure prediction by ZEFSAII (Michael W. Deem and Ramdas Pophale) SiO2 
 PCOD9425204
Probable space group: P B A M
;
_chemical_formula_sum "Si O2"
_cell_formula_units_Z 64
_cell_length_a 34.237873
_cell_length_b 10.726957
_cell_length_c 7.755256
_cell_angle_alpha 90.000000
_cell_angle_beta 90.000000
_cell_angle_gamma 90.000000
_cell_volume 2848.258845
_symmetry_space_group_name_H-M "P B A M"
_symmetry_group_IT_number 55
_symmetry_cell_setting 'orthorhombic'
loop_
_space_group_symop_operation_xyz
x,y,z
-x,-y,z
1/2+x,1/2-y,-z
1/2-x,1/2+y,-z
-x,-y,-z
x,y,-z
1/2-x,1/2+y,z
1/2+x,1/2-y,z
loop_
_atom_site_type_symbol
_atom_site_label
_atom_site_fract_x
_atom_site_fract_y
_atom_site_fract_z
Si Si1 0.579064 0.470239 0.697921
Si Si2 0.130345 0.256575 0.799230
Si Si3 0.490015 0.689110 0.707844
Si Si4 0.432573 0.189048 0.204727
Si Si5 0.780187 0.068597 0.211567
Si Si6 0.436181 0.914391 0.703079
Si Si7 0.780964 0.781134 0.210110
Si Si8 0.637570 0.673543 0.804264
O O1 0.575719 0.514884 0.500000
O O2 0.604504 0.343272 0.697992
O O3 0.537005 0.425651 0.766502
O O4 0.605714 0.563220 0.805048
O O5 0.106102 0.383981 0.783100
O O6 0.174886 0.255410 0.739784
O O7 0.130557 0.218648 0.000000
O O8 0.488127 0.683878 0.500000
O O9 0.534960 0.707272 0.753674
O O10 0.467459 0.813981 0.770778
O O11 0.389339 0.219032 0.278006
O O12 0.447514 0.056242 0.267367
O O13 0.428774 0.183986 0.000000
O O14 0.748798 0.172783 0.265981
O O15 0.822733 0.118128 0.271445
O O16 0.773092 0.924694 0.265908
O O17 0.780602 0.064793 0.000000
O O18 0.433222 0.894445 0.500000
O O19 0.779318 0.781717 0.000000
O O20 0.647664 0.711317 0.000000
#
# Coordination Sequence:
#
# PCOD9425204 Si02
#       8
#     8   8   8   8   8   8   8   8
#     4  10  20  35  57  81 106 145 191 227 273 337
#     4  10  18  32  56  85 110 140 183 229 277 327
#     4   9  20  37  55  77 106 144 188 233 279 337
#     4  11  23  35  52  81 112 145 185 237 291 334
#     4   9  17  32  53  82 114 147 184 230 283 339
#     4  10  21  37  56  79 110 150 188 227 276 339
#     4   9  17  29  53  84 113 144 182 229 282 333
#     4  10  21  37  55  78 112 146 183 234 285 331
#
# _framework density 22.469868999999999
#
# number of rings (size 3 to 8) (size 9 to 14) (size 15 to 20)
#    0.000    2.250    1.250    2.625    0.000    7.000 
#    0.000    6.250    0.000    1.500    0.000    0.000 
#    0.000    0.000    0.000    0.000    0.000    0.000 
#
# Total GULP energy -357206.285141 kJ/mol
# GULP energy per Si atom -5581.348205 kJ/mol
# Density = 2.241873 g / cm^3
# Si number density = 22.469869 Si / 1000 Ang^3
#
#
#
# Elastic Constant Matrix: (Units=GPa)
#
#
# Indices 1 2 3 4 5 6 
#
# 1 169.9111 57.8375 1.4019 0.0000 0.0000 0.0000
# 2 57.8375 82.0682 -2.1055 0.0000 0.0000 0.0000
# 3 1.4019 -2.1055 46.1849 0.0000 0.0000 0.0000
# 4 0.0000 0.0000 0.0000 9.6518 0.0000 0.0000
# 5 0.0000 0.0000 0.0000 0.0000 30.2502 0.0000
# 6 0.0000 0.0000 0.0000 0.0000 0.0000 31.1170
#
#
#
# Elastic Compliance Matrix: (Units=1/GPa)
#
#
# Indices 1 2 3 4 5 6 
#
# 1 0.007754 -0.005477 -0.000485 0.000000 0.000000 0.000000
# 2 -0.005477 0.016068 0.000899 0.000000 0.000000 0.000000
# 3 -0.000485 0.000899 0.021708 0.000000 0.000000 0.000000
# 4 0.000000 0.000000 0.000000 0.103608 0.000000 0.000000
# 5 0.000000 0.000000 0.000000 0.000000 0.033058 0.000000
# 6 0.000000 0.000000 0.000000 0.000000 0.000000 0.032137
#
#
# Mechanical properties :
#
#
# Convention : Reuss Voigt Hill
#
# Bulk Modulus (GPa) = 28.24612 45.82579 37.03596
# Shear Modulus (GPa) = 21.16323 30.27248 25.71785
#
# Velocity S-wave (km/s) = 3.07229 3.67447 3.38679
# Velocity P-wave (km/s) = 5.01829 6.20007 5.64022
#
# Compressibility (1/GPa) = 0.03540309
#
# Stress axis : x y z
#
# Youngs Moduli (GPa) = 128.96957 62.23591 46.06637
#
# Poissons Ratio (x) = 0.34086 0.02234
# Poissons Ratio (y) = 0.70635 -0.04140
# Poissons Ratio (z) = 0.06256 -0.05594
#
# Static dielectric constant tensor:
#      x y z
#    x 1.828520 0.000000 0.000000 
#    y 0.000000 1.874940 0.000000 
#    z 0.000000 0.000000 1.834110 
# 
# From -- ./inp_files/10744.got.cif
#   From: 2010.05.17/outbox.cif.g08.bks.cpg/sg55_6_cif.got.tgz:10744.got - 2010.06.03 13:27:54.
