data_PCOD9425133
_publ_section_title
;
Structure prediction by ZEFSAII (Michael W. Deem and Ramdas Pophale) SiO2 
 PCOD9425133
Probable space group: P B A M
;
_chemical_formula_sum "Si O2"
_cell_formula_units_Z 36
_cell_length_a 16.641602
_cell_length_b 11.517346
_cell_length_c 9.220348
_cell_angle_alpha 90.000000
_cell_angle_beta 90.000000
_cell_angle_gamma 90.000000
_cell_volume 1767.237254
_symmetry_space_group_name_H-M "P B A M"
_symmetry_group_IT_number 55
_symmetry_cell_setting 'orthorhombic'
loop_
_space_group_symop_operation_xyz
x,y,z
-x,-y,z
1/2+x,1/2-y,-z
1/2-x,1/2+y,-z
-x,-y,-z
x,y,-z
1/2-x,1/2+y,z
1/2+x,1/2-y,z
loop_
_atom_site_type_symbol
_atom_site_label
_atom_site_fract_x
_atom_site_fract_y
_atom_site_fract_z
Si Si1 0.377300 0.997903 0.000000
Si Si2 0.042168 0.671148 0.500000
Si Si3 0.213899 0.152829 0.749162
Si Si4 0.627093 0.209184 0.500000
Si Si5 0.327609 0.244069 0.000000
Si Si6 0.180831 0.999577 0.000000
Si Si7 0.311903 0.051934 0.500000
Si Si8 0.500000 0.000000 0.242313
O O1 0.426342 0.958073 0.858901
O O2 0.389432 0.138045 0.000000
O O3 0.280535 0.980407 0.000000
O O4 0.137970 0.674632 0.500000
O O5 0.028441 0.599981 0.350823
O O6 0.965362 0.752740 0.500000
O O7 0.169032 0.239280 0.642003
O O8 0.260279 0.062096 0.645193
O O9 0.273644 0.221689 0.856731
O O10 0.161896 0.075732 0.859235
O O11 0.637584 0.068305 0.500000
O O12 0.357969 0.374020 0.000000
#
# Coordination Sequence:
#
# PCOD9425133 Si02
#       8
#     4   4   8   4   4   4   4   4
#     4   9  20  32  49  80 106 128 179 204 270 307
#     4  11  20  28  54  77 111 134 159 203 282 305
#     4   9  21  32  50  77 106 136 175 211 257 310
#     4  11  20  31  51  80 106 138 169 209 273 307
#     4  10  19  31  54  71 100 142 171 210 260 304
#     4  10  19  35  51  71 106 134 178 220 244 298
#     4  11  18  35  51  79 114 128 165 217 257 319
#     4  10  18  32  48  78 112 132 150 222 256 320
#
# _framework density 20.37078
#
# number of rings (size 3 to 8) (size 9 to 14) (size 15 to 20)
#    0.000    2.222    2.222    4.000    3.111    0.000 
#    0.000    0.000    0.000    0.000    0.000   56.000 
#    0.000    0.000    0.000    0.000    0.000    0.000 
#
# Total GULP energy -200485.962427 kJ/mol
# GULP energy per Si atom -5569.054512 kJ/mol
# Density = 2.032441 g / cm^3
# Si number density = 20.370780 Si / 1000 Ang^3
#
#
#
# Elastic Constant Matrix: (Units=GPa)
#
#
# Indices 1 2 3 4 5 6 
#
# 1 17.6470 2.2583 6.6973 0.0000 0.0000 0.0000
# 2 2.2583 72.0952 22.3699 0.0000 0.0000 0.0000
# 3 6.6973 22.3699 141.1984 0.0000 0.0000 0.0000
# 4 0.0000 0.0000 0.0000 5.6278 0.0000 0.0000
# 5 0.0000 0.0000 0.0000 0.0000 0.9684 0.0000
# 6 0.0000 0.0000 0.0000 0.0000 0.0000 15.1438
#
#
#
# Elastic Compliance Matrix: (Units=1/GPa)
#
#
# Indices 1 2 3 4 5 6 
#
# 1 0.057775 -0.001009 -0.002581 0.000000 0.000000 0.000000
# 2 -0.001009 0.014605 -0.002266 0.000000 0.000000 0.000000
# 3 -0.002581 -0.002266 0.007564 0.000000 0.000000 0.000000
# 4 0.000000 0.000000 0.000000 0.177688 0.000000 0.000000
# 5 0.000000 0.000000 0.000000 0.000000 1.032594 0.000000
# 6 0.000000 0.000000 0.000000 0.000000 0.000000 0.066034
#
#
# Mechanical properties :
#
#
# Convention : Reuss Voigt Hill
#
# Bulk Modulus (GPa) = 14.65568 32.62128 23.63848
# Shear Modulus (GPa) = 3.59527 17.65568 10.62548
#
# Velocity S-wave (km/s) = 1.32994 2.94720 2.28634
# Velocity P-wave (km/s) = 3.09329 5.25641 4.31267
#
# Compressibility (1/GPa) = 0.06823291
#
# Stress axis : x y z
#
# Youngs Moduli (GPa) = 17.30846 68.46842 132.21158
#
# Poissons Ratio (x) = 0.06909 0.34117
# Poissons Ratio (y) = 0.01747 0.29960
# Poissons Ratio (z) = 0.04466 0.15515
#
# Static dielectric constant tensor:
#      x y z
#    x 1.791810 0.000000 0.000000 
#    y 0.000000 1.760320 0.000000 
#    z 0.000000 0.000000 1.720980 
# 
# From -- ./inp_files/8474.got.cif
#   From: 2010.05.17/outbox.cif.g08.bks.cpg/sg55_5_cif.got.tgz:8474.got - 2010.06.03 13:27:54.
