data_PCOD9425552
_publ_section_title
;
Structure prediction by ZEFSAII (Michael W. Deem and Ramdas Pophale) SiO2 
 PCOD9425552
Probable space group: P B A M
;
_chemical_formula_sum "Si O2"
_cell_formula_units_Z 64
_cell_length_a 21.258755
_cell_length_b 20.164980
_cell_length_c 8.703289
_cell_angle_alpha 90.000000
_cell_angle_beta 90.000000
_cell_angle_gamma 90.000000
_cell_volume 3730.946550
_symmetry_space_group_name_H-M "P B A M"
_symmetry_group_IT_number 55
_symmetry_cell_setting 'orthorhombic'
loop_
_space_group_symop_operation_xyz
x,y,z
-x,-y,z
1/2+x,1/2-y,-z
1/2-x,1/2+y,-z
-x,-y,-z
x,y,-z
1/2-x,1/2+y,z
1/2+x,1/2-y,z
loop_
_atom_site_type_symbol
_atom_site_label
_atom_site_fract_x
_atom_site_fract_y
_atom_site_fract_z
Si Si1 0.383239 0.427976 0.684182
Si Si2 0.241241 0.572573 0.183222
Si Si3 0.234817 0.433512 0.315505
Si Si4 0.381530 0.576865 0.684064
Si Si5 0.570325 0.287600 0.183880
Si Si6 0.308274 0.213504 0.814742
Si Si7 0.812094 0.708950 0.315892
Si Si8 0.069225 0.792690 0.815032
O O1 0.389267 0.422440 0.500000
O O2 0.308780 0.422079 0.722028
O O3 0.403327 0.502601 0.728017
O O4 0.419369 0.367835 0.761192
O O5 0.215007 0.501634 0.235491
O O6 0.308318 0.581348 0.267320
O O7 0.198397 0.635757 0.222343
O O8 0.252090 0.572551 0.000000
O O9 0.231366 0.441889 0.500000
O O10 0.196811 0.367966 0.270659
O O11 0.386290 0.583043 0.500000
O O12 0.417131 0.636917 0.763788
O O13 0.624601 0.242134 0.254546
O O14 0.499781 0.269004 0.234218
O O15 0.574690 0.284036 0.000000
O O16 0.247935 0.251012 0.747165
O O17 0.372506 0.247865 0.759882
O O18 0.305591 0.219587 0.000000
O O19 0.811091 0.712495 0.500000
O O20 0.070108 0.791635 0.000000
#
# Coordination Sequence:
#
# PCOD9425552 Si02
#       8
#     8   8   8   8   8   8   8   8
#     4   9  18  33  51  74 105 140 179 218 257 312
#     4  10  19  31  53  82 108 136 174 219 266 318
#     4   9  19  34  52  79 110 137 172 218 267 319
#     4  10  20  34  51  74 108 145 179 219 264 312
#     4  11  23  37  52  76 108 143 183 222 266 320
#     4  10  20  35  55  81 108 137 177 222 266 317
#     4  11  21  35  57  81 105 139 179 222 269 317
#     4  10  22  37  53  75 108 145 178 221 270 316
#
# _framework density 17.153824
#
# number of rings (size 3 to 8) (size 9 to 14) (size 15 to 20)
#    0.000    2.000    2.500    2.250    0.000    5.500 
#    0.000    2.500    0.000    0.750    0.000    5.250 
#    0.000    0.000    0.000    0.000    0.000    0.000 
#
# Total GULP energy -357186.069705 kJ/mol
# GULP energy per Si atom -5581.032339 kJ/mol
# Density = 1.711478 g / cm^3
# Si number density = 17.153824 Si / 1000 Ang^3
#
#
#
# Elastic Constant Matrix: (Units=GPa)
#
#
# Indices 1 2 3 4 5 6 
#
# 1 108.8570 65.6928 22.5956 0.0000 0.0000 0.0000
# 2 65.6928 121.0285 27.8627 0.0000 0.0000 0.0000
# 3 22.5956 27.8627 19.5874 0.0000 0.0000 0.0000
# 4 0.0000 0.0000 0.0000 28.5115 0.0000 0.0000
# 5 0.0000 0.0000 0.0000 0.0000 6.8764 0.0000
# 6 0.0000 0.0000 0.0000 0.0000 0.0000 19.0783
#
#
#
# Elastic Compliance Matrix: (Units=1/GPa)
#
#
# Indices 1 2 3 4 5 6 
#
# 1 0.014501 -0.005977 -0.008225 0.000000 0.000000 0.000000
# 2 -0.005977 0.014750 -0.014086 0.000000 0.000000 0.000000
# 3 -0.008225 -0.014086 0.080579 0.000000 0.000000 0.000000
# 4 0.000000 0.000000 0.000000 0.035074 0.000000 0.000000
# 5 0.000000 0.000000 0.000000 0.000000 0.145425 0.000000
# 6 0.000000 0.000000 0.000000 0.000000 0.000000 0.052416
#
#
# Mechanical properties :
#
#
# Convention : Reuss Voigt Hill
#
# Bulk Modulus (GPa) = 18.77849 53.53055 36.15452
# Shear Modulus (GPa) = 11.98834 19.78135 15.88485
#
# Velocity S-wave (km/s) = 2.64649 3.39953 3.04637
# Velocity P-wave (km/s) = 4.50660 6.83249 5.78759
#
# Compressibility (1/GPa) = 0.05325242
#
# Stress axis : x y z
#
# Youngs Moduli (GPa) = 68.96148 67.79789 12.41019
#
# Poissons Ratio (x) = 0.40525 0.10208
# Poissons Ratio (y) = 0.41220 0.17481
# Poissons Ratio (z) = 0.56723 0.95500
#
# Static dielectric constant tensor:
#      x y z
#    x 1.575330 0.000000 0.000000 
#    y 0.000000 1.587790 0.000000 
#    z 0.000000 0.000000 1.574330 
# 
# From -- ./inp_files/9880.got.cif
#   From: 2010.05.17/outbox.cif.g08.bks.cpg/sg55_5_cif.got.tgz:9880.got - 2010.06.03 13:27:54.
