data_PCOD9425741
_publ_section_title
;
Structure prediction by ZEFSAII (Michael W. Deem and Ramdas Pophale) SiO2 
 PCOD9425741
Probable space group: P B A M
;
_chemical_formula_sum "Si O2"
_cell_formula_units_Z 64
_cell_length_a 8.684416
_cell_length_b 31.894575
_cell_length_c 12.605766
_cell_angle_alpha 90.000000
_cell_angle_beta 90.000000
_cell_angle_gamma 90.000000
_cell_volume 3491.617644
_symmetry_space_group_name_H-M "P B A M"
_symmetry_group_IT_number 55
_symmetry_cell_setting 'orthorhombic'
loop_
_space_group_symop_operation_xyz
x,y,z
-x,-y,z
1/2+x,1/2-y,-z
1/2-x,1/2+y,-z
-x,-y,-z
x,y,-z
1/2-x,1/2+y,z
1/2+x,1/2-y,z
loop_
_atom_site_type_symbol
_atom_site_label
_atom_site_fract_x
_atom_site_fract_y
_atom_site_fract_z
Si Si1 0.519088 0.454871 0.789958
Si Si2 0.256209 0.267287 0.751858
Si Si3 0.053152 0.608862 0.317926
Si Si4 0.275547 0.616512 0.877921
Si Si5 0.230266 0.528410 0.386391
Si Si6 0.032472 0.702500 0.622980
Si Si7 0.547875 0.296837 0.874703
Si Si8 0.254475 0.934736 0.374343
O O1 0.500000 0.500000 0.847356
O O2 0.592521 0.418519 0.860635
O O3 0.649788 0.466297 0.705828
O O4 0.380853 0.439125 0.713301
O O5 0.131189 0.292197 0.682508
O O6 0.346335 0.233513 0.679104
O O7 0.389206 0.294090 0.808980
O O8 0.155863 0.241538 0.837650
O O9 0.133469 0.608824 0.202207
O O10 0.125000 0.569192 0.379119
O O11 0.085706 0.654403 0.365955
O O12 0.872578 0.599483 0.329641
O O13 0.356226 0.660895 0.853405
O O14 0.224438 0.616556 0.000000
O O15 0.311935 0.528972 0.500000
O O16 0.166775 0.481227 0.375808
O O17 0.016239 0.713555 0.500000
O O18 0.516186 0.294495 0.000000
O O19 0.214061 0.926254 0.500000
#
# Coordination Sequence:
#
# PCOD9425741 Si02
#       8
#     8   8   8   8   8   8   8   8
#     4   9  19  34  56  81 112 147 184 225 272 330
#     4  10  22  38  60  84 111 144 180 228 270 333
#     4  11  21  35  54  81 111 146 186 225 270 325
#     4  10  22  40  58  77 109 147 187 233 277 320
#     4   9  17  32  54  81 113 148 182 221 275 328
#     4  11  22  38  57  81 115 151 181 215 265 331
#     4  10  20  39  62  86 108 138 182 234 283 321
#     4  10  19  32  55  86 117 144 177 225 274 324
#
# _framework density 18.329613999999999
#
# number of rings (size 3 to 8) (size 9 to 14) (size 15 to 20)
#    0.000    2.000    1.250    2.625    1.750    2.750 
#    0.000    1.250    0.000    9.750    0.000    0.000 
#    0.000    0.000    0.000    0.000    0.000    0.000 
#
# Total GULP energy -356462.773687 kJ/mol
# GULP energy per Si atom -5569.730839 kJ/mol
# Density = 1.828790 g / cm^3
# Si number density = 18.329614 Si / 1000 Ang^3
#
#
#
# Elastic Constant Matrix: (Units=GPa)
#
#
# Indices 1 2 3 4 5 6 
#
# 1 47.1309 0.4920 17.5268 0.0000 0.0000 0.0000
# 2 0.4920 60.8141 19.5462 0.0000 0.0000 0.0000
# 3 17.5268 19.5462 73.5595 0.0000 0.0000 0.0000
# 4 0.0000 0.0000 0.0000 276.6609 0.0000 0.0000
# 5 0.0000 0.0000 0.0000 0.0000 46.3273 0.0000
# 6 0.0000 0.0000 0.0000 0.0000 0.0000 24.0995
#
#
#
# Elastic Compliance Matrix: (Units=1/GPa)
#
#
# Indices 1 2 3 4 5 6 
#
# 1 0.023451 0.001756 -0.006054 0.000000 0.000000 0.000000
# 2 0.001756 0.018111 -0.005231 0.000000 0.000000 0.000000
# 3 -0.006054 -0.005231 0.016427 0.000000 0.000000 0.000000
# 4 0.000000 0.000000 0.000000 0.003615 0.000000 0.000000
# 5 0.000000 0.000000 0.000000 0.000000 0.021586 0.000000
# 6 0.000000 0.000000 0.000000 0.000000 0.000000 0.041495
#
#
# Mechanical properties :
#
#
# Convention : Reuss Voigt Hill
#
# Bulk Modulus (GPa) = 25.68683 28.51494 27.10088
# Shear Modulus (GPa) = 31.90465 79.01352 55.45908
#
# Velocity S-wave (km/s) = 4.17658 6.57272 5.50656
# Velocity P-wave (km/s) = 6.10760 8.55519 7.43284
#
# Compressibility (1/GPa) = 0.03893046
#
# Stress axis : x y z
#
# Youngs Moduli (GPa) = 42.64288 55.21642 60.87592
#
# Poissons Ratio (x) = -0.09697 0.36855
# Poissons Ratio (y) = -0.07489 0.31843
# Poissons Ratio (z) = 0.25817 0.28882
#
# Static dielectric constant tensor:
#      x y z
#    x 1.646900 0.000000 0.000000 
#    y 0.000000 1.657510 0.000000 
#    z 0.000000 0.000000 1.606350 
# 
# From -- ./inp_files/12595.got.cif
#   From: 2010.05.17/outbox.cif.g08.bks.cpg/sg55_7_cif.got.tgz:12595.got - 2010.06.03 13:27:54.
