data_PCOD9425603
_publ_section_title
;
Structure prediction by ZEFSAII (Michael W. Deem and Ramdas Pophale) SiO2 
 PCOD9425603
Probable space group: P B A M
;
_chemical_formula_sum "Si O2"
_cell_formula_units_Z 64
_cell_length_a 20.219323
_cell_length_b 21.030276
_cell_length_c 8.637267
_cell_angle_alpha 90.000000
_cell_angle_beta 90.000000
_cell_angle_gamma 90.000000
_cell_volume 3672.720909
_symmetry_space_group_name_H-M "P B A M"
_symmetry_group_IT_number 55
_symmetry_cell_setting 'orthorhombic'
loop_
_space_group_symop_operation_xyz
x,y,z
-x,-y,z
1/2+x,1/2-y,-z
1/2-x,1/2+y,-z
-x,-y,-z
x,y,-z
1/2-x,1/2+y,z
1/2+x,1/2-y,z
loop_
_atom_site_type_symbol
_atom_site_label
_atom_site_fract_x
_atom_site_fract_y
_atom_site_fract_z
Si Si1 0.699935 0.680420 0.185550
Si Si2 0.222223 0.436942 0.314090
Si Si3 0.938444 0.234742 0.812290
Si Si4 0.582334 0.124887 0.685243
Si Si5 0.305486 0.076052 0.312922
Si Si6 0.721488 0.301165 0.314619
Si Si7 0.584752 0.267820 0.814405
Si Si8 0.557164 0.883557 0.814510
O O1 0.727888 0.613142 0.240189
O O2 0.625368 0.695937 0.240862
O O3 0.746398 0.736834 0.248550
O O4 0.701083 0.683089 0.000000
O O5 0.228990 0.432730 0.500000
O O6 0.147261 0.415412 0.275856
O O7 0.229220 0.510211 0.266660
O O8 0.932702 0.309112 0.767624
O O9 0.011063 0.211151 0.763859
O O10 0.938065 0.233871 0.000000
O O11 0.579502 0.132576 0.500000
O O12 0.589856 0.194113 0.763000
O O13 0.513247 0.096289 0.744634
O O14 0.309854 0.076792 0.500000
O O15 0.264554 0.138180 0.263160
O O16 0.379385 0.079420 0.246681
O O17 0.723071 0.297921 0.500000
O O18 0.646024 0.304522 0.258773
O O19 0.588915 0.270959 0.000000
O O20 0.553785 0.886390 0.000000
#
# Coordination Sequence:
#
# PCOD9425603 Si02
#       8
#     8   8   8   8   8   8   8   8
#     4  11  20  34  57  81 105 136 175 222 270 316
#     4  10  22  38  53  75 108 144 181 222 266 318
#     4   8  17  32  51  78 107 134 168 216 266 313
#     4  10  19  32  51  75 107 144 182 219 262 318
#     4  10  22  38  54  74 107 147 183 221 268 319
#     4  11  21  34  54  81 107 138 180 222 267 319
#     4  10  19  33  54  80 109 139 174 221 272 317
#     4  10  19  33  52  76 108 142 181 223 264 314
#
# _framework density 17.425773
#
# number of rings (size 3 to 8) (size 9 to 14) (size 15 to 20)
#    0.000    2.000    2.500    2.625    0.000    2.000 
#    0.000    4.375    0.000    0.750    0.000    5.250 
#    0.000    0.000    0.000    0.000    0.000    0.000 
#
# Total GULP energy -357183.225375 kJ/mol
# GULP energy per Si atom -5580.987896 kJ/mol
# Density = 1.738611 g / cm^3
# Si number density = 17.425773 Si / 1000 Ang^3
#
#
#
# Elastic Constant Matrix: (Units=GPa)
#
#
# Indices 1 2 3 4 5 6 
#
# 1 85.1781 8.2927 12.4391 0.0000 0.0000 0.0000
# 2 8.2927 35.8236 10.2463 0.0000 0.0000 0.0000
# 3 12.4391 10.2463 23.4285 0.0000 0.0000 0.0000
# 4 0.0000 0.0000 0.0000 10.4686 0.0000 0.0000
# 5 0.0000 0.0000 0.0000 0.0000 25.5427 0.0000
# 6 0.0000 0.0000 0.0000 0.0000 0.0000 19.7936
#
#
#
# Elastic Compliance Matrix: (Units=1/GPa)
#
#
# Indices 1 2 3 4 5 6 
#
# 1 0.012769 -0.001162 -0.006271 0.000000 0.000000 0.000000
# 2 -0.001162 0.032011 -0.013383 0.000000 0.000000 0.000000
# 3 -0.006271 -0.013383 0.051866 0.000000 0.000000 0.000000
# 4 0.000000 0.000000 0.000000 0.095524 0.000000 0.000000
# 5 0.000000 0.000000 0.000000 0.000000 0.039150 0.000000
# 6 0.000000 0.000000 0.000000 0.000000 0.000000 0.050521
#
#
# Mechanical properties :
#
#
# Convention : Reuss Voigt Hill
#
# Bulk Modulus (GPa) = 18.17742 22.93183 20.55463
# Shear Modulus (GPa) = 14.62790 18.72443 16.67617
#
# Velocity S-wave (km/s) = 2.90045 3.28155 3.09687
# Velocity P-wave (km/s) = 4.65519 5.24847 4.96071
#
# Compressibility (1/GPa) = 0.05501330
#
# Stress axis : x y z
#
# Youngs Moduli (GPa) = 78.31406 31.23880 19.28050
#
# Poissons Ratio (x) = 0.03630 0.12092
# Poissons Ratio (y) = 0.09101 0.25803
# Poissons Ratio (z) = 0.49114 0.41807
#
# Static dielectric constant tensor:
#      x y z
#    x 1.607400 0.000000 0.000000 
#    y 0.000000 1.582210 0.000000 
#    z 0.000000 0.000000 1.587070 
# 
# From -- ./inp_files/9119.got.cif
#   From: 2010.05.17/outbox.cif.g08.bks.cpg/sg55_5_cif.got.tgz:9119.got - 2010.06.03 13:27:54.
