data_PCOD9425146
_publ_section_title
;
Structure prediction by ZEFSAII (Michael W. Deem and Ramdas Pophale) SiO2 
 PCOD9425146
Probable space group: P B A M
;
_chemical_formula_sum "Si O2"
_cell_formula_units_Z 36
_cell_length_a 5.551670
_cell_length_b 19.341641
_cell_length_c 15.746877
_cell_angle_alpha 90.000000
_cell_angle_beta 90.000000
_cell_angle_gamma 90.000000
_cell_volume 1690.874585
_symmetry_space_group_name_H-M "P B A M"
_symmetry_group_IT_number 55
_symmetry_cell_setting 'orthorhombic'
loop_
_space_group_symop_operation_xyz
x,y,z
-x,-y,z
1/2+x,1/2-y,-z
1/2-x,1/2+y,-z
-x,-y,-z
x,y,-z
1/2-x,1/2+y,z
1/2+x,1/2-y,z
loop_
_atom_site_type_symbol
_atom_site_label
_atom_site_fract_x
_atom_site_fract_y
_atom_site_fract_z
Si Si1 0.801755 0.109191 0.774049
Si Si2 0.224073 0.706693 0.000000
Si Si3 0.815250 0.255209 0.700936
Si Si4 0.303845 0.118521 0.170841
Si Si5 0.250094 0.956544 0.593778
O O1 0.814553 0.193699 0.772263
O O2 0.565690 0.083838 0.823594
O O3 0.770670 0.091321 0.675388
O O4 0.052611 0.080842 0.810397
O O5 0.219485 0.659475 0.916404
O O6 0.475932 0.748990 0.000000
O O7 0.564892 0.251141 0.652156
O O8 0.817338 0.327055 0.750905
O O9 0.262839 0.923376 0.500000
O O10 0.500000 0.000000 0.602832
O O11 0.000000 0.000000 0.594883
#
# Coordination Sequence:
#
# PCOD9425146 Si02
#       5
#     8   4   8   8   8
#     4  10  18  32  51  72 102 138 169 207 262 313
#     4  12  20  30  48  78 116 148 180 216 252 284
#     4   8  14  25  41  64  94 128 158 187 228 284
#     4  10  19  30  48  76 108 142 173 206 246 301
#     4  10  21  37  57  81 102 123 166 228 279 317
#
# _framework density 21.290755000000001
#
# number of rings (size 3 to 8) (size 9 to 14) (size 15 to 20)
#    0.000    2.222    0.000    6.667    0.000    0.000 
#    0.000    0.000    0.000   12.000    0.000   15.556 
#    0.000    0.000    0.000    0.000    0.000    0.000 
#
# Total GULP energy -200553.441674 kJ/mol
# GULP energy per Si atom -5570.928935 kJ/mol
# Density = 2.124230 g / cm^3
# Si number density = 21.290755 Si / 1000 Ang^3
#
#
#
# Elastic Constant Matrix: (Units=GPa)
#
#
# Indices 1 2 3 4 5 6 
#
# 1 239.2775 -2.4905 34.1334 0.0000 0.0000 0.0000
# 2 -2.4905 17.1862 4.4511 0.0000 0.0000 0.0000
# 3 34.1334 4.4511 102.6420 0.0000 0.0000 0.0000
# 4 0.0000 0.0000 0.0000 22.7953 0.0000 0.0000
# 5 0.0000 0.0000 0.0000 0.0000 28.6571 0.0000
# 6 0.0000 0.0000 0.0000 0.0000 0.0000 7.8034
#
#
#
# Elastic Compliance Matrix: (Units=1/GPa)
#
#
# Indices 1 2 3 4 5 6 
#
# 1 0.004405 0.001029 -0.001510 0.000000 0.000000 0.000000
# 2 0.001029 0.059088 -0.002905 0.000000 0.000000 0.000000
# 3 -0.001510 -0.002905 0.010371 0.000000 0.000000 0.000000
# 4 0.000000 0.000000 0.000000 0.043869 0.000000 0.000000
# 5 0.000000 0.000000 0.000000 0.000000 0.034895 0.000000
# 6 0.000000 0.000000 0.000000 0.000000 0.000000 0.128150
#
#
# Mechanical properties :
#
#
# Convention : Reuss Voigt Hill
#
# Bulk Modulus (GPa) = 14.90448 47.92151 31.41300
# Shear Modulus (GPa) = 16.13360 33.38526 24.75943
#
# Velocity S-wave (km/s) = 2.75576 3.96417 3.41386
# Velocity P-wave (km/s) = 4.14020 6.59620 5.50687
#
# Compressibility (1/GPa) = 0.06709390
#
# Stress axis : x y z
#
# Youngs Moduli (GPa) = 226.99870 16.92396 96.42662
#
# Poissons Ratio (x) = -0.01742 0.14557
# Poissons Ratio (y) = -0.23366 0.28009
# Poissons Ratio (z) = 0.34268 0.04916
#
# Static dielectric constant tensor:
#      x y z
#    x 1.967600 0.000000 0.000000 
#    y 0.000000 1.811900 0.000000 
#    z 0.000000 0.000000 1.730450 
# 
# From -- ./inp_files/11233.got.cif
#   From: 2010.05.17/outbox.cif.g08.bks.cpg/sg55_6_cif.got.tgz:11233.got - 2010.06.03 13:27:54.
