data_PCOD9425183
_publ_section_title
;
Structure prediction by ZEFSAII (Michael W. Deem and Ramdas Pophale) SiO2 
 PCOD9425183
Probable space group: P B A M
;
_chemical_formula_sum "Si O2"
_cell_formula_units_Z 48
_cell_length_a 10.349439
_cell_length_b 30.673866
_cell_length_c 7.544550
_cell_angle_alpha 90.000000
_cell_angle_beta 90.000000
_cell_angle_gamma 90.000000
_cell_volume 2395.072511
_symmetry_space_group_name_H-M "P B A M"
_symmetry_group_IT_number 55
_symmetry_cell_setting 'orthorhombic'
loop_
_space_group_symop_operation_xyz
x,y,z
-x,-y,z
1/2+x,1/2-y,-z
1/2-x,1/2+y,-z
-x,-y,-z
x,y,-z
1/2-x,1/2+y,z
1/2+x,1/2-y,z
loop_
_atom_site_type_symbol
_atom_site_label
_atom_site_fract_x
_atom_site_fract_y
_atom_site_fract_z
Si Si1 0.387477 0.470795 0.703091
Si Si2 0.266867 0.285316 0.216594
Si Si3 0.031237 0.712886 0.783843
Si Si4 0.133214 0.523968 0.214796
Si Si5 0.030963 0.614271 0.783621
Si Si6 0.738472 0.617762 0.791366
O O1 0.500000 0.500000 0.788552
O O2 0.424299 0.463644 0.500000
O O3 0.256173 0.498460 0.714815
O O4 0.356869 0.422596 0.771989
O O5 0.366927 0.248789 0.278243
O O6 0.117326 0.277928 0.268421
O O7 0.301979 0.334551 0.275942
O O8 0.270426 0.283944 0.000000
O O9 0.065435 0.663385 0.729513
O O10 0.032100 0.713084 0.000000
O O11 0.119963 0.574179 0.272933
O O12 0.000000 0.500000 0.263887
O O13 0.141848 0.522280 0.000000
O O14 0.882546 0.606364 0.723621
O O15 0.032416 0.613168 0.000000
O O16 0.757230 0.624102 0.000000
#
# Coordination Sequence:
#
# PCOD9425183 Si02
#       6
#     8   8   8   8   8   8
#     4  11  24  38  49  68 101 136 168 206 253 300
#     4   8  14  24  42  66  95 126 153 190 239 290
#     4   8  13  23  38  62  98 128 150 183 234 288
#     4  10  18  32  55  78  99 125 163 208 249 292
#     4   8  14  26  46  71 100 128 153 195 248 290
#     4   9  16  31  52  72  96 129 165 200 244 294
#
# _framework density 20.041146999999999
#
# number of rings (size 3 to 8) (size 9 to 14) (size 15 to 20)
#    0.000    3.000    1.667    2.500    0.000    1.667 
#    3.000    0.000    0.000    0.000    0.000    5.833 
#    0.000    0.000    0.000    0.000    0.000    0.000 
#
# Total GULP energy -267567.923894 kJ/mol
# GULP energy per Si atom -5574.331748 kJ/mol
# Density = 1.999553 g / cm^3
# Si number density = 20.041147 Si / 1000 Ang^3
#
#
#
# Elastic Constant Matrix: (Units=GPa)
#
#
# Indices 1 2 3 4 5 6 
#
# 1 69.2518 67.1656 -6.8147 0.0000 0.0000 0.0000
# 2 67.1656 171.0954 -1.6208 0.0000 0.0000 0.0000
# 3 -6.8147 -1.6208 38.9786 0.0000 0.0000 0.0000
# 4 0.0000 0.0000 0.0000 -38.3148 0.0000 0.0000
# 5 0.0000 0.0000 0.0000 0.0000 8.9391 0.0000
# 6 0.0000 0.0000 0.0000 0.0000 0.0000 36.9649
#
#
#
# Elastic Compliance Matrix: (Units=1/GPa)
#
#
# Indices 1 2 3 4 5 6 
#
# 1 0.023863 -0.009332 0.003784 0.000000 0.000000 0.000000
# 2 -0.009332 0.009496 -0.001237 0.000000 0.000000 0.000000
# 3 0.003784 -0.001237 0.026265 0.000000 0.000000 0.000000
# 4 0.000000 0.000000 0.000000 -0.026100 0.000000 0.000000
# 5 0.000000 0.000000 0.000000 0.000000 0.111868 0.000000
# 6 0.000000 0.000000 0.000000 0.000000 0.000000 0.027053
#
#
# Mechanical properties :
#
#
# Convention : Reuss Voigt Hill
#
# Bulk Modulus (GPa) = 21.71286 44.08733 32.90009
# Shear Modulus (GPa) = 24.83027 16.22424 20.52725
#
# Velocity S-wave (km/s) = 3.52371 2.84834 3.20387
# Velocity P-wave (km/s) = 5.23575 5.73267 5.48984
#
# Compressibility (1/GPa) = 0.04605567
#
# Stress axis : x y z
#
# Youngs Moduli (GPa) = 41.90538 105.30355 38.07316
#
# Poissons Ratio (x) = 0.98269 -0.14407
# Poissons Ratio (y) = 0.39106 0.04708
# Poissons Ratio (z) = -0.15857 0.13022
#
# Static dielectric constant tensor:
#      x y z
#    x 1.686590 0.000000 0.000000 
#    y 0.000000 1.724650 0.000000 
#    z 0.000000 0.000000 1.758990 
# 
# From -- ./inp_files/2905.got.cif
#   From: 2010.05.17/outbox.cif.g08.bks.cpg/sg55_2_cif.got.tgz:2905.got - 2010.06.03 13:27:54.
