data_PCOD9425308
_publ_section_title
;
Structure prediction by ZEFSAII (Michael W. Deem and Ramdas Pophale) SiO2 
 PCOD9425308
Probable space group: P B A M
;
_chemical_formula_sum "Si O2"
_cell_formula_units_Z 48
_cell_length_a 19.516377
_cell_length_b 15.637799
_cell_length_c 7.706837
_cell_angle_alpha 90.000000
_cell_angle_beta 90.000000
_cell_angle_gamma 90.000000
_cell_volume 2352.074097
_symmetry_space_group_name_H-M "P B A M"
_symmetry_group_IT_number 55
_symmetry_cell_setting 'orthorhombic'
loop_
_space_group_symop_operation_xyz
x,y,z
-x,-y,z
1/2+x,1/2-y,-z
1/2-x,1/2+y,-z
-x,-y,-z
x,y,-z
1/2-x,1/2+y,z
1/2+x,1/2-y,z
loop_
_atom_site_type_symbol
_atom_site_label
_atom_site_fract_x
_atom_site_fract_y
_atom_site_fract_z
Si Si1 0.432285 0.270487 0.799640
Si Si2 0.923994 0.529568 0.287076
Si Si3 0.670483 0.379737 0.713262
Si Si4 0.925396 0.033842 0.290169
Si Si5 0.582284 0.220479 0.700411
Si Si6 0.326996 0.123437 0.708642
O O1 0.414567 0.369203 0.767514
O O2 0.502280 0.245836 0.702389
O O3 0.370674 0.207477 0.751738
O O4 0.448655 0.258029 0.000000
O O5 0.923983 0.530865 0.500000
O O6 0.910010 0.625661 0.224131
O O7 0.869004 0.459495 0.229581
O O8 0.000000 0.500000 0.235051
O O9 0.669334 0.379707 0.500000
O O10 0.632009 0.466446 0.767119
O O11 0.626762 0.297990 0.774911
O O12 0.748956 0.374746 0.770922
O O13 0.926137 0.034309 0.500000
O O14 0.000000 0.000000 0.232452
O O15 0.604167 0.213377 0.500000
O O16 0.324330 0.117767 0.500000
#
# Coordination Sequence:
#
# PCOD9425308 Si02
#       6
#     8   8   8   8   8   8
#     4  12  24  36  54  84 116 156 196 228 275 341
#     4   9  16  28  54  83 104 136 181 229 282 330
#     4   9  19  34  59  90 112 138 183 238 295 341
#     4  10  19  36  62  88 112 142 185 241 293 338
#     4  10  18  35  59  84 110 143 188 240 290 340
#     4  10  20  37  58  84 115 146 186 241 292 338
#
# _framework density 20.407520000000002
#
# number of rings (size 3 to 8) (size 9 to 14) (size 15 to 20)
#    0.000    2.000    3.333    1.500    0.000    1.667 
#    0.000    8.333    0.000    0.000    0.000    0.000 
#    0.000    0.000    0.000    0.000    0.000    0.000 
#
# Total GULP energy -268098.756397 kJ/mol
# GULP energy per Si atom -5585.390758 kJ/mol
# Density = 2.036107 g / cm^3
# Si number density = 20.407520 Si / 1000 Ang^3
#
#
#
# Elastic Constant Matrix: (Units=GPa)
#
#
# Indices 1 2 3 4 5 6 
#
# 1 158.0102 107.0941 -1.6373 0.0000 0.0000 0.0000
# 2 107.0941 217.2132 -3.3178 0.0000 0.0000 0.0000
# 3 -1.6373 -3.3178 33.9858 0.0000 0.0000 0.0000
# 4 0.0000 0.0000 0.0000 -51.8673 0.0000 0.0000
# 5 0.0000 0.0000 0.0000 0.0000 -12.4737 0.0000
# 6 0.0000 0.0000 0.0000 0.0000 0.0000 35.2903
#
#
#
# Elastic Compliance Matrix: (Units=1/GPa)
#
#
# Indices 1 2 3 4 5 6 
#
# 1 0.009505 -0.004686 0.000000 0.000000 0.000000 0.000000
# 2 -0.004686 0.006921 0.000450 0.000000 0.000000 0.000000
# 3 0.000000 0.000450 0.029468 0.000000 0.000000 0.000000
# 4 0.000000 0.000000 0.000000 -0.019280 0.000000 0.000000
# 5 0.000000 0.000000 0.000000 0.000000 -0.080169 0.000000
# 6 0.000000 0.000000 0.000000 0.000000 0.000000 0.028336
#
#
# Mechanical properties :
#
#
# Convention : Reuss Voigt Hill
#
# Bulk Modulus (GPa) = 26.72213 68.16525 47.44369
# Shear Modulus (GPa) = -1170.26162 14.66122 -577.80020
#
# Velocity S-wave (km/s) = -23.97272 2.68325 -16.84475
# Velocity P-wave (km/s) = 27.44325 6.56310 18.84221
#
# Compressibility (1/GPa) = 0.03742216
#
# Stress axis : x y z
#
# Youngs Moduli (GPa) = 105.20887 144.48484 33.93512
#
# Poissons Ratio (x) = 0.67709 -0.00001
# Poissons Ratio (y) = 0.49304 -0.01527
# Poissons Ratio (z) = -0.00005 -0.06500
#
# Static dielectric constant tensor:
#      x y z
#    x 1.693420 0.000000 0.000000 
#    y 0.000000 1.704810 0.000000 
#    z 0.000000 0.000000 1.750210 
# 
# From -- ./inp_files/5627.got.cif
#   From: 2010.05.17/outbox.cif.g08.bks.cpg/sg55_3_cif.got.tgz:5627.got - 2010.06.03 13:27:54.
