data_PCOD9425367
_publ_section_title
;
Structure prediction by ZEFSAII (Michael W. Deem and Ramdas Pophale) SiO2 
 PCOD9425367
Probable space group: P B A M
;
_chemical_formula_sum "Si O2"
_cell_formula_units_Z 64
_cell_length_a 19.062475
_cell_length_b 21.923651
_cell_length_c 9.112865
_cell_angle_alpha 90.000000
_cell_angle_beta 90.000000
_cell_angle_gamma 90.000000
_cell_volume 3808.439875
_symmetry_space_group_name_H-M "P B A M"
_symmetry_group_IT_number 55
_symmetry_cell_setting 'orthorhombic'
loop_
_space_group_symop_operation_xyz
x,y,z
-x,-y,z
1/2+x,1/2-y,-z
1/2-x,1/2+y,-z
-x,-y,-z
x,y,-z
1/2-x,1/2+y,z
1/2+x,1/2-y,z
loop_
_atom_site_type_symbol
_atom_site_label
_atom_site_fract_x
_atom_site_fract_y
_atom_site_fract_z
Si Si1 0.572620 0.853715 0.326626
Si Si2 0.963330 0.815537 0.169289
Si Si3 0.523079 0.569340 0.675251
Si Si4 0.921206 0.480630 0.176053
Si Si5 0.416253 0.803506 0.675802
Si Si6 0.824445 0.594381 0.823489
Si Si7 0.878773 0.240066 0.166965
Si Si8 0.666077 0.610243 0.824127
O O1 0.576807 0.860385 0.500000
O O2 0.593459 0.915974 0.248583
O O3 0.491747 0.835547 0.289420
O O4 0.619808 0.797734 0.271501
O O5 0.918773 0.763899 0.252987
O O6 0.972254 0.880354 0.249918
O O7 0.042567 0.788144 0.167926
O O8 0.941158 0.822637 0.000000
O O9 0.500000 0.500000 0.705752
O O10 0.523239 0.578996 0.500000
O O11 0.600980 0.580972 0.739274
O O12 0.868980 0.534826 0.218469
O O13 0.000000 0.500000 0.217748
O O14 0.918835 0.474164 0.000000
O O15 0.410557 0.799183 0.500000
O O16 0.357184 0.846988 0.743772
O O17 0.742601 0.584547 0.790629
O O18 0.831160 0.603178 0.000000
O O19 0.831698 0.182635 0.210259
O O20 0.862766 0.258669 0.000000
O O21 0.652733 0.605482 0.000000
#
# Coordination Sequence:
#
# PCOD9425367 Si02
#       8
#     8   8   8   8   8   8   8   8
#     4  10  19  29  46  72 101 130 167 212 250 298
#     4   9  17  30  51  77 102 129 165 210 255 301
#     4  10  20  34  55  82 109 136 169 215 270 325
#     4  10  19  31  49  73 102 140 179 216 257 301
#     4  10  19  30  47  74 105 136 169 211 263 309
#     4  10  20  34  52  74 103 138 180 222 262 315
#     4   8  15  29  49  71  94 121 157 204 254 300
#     4   9  19  35  55  78 102 133 175 221 264 316
#
# _framework density 16.804780999999998
#
# number of rings (size 3 to 8) (size 9 to 14) (size 15 to 20)
#    0.000    2.500    1.250    2.250    0.000    6.250 
#    0.000    0.000    2.750    0.000    0.000    0.000 
#    0.000    0.000    0.000    0.000    0.000    0.000 
#
# Total GULP energy -356762.592947 kJ/mol
# GULP energy per Si atom -5574.415515 kJ/mol
# Density = 1.676653 g / cm^3
# Si number density = 16.804781 Si / 1000 Ang^3
#
#
#
# Elastic Constant Matrix: (Units=GPa)
#
#
# Indices 1 2 3 4 5 6 
#
# 1 58.7755 43.3653 31.4449 0.0000 0.0000 0.0000
# 2 43.3653 133.9972 60.9974 0.0000 0.0000 0.0000
# 3 31.4449 60.9974 56.1485 0.0000 0.0000 0.0000
# 4 0.0000 0.0000 0.0000 23.9277 0.0000 0.0000
# 5 0.0000 0.0000 0.0000 0.0000 9.4822 0.0000
# 6 0.0000 0.0000 0.0000 0.0000 0.0000 23.8055
#
#
#
# Elastic Compliance Matrix: (Units=1/GPa)
#
#
# Indices 1 2 3 4 5 6 
#
# 1 0.025054 -0.003405 -0.010332 0.000000 0.000000 0.000000
# 2 -0.003405 0.015227 -0.014635 0.000000 0.000000 0.000000
# 3 -0.010332 -0.014635 0.039495 0.000000 0.000000 0.000000
# 4 0.000000 0.000000 0.000000 0.041793 0.000000 0.000000
# 5 0.000000 0.000000 0.000000 0.000000 0.105461 0.000000
# 6 0.000000 0.000000 0.000000 0.000000 0.000000 0.042007
#
#
# Mechanical properties :
#
#
# Convention : Reuss Voigt Hill
#
# Bulk Modulus (GPa) = 43.41807 57.83737 50.62772
# Shear Modulus (GPa) = 14.99445 18.98397 16.98921
#
# Velocity S-wave (km/s) = 2.99033 3.36471 3.18303
# Velocity P-wave (km/s) = 6.14944 7.04180 6.61070
#
# Compressibility (1/GPa) = 0.02303189
#
# Stress axis : x y z
#
# Youngs Moduli (GPa) = 39.91448 65.67386 25.31971
#
# Poissons Ratio (x) = 0.22361 0.26160
# Poissons Ratio (y) = 0.13590 0.37055
# Poissons Ratio (z) = 0.41239 0.96113
#
# Static dielectric constant tensor:
#      x y z
#    x 1.561100 0.000000 0.000000 
#    y 0.000000 1.564460 0.000000 
#    z 0.000000 0.000000 1.561320 
# 
# From -- ./inp_files/9179.got.cif
#   From: 2010.05.17/outbox.cif.g08.bks.cpg/sg55_5_cif.got.tgz:9179.got - 2010.06.03 13:27:54.
