data_PCOD9425829
_publ_section_title
;
Structure prediction by ZEFSAII (Michael W. Deem and Ramdas Pophale) SiO2 
 PCOD9425829
Probable space group: P B A M
;
_chemical_formula_sum "Si O2"
_cell_formula_units_Z 64
_cell_length_a 14.205547
_cell_length_b 19.639327
_cell_length_c 12.861061
_cell_angle_alpha 90.000000
_cell_angle_beta 90.000000
_cell_angle_gamma 90.000000
_cell_volume 3588.073748
_symmetry_space_group_name_H-M "P B A M"
_symmetry_group_IT_number 55
_symmetry_cell_setting 'orthorhombic'
loop_
_space_group_symop_operation_xyz
x,y,z
-x,-y,z
1/2+x,1/2-y,-z
1/2-x,1/2+y,-z
-x,-y,-z
x,y,-z
1/2-x,1/2+y,z
1/2+x,1/2-y,z
loop_
_atom_site_type_symbol
_atom_site_label
_atom_site_fract_x
_atom_site_fract_y
_atom_site_fract_z
Si Si1 0.957770 0.603140 0.878444
Si Si2 0.779873 0.548391 0.750250
Si Si3 0.786712 0.680037 0.618719
Si Si4 0.402089 0.230254 0.380525
Si Si5 0.892948 0.006291 0.118409
Si Si6 0.564104 0.244187 0.776415
Si Si7 0.359676 0.098248 0.257535
Si Si8 0.691885 0.354946 0.117399
O O1 0.862077 0.572457 0.829958
O O2 0.955302 0.684695 0.859812
O O3 0.047408 0.580676 0.809651
O O4 0.967286 0.586556 0.000000
O O5 0.772453 0.603467 0.659333
O O6 0.680515 0.546179 0.810344
O O7 0.809699 0.472749 0.712924
O O8 0.818945 0.679733 0.500000
O O9 0.693346 0.726094 0.625266
O O10 0.863390 0.712543 0.693891
O O11 0.436579 0.234668 0.500000
O O12 0.472382 0.258758 0.292635
O O13 0.385621 0.150997 0.348873
O O14 0.850249 0.930644 0.113218
O O15 0.896195 0.034098 0.000000
O O16 0.000000 0.000000 0.156958
O O17 0.614698 0.307054 0.830191
O O18 0.286830 0.139310 0.184113
O O19 0.712484 0.331975 0.000000
#
# Coordination Sequence:
#
# PCOD9425829 Si02
#       8
#     8   8   8   8   8   8   8   8
#     4  10  20  34  54  82 115 146 182 224 274 329
#     4  10  21  34  56  82 110 145 184 230 274 328
#     4  10  21  38  57  79 108 143 181 231 283 326
#     4  10  21  37  58  79 105 142 186 229 279 331
#     4   9  19  34  52  77 109 147 185 219 266 324
#     4  10  20  35  56  80 109 142 186 228 274 326
#     4  10  20  36  55  83 111 144 181 228 276 330
#     4  10  19  33  54  79 110 146 181 220 268 326
#
# _framework density 17.836869
#
# number of rings (size 3 to 8) (size 9 to 14) (size 15 to 20)
#    0.000    2.125    1.250    1.875    1.750    2.500 
#    0.000    0.000    0.000    4.875    0.000    0.000 
#    0.000    0.000    0.000    0.000    0.000    0.000 
#
# Total GULP energy -356955.696015 kJ/mol
# GULP energy per Si atom -5577.432750 kJ/mol
# Density = 1.779627 g / cm^3
# Si number density = 17.836869 Si / 1000 Ang^3
#
#
#
# Elastic Constant Matrix: (Units=GPa)
#
#
# Indices 1 2 3 4 5 6 
#
# 1 58.9983 -13.3428 -7.4180 0.0000 0.0000 0.0000
# 2 -13.3428 33.6697 17.1994 0.0000 0.0000 0.0000
# 3 -7.4180 17.1994 53.4395 0.0000 0.0000 0.0000
# 4 0.0000 0.0000 0.0000 18.9133 0.0000 0.0000
# 5 0.0000 0.0000 0.0000 0.0000 18.6950 0.0000
# 6 0.0000 0.0000 0.0000 0.0000 0.0000 27.4476
#
#
#
# Elastic Compliance Matrix: (Units=1/GPa)
#
#
# Indices 1 2 3 4 5 6 
#
# 1 0.018621 0.007251 0.000251 0.000000 0.000000 0.000000
# 2 0.007251 0.038368 -0.011342 0.000000 0.000000 0.000000
# 3 0.000251 -0.011342 0.022398 0.000000 0.000000 0.000000
# 4 0.000000 0.000000 0.000000 0.052873 0.000000 0.000000
# 5 0.000000 0.000000 0.000000 0.000000 0.053490 0.000000
# 6 0.000000 0.000000 0.000000 0.000000 0.000000 0.036433
#
#
# Mechanical properties :
#
#
# Convention : Reuss Voigt Hill
#
# Bulk Modulus (GPa) = 13.94566 15.44272 14.69419
# Shear Modulus (GPa) = 19.70327 22.98911 21.34619
#
# Velocity S-wave (km/s) = 3.32721 3.59395 3.46315
# Velocity P-wave (km/s) = 4.75351 5.08906 4.92415
#
# Compressibility (1/GPa) = 0.07170688
#
# Stress axis : x y z
#
# Youngs Moduli (GPa) = 53.70263 26.06365 44.64681
#
# Poissons Ratio (x) = -0.18899 -0.01121
# Poissons Ratio (y) = -0.38940 0.50638
# Poissons Ratio (z) = -0.01348 0.29561
#
# Static dielectric constant tensor:
#      x y z
#    x 1.612720 0.000000 0.000000 
#    y 0.000000 1.609300 0.000000 
#    z 0.000000 0.000000 1.588760 
# 
# From -- ./inp_files/14397.got.cif
#   From: 2010.05.17/outbox.cif.g08.bks.cpg/sg55_8_cif.got.tgz:14397.got - 2010.06.03 13:27:54.
