data_PCOD9425973
_publ_section_title
;
Structure prediction by ZEFSAII (Michael W. Deem and Ramdas Pophale) SiO2 
 PCOD9425973
Probable space group: P B A M
;
_chemical_formula_sum "Si O2"
_cell_formula_units_Z 56
_cell_length_a 14.761080
_cell_length_b 12.384906
_cell_length_c 14.422602
_cell_angle_alpha 90.000000
_cell_angle_beta 90.000000
_cell_angle_gamma 90.000000
_cell_volume 2636.662046
_symmetry_space_group_name_H-M "P B A M"
_symmetry_group_IT_number 55
_symmetry_cell_setting 'orthorhombic'
loop_
_space_group_symop_operation_xyz
x,y,z
-x,-y,z
1/2+x,1/2-y,-z
1/2-x,1/2+y,-z
-x,-y,-z
x,y,-z
1/2-x,1/2+y,z
1/2+x,1/2-y,z
loop_
_atom_site_type_symbol
_atom_site_label
_atom_site_fract_x
_atom_site_fract_y
_atom_site_fract_z
Si Si1 0.897856 0.960103 0.204135
Si Si2 0.710956 0.049566 0.803291
Si Si3 0.563227 0.894385 0.219216
Si Si4 0.795069 0.645031 0.603540
Si Si5 0.587968 0.362901 0.602687
Si Si6 0.412922 0.769417 0.109881
Si Si7 0.597172 0.750469 0.396620
O O1 0.881833 0.935796 0.312965
O O2 0.890337 0.846912 0.151394
O O3 0.816851 0.038888 0.175758
O O4 0.000000 0.000000 0.190718
O O5 0.694238 0.071059 0.693345
O O6 0.663827 0.146381 0.857849
O O7 0.656238 0.939448 0.823965
O O8 0.506036 0.813224 0.155441
O O9 0.582789 0.835817 0.315754
O O10 0.500000 0.000000 0.232010
O O11 0.806062 0.596399 0.500000
O O12 0.864530 0.745681 0.610422
O O13 0.695274 0.696915 0.609568
O O14 0.607885 0.406617 0.500000
O O15 0.481237 0.339454 0.612049
O O16 0.420339 0.766466 0.000000
O O17 0.587035 0.798181 0.500000
#
# Coordination Sequence:
#
# PCOD9425973 Si02
#       7
#     8   8   8   8   8   8   8
#     4  12  25  42  69 100 132 170 218 265 319 391
#     4  11  24  40  69  98 128 174 218 262 326 395
#     4  10  21  39  65  96 126 169 219 266 328 392
#     4  10  20  36  60  93 134 175 215 256 309 381
#     4  10  19  36  60  90 133 177 213 252 310 380
#     4  11  26  49  70  94 129 164 212 284 344 382
#     4  10  19  33  59  90 130 178 212 251 314 382
#
# _framework density 21.238973999999999
#
# number of rings (size 3 to 8) (size 9 to 14) (size 15 to 20)
#    0.000    1.429    2.857    2.571    0.000    5.143 
#    0.000    1.429    0.000    0.000    0.000    0.000 
#    0.000    0.000    0.000    0.000    0.000    0.000 
#
# Total GULP energy -313293.351193 kJ/mol
# GULP energy per Si atom -5594.524128 kJ/mol
# Density = 2.119063 g / cm^3
# Si number density = 21.238974 Si / 1000 Ang^3
#
#
#
# Elastic Constant Matrix: (Units=GPa)
#
#
# Indices 1 2 3 4 5 6 
#
# 1 109.4688 18.0332 27.9258 0.0000 0.0000 0.0000
# 2 18.0332 52.7041 46.9382 0.0000 0.0000 0.0000
# 3 27.9258 46.9382 111.0004 0.0000 0.0000 0.0000
# 4 0.0000 0.0000 0.0000 -16.2849 0.0000 0.0000
# 5 0.0000 0.0000 0.0000 0.0000 9.1303 0.0000
# 6 0.0000 0.0000 0.0000 0.0000 0.0000 16.1500
#
#
#
# Elastic Compliance Matrix: (Units=1/GPa)
#
#
# Indices 1 2 3 4 5 6 
#
# 1 0.009875 -0.001871 -0.001693 0.000000 0.000000 0.000000
# 2 -0.001871 0.030791 -0.012550 0.000000 0.000000 0.000000
# 3 -0.001693 -0.012550 0.014742 0.000000 0.000000 0.000000
# 4 0.000000 0.000000 0.000000 -0.061407 0.000000 0.000000
# 5 0.000000 0.000000 0.000000 0.000000 0.109525 0.000000
# 6 0.000000 0.000000 0.000000 0.000000 0.000000 0.061919
#
#
# Mechanical properties :
#
#
# Convention : Reuss Voigt Hill
#
# Bulk Modulus (GPa) = 43.14050 50.99643 47.06847
# Shear Modulus (GPa) = 24.34271 13.81748 19.08010
#
# Velocity S-wave (km/s) = 3.38913 2.55340 3.00051
# Velocity P-wave (km/s) = 5.97252 5.72329 5.84923
#
# Compressibility (1/GPa) = 0.02318008
#
# Stress axis : x y z
#
# Youngs Moduli (GPa) = 101.26397 32.47738 67.83426
#
# Poissons Ratio (x) = 0.06076 0.11487
# Poissons Ratio (y) = 0.18944 0.85130
# Poissons Ratio (z) = 0.17147 0.40758
#
# Static dielectric constant tensor:
#      x y z
#    x 1.795080 0.000000 0.000000 
#    y 0.000000 1.761780 0.000000 
#    z 0.000000 0.000000 1.747540 
# 
# From -- ./inp_files/18952.got.cif
#   From: 2010.05.17/outbox.cif.g08.bks.cpg/sg55_10_cif.got.tgz:18952.got - 2010.06.03 13:27:54.
