data_PCOD9425265
_publ_section_title
;
Structure prediction by ZEFSAII (Michael W. Deem and Ramdas Pophale) SiO2 
 PCOD9425265
Probable space group: P B A M
;
_chemical_formula_sum "Si O2"
_cell_formula_units_Z 60
_cell_length_a 14.886236
_cell_length_b 27.077321
_cell_length_c 7.523812
_cell_angle_alpha 90.000000
_cell_angle_beta 90.000000
_cell_angle_gamma 90.000000
_cell_volume 3032.693556
_symmetry_space_group_name_H-M "P B A M"
_symmetry_group_IT_number 55
_symmetry_cell_setting 'orthorhombic'
loop_
_space_group_symop_operation_xyz
x,y,z
-x,-y,z
1/2+x,1/2-y,-z
1/2-x,1/2+y,-z
-x,-y,-z
x,y,-z
1/2-x,1/2+y,z
1/2+x,1/2-y,z
loop_
_atom_site_type_symbol
_atom_site_label
_atom_site_fract_x
_atom_site_fract_y
_atom_site_fract_z
Si Si1 0.312453 0.213068 0.217536
Si Si2 0.895960 0.492100 0.701667
Si Si3 0.615598 0.156397 0.288648
Si Si4 0.798285 0.101357 0.706091
Si Si5 0.076395 0.809415 0.216127
Si Si6 0.260289 0.964799 0.000000
Si Si7 0.078583 0.616787 0.210501
Si Si8 0.886638 0.771622 0.791953
O O1 0.360812 0.263568 0.272213
O O2 0.369793 0.165746 0.273588
O O3 0.209996 0.212960 0.282002
O O4 0.312161 0.213244 0.000000
O O5 0.883976 0.511424 0.500000
O O6 0.885599 0.432904 0.702766
O O7 0.000000 0.500000 0.752288
O O8 0.830560 0.516225 0.843365
O O9 0.621027 0.159795 0.500000
O O10 0.707446 0.130353 0.227479
O O11 0.527540 0.125288 0.239842
O O12 0.605630 0.212189 0.219714
O O13 0.786745 0.087568 0.500000
O O14 0.879090 0.140313 0.720046
O O15 0.806407 0.057016 0.842651
O O16 0.975914 0.797307 0.280475
O O17 0.076208 0.809917 0.000000
O O18 0.093370 0.611970 0.000000
O O19 0.884353 0.784364 0.000000
#
# Coordination Sequence:
#
# PCOD9425265 Si02
#       8
#     8   8   8   8   8   4   8   8
#     4   9  18  32  54  85 117 152 202 243 277 349
#     4  11  24  41  59  88 121 153 200 251 303 363
#     4  11  22  32  47  80 117 156 200 238 281 342
#     4  11  24  37  56  85 117 153 199 246 291 353
#     4  10  18  34  55  82 115 159 199 236 292 346
#     4  12  23  40  62  80 111 152 196 240 308 347
#     4  11  21  36  58  83 115 162 201 236 300 351
#     4  10  19  33  55  79 115 161 200 238 281 340
#
# _framework density 19.784393000000001
#
# number of rings (size 3 to 8) (size 9 to 14) (size 15 to 20)
#    0.000    1.467    4.000    2.200    3.733    2.667 
#    0.000    1.333    0.000    0.000    0.000    1.867 
#    0.000    2.133    0.000    0.000    0.000    0.000 
#
# Total GULP energy -334305.698303 kJ/mol
# GULP energy per Si atom -5571.761638 kJ/mol
# Density = 1.973936 g / cm^3
# Si number density = 19.784393 Si / 1000 Ang^3
#
#
#
# Elastic Constant Matrix: (Units=GPa)
#
#
# Indices 1 2 3 4 5 6 
#
# 1 69.2123 -8.7674 6.5717 0.0000 0.0000 0.0000
# 2 -8.7674 11.5384 -7.2619 0.0000 0.0000 0.0000
# 3 6.5717 -7.2619 78.1974 0.0000 0.0000 0.0000
# 4 0.0000 0.0000 0.0000 15.5843 0.0000 0.0000
# 5 0.0000 0.0000 0.0000 0.0000 2.6330 0.0000
# 6 0.0000 0.0000 0.0000 0.0000 0.0000 30.9306
#
#
#
# Elastic Compliance Matrix: (Units=1/GPa)
#
#
# Indices 1 2 3 4 5 6 
#
# 1 0.015991 0.012007 -0.000229 0.000000 0.000000 0.000000
# 2 0.012007 0.101062 0.008376 0.000000 0.000000 0.000000
# 3 -0.000229 0.008376 0.013585 0.000000 0.000000 0.000000
# 4 0.000000 0.000000 0.000000 0.064167 0.000000 0.000000
# 5 0.000000 0.000000 0.000000 0.000000 0.379796 0.000000
# 6 0.000000 0.000000 0.000000 0.000000 0.000000 0.032330
#
#
# Mechanical properties :
#
#
# Convention : Reuss Voigt Hill
#
# Bulk Modulus (GPa) = 5.84980 15.55921 10.70450
# Shear Modulus (GPa) = 8.01788 21.05662 14.53725
#
# Velocity S-wave (km/s) = 2.01530 3.26591 2.71363
# Velocity P-wave (km/s) = 2.89455 4.70138 3.90394
#
# Compressibility (1/GPa) = 0.17094604
#
# Stress axis : x y z
#
# Youngs Moduli (GPa) = 62.53526 9.89492 73.60925
#
# Poissons Ratio (x) = -0.11880 0.01685
# Poissons Ratio (y) = -0.75084 -0.61656
# Poissons Ratio (z) = 0.01431 -0.08288
#
# Static dielectric constant tensor:
#      x y z
#    x 1.702260 0.000000 0.000000 
#    y 0.000000 1.711670 0.000000 
#    z 0.000000 0.000000 1.758690 
# 
# From -- ./inp_files/6843.got.cif
#   From: 2010.05.17/outbox.cif.g08.bks.cpg/sg55_4_cif.got.tgz:6843.got - 2010.06.03 13:27:54.
