data_PCOD9425023
_publ_section_title
;
Structure prediction by ZEFSAII (Michael W. Deem and Ramdas Pophale) SiO2 
 PCOD9425023
Probable space group: P B A M
;
_chemical_formula_sum "Si O2"
_cell_formula_units_Z 64
_cell_length_a 18.951885
_cell_length_b 22.403439
_cell_length_c 8.832677
_cell_angle_alpha 90.000000
_cell_angle_beta 90.000000
_cell_angle_gamma 90.000000
_cell_volume 3750.243358
_symmetry_space_group_name_H-M "P B A M"
_symmetry_group_IT_number 55
_symmetry_cell_setting 'orthorhombic'
loop_
_space_group_symop_operation_xyz
x,y,z
-x,-y,z
1/2+x,1/2-y,-z
1/2-x,1/2+y,-z
-x,-y,-z
x,y,-z
1/2-x,1/2+y,z
1/2+x,1/2-y,z
loop_
_atom_site_type_symbol
_atom_site_label
_atom_site_fract_x
_atom_site_fract_y
_atom_site_fract_z
Si Si1 0.478584 0.434769 0.816479
Si Si2 0.584328 0.187811 0.180677
Si Si3 0.474407 0.690347 0.817358
Si Si4 0.681538 0.088236 0.319373
Si Si5 0.173566 0.882289 0.818809
Si Si6 0.922601 0.351254 0.819869
Si Si7 0.622252 0.733856 0.320375
Si Si8 0.921072 0.479389 0.682058
O O1 0.500000 0.500000 0.758579
O O2 0.531378 0.379707 0.778808
O O3 0.399573 0.414592 0.770838
O O4 0.477771 0.438047 0.000000
O O5 0.583045 0.258741 0.217562
O O6 0.640679 0.147710 0.266254
O O7 0.505237 0.163304 0.216189
O O8 0.594966 0.181406 0.000000
O O9 0.545044 0.711639 0.733697
O O10 0.486637 0.694311 0.000000
O O11 0.689272 0.089101 0.500000
O O12 0.757443 0.085270 0.241831
O O13 0.633045 0.031730 0.277132
O O14 0.173262 0.815152 0.752918
O O15 0.173616 0.879349 0.000000
O O16 0.874517 0.300727 0.743044
O O17 0.905570 0.416795 0.760656
O O18 0.915638 0.346982 0.000000
O O19 0.628168 0.733079 0.500000
O O20 0.919683 0.471520 0.500000
O O21 0.000000 0.500000 0.724311
#
# Coordination Sequence:
#
# PCOD9425023 Si02
#       8
#     8   8   8   8   8   8   8   8
#     4   8  14  28  54  82 103 128 166 213 261 311
#     4   9  17  29  46  71 101 134 169 213 262 304
#     4   8  15  28  47  75 104 128 161 206 254 304
#     4  11  22  34  51  73 102 141 181 220 266 322
#     4  10  20  35  54  76 104 134 173 220 268 322
#     4  10  19  31  51  77 104 133 173 219 260 305
#     4  10  18  30  51  75 100 129 164 208 260 310
#     4  10  20  34  50  74 107 143 183 223 265 311
#
# _framework density 17.065557999999999
#
# number of rings (size 3 to 8) (size 9 to 14) (size 15 to 20)
#    0.000    2.500    1.250    3.750    0.000    3.250 
#    0.000    0.000    2.750    9.375    0.000    0.000 
#    0.000    0.000    0.000    0.000    0.000    0.000 
#
# Total GULP energy -356594.928833 kJ/mol
# GULP energy per Si atom -5571.795763 kJ/mol
# Density = 1.702672 g / cm^3
# Si number density = 17.065558 Si / 1000 Ang^3
#
#
#
# Elastic Constant Matrix: (Units=GPa)
#
#
# Indices 1 2 3 4 5 6 
#
# 1 55.0596 48.1659 23.6259 0.0000 0.0000 0.0000
# 2 48.1659 160.5533 40.5368 0.0000 0.0000 0.0000
# 3 23.6259 40.5368 36.1022 0.0000 0.0000 0.0000
# 4 0.0000 0.0000 0.0000 15.4789 0.0000 0.0000
# 5 0.0000 0.0000 0.0000 0.0000 19.7117 0.0000
# 6 0.0000 0.0000 0.0000 0.0000 0.0000 22.9203
#
#
#
# Elastic Compliance Matrix: (Units=1/GPa)
#
#
# Indices 1 2 3 4 5 6 
#
# 1 0.028146 -0.005294 -0.012475 0.000000 0.000000 0.000000
# 2 -0.005294 0.009689 -0.007414 0.000000 0.000000 0.000000
# 3 -0.012475 -0.007414 0.044188 0.000000 0.000000 0.000000
# 4 0.000000 0.000000 0.000000 0.064604 0.000000 0.000000
# 5 0.000000 0.000000 0.000000 0.000000 0.050731 0.000000
# 6 0.000000 0.000000 0.000000 0.000000 0.000000 0.043629
#
#
# Mechanical properties :
#
#
# Convention : Reuss Voigt Hill
#
# Bulk Modulus (GPa) = 31.58931 52.93024 42.25978
# Shear Modulus (GPa) = 16.56143 20.91463 18.73803
#
# Velocity S-wave (km/s) = 3.11860 3.50458 3.31721
# Velocity P-wave (km/s) = 5.61412 6.88907 6.28401
#
# Compressibility (1/GPa) = 0.03165628
#
# Stress axis : x y z
#
# Youngs Moduli (GPa) = 35.52845 103.21354 22.63069
#
# Poissons Ratio (x) = 0.54643 0.28232
# Poissons Ratio (y) = 0.18810 0.16779
# Poissons Ratio (z) = 0.44322 0.76524
#
# Static dielectric constant tensor:
#      x y z
#    x 1.570420 0.000000 0.000000 
#    y 0.000000 1.613210 0.000000 
#    z 0.000000 0.000000 1.563150 
# 
# From -- ./inp_files/8003.got.cif
#   From: 2010.05.17/outbox.cif.g08.bks.cpg/sg55_5_cif.got.tgz:8003.got - 2010.06.03 13:27:54.
