data_PCOD9425281
_publ_section_title
;
Structure prediction by ZEFSAII (Michael W. Deem and Ramdas Pophale) SiO2 
 PCOD9425281
Probable space group: P B A M
;
_chemical_formula_sum "Si O2"
_cell_formula_units_Z 40
_cell_length_a 9.847638
_cell_length_b 16.374059
_cell_length_c 11.523467
_cell_angle_alpha 90.000000
_cell_angle_beta 90.000000
_cell_angle_gamma 90.000000
_cell_volume 1858.110720
_symmetry_space_group_name_H-M "P B A M"
_symmetry_group_IT_number 55
_symmetry_cell_setting 'orthorhombic'
loop_
_space_group_symop_operation_xyz
x,y,z
-x,-y,z
1/2+x,1/2-y,-z
1/2-x,1/2+y,-z
-x,-y,-z
x,y,-z
1/2-x,1/2+y,z
1/2+x,1/2-y,z
loop_
_atom_site_type_symbol
_atom_site_label
_atom_site_fract_x
_atom_site_fract_y
_atom_site_fract_z
Si Si1 0.998528 0.262146 0.000000
Si Si2 0.654645 0.524850 0.365250
Si Si3 0.002166 0.687612 0.257811
Si Si4 0.264329 0.284385 0.367983
Si Si5 0.237064 0.853619 0.000000
Si Si6 0.869401 0.536395 0.803665
O O1 0.917620 0.176666 0.000000
O O2 0.957818 0.303397 0.122627
O O3 0.162085 0.274670 0.000000
O O4 0.500000 0.500000 0.339271
O O5 0.681792 0.503278 0.500000
O O6 0.676127 0.623349 0.353802
O O7 0.762139 0.487385 0.273952
O O8 0.861375 0.734139 0.283703
O O9 0.954147 0.595855 0.282567
O O10 0.116926 0.722529 0.338274
O O11 0.216884 0.277012 0.500000
O O12 0.280474 0.908256 0.109676
O O13 0.000000 0.500000 0.868897
#
# Coordination Sequence:
#
# PCOD9425281 Si02
#       6
#     4   8   8   8   4   8
#     4  10  18  34  58  83 107 137 179 224 272 328
#     4   9  19  36  56  79 111 149 185 226 275 327
#     4  10  20  34  55  82 108 142 182 227 277 327
#     4  10  20  35  55  81 113 144 181 229 278 328
#     4  10  21  38  59  83 112 143 178 226 281 332
#     4  10  21  37  56  79 111 146 185 229 274 327
#
# _framework density 21.527244
#
# number of rings (size 3 to 8) (size 9 to 14) (size 15 to 20)
#    0.000    2.200    0.000    4.500    0.000    2.800 
#    0.000    6.500    0.000    2.400    0.000    0.000 
#    0.000    0.000    0.000    0.000    0.000    0.000 
#
# Total GULP energy -222716.212976 kJ/mol
# GULP energy per Si atom -5567.905324 kJ/mol
# Density = 2.147825 g / cm^3
# Si number density = 21.527244 Si / 1000 Ang^3
#
#
#
# Elastic Constant Matrix: (Units=GPa)
#
#
# Indices 1 2 3 4 5 6 
#
# 1 122.0338 21.7117 52.3977 0.0000 0.0000 0.0000
# 2 21.7117 18.7881 11.1455 0.0000 0.0000 0.0000
# 3 52.3977 11.1455 107.6394 0.0000 0.0000 0.0000
# 4 0.0000 0.0000 0.0000 12.8596 0.0000 0.0000
# 5 0.0000 0.0000 0.0000 0.0000 25.5747 0.0000
# 6 0.0000 0.0000 0.0000 0.0000 0.0000 43.3352
#
#
#
# Elastic Compliance Matrix: (Units=1/GPa)
#
#
# Indices 1 2 3 4 5 6 
#
# 1 0.012272 -0.011334 -0.004800 0.000000 0.000000 0.000000
# 2 -0.011334 0.067176 -0.001438 0.000000 0.000000 0.000000
# 3 -0.004800 -0.001438 0.011776 0.000000 0.000000 0.000000
# 4 0.000000 0.000000 0.000000 0.077763 0.000000 0.000000
# 5 0.000000 0.000000 0.000000 0.000000 0.039101 0.000000
# 6 0.000000 0.000000 0.000000 0.000000 0.000000 0.023076
#
#
# Mechanical properties :
#
#
# Convention : Reuss Voigt Hill
#
# Bulk Modulus (GPa) = 17.83213 46.55234 32.19223
# Shear Modulus (GPa) = 17.54368 27.23432 22.38900
#
# Velocity S-wave (km/s) = 2.85783 3.56070 3.22845
# Velocity P-wave (km/s) = 4.38077 6.21100 5.37437
#
# Compressibility (1/GPa) = 0.05607855
#
# Stress axis : x y z
#
# Youngs Moduli (GPa) = 81.48577 14.88624 84.91872
#
# Poissons Ratio (x) = 0.16872 0.40764
# Poissons Ratio (y) = 0.92357 0.12215
# Poissons Ratio (z) = 0.39116 0.02141
#
# Static dielectric constant tensor:
#      x y z
#    x 1.816120 0.000000 0.000000 
#    y 0.000000 1.921770 0.000000 
#    z 0.000000 0.000000 1.805140 
# 
# From -- ./inp_files/12080.got.cif
#   From: 2010.05.17/outbox.cif.g08.bks.cpg/sg55_7_cif.got.tgz:12080.got - 2010.06.03 13:27:54.
