data_PCOD9425224
_publ_section_title
;
Structure prediction by ZEFSAII (Michael W. Deem and Ramdas Pophale) SiO2 
 PCOD9425224
Probable space group: P B A M
;
_chemical_formula_sum "Si O2"
_cell_formula_units_Z 64
_cell_length_a 20.008138
_cell_length_b 21.010249
_cell_length_c 8.502139
_cell_angle_alpha 90.000000
_cell_angle_beta 90.000000
_cell_angle_gamma 90.000000
_cell_volume 3574.094856
_symmetry_space_group_name_H-M "P B A M"
_symmetry_group_IT_number 55
_symmetry_cell_setting 'orthorhombic'
loop_
_space_group_symop_operation_xyz
x,y,z
-x,-y,z
1/2+x,1/2-y,-z
1/2-x,1/2+y,-z
-x,-y,-z
x,y,-z
1/2-x,1/2+y,z
1/2+x,1/2-y,z
loop_
_atom_site_type_symbol
_atom_site_label
_atom_site_fract_x
_atom_site_fract_y
_atom_site_fract_z
Si Si1 0.037393 0.812175 0.689247
Si Si2 0.676823 0.137982 0.811888
Si Si3 0.323827 0.507428 0.190349
Si Si4 0.322608 0.363508 0.311429
Si Si5 0.959622 0.687434 0.687509
Si Si6 0.460827 0.564818 0.189477
Si Si7 0.038444 0.566110 0.811011
Si Si8 0.325229 0.009535 0.808766
O O1 0.039834 0.808479 0.500000
O O2 0.113960 0.822086 0.743878
O O3 0.999580 0.749277 0.747655
O O4 0.995824 0.874491 0.736261
O O5 0.750025 0.157060 0.750950
O O6 0.614882 0.179704 0.754971
O O7 0.664902 0.064232 0.759767
O O8 0.678318 0.137717 0.000000
O O9 0.334120 0.436038 0.253895
O O10 0.384155 0.553060 0.238378
O O11 0.249550 0.528657 0.238895
O O12 0.324974 0.503044 0.000000
O O13 0.320857 0.363277 0.500000
O O14 0.954404 0.691610 0.500000
O O15 0.001255 0.624783 0.733090
O O16 0.500000 0.500000 0.230452
O O17 0.463444 0.571383 0.000000
O O18 0.114390 0.554073 0.756096
O O19 0.000000 0.500000 0.780795
O O20 0.037362 0.575935 0.000000
O O21 0.327675 0.009379 0.000000
#
# Coordination Sequence:
#
# PCOD9425224 Si02
#       8
#     8   8   8   8   8   8   8   8
#     4  10  23  39  54  76 113 153 185 221 274 331
#     4  10  19  35  57  81 107 140 179 226 278 327
#     4   9  17  31  51  79 112 143 176 227 282 323
#     4  10  19  33  54  80 107 142 184 223 266 328
#     4  11  23  38  54  79 112 148 187 226 271 325
#     4  10  19  32  54  83 110 138 183 236 277 316
#     4  10  18  33  55  80 107 139 180 224 278 331
#     4   8  15  29  51  76 106 138 170 215 274 330
#
# _framework density 17.906632999999999
#
# number of rings (size 3 to 8) (size 9 to 14) (size 15 to 20)
#    0.000    2.250    2.500    1.875    0.000    2.500 
#    0.000    1.875    0.000    3.000    0.000    0.000 
#    0.000    0.000    0.000    0.000    0.000    0.000 
#
# Total GULP energy -356979.903206 kJ/mol
# GULP energy per Si atom -5577.810988 kJ/mol
# Density = 1.786588 g / cm^3
# Si number density = 17.906633 Si / 1000 Ang^3
#
#
#
# Elastic Constant Matrix: (Units=GPa)
#
#
# Indices 1 2 3 4 5 6 
#
# 1 185.0466 66.3565 29.4148 0.0000 0.0000 0.0000
# 2 66.3565 77.4906 15.6480 0.0000 0.0000 0.0000
# 3 29.4148 15.6480 16.3997 0.0000 0.0000 0.0000
# 4 0.0000 0.0000 0.0000 25.7866 0.0000 0.0000
# 5 0.0000 0.0000 0.0000 0.0000 24.7821 0.0000
# 6 0.0000 0.0000 0.0000 0.0000 0.0000 27.6177
#
#
#
# Elastic Compliance Matrix: (Units=1/GPa)
#
#
# Indices 1 2 3 4 5 6 
#
# 1 0.009187 -0.005623 -0.011113 0.000000 0.000000 0.000000
# 2 -0.005623 0.019426 -0.008451 0.000000 0.000000 0.000000
# 3 -0.011113 -0.008451 0.088972 0.000000 0.000000 0.000000
# 4 0.000000 0.000000 0.000000 0.038780 0.000000 0.000000
# 5 0.000000 0.000000 0.000000 0.000000 0.040352 0.000000
# 6 0.000000 0.000000 0.000000 0.000000 0.000000 0.036209
#
#
# Mechanical properties :
#
#
# Convention : Reuss Voigt Hill
#
# Bulk Modulus (GPa) = 14.87810 55.75285 35.31547
# Shear Modulus (GPa) = 16.35585 26.80512 21.58049
#
# Velocity S-wave (km/s) = 3.02552 3.87323 3.47532
# Velocity P-wave (km/s) = 4.53120 7.15580 5.98904
#
# Compressibility (1/GPa) = 0.06721289
#
# Stress axis : x y z
#
# Youngs Moduli (GPa) = 108.85205 51.47699 11.23952
#
# Poissons Ratio (x) = 0.28944 0.12490
# Poissons Ratio (y) = 0.61205 0.09498
# Poissons Ratio (z) = 1.20962 0.43501
#
# Static dielectric constant tensor:
#      x y z
#    x 1.645320 0.000000 0.000000 
#    y 0.000000 1.578590 0.000000 
#    z 0.000000 0.000000 1.614820 
# 
# From -- ./inp_files/8996.got.cif
#   From: 2010.05.17/outbox.cif.g08.bks.cpg/sg55_5_cif.got.tgz:8996.got - 2010.06.03 13:27:54.
