data_PCOD9425587
_publ_section_title
;
Structure prediction by ZEFSAII (Michael W. Deem and Ramdas Pophale) SiO2 
 PCOD9425587
Probable space group: P B A M
;
_chemical_formula_sum "Si O2"
_cell_formula_units_Z 64
_cell_length_a 15.318416
_cell_length_b 24.845026
_cell_length_c 7.454999
_cell_angle_alpha 90.000000
_cell_angle_beta 90.000000
_cell_angle_gamma 90.000000
_cell_volume 2837.271558
_symmetry_space_group_name_H-M "P B A M"
_symmetry_group_IT_number 55
_symmetry_cell_setting 'orthorhombic'
loop_
_space_group_symop_operation_xyz
x,y,z
-x,-y,z
1/2+x,1/2-y,-z
1/2-x,1/2+y,-z
-x,-y,-z
x,y,-z
1/2-x,1/2+y,z
1/2+x,1/2-y,z
loop_
_atom_site_type_symbol
_atom_site_label
_atom_site_fract_x
_atom_site_fract_y
_atom_site_fract_z
Si Si1 0.974540 0.314429 0.220076
Si Si2 0.765276 0.999939 0.715490
Si Si3 0.880462 0.091671 0.282790
Si Si4 0.341032 0.658395 0.216199
Si Si5 0.161411 0.282345 0.217684
Si Si6 0.142791 0.786990 0.208596
Si Si7 0.937848 0.941657 0.705976
Si Si8 0.664163 0.898769 0.787362
O O1 0.920083 0.260688 0.278115
O O2 0.921529 0.367629 0.278028
O O3 0.075134 0.313298 0.280535
O O4 0.977066 0.312945 0.000000
O O5 0.765774 0.000633 0.500000
O O6 0.849776 0.966639 0.786423
O O7 0.682752 0.962293 0.760124
O O8 0.791007 0.060741 0.772017
O O9 0.883251 0.093161 0.500000
O O10 0.891477 0.152198 0.217134
O O11 0.963880 0.055516 0.222978
O O12 0.353850 0.719942 0.260702
O O13 0.416733 0.621504 0.290930
O O14 0.248585 0.634369 0.281689
O O15 0.342595 0.654317 0.000000
O O16 0.259278 0.292583 0.286528
O O17 0.163934 0.288688 0.000000
O O18 0.154599 0.771780 0.000000
O O19 0.937930 0.959607 0.500000
O O20 0.663876 0.891071 0.000000
#
# Coordination Sequence:
#
# PCOD9425587 Si02
#       8
#     8   8   8   8   8   8   8   8
#     4   9  16  28  48  73  99 126 155 193 238 281
#     4   9  18  32  49  67  91 127 163 195 236 284
#     4  10  20  33  47  66  96 129 159 194 239 285
#     4   9  15  26  44  68  96 123 152 190 231 273
#     4   9  16  27  46  70  97 128 158 187 231 287
#     4  10  19  32  50  73  99 128 161 193 231 284
#     4   9  17  29  46  68  93 124 160 192 229 284
#     4   9  16  28  47  70  95 120 154 197 235 271
#
# _framework density 22.556882999999999
#
# number of rings (size 3 to 8) (size 9 to 14) (size 15 to 20)
#    0.000    2.750    1.250    1.125    0.000    3.500 
#    0.000    1.250    0.000    6.750    0.000    5.250 
#    0.000    0.000    0.000    0.000    0.000    0.000 
#
# Total GULP energy -356603.135681 kJ/mol
# GULP energy per Si atom -5571.923995 kJ/mol
# Density = 2.250554 g / cm^3
# Si number density = 22.556883 Si / 1000 Ang^3
#
#
#
# Elastic Constant Matrix: (Units=GPa)
#
#
# Indices 1 2 3 4 5 6 
#
# 1 70.9296 -16.8168 1.9903 0.0000 0.0000 0.0000
# 2 -16.8168 15.9028 -6.6559 0.0000 0.0000 0.0000
# 3 1.9903 -6.6559 62.4061 0.0000 0.0000 0.0000
# 4 0.0000 0.0000 0.0000 10.8543 0.0000 0.0000
# 5 0.0000 0.0000 0.0000 0.0000 1.8224 0.0000
# 6 0.0000 0.0000 0.0000 0.0000 0.0000 27.2071
#
#
#
# Elastic Compliance Matrix: (Units=1/GPa)
#
#
# Indices 1 2 3 4 5 6 
#
# 1 0.018969 0.020731 0.001606 0.000000 0.000000 0.000000
# 2 0.020731 0.088477 0.008775 0.000000 0.000000 0.000000
# 3 0.001606 0.008775 0.016909 0.000000 0.000000 0.000000
# 4 0.000000 0.000000 0.000000 0.092129 0.000000 0.000000
# 5 0.000000 0.000000 0.000000 0.000000 0.548739 0.000000
# 6 0.000000 0.000000 0.000000 0.000000 0.000000 0.036755
#
#
# Mechanical properties :
#
#
# Convention : Reuss Voigt Hill
#
# Bulk Modulus (GPa) = 5.35966 11.80819 8.58392
# Shear Modulus (GPa) = 6.23483 19.35815 12.79649
#
# Velocity S-wave (km/s) = 1.66435 2.93267 2.38439
# Velocity P-wave (km/s) = 2.46467 4.08823 3.37552
#
# Compressibility (1/GPa) = 0.18657908
#
# Stress axis : x y z
#
# Youngs Moduli (GPa) = 52.71890 11.30237 59.14085
#
# Poissons Ratio (x) = -0.23431 -0.09499
# Poissons Ratio (y) = -1.09291 -0.51898
# Poissons Ratio (z) = -0.08467 -0.09918
#
# Static dielectric constant tensor:
#      x y z
#    x 1.875580 0.000000 0.000000 
#    y 0.000000 1.855360 0.000000 
#    z 0.000000 0.000000 1.869490 
# 
# From -- ./inp_files/6601.got.cif
#   From: 2010.05.17/outbox.cif.g08.bks.cpg/sg55_4_cif.got.tgz:6601.got - 2010.06.03 13:27:54.
