data_PCOD9425926
_publ_section_title
;
Structure prediction by ZEFSAII (Michael W. Deem and Ramdas Pophale) SiO2 
 PCOD9425926
Probable space group: P B A M
;
_chemical_formula_sum "Si O2"
_cell_formula_units_Z 48
_cell_length_a 28.162687
_cell_length_b 10.377955
_cell_length_c 7.446795
_cell_angle_alpha 90.000000
_cell_angle_beta 90.000000
_cell_angle_gamma 90.000000
_cell_volume 2176.482954
_symmetry_space_group_name_H-M "P B A M"
_symmetry_group_IT_number 55
_symmetry_cell_setting 'orthorhombic'
loop_
_space_group_symop_operation_xyz
x,y,z
-x,-y,z
1/2+x,1/2-y,-z
1/2-x,1/2+y,-z
-x,-y,-z
x,y,-z
1/2-x,1/2+y,z
1/2+x,1/2-y,z
loop_
_atom_site_type_symbol
_atom_site_label
_atom_site_fract_x
_atom_site_fract_y
_atom_site_fract_z
Si Si1 0.859818 0.029393 0.282626
Si Si2 0.712467 0.751870 0.719181
Si Si3 0.039568 0.594297 0.291497
Si Si4 0.032923 0.886199 0.790924
Si Si5 0.356737 0.022998 0.719530
Si Si6 0.821826 0.754125 0.280724
O O1 0.859578 0.030596 0.500000
O O2 0.847040 0.885509 0.222141
O O3 0.819322 0.130134 0.224143
O O4 0.912020 0.074783 0.227278
O O5 0.713195 0.750030 0.500000
O O6 0.766919 0.749480 0.777021
O O7 0.685125 0.880970 0.775889
O O8 0.044115 0.556166 0.500000
O O9 0.025728 0.743827 0.286139
O O10 0.092437 0.575014 0.216657
O O11 0.000000 0.500000 0.211311
O O12 0.020937 0.874112 0.000000
O O13 0.000000 0.000000 0.714115
O O14 0.355899 0.026184 0.500000
O O15 0.347658 0.876700 0.775251
O O16 0.821881 0.755760 0.500000
#
# Coordination Sequence:
#
# PCOD9425926 Si02
#       6
#     8   8   8   8   8   8
#     4  10  19  33  56  84 110 143 186 229 275 325
#     4   9  15  27  47  77 115 145 173 215 270 327
#     4  10  21  37  60  87 111 138 177 231 284 332
#     4  11  25  42  58  78 109 150 190 233 285 337
#     4   9  16  28  45  74 112 139 167 212 266 320
#     4   9  17  26  46  82 117 144 171 215 272 326
#
# _framework density 22.053929
#
# number of rings (size 3 to 8) (size 9 to 14) (size 15 to 20)
#    0.000    2.333    1.667    1.500    2.333    5.667 
#    0.000    0.000    0.000    1.000    0.000    0.000 
#    0.000    0.000    0.000    0.000    0.000    0.000 
#
# Total GULP energy -268237.411526 kJ/mol
# GULP energy per Si atom -5588.279407 kJ/mol
# Density = 2.200373 g / cm^3
# Si number density = 22.053929 Si / 1000 Ang^3
#
#
#
# Elastic Constant Matrix: (Units=GPa)
#
#
# Indices 1 2 3 4 5 6 
#
# 1 96.3211 53.4500 -7.7280 0.0000 0.0000 0.0000
# 2 53.4500 171.9586 -11.7106 0.0000 0.0000 0.0000
# 3 -7.7280 -11.7106 61.5307 0.0000 0.0000 0.0000
# 4 0.0000 0.0000 0.0000 24.6495 0.0000 0.0000
# 5 0.0000 0.0000 0.0000 0.0000 9.6087 0.0000
# 6 0.0000 0.0000 0.0000 0.0000 0.0000 47.1138
#
#
#
# Elastic Compliance Matrix: (Units=1/GPa)
#
#
# Indices 1 2 3 4 5 6 
#
# 1 0.012589 -0.003855 0.000847 0.000000 0.000000 0.000000
# 2 -0.003855 0.007072 0.000862 0.000000 0.000000 0.000000
# 3 0.000847 0.000862 0.016523 0.000000 0.000000 0.000000
# 4 0.000000 0.000000 0.000000 0.040569 0.000000 0.000000
# 5 0.000000 0.000000 0.000000 0.000000 0.104072 0.000000
# 6 0.000000 0.000000 0.000000 0.000000 0.000000 0.021225
#
#
# Mechanical properties :
#
#
# Convention : Reuss Voigt Hill
#
# Bulk Modulus (GPa) = 31.35601 44.20371 37.77986
# Shear Modulus (GPa) = 23.04432 35.99435 29.51934
#
# Velocity S-wave (km/s) = 3.23601 4.04432 3.66253
# Velocity P-wave (km/s) = 5.31141 6.47268 5.92059
#
# Compressibility (1/GPa) = 0.03189181
#
# Stress axis : x y z
#
# Youngs Moduli (GPa) = 79.43206 141.39397 60.52351
#
# Poissons Ratio (x) = 0.54514 -0.05129
# Poissons Ratio (y) = 0.30625 -0.05216
# Poissons Ratio (z) = -0.06731 -0.12185
#
# Static dielectric constant tensor:
#      x y z
#    x 1.695580 0.000000 0.000000 
#    y 0.000000 1.766150 0.000000 
#    z 0.000000 0.000000 1.861240 
# 
# From -- ./inp_files/10501.got.cif
#   From: 2010.05.17/outbox.cif.g08.bks.cpg/sg55_6_cif.got.tgz:10501.got - 2010.06.03 13:27:54.
