data_PCOD9425960
_publ_section_title
;
Structure prediction by ZEFSAII (Michael W. Deem and Ramdas Pophale) SiO2 
 PCOD9425960
Probable space group: P B A M
;
_chemical_formula_sum "Si O2"
_cell_formula_units_Z 48
_cell_length_a 9.474690
_cell_length_b 20.086835
_cell_length_c 13.176205
_cell_angle_alpha 90.000000
_cell_angle_beta 90.000000
_cell_angle_gamma 90.000000
_cell_volume 2507.649676
_symmetry_space_group_name_H-M "P B A M"
_symmetry_group_IT_number 55
_symmetry_cell_setting 'orthorhombic'
loop_
_space_group_symop_operation_xyz
x,y,z
-x,-y,z
1/2+x,1/2-y,-z
1/2-x,1/2+y,-z
-x,-y,-z
x,y,-z
1/2-x,1/2+y,z
1/2+x,1/2-y,z
loop_
_atom_site_type_symbol
_atom_site_label
_atom_site_fract_x
_atom_site_fract_y
_atom_site_fract_z
Si Si1 0.798426 0.188317 0.380189
Si Si2 0.503205 0.789907 0.274797
Si Si3 0.047724 0.177198 0.115234
Si Si4 0.833571 0.511048 0.114238
Si Si5 0.909597 0.066849 0.251232
Si Si6 0.852891 0.361793 0.111066
O O1 0.775965 0.183623 0.500000
O O2 0.649450 0.197973 0.322603
O O3 0.893863 0.253425 0.354577
O O4 0.873927 0.120673 0.339274
O O5 0.505452 0.737706 0.182133
O O6 0.558951 0.854058 0.213874
O O7 0.216762 0.184707 0.116637
O O8 0.996823 0.110145 0.169694
O O9 0.997938 0.178656 0.000000
O O10 0.737544 0.547057 0.196445
O O11 0.785071 0.434868 0.108458
O O12 0.000000 0.500000 0.135415
O O13 0.820431 0.540456 0.000000
O O14 0.000000 0.000000 0.277905
O O15 0.924819 0.352605 0.000000
#
# Coordination Sequence:
#
# PCOD9425960 Si02
#       6
#     8   8   8   8   8   8
#     4  11  25  42  63  85 110 151 201 256 300 341
#     4  11  21  41  61  87 119 151 195 239 299 352
#     4  10  20  34  57  90 124 156 189 226 279 355
#     4  10  20  34  54  86 124 159 192 229 281 349
#     4  11  22  38  61  86 117 159 198 244 290 350
#     4  10  19  33  57  88 123 153 183 227 281 351
#
# _framework density 19.14143
#
# number of rings (size 3 to 8) (size 9 to 14) (size 15 to 20)
#    0.000    1.500    3.333    2.500    0.000    1.000 
#    0.000    1.667    0.000    5.500    0.000    0.000 
#    0.000    0.000    0.000    0.000    0.000    0.000 
#
# Total GULP energy -267466.851879 kJ/mol
# GULP energy per Si atom -5572.226081 kJ/mol
# Density = 1.909786 g / cm^3
# Si number density = 19.141430 Si / 1000 Ang^3
#
#
#
# Elastic Constant Matrix: (Units=GPa)
#
#
# Indices 1 2 3 4 5 6 
#
# 1 83.4574 11.9508 35.3005 0.0000 0.0000 0.0000
# 2 11.9508 62.3699 38.1291 0.0000 0.0000 0.0000
# 3 35.3005 38.1291 110.4460 0.0000 0.0000 0.0000
# 4 0.0000 0.0000 0.0000 13.3918 0.0000 0.0000
# 5 0.0000 0.0000 0.0000 0.0000 22.2200 0.0000
# 6 0.0000 0.0000 0.0000 0.0000 0.0000 27.5234
#
#
#
# Elastic Compliance Matrix: (Units=1/GPa)
#
#
# Indices 1 2 3 4 5 6 
#
# 1 0.013855 0.000066 -0.004451 0.000000 0.000000 0.000000
# 2 0.000066 0.020323 -0.007037 0.000000 0.000000 0.000000
# 3 -0.004451 -0.007037 0.012906 0.000000 0.000000 0.000000
# 4 0.000000 0.000000 0.000000 0.074673 0.000000 0.000000
# 5 0.000000 0.000000 0.000000 0.000000 0.045004 0.000000
# 6 0.000000 0.000000 0.000000 0.000000 0.000000 0.036333
#
#
# Mechanical properties :
#
#
# Convention : Reuss Voigt Hill
#
# Bulk Modulus (GPa) = 41.25366 47.44823 44.35094
# Shear Modulus (GPa) = 21.36578 24.01990 22.69284
#
# Velocity S-wave (km/s) = 3.34459 3.54625 3.44690
# Velocity P-wave (km/s) = 6.04267 6.45057 6.24995
#
# Compressibility (1/GPa) = 0.02424027
#
# Stress axis : x y z
#
# Youngs Moduli (GPa) = 72.17359 49.20583 77.48092
#
# Poissons Ratio (x) = -0.00327 0.34490
# Poissons Ratio (y) = -0.00479 0.54525
# Poissons Ratio (z) = 0.32127 0.34627
#
# Static dielectric constant tensor:
#      x y z
#    x 1.709620 0.000000 0.000000 
#    y 0.000000 1.777110 0.000000 
#    z 0.000000 0.000000 1.666780 
# 
# From -- ./inp_files/12224.got.cif
#   From: 2010.05.17/outbox.cif.g08.bks.cpg/sg55_7_cif.got.tgz:12224.got - 2010.06.03 13:27:54.
