data_PCOD9425396
_publ_section_title
;
Structure prediction by ZEFSAII (Michael W. Deem and Ramdas Pophale) SiO2 
 PCOD9425396
Probable space group: P B A M
;
_chemical_formula_sum "Si O2"
_cell_formula_units_Z 44
_cell_length_a 5.204463
_cell_length_b 13.761307
_cell_length_c 27.601396
_cell_angle_alpha 90.000000
_cell_angle_beta 90.000000
_cell_angle_gamma 90.000000
_cell_volume 1976.817864
_symmetry_space_group_name_H-M "P B A M"
_symmetry_group_IT_number 55
_symmetry_cell_setting 'orthorhombic'
loop_
_space_group_symop_operation_xyz
x,y,z
-x,-y,z
1/2+x,1/2-y,-z
1/2-x,1/2+y,-z
-x,-y,-z
x,y,-z
1/2-x,1/2+y,z
1/2+x,1/2-y,z
loop_
_atom_site_type_symbol
_atom_site_label
_atom_site_fract_x
_atom_site_fract_y
_atom_site_fract_z
Si Si1 0.791849 0.390677 0.693439
Si Si2 0.207941 0.892265 0.653333
Si Si3 0.840716 0.315889 0.897948
Si Si4 0.547188 0.816478 0.000000
Si Si5 0.943933 0.183826 0.446194
Si Si6 0.943425 0.316047 0.205704
O O1 0.509355 0.346534 0.687647
O O2 0.749723 0.499686 0.673987
O O3 0.890517 0.382063 0.747851
O O4 0.010038 0.347570 0.658541
O O5 0.108574 0.886215 0.598815
O O6 0.552559 0.272214 0.898113
O O7 0.896779 0.368456 0.948901
O O8 0.894918 0.365910 0.846505
O O9 0.260539 0.771382 0.000000
O O10 0.919560 0.139207 0.500000
O O11 0.722379 0.266257 0.442910
O O12 0.726553 0.230770 0.207461
#
# Coordination Sequence:
#
# PCOD9425396 Si02
#       6
#     8   8   8   4   8   8
#     4  10  21  35  50  72 101 133 166 200 238 286
#     4  10  21  37  53  73 101 130 163 195 235 291
#     4   8  14  23  36  57  86 119 155 195 240 284
#     4   8  12  20  34  52  80 118 152 188 238 288
#     4  10  21  37  58  82 104 125 153 194 242 290
#     4  10  19  30  46  70  98 129 166 207 245 280
#
# _framework density 22.257994
#
# number of rings (size 3 to 8) (size 9 to 14) (size 15 to 20)
#    0.000    2.545    0.000    2.182    0.000    4.364 
#    0.000    3.636    0.000    0.000    0.000    0.000 
#    0.000    5.818    0.000    0.000    0.000   22.545 
#
# Total GULP energy -245246.670408 kJ/mol
# GULP energy per Si atom -5573.787964 kJ/mol
# Density = 2.220733 g / cm^3
# Si number density = 22.257994 Si / 1000 Ang^3
#
#
#
# Elastic Constant Matrix: (Units=GPa)
#
#
# Indices 1 2 3 4 5 6 
#
# 1 144.3956 -12.8067 -9.5770 0.0000 0.0000 0.0000
# 2 -12.8067 51.2621 14.7088 0.0000 0.0000 0.0000
# 3 -9.5770 14.7088 202.4824 0.0000 0.0000 0.0000
# 4 0.0000 0.0000 0.0000 1.8818 0.0000 0.0000
# 5 0.0000 0.0000 0.0000 0.0000 36.5292 0.0000
# 6 0.0000 0.0000 0.0000 0.0000 0.0000 8.4144
#
#
#
# Elastic Compliance Matrix: (Units=1/GPa)
#
#
# Indices 1 2 3 4 5 6 
#
# 1 0.007091 0.001711 0.000211 0.000000 0.000000 0.000000
# 2 0.001711 0.020336 -0.001396 0.000000 0.000000 0.000000
# 3 0.000211 -0.001396 0.005050 0.000000 0.000000 0.000000
# 4 0.000000 0.000000 0.000000 0.531395 0.000000 0.000000
# 5 0.000000 0.000000 0.000000 0.000000 0.027375 0.000000
# 6 0.000000 0.000000 0.000000 0.000000 0.000000 0.118844
#
#
# Mechanical properties :
#
#
# Convention : Reuss Voigt Hill
#
# Bulk Modulus (GPa) = 29.82532 42.53228 36.17880
# Shear Modulus (GPa) = 6.94237 36.41943 21.68090
#
# Velocity S-wave (km/s) = 1.76800 4.04944 3.12440
# Velocity P-wave (km/s) = 4.19484 6.40423 5.41345
#
# Compressibility (1/GPa) = 0.03352856
#
# Stress axis : x y z
#
# Youngs Moduli (GPa) = 141.02040 49.17464 198.01524
#
# Poissons Ratio (x) = -0.08414 -0.04180
# Poissons Ratio (y) = -0.24129 0.27649
# Poissons Ratio (z) = -0.02977 0.06866
#
# Static dielectric constant tensor:
#      x y z
#    x 1.934580 0.000000 0.000000 
#    y 0.000000 1.638140 0.000000 
#    z 0.000000 0.000000 1.889080 
# 
# From -- ./inp_files/23782.got.cif
#   From: 2010.05.17/outbox.cif.g08.bks.cpg/sg55_12_cif.got.tgz:23782.got - 2010.06.03 13:27:54.
