data_PCOD9425170
_publ_section_title
;
Structure prediction by ZEFSAII (Michael W. Deem and Ramdas Pophale) SiO2 
 PCOD9425170
Probable space group: P B A M
;
_chemical_formula_sum "Si O2"
_cell_formula_units_Z 48
_cell_length_a 18.057402
_cell_length_b 17.329491
_cell_length_c 7.710488
_cell_angle_alpha 90.000000
_cell_angle_beta 90.000000
_cell_angle_gamma 90.000000
_cell_volume 2412.808971
_symmetry_space_group_name_H-M "P B A M"
_symmetry_group_IT_number 55
_symmetry_cell_setting 'orthorhombic'
loop_
_space_group_symop_operation_xyz
x,y,z
-x,-y,z
1/2+x,1/2-y,-z
1/2-x,1/2+y,-z
-x,-y,-z
x,y,-z
1/2-x,1/2+y,z
1/2+x,1/2-y,z
loop_
_atom_site_type_symbol
_atom_site_label
_atom_site_fract_x
_atom_site_fract_y
_atom_site_fract_z
Si Si1 0.092240 0.317313 0.290550
Si Si2 0.180481 0.634704 0.709223
Si Si3 0.651375 0.342679 0.802183
Si Si4 0.064002 0.757470 0.288123
Si Si5 0.585313 0.011158 0.712087
Si Si6 0.999133 0.914709 0.699231
O O1 0.095117 0.316035 0.500000
O O2 0.144071 0.249152 0.224746
O O3 0.110026 0.403605 0.232223
O O4 0.008303 0.293344 0.241307
O O5 0.176318 0.635117 0.500000
O O6 0.266012 0.632696 0.757785
O O7 0.136691 0.711454 0.769253
O O8 0.136223 0.559193 0.771077
O O9 0.584759 0.382398 0.697883
O O10 0.635043 0.361618 0.000000
O O11 0.064801 0.760624 0.500000
O O12 0.048315 0.844550 0.225003
O O13 0.586052 0.010197 0.500000
O O14 0.500000 0.000000 0.763958
O O15 0.024893 0.923957 0.500000
O O16 0.000000 0.000000 0.779728
#
# Coordination Sequence:
#
# PCOD9425170 Si02
#       6
#     8   8   8   8   8   8
#     4   9  16  32  56  80 103 131 172 217 262 311
#     4  10  18  32  54  80 109 137 173 219 269 317
#     4  11  23  37  51  72 109 150 182 212 258 313
#     4   8  14  27  53  81 102 128 164 212 263 311
#     4   9  15  27  55  89 109 127 166 221 271 315
#     4   9  18  36  61  84 103 129 177 232 275 316
#
# _framework density 19.893826000000001
#
# number of rings (size 3 to 8) (size 9 to 14) (size 15 to 20)
#    0.000    2.667    1.667    2.500    0.000    0.333 
#    3.000    4.167    0.000    1.000    0.000    0.000 
#    0.000    0.000    0.000    0.000    0.000    0.000 
#
# Total GULP energy -267664.892091 kJ/mol
# GULP energy per Si atom -5576.351919 kJ/mol
# Density = 1.984855 g / cm^3
# Si number density = 19.893826 Si / 1000 Ang^3
#
#
#
# Elastic Constant Matrix: (Units=GPa)
#
#
# Indices 1 2 3 4 5 6 
#
# 1 66.1462 40.2237 -8.5434 0.0000 0.0000 0.0000
# 2 40.2237 159.8038 1.4222 0.0000 0.0000 0.0000
# 3 -8.5434 1.4222 34.8852 0.0000 0.0000 0.0000
# 4 0.0000 0.0000 0.0000 -837.8742 0.0000 0.0000
# 5 0.0000 0.0000 0.0000 0.0000 -85.6468 0.0000
# 6 0.0000 0.0000 0.0000 0.0000 0.0000 25.0100
#
#
#
# Elastic Compliance Matrix: (Units=1/GPa)
#
#
# Indices 1 2 3 4 5 6 
#
# 1 0.018605 -0.004725 0.004749 0.000000 0.000000 0.000000
# 2 -0.004725 0.007460 -0.001461 0.000000 0.000000 0.000000
# 3 0.004749 -0.001461 0.029888 0.000000 0.000000 0.000000
# 4 0.000000 0.000000 0.000000 -0.001193 0.000000 0.000000
# 5 0.000000 0.000000 0.000000 0.000000 -0.011676 0.000000
# 6 0.000000 0.000000 0.000000 0.000000 0.000000 0.039984
#
#
# Mechanical properties :
#
#
# Convention : Reuss Voigt Hill
#
# Bulk Modulus (GPa) = 18.84031 36.33781 27.58906
# Shear Modulus (GPa) = 48.24605 -164.52004 -58.13699
#
# Velocity S-wave (km/s) = 4.92995 -9.10377 -5.41175
# Velocity P-wave (km/s) = 6.47278 9.60204 5.01510
#
# Compressibility (1/GPa) = 0.05307768
#
# Stress axis : x y z
#
# Youngs Moduli (GPa) = 53.74948 134.04729 33.45820
#
# Poissons Ratio (x) = 0.63340 -0.15889
# Poissons Ratio (y) = 0.25398 0.04889
# Poissons Ratio (z) = -0.25525 0.19589
#
# Static dielectric constant tensor:
#      x y z
#    x 1.658920 0.000000 0.000000 
#    y 0.000000 1.725970 0.000000 
#    z 0.000000 0.000000 1.739510 
# 
# From -- ./inp_files/7551.got.cif
#   From: 2010.05.17/outbox.cif.g08.bks.cpg/sg55_4_cif.got.tgz:7551.got - 2010.06.03 13:27:54.
