data_PCOD9425846
_publ_section_title
;
Structure prediction by ZEFSAII (Michael W. Deem and Ramdas Pophale) SiO2 
 PCOD9425846
Probable space group: P B A M
;
_chemical_formula_sum "Si O2"
_cell_formula_units_Z 58
_cell_length_a 18.536902
_cell_length_b 15.180985
_cell_length_c 9.577763
_cell_angle_alpha 90.000000
_cell_angle_beta 90.000000
_cell_angle_gamma 90.000000
_cell_volume 2695.263260
_symmetry_space_group_name_H-M "P B A M"
_symmetry_group_IT_number 55
_symmetry_cell_setting 'orthorhombic'
loop_
_space_group_symop_operation_xyz
x,y,z
-x,-y,z
1/2+x,1/2-y,-z
1/2-x,1/2+y,-z
-x,-y,-z
x,y,-z
1/2-x,1/2+y,z
1/2+x,1/2-y,z
loop_
_atom_site_type_symbol
_atom_site_label
_atom_site_fract_x
_atom_site_fract_y
_atom_site_fract_z
Si Si1 0.840637 0.353922 0.831677
Si Si2 0.788593 0.543318 0.839485
Si Si3 0.007234 0.325375 0.848176
Si Si4 0.274698 0.301360 0.337057
Si Si5 0.074268 0.906739 0.653968
Si Si6 0.500000 0.000000 0.000000
Si Si7 0.367683 0.550141 0.157113
Si Si8 0.423113 0.696514 0.658913
O O1 0.836070 0.458130 0.795565
O O2 0.922583 0.320917 0.809809
O O3 0.787772 0.289552 0.747076
O O4 0.826838 0.349167 0.000000
O O5 0.777583 0.628916 0.742341
O O6 0.709870 0.496585 0.844043
O O7 0.807977 0.568188 0.000000
O O8 0.020211 0.426602 0.881879
O O9 0.060903 0.286823 0.736679
O O10 0.015327 0.278275 0.000000
O O11 0.255299 0.288544 0.500000
O O12 0.354123 0.347261 0.336791
O O13 0.076481 0.950587 0.500000
O O14 0.001622 0.851134 0.663110
O O15 0.080183 0.978599 0.773457
O O16 0.370081 0.635281 0.253982
O O17 0.388217 0.572527 0.000000
O O18 0.400980 0.705924 0.500000
#
# Coordination Sequence:
#
# PCOD9425846 Si02
#       8
#     8   8   8   8   8   2   8   8
#     4  10  19  35  61  84 105 145 194 237 283 336
#     4   9  20  37  54  77 113 149 193 236 285 337
#     4   9  19  36  60  82 108 138 187 237 285 331
#     4  10  19  33  54  82 113 144 183 234 284 338
#     4   9  18  31  47  74 111 144 174 216 273 331
#     4   8  20  40  58  84 106 132 170 236 290 322
#     4  10  20  32  48  74 112 150 180 222 271 332
#     4  11  20  32  52  80 111 146 184 224 278 339
#
# _framework density 21.519231999999999
#
# number of rings (size 3 to 8) (size 9 to 14) (size 15 to 20)
#    0.414    1.931    1.379    1.655    0.000    4.414 
#    0.000    1.724    3.034    0.000    0.000    0.000 
#    0.000    0.000    0.000    0.000    0.000    0.000 
#
# Total GULP energy -323192.240752 kJ/mol
# GULP energy per Si atom -5572.280013 kJ/mol
# Density = 2.147025 g / cm^3
# Si number density = 21.519232 Si / 1000 Ang^3
#
#
#
# Elastic Constant Matrix: (Units=GPa)
#
#
# Indices 1 2 3 4 5 6 
#
# 1 70.1864 24.6608 30.9831 0.0000 0.0000 0.0000
# 2 24.6608 101.2434 61.5454 0.0000 0.0000 0.0000
# 3 30.9831 61.5454 117.8081 0.0000 0.0000 0.0000
# 4 0.0000 0.0000 0.0000 55.0242 0.0000 0.0000
# 5 0.0000 0.0000 0.0000 0.0000 8.7996 0.0000
# 6 0.0000 0.0000 0.0000 0.0000 0.0000 25.3065
#
#
#
# Elastic Compliance Matrix: (Units=1/GPa)
#
#
# Indices 1 2 3 4 5 6 
#
# 1 0.016394 -0.002011 -0.003261 0.000000 0.000000 0.000000
# 2 -0.002011 0.014720 -0.007161 0.000000 0.000000 0.000000
# 3 -0.003261 -0.007161 0.013087 0.000000 0.000000 0.000000
# 4 0.000000 0.000000 0.000000 0.018174 0.000000 0.000000
# 5 0.000000 0.000000 0.000000 0.000000 0.113641 0.000000
# 6 0.000000 0.000000 0.000000 0.000000 0.000000 0.039516
#
#
# Mechanical properties :
#
#
# Convention : Reuss Voigt Hill
#
# Bulk Modulus (GPa) = 51.71969 58.17962 54.94966
# Shear Modulus (GPa) = 20.25575 29.29596 24.77585
#
# Velocity S-wave (km/s) = 3.07137 3.69370 3.39681
# Velocity P-wave (km/s) = 6.05509 6.72949 6.40117
#
# Compressibility (1/GPa) = 0.01933499
#
# Stress axis : x y z
#
# Youngs Moduli (GPa) = 60.99850 67.93312 76.41010
#
# Poissons Ratio (x) = 0.13660 0.24917
# Poissons Ratio (y) = 0.12266 0.54720
# Poissons Ratio (z) = 0.19892 0.48650
#
# Static dielectric constant tensor:
#      x y z
#    x 1.850950 0.000000 0.000000 
#    y 0.000000 1.785810 0.000000 
#    z 0.000000 0.000000 1.756420 
# 
# From -- ./inp_files/9615.got.cif
#   From: 2010.05.17/outbox.cif.g08.bks.cpg/sg55_5_cif.got.tgz:9615.got - 2010.06.03 13:27:54.
