data_PCOD9425740
_publ_section_title
;
Structure prediction by ZEFSAII (Michael W. Deem and Ramdas Pophale) SiO2 
 PCOD9425740
Probable space group: P B A M
;
_chemical_formula_sum "Si O2"
_cell_formula_units_Z 56
_cell_length_a 22.249746
_cell_length_b 15.021265
_cell_length_c 8.915890
_cell_angle_alpha 90.000000
_cell_angle_beta 90.000000
_cell_angle_gamma 90.000000
_cell_volume 2979.862790
_symmetry_space_group_name_H-M "P B A M"
_symmetry_group_IT_number 55
_symmetry_cell_setting 'orthorhombic'
loop_
_space_group_symop_operation_xyz
x,y,z
-x,-y,z
1/2+x,1/2-y,-z
1/2-x,1/2+y,-z
-x,-y,-z
x,y,-z
1/2-x,1/2+y,z
1/2+x,1/2-y,z
loop_
_atom_site_type_symbol
_atom_site_label
_atom_site_fract_x
_atom_site_fract_y
_atom_site_fract_z
Si Si1 0.376627 0.295786 0.823339
Si Si2 0.027778 0.635906 0.174304
Si Si3 0.650227 0.347869 0.821162
Si Si4 0.719260 0.829063 0.677876
Si Si5 0.069119 0.984618 0.816963
Si Si6 0.875845 0.482911 0.677809
Si Si7 0.596608 0.175026 0.323879
O O1 0.429635 0.222722 0.810294
O O2 0.319164 0.254180 0.740343
O O3 0.402168 0.390481 0.768797
O O4 0.361990 0.304079 0.000000
O O5 0.068515 0.553537 0.226332
O O6 0.970840 0.648326 0.279805
O O7 0.010073 0.627599 0.000000
O O8 0.716263 0.341417 0.751805
O O9 0.611828 0.433800 0.770848
O O10 0.615670 0.259234 0.771899
O O11 0.654886 0.352039 0.000000
O O12 0.725868 0.819376 0.500000
O O13 0.679393 0.917250 0.708630
O O14 0.067591 0.982756 0.000000
O O15 0.000000 0.000000 0.767837
O O16 0.890483 0.475144 0.500000
O O17 0.864487 0.586427 0.708579
O O18 0.601428 0.195557 0.500000
#
# Coordination Sequence:
#
# PCOD9425740 Si02
#       7
#     8   8   8   8   8   8   8
#     4   9  18  35  59  84 111 145 184 224 270 328
#     4  10  19  32  55  86 115 142 177 222 268 319
#     4  11  23  38  57  81 108 140 183 232 278 327
#     4  10  21  39  58  78 108 143 182 226 275 329
#     4   9  18  35  59  85 113 145 182 229 285 336
#     4   9  20  37  56  78 108 147 183 218 266 325
#     4  11  22  36  54  78 111 148 181 217 268 323
#
# _framework density 18.792812000000001
#
# number of rings (size 3 to 8) (size 9 to 14) (size 15 to 20)
#    0.000    2.143    0.000    3.000    0.000    7.429 
#    0.000    4.286    0.000    3.000    0.000    0.000 
#    0.000    0.000    0.000    0.000    0.000    0.000 
#
# Total GULP energy -312676.623600 kJ/mol
# GULP energy per Si atom -5583.511136 kJ/mol
# Density = 1.875004 g / cm^3
# Si number density = 18.792812 Si / 1000 Ang^3
#
#
#
# Elastic Constant Matrix: (Units=GPa)
#
#
# Indices 1 2 3 4 5 6 
#
# 1 97.1445 45.8328 28.6353 0.0000 0.0000 0.0000
# 2 45.8328 130.3628 28.2693 0.0000 0.0000 0.0000
# 3 28.6353 28.2693 25.9293 0.0000 0.0000 0.0000
# 4 0.0000 0.0000 0.0000 21.1671 0.0000 0.0000
# 5 0.0000 0.0000 0.0000 0.0000 28.0863 0.0000
# 6 0.0000 0.0000 0.0000 0.0000 0.0000 15.6365
#
#
#
# Elastic Compliance Matrix: (Units=1/GPa)
#
#
# Indices 1 2 3 4 5 6 
#
# 1 0.015779 -0.002316 -0.014900 0.000000 0.000000 0.000000
# 2 -0.002316 0.010386 -0.008765 0.000000 0.000000 0.000000
# 3 -0.014900 -0.008765 0.064578 0.000000 0.000000 0.000000
# 4 0.000000 0.000000 0.000000 0.047243 0.000000 0.000000
# 5 0.000000 0.000000 0.000000 0.000000 0.035605 0.000000
# 6 0.000000 0.000000 0.000000 0.000000 0.000000 0.063953
#
#
# Mechanical properties :
#
#
# Convention : Reuss Voigt Hill
#
# Bulk Modulus (GPa) = 25.78698 50.99015 38.38857
# Shear Modulus (GPa) = 16.53256 23.02459 19.77857
#
# Velocity S-wave (km/s) = 2.96924 3.50406 3.24767
# Velocity P-wave (km/s) = 5.05041 6.60022 5.87663
#
# Compressibility (1/GPa) = 0.03877926
#
# Stress axis : x y z
#
# Youngs Moduli (GPa) = 63.37547 96.28307 15.48518
#
# Poissons Ratio (x) = 0.22303 0.23073
# Poissons Ratio (y) = 0.14681 0.13573
# Poissons Ratio (z) = 0.94431 0.84394
#
# Static dielectric constant tensor:
#      x y z
#    x 1.653490 0.000000 0.000000 
#    y 0.000000 1.659180 0.000000 
#    z 0.000000 0.000000 1.624780 
# 
# From -- ./inp_files/6191.got.cif
#   From: 2010.05.17/outbox.cif.g08.bks.cpg/sg55_4_cif.got.tgz:6191.got - 2010.06.03 13:27:54.
