data_PCOD9425531
_publ_section_title
;
Structure prediction by ZEFSAII (Michael W. Deem and Ramdas Pophale) SiO2 
 PCOD9425531
Probable space group: P B A M
;
_chemical_formula_sum "Si O2"
_cell_formula_units_Z 64
_cell_length_a 22.646283
_cell_length_b 16.306239
_cell_length_c 9.045255
_cell_angle_alpha 90.000000
_cell_angle_beta 90.000000
_cell_angle_gamma 90.000000
_cell_volume 3340.192899
_symmetry_space_group_name_H-M "P B A M"
_symmetry_group_IT_number 55
_symmetry_cell_setting 'orthorhombic'
loop_
_space_group_symop_operation_xyz
x,y,z
-x,-y,z
1/2+x,1/2-y,-z
1/2-x,1/2+y,-z
-x,-y,-z
x,y,-z
1/2-x,1/2+y,z
1/2+x,1/2-y,z
loop_
_atom_site_type_symbol
_atom_site_label
_atom_site_fract_x
_atom_site_fract_y
_atom_site_fract_z
Si Si1 0.831766 0.249799 0.322832
Si Si2 0.287877 0.429996 0.673191
Si Si3 0.505453 0.409937 0.669099
Si Si4 0.644713 0.404106 0.336852
Si Si5 0.463571 0.233869 0.319310
Si Si6 0.957900 0.577660 0.321406
Si Si7 0.830885 0.597172 0.177163
Si Si8 0.215097 0.222702 0.171709
O O1 0.830592 0.253820 0.500000
O O2 0.819281 0.154755 0.279625
O O3 0.895748 0.281662 0.275104
O O4 0.775590 0.295084 0.256897
O O5 0.271720 0.420776 0.500000
O O6 0.334246 0.503210 0.684597
O O7 0.227852 0.447780 0.762370
O O8 0.500000 0.500000 0.740454
O O9 0.480458 0.417641 0.500000
O O10 0.575002 0.395905 0.659759
O O11 0.478820 0.326195 0.732839
O O12 0.667285 0.377081 0.500000
O O13 0.670660 0.348908 0.209353
O O14 0.466123 0.235802 0.500000
O O15 0.508510 0.161865 0.274628
O O16 0.951157 0.579392 0.500000
O O17 0.893107 0.572414 0.249169
O O18 0.000000 0.500000 0.285704
O O19 0.815387 0.691789 0.219122
O O20 0.834617 0.590564 0.000000
O O21 0.228399 0.230334 0.000000
#
# Coordination Sequence:
#
# PCOD9425531 Si02
#       8
#     8   8   8   8   8   8   8   8
#     4   9  17  32  53  75 100 132 173 216 259 308
#     4   9  18  32  52  77 103 132 168 214 262 309
#     4   9  16  27  48  79 109 133 163 207 255 305
#     4  10  19  31  51  79 106 133 168 208 256 313
#     4   9  17  30  50  75 104 137 169 207 257 307
#     4  10  21  36  54  77 105 137 174 217 263 313
#     4  10  21  37  55  74 100 137 178 217 261 310
#     4  10  21  35  51  74 104 137 173 214 258 306
#
# _framework density 19.160568999999999
#
# number of rings (size 3 to 8) (size 9 to 14) (size 15 to 20)
#    0.000    2.500    0.000    2.250    0.000    7.250 
#    0.000    3.125    0.000    1.125    0.000    0.000 
#    0.000    0.000    0.000    0.000    0.000    0.000 
#
# Total GULP energy -356726.470007 kJ/mol
# GULP energy per Si atom -5573.851094 kJ/mol
# Density = 1.911696 g / cm^3
# Si number density = 19.160569 Si / 1000 Ang^3
#
#
#
# Elastic Constant Matrix: (Units=GPa)
#
#
# Indices 1 2 3 4 5 6 
#
# 1 77.5154 -11.6890 13.7550 0.0000 0.0000 0.0000
# 2 -11.6890 28.2296 -0.8728 0.0000 0.0000 0.0000
# 3 13.7550 -0.8728 6.4412 0.0000 0.0000 0.0000
# 4 0.0000 0.0000 0.0000 14.6310 0.0000 0.0000
# 5 0.0000 0.0000 0.0000 0.0000 -1.6528 0.0000
# 6 0.0000 0.0000 0.0000 0.0000 0.0000 25.4817
#
#
#
# Elastic Compliance Matrix: (Units=1/GPa)
#
#
# Indices 1 2 3 4 5 6 
#
# 1 0.022367 0.007817 -0.046705 0.000000 0.000000 0.000000
# 2 0.007817 0.038305 -0.011503 0.000000 0.000000 0.000000
# 3 -0.046705 -0.011503 0.253428 0.000000 0.000000 0.000000
# 4 0.000000 0.000000 0.000000 0.068348 0.000000 0.000000
# 5 0.000000 0.000000 0.000000 0.000000 -0.605028 0.000000
# 6 0.000000 0.000000 0.000000 0.000000 0.000000 0.039244
#
#
# Mechanical properties :
#
#
# Convention : Reuss Voigt Hill
#
# Bulk Modulus (GPa) = 4.68782 12.73027 8.70904
# Shear Modulus (GPa) = -436.75628 15.09151 -210.83238
#
# Velocity S-wave (km/s) = -15.11424 2.80953 -10.50111
# Velocity P-wave (km/s) = 17.38203 4.14524 11.93633
#
# Compressibility (1/GPa) = 0.21331893
#
# Stress axis : x y z
#
# Youngs Moduli (GPa) = 44.70826 26.10614 3.94590
#
# Poissons Ratio (x) = -0.20408 0.18429
# Poissons Ratio (y) = -0.34951 0.04539
# Poissons Ratio (z) = 2.08810 0.30030
#
# Static dielectric constant tensor:
#      x y z
#    x 1.651000 0.000000 0.000000 
#    y 0.000000 1.704410 0.000000 
#    z 0.000000 0.000000 1.663310 
# 
# From -- ./inp_files/8051.got.cif
#   From: 2010.05.17/outbox.cif.g08.bks.cpg/sg55_5_cif.got.tgz:8051.got - 2010.06.03 13:27:54.
