data_PCOD9425611
_publ_section_title
;
Structure prediction by ZEFSAII (Michael W. Deem and Ramdas Pophale) SiO2 
 PCOD9425611
Probable space group: P B A M
;
_chemical_formula_sum "Si O2"
_cell_formula_units_Z 64
_cell_length_a 14.072358
_cell_length_b 26.139636
_cell_length_c 9.167901
_cell_angle_alpha 90.000000
_cell_angle_beta 90.000000
_cell_angle_gamma 90.000000
_cell_volume 3372.378606
_symmetry_space_group_name_H-M "P B A M"
_symmetry_group_IT_number 55
_symmetry_cell_setting 'orthorhombic'
loop_
_space_group_symop_operation_xyz
x,y,z
-x,-y,z
1/2+x,1/2-y,-z
1/2-x,1/2+y,-z
-x,-y,-z
x,y,-z
1/2-x,1/2+y,z
1/2+x,1/2-y,z
loop_
_atom_site_type_symbol
_atom_site_label
_atom_site_fract_x
_atom_site_fract_y
_atom_site_fract_z
Si Si1 0.630406 0.092554 0.827757
Si Si2 0.773827 0.011609 0.827232
Si Si3 0.281886 0.190669 0.332579
Si Si4 0.976300 0.335419 0.825951
Si Si5 0.345856 0.588084 0.669699
Si Si6 0.377161 0.747142 0.168970
Si Si7 0.507758 0.646054 0.170103
Si Si8 0.184770 0.887378 0.673997
O O1 0.666119 0.034066 0.810138
O O2 0.524372 0.109752 0.790065
O O3 0.709099 0.122896 0.733532
O O4 0.644092 0.104772 0.000000
O O5 0.833327 0.056369 0.746158
O O6 0.794436 0.958483 0.750485
O O7 0.794452 0.009596 0.000000
O O8 0.299773 0.203611 0.500000
O O9 0.380037 0.179469 0.252239
O O10 0.220743 0.138244 0.325451
O O11 0.216117 0.233841 0.259982
O O12 0.058911 0.295086 0.787572
O O13 0.960178 0.332906 0.000000
O O14 0.364643 0.576092 0.500000
O O15 0.441957 0.603342 0.753740
O O16 0.447699 0.698285 0.178292
O O17 0.349465 0.753542 0.000000
O O18 0.605983 0.649201 0.257333
O O19 0.525087 0.634484 0.000000
O O20 0.181205 0.888685 0.500000
#
# Coordination Sequence:
#
# PCOD9425611 Si02
#       8
#     8   8   8   8   8   8   8   8
#     4   8  18  35  53  76 106 137 177 225 266 311
#     4   9  18  34  54  78 107 142 182 226 272 317
#     4  10  22  38  56  83 115 144 176 219 273 326
#     4  10  20  38  62  83 107 143 185 226 267 319
#     4  10  20  35  54  77 109 145 181 224 272 325
#     4   9  20  37  58  81 106 141 184 225 267 315
#     4  10  19  33  52  77 108 143 183 228 271 320
#     4  10  19  32  51  76 108 143 178 218 268 325
#
# _framework density 18.977702000000001
#
# number of rings (size 3 to 8) (size 9 to 14) (size 15 to 20)
#    0.750    1.750    0.000    2.250    0.000    4.500 
#    0.000    8.125    0.000    3.750    0.000    0.000 
#    0.000    0.000    0.000    0.000    0.000    0.000 
#
# Total GULP energy -356584.313032 kJ/mol
# GULP energy per Si atom -5571.629891 kJ/mol
# Density = 1.893451 g / cm^3
# Si number density = 18.977702 Si / 1000 Ang^3
#
#
#
# Elastic Constant Matrix: (Units=GPa)
#
#
# Indices 1 2 3 4 5 6 
#
# 1 52.6875 -12.5409 28.6085 0.0000 0.0000 0.0000
# 2 -12.5409 10.5668 6.1065 0.0000 0.0000 0.0000
# 3 28.6085 6.1065 92.1710 0.0000 0.0000 0.0000
# 4 0.0000 0.0000 0.0000 18.2046 0.0000 0.0000
# 5 0.0000 0.0000 0.0000 0.0000 19.2762 0.0000
# 6 0.0000 0.0000 0.0000 0.0000 0.0000 6.3111
#
#
#
# Elastic Compliance Matrix: (Units=1/GPa)
#
#
# Indices 1 2 3 4 5 6 
#
# 1 0.042918 0.060969 -0.017360 0.000000 0.000000 0.000000
# 2 0.060969 0.185014 -0.031181 0.000000 0.000000 0.000000
# 3 -0.017360 -0.031181 0.018304 0.000000 0.000000 0.000000
# 4 0.000000 0.000000 0.000000 0.054931 0.000000 0.000000
# 5 0.000000 0.000000 0.000000 0.000000 0.051877 0.000000
# 6 0.000000 0.000000 0.000000 0.000000 0.000000 0.158452
#
#
# Mechanical properties :
#
#
# Convention : Reuss Voigt Hill
#
# Bulk Modulus (GPa) = 3.68882 22.19705 12.94293
# Shear Modulus (GPa) = 8.66543 17.64180 13.15362
#
# Velocity S-wave (km/s) = 2.13916 3.05225 2.63555
# Velocity P-wave (km/s) = 2.83714 4.91360 4.01203
#
# Compressibility (1/GPa) = 0.27108929
#
# Stress axis : x y z
#
# Youngs Moduli (GPa) = 23.30013 5.40501 54.63405
#
# Poissons Ratio (x) = -0.32954 0.94847
# Poissons Ratio (y) = -1.42057 1.70355
# Poissons Ratio (z) = 0.40450 0.16853
#
# Static dielectric constant tensor:
#      x y z
#    x 1.655570 0.000000 0.000000 
#    y 0.000000 1.690970 0.000000 
#    z 0.000000 0.000000 1.632900 
# 
# From -- ./inp_files/6632.got.cif
#   From: 2010.05.17/outbox.cif.g08.bks.cpg/sg55_4_cif.got.tgz:6632.got - 2010.06.03 13:27:54.
