data_PCOD9425744
_publ_section_title
;
Structure prediction by ZEFSAII (Michael W. Deem and Ramdas Pophale) SiO2 
 PCOD9425744
Probable space group: P B A M
;
_chemical_formula_sum "Si O2"
_cell_formula_units_Z 64
_cell_length_a 24.860080
_cell_length_b 14.903785
_cell_length_c 7.754390
_cell_angle_alpha 90.000000
_cell_angle_beta 90.000000
_cell_angle_gamma 90.000000
_cell_volume 2873.073513
_symmetry_space_group_name_H-M "P B A M"
_symmetry_group_IT_number 55
_symmetry_cell_setting 'orthorhombic'
loop_
_space_group_symop_operation_xyz
x,y,z
-x,-y,z
1/2+x,1/2-y,-z
1/2-x,1/2+y,-z
-x,-y,-z
x,y,-z
1/2-x,1/2+y,z
1/2+x,1/2-y,z
loop_
_atom_site_type_symbol
_atom_site_label
_atom_site_fract_x
_atom_site_fract_y
_atom_site_fract_z
Si Si1 0.440571 0.970364 0.708049
Si Si2 0.191228 0.296966 0.304297
Si Si3 0.439764 0.470069 0.289130
Si Si4 0.390303 0.647339 0.290488
Si Si5 0.477510 0.784366 0.708484
Si Si6 0.323091 0.003113 0.199357
Si Si7 0.206999 0.692006 0.797263
Si Si8 0.591456 0.731862 0.290328
O O1 0.438845 0.978087 0.500000
O O2 0.440204 0.866402 0.763370
O O3 0.387025 0.016442 0.773476
O O4 0.500000 0.000000 0.762833
O O5 0.171452 0.303334 0.500000
O O6 0.154076 0.217747 0.223491
O O7 0.189701 0.400421 0.246783
O O8 0.250875 0.257275 0.293387
O O9 0.500000 0.500000 0.234683
O O10 0.441215 0.469646 0.500000
O O11 0.396417 0.545098 0.231926
O O12 0.421767 0.370518 0.238516
O O13 0.384806 0.643219 0.500000
O O14 0.447664 0.692966 0.249645
O O15 0.479685 0.789710 0.500000
O O16 0.538828 0.787806 0.767079
O O17 0.293398 0.090131 0.277710
O O18 0.311134 0.009905 0.000000
O O19 0.146998 0.730622 0.778906
O O20 0.221213 0.691575 0.000000
O O21 0.594049 0.735506 0.500000
#
# Coordination Sequence:
#
# PCOD9425744 Si02
#       8
#     8   8   8   8   8   8   8   8
#     4  10  19  32  55  87 121 158 202 254 306 357
#     4  11  23  41  67  91 116 153 207 262 302 354
#     4   9  15  26  50  87 126 156 186 234 296 357
#     4   9  16  29  52  85 120 149 183 239 300 348
#     4   9  15  27  50  83 120 151 186 241 303 354
#     4  11  24  42  63  87 121 162 200 246 308 377
#     4  11  26  45  61  83 122 164 201 246 307 367
#     4  10  19  33  59  91 120 157 204 249 299 358
#
# _framework density 22.275797000000001
#
# number of rings (size 3 to 8) (size 9 to 14) (size 15 to 20)
#    0.000    2.000    2.500    1.875    0.000    4.250 
#    0.000    1.875    0.000    1.125    0.000    0.000 
#    0.000    0.000    0.000    0.000    0.000    0.000 
#
# Total GULP energy -357074.288144 kJ/mol
# GULP energy per Si atom -5579.285752 kJ/mol
# Density = 2.222510 g / cm^3
# Si number density = 22.275797 Si / 1000 Ang^3
#
#
#
# Elastic Constant Matrix: (Units=GPa)
#
#
# Indices 1 2 3 4 5 6 
#
# 1 81.2118 32.9449 -8.6863 0.0000 0.0000 0.0000
# 2 32.9449 125.2840 8.8170 0.0000 0.0000 0.0000
# 3 -8.6863 8.8170 31.0580 0.0000 0.0000 0.0000
# 4 0.0000 0.0000 0.0000 11.5670 0.0000 0.0000
# 5 0.0000 0.0000 0.0000 0.0000 18.8048 0.0000
# 6 0.0000 0.0000 0.0000 0.0000 0.0000 34.0527
#
#
#
# Elastic Compliance Matrix: (Units=1/GPa)
#
#
# Indices 1 2 3 4 5 6 
#
# 1 0.014584 -0.004206 0.005273 0.000000 0.000000 0.000000
# 2 -0.004206 0.009358 -0.003833 0.000000 0.000000 0.000000
# 3 0.005273 -0.003833 0.034761 0.000000 0.000000 0.000000
# 4 0.000000 0.000000 0.000000 0.086453 0.000000 0.000000
# 5 0.000000 0.000000 0.000000 0.000000 0.053178 0.000000
# 6 0.000000 0.000000 0.000000 0.000000 0.000000 0.029366
#
#
# Mechanical properties :
#
#
# Convention : Reuss Voigt Hill
#
# Bulk Modulus (GPa) = 18.80768 33.74498 26.27633
# Shear Modulus (GPa) = 19.92395 26.51678 23.22037
#
# Velocity S-wave (km/s) = 2.99393 3.45394 3.23213
# Velocity P-wave (km/s) = 4.51807 5.57565 5.07449
#
# Compressibility (1/GPa) = 0.05316978
#
# Stress axis : x y z
#
# Youngs Moduli (GPa) = 68.56973 106.86468 28.76819
#
# Poissons Ratio (x) = 0.44948 -0.15169
# Poissons Ratio (y) = 0.28841 0.11026
# Poissons Ratio (z) = -0.36155 0.40960
#
# Static dielectric constant tensor:
#      x y z
#    x 1.806020 0.000000 0.000000 
#    y 0.000000 1.901180 0.000000 
#    z 0.000000 0.000000 1.846710 
# 
# From -- ./inp_files/9722.got.cif
#   From: 2010.05.17/outbox.cif.g08.bks.cpg/sg55_5_cif.got.tgz:9722.got - 2010.06.03 13:27:54.
