data_PCOD9425544
_publ_section_title
;
Structure prediction by ZEFSAII (Michael W. Deem and Ramdas Pophale) SiO2 
 PCOD9425544
Probable space group: P B A M
;
_chemical_formula_sum "Si O2"
_cell_formula_units_Z 56
_cell_length_a 15.054350
_cell_length_b 21.539989
_cell_length_c 8.543733
_cell_angle_alpha 90.000000
_cell_angle_beta 90.000000
_cell_angle_gamma 90.000000
_cell_volume 2770.480857
_symmetry_space_group_name_H-M "P B A M"
_symmetry_group_IT_number 55
_symmetry_cell_setting 'orthorhombic'
loop_
_space_group_symop_operation_xyz
x,y,z
-x,-y,z
1/2+x,1/2-y,-z
1/2-x,1/2+y,-z
-x,-y,-z
x,y,-z
1/2-x,1/2+y,z
1/2+x,1/2-y,z
loop_
_atom_site_type_symbol
_atom_site_label
_atom_site_fract_x
_atom_site_fract_y
_atom_site_fract_z
Si Si1 0.950250 0.631938 0.317951
Si Si2 0.244425 0.392192 0.311979
Si Si3 0.923346 0.455433 0.185627
Si Si4 0.224216 0.021390 0.810173
Si Si5 0.304708 0.258007 0.812206
Si Si6 0.840969 0.845194 0.811699
Si Si7 0.501528 0.268847 0.318469
O O1 0.964015 0.615445 0.500000
O O2 0.858870 0.601882 0.259057
O O3 0.941658 0.705594 0.309544
O O4 0.035569 0.611238 0.221164
O O5 0.245238 0.390181 0.500000
O O6 0.297230 0.452807 0.253523
O O7 0.275066 0.325998 0.247225
O O8 0.825084 0.464946 0.245933
O O9 0.000000 0.500000 0.252981
O O10 0.918818 0.465322 0.000000
O O11 0.172057 0.083321 0.760402
O O12 0.221779 0.018373 0.000000
O O13 0.237890 0.202448 0.757267
O O14 0.406355 0.253835 0.755862
O O15 0.302205 0.257243 0.000000
O O16 0.936882 0.819998 0.761425
O O17 0.835551 0.845058 0.000000
O O18 0.487229 0.284725 0.500000
#
# Coordination Sequence:
#
# PCOD9425544 Si02
#       7
#     8   8   8   8   8   8   8
#     4  10  21  35  54  82 118 156 193 239 296 359
#     4  11  22  38  59  87 122 160 201 244 297 362
#     4  10  19  31  52  81 115 153 194 240 292 354
#     4  10  21  38  57  85 122 160 201 250 304 357
#     4  11  23  41  66  93 121 160 207 254 305 361
#     4  10  22  40  63  90 123 160 204 254 303 363
#     4  11  23  40  62  89 122 157 200 254 307 362
#
# _framework density 20.213097999999999
#
# number of rings (size 3 to 8) (size 9 to 14) (size 15 to 20)
#    0.000    1.571    2.857    2.143    0.000    4.857 
#    0.000    0.714    0.000    4.286    0.000    0.000 
#    0.000    0.000    0.000    0.000    0.000    0.000 
#
# Total GULP energy -312413.400508 kJ/mol
# GULP energy per Si atom -5578.810723 kJ/mol
# Density = 2.016709 g / cm^3
# Si number density = 20.213098 Si / 1000 Ang^3
#
#
#
# Elastic Constant Matrix: (Units=GPa)
#
#
# Indices 1 2 3 4 5 6 
#
# 1 45.8861 10.7781 3.0506 0.0000 0.0000 0.0000
# 2 10.7781 89.8303 18.8582 0.0000 0.0000 0.0000
# 3 3.0506 18.8582 19.3411 0.0000 0.0000 0.0000
# 4 0.0000 0.0000 0.0000 19.7772 0.0000 0.0000
# 5 0.0000 0.0000 0.0000 0.0000 18.4868 0.0000
# 6 0.0000 0.0000 0.0000 0.0000 0.0000 28.8775
#
#
#
# Elastic Compliance Matrix: (Units=1/GPa)
#
#
# Indices 1 2 3 4 5 6 
#
# 1 0.022445 -0.002452 -0.001150 0.000000 0.000000 0.000000
# 2 -0.002452 0.014265 -0.013522 0.000000 0.000000 0.000000
# 3 -0.001150 -0.013522 0.065069 0.000000 0.000000 0.000000
# 4 0.000000 0.000000 0.000000 0.050563 0.000000 0.000000
# 5 0.000000 0.000000 0.000000 0.000000 0.054093 0.000000
# 6 0.000000 0.000000 0.000000 0.000000 0.000000 0.034629
#
#
# Mechanical properties :
#
#
# Convention : Reuss Voigt Hill
#
# Bulk Modulus (GPa) = 14.80770 24.49236 19.65003
# Shear Modulus (GPa) = 16.78854 21.58635 19.18745
#
# Velocity S-wave (km/s) = 2.88510 3.27148 3.08435
# Velocity P-wave (km/s) = 4.29419 5.13940 4.73569
#
# Compressibility (1/GPa) = 0.06753244
#
# Stress axis : x y z
#
# Youngs Moduli (GPa) = 44.55255 70.10176 15.36829
#
# Poissons Ratio (x) = 0.17187 0.01767
# Poissons Ratio (y) = 0.10923 0.20781
# Poissons Ratio (z) = 0.05122 0.94792
#
# Static dielectric constant tensor:
#      x y z
#    x 1.728830 0.000000 0.000000 
#    y 0.000000 1.797560 0.000000 
#    z 0.000000 0.000000 1.698820 
# 
# From -- ./inp_files/6035.got.cif
#   From: 2010.05.17/outbox.cif.g08.bks.cpg/sg55_4_cif.got.tgz:6035.got - 2010.06.03 13:27:54.
