data_PCOD9425682
_publ_section_title
;
Structure prediction by ZEFSAII (Michael W. Deem and Ramdas Pophale) SiO2 
 PCOD9425682
Probable space group: P B A M
;
_chemical_formula_sum "Si O2"
_cell_formula_units_Z 56
_cell_length_a 5.227749
_cell_length_b 14.114126
_cell_length_c 35.770761
_cell_angle_alpha 90.000000
_cell_angle_beta 90.000000
_cell_angle_gamma 90.000000
_cell_volume 2639.349467
_symmetry_space_group_name_H-M "P B A M"
_symmetry_group_IT_number 55
_symmetry_cell_setting 'orthorhombic'
loop_
_space_group_symop_operation_xyz
x,y,z
-x,-y,z
1/2+x,1/2-y,-z
1/2-x,1/2+y,-z
-x,-y,-z
x,y,-z
1/2-x,1/2+y,z
1/2+x,1/2-y,z
loop_
_atom_site_type_symbol
_atom_site_label
_atom_site_fract_x
_atom_site_fract_y
_atom_site_fract_z
Si Si1 0.386806 0.815173 0.727879
Si Si2 0.583469 0.314385 0.541989
Si Si3 0.222222 0.392449 0.649474
Si Si4 0.737586 0.186398 0.806875
Si Si5 0.646507 0.189589 0.113234
Si Si6 0.749642 0.565161 0.041123
Si Si7 0.720787 0.394524 0.382003
O O1 0.664778 0.765806 0.726267
O O2 0.353858 0.882484 0.692357
O O3 0.330271 0.864224 0.767956
O O4 0.603990 0.354931 0.500000
O O5 0.307799 0.264445 0.545371
O O6 0.633070 0.387269 0.575396
O O7 0.250681 0.499513 0.634239
O O8 0.499815 0.348601 0.643010
O O9 0.998119 0.350280 0.624026
O O10 0.525616 0.271985 0.806462
O O11 0.694872 0.137808 0.846969
O O12 0.353602 0.224693 0.113261
O O13 0.714552 0.132621 0.076261
O O14 0.500000 0.500000 0.045678
O O15 0.000000 0.500000 0.040266
O O16 0.728620 0.612914 0.000000
#
# Coordination Sequence:
#
# PCOD9425682 Si02
#       7
#     8   8   8   8   8   8   8
#     4  10  19  32  53  79 104 136 177 215 257 310
#     4  10  21  37  58  82 106 132 168 215 258 303
#     4  10  21  35  52  75 107 141 170 207 255 306
#     4   8  16  30  49  75 103 132 169 217 270 311
#     4  10  19  33  56  81 106 140 184 236 277 329
#     4  10  21  36  53  75 112 151 182 227 283 340
#     4  10  21  37  53  75 108 140 168 209 254 311
#
# _framework density 21.217351000000001
#
# number of rings (size 3 to 8) (size 9 to 14) (size 15 to 20)
#    0.000    2.286    0.000    2.571    0.000    4.000 
#    0.000    2.857    6.286    0.000    0.000    0.000 
#    0.000    0.000    0.000    0.000    0.000    0.000 
#
# Total GULP energy -312206.918597 kJ/mol
# GULP energy per Si atom -5575.123546 kJ/mol
# Density = 2.116906 g / cm^3
# Si number density = 21.217351 Si / 1000 Ang^3
#
#
#
# Elastic Constant Matrix: (Units=GPa)
#
#
# Indices 1 2 3 4 5 6 
#
# 1 131.8675 -11.3396 -16.2266 0.0000 0.0000 0.0000
# 2 -11.3396 37.8883 22.7634 0.0000 0.0000 0.0000
# 3 -16.2266 22.7634 184.1020 0.0000 0.0000 0.0000
# 4 0.0000 0.0000 0.0000 -42.9617 0.0000 0.0000
# 5 0.0000 0.0000 0.0000 0.0000 32.8819 0.0000
# 6 0.0000 0.0000 0.0000 0.0000 0.0000 9.0377
#
#
#
# Elastic Compliance Matrix: (Units=1/GPa)
#
#
# Indices 1 2 3 4 5 6 
#
# 1 0.007815 0.002080 0.000432 0.000000 0.000000 0.000000
# 2 0.002080 0.029065 -0.003410 0.000000 0.000000 0.000000
# 3 0.000432 -0.003410 0.005892 0.000000 0.000000 0.000000
# 4 0.000000 0.000000 0.000000 -0.023277 0.000000 0.000000
# 5 0.000000 0.000000 0.000000 0.000000 0.030412 0.000000
# 6 0.000000 0.000000 0.000000 0.000000 0.000000 0.110648
#
#
# Mechanical properties :
#
#
# Convention : Reuss Voigt Hill
#
# Bulk Modulus (GPa) = 24.40598 38.25023 31.32810
# Shear Modulus (GPa) = 28.40732 23.70229 26.05481
#
# Velocity S-wave (km/s) = 3.66303 3.34596 3.50808
# Velocity P-wave (km/s) = 5.42385 5.74406 5.58625
#
# Compressibility (1/GPa) = 0.04097357
#
# Stress axis : x y z
#
# Youngs Moduli (GPa) = 127.95368 34.40586 169.73595
#
# Poissons Ratio (x) = -0.07155 -0.07327
# Poissons Ratio (y) = -0.26610 0.57887
# Poissons Ratio (z) = -0.05524 0.11734
#
# Static dielectric constant tensor:
#      x y z
#    x 1.841090 0.000000 0.000000 
#    y 0.000000 1.690230 0.000000 
#    z 0.000000 0.000000 1.820820 
# 
# From -- ./inp_files/24065.got.cif
#   From: 2010.05.17/outbox.cif.g08.bks.cpg/sg55_13_cif.got.tgz:24065.got - 2010.06.03 13:27:54.
