data_PCOD9425872
_publ_section_title
;
Structure prediction by ZEFSAII (Michael W. Deem and Ramdas Pophale) SiO2 
 PCOD9425872
Probable space group: P B A M
;
_chemical_formula_sum "Si O2"
_cell_formula_units_Z 64
_cell_length_a 24.958950
_cell_length_b 15.172964
_cell_length_c 8.167732
_cell_angle_alpha 90.000000
_cell_angle_beta 90.000000
_cell_angle_gamma 90.000000
_cell_volume 3093.130317
_symmetry_space_group_name_H-M "P B A M"
_symmetry_group_IT_number 55
_symmetry_cell_setting 'orthorhombic'
loop_
_space_group_symop_operation_xyz
x,y,z
-x,-y,z
1/2+x,1/2-y,-z
1/2-x,1/2+y,-z
-x,-y,-z
x,y,-z
1/2-x,1/2+y,z
1/2+x,1/2-y,z
loop_
_atom_site_type_symbol
_atom_site_label
_atom_site_fract_x
_atom_site_fract_y
_atom_site_fract_z
Si Si1 0.294017 0.823733 0.809684
Si Si2 0.403422 0.750476 0.693316
Si Si3 0.670129 0.995484 0.801681
Si Si4 0.860281 0.943449 0.308889
Si Si5 0.554428 0.951947 0.697613
Si Si6 0.248580 0.143567 0.196470
Si Si7 0.547426 0.564802 0.193980
Si Si8 0.975562 0.262362 0.302914
O O1 0.355844 0.793452 0.795029
O O2 0.261609 0.741719 0.734698
O O3 0.295156 0.921527 0.738537
O O4 0.278390 0.830852 0.000000
O O5 0.396742 0.773454 0.500000
O O6 0.395914 0.645348 0.707390
O O7 0.462577 0.774556 0.748892
O O8 0.608699 0.999420 0.750103
O O9 0.698830 0.906343 0.743788
O O10 0.671855 0.997649 0.000000
O O11 0.851851 0.960499 0.500000
O O12 0.803420 0.916715 0.232097
O O13 0.895286 0.021579 0.234502
O O14 0.552920 0.952428 0.500000
O O15 0.555381 0.849733 0.754301
O O16 0.500000 0.000000 0.754224
O O17 0.251944 0.151670 0.000000
O O18 0.500000 0.500000 0.261663
O O19 0.543247 0.665370 0.252915
O O20 0.540678 0.566974 0.000000
O O21 0.975644 0.263392 0.500000
#
# Coordination Sequence:
#
# PCOD9425872 Si02
#       8
#     8   8   8   8   8   8   8   8
#     4   9  18  33  55  79 104 141 183 229 281 335
#     4   9  17  30  52  79 106 141 184 229 274 327
#     4  10  21  38  59  84 114 150 191 237 292 347
#     4  10  19  33  55  80 109 147 191 238 283 330
#     4  10  22  40  62  86 116 152 191 240 296 350
#     4   9  19  37  57  79 111 145 186 238 286 337
#     4  11  22  34  52  81 117 156 194 233 284 345
#     4  10  20  35  54  79 113 152 189 230 285 342
#
# _framework density 20.691015
#
# number of rings (size 3 to 8) (size 9 to 14) (size 15 to 20)
#    0.000    2.250    1.250    1.500    0.000    4.250 
#    2.250    0.000    0.000    0.000    0.000    0.000 
#    0.000    0.000    0.000    0.000    0.000    0.000 
#
# Total GULP energy -357038.329725 kJ/mol
# GULP energy per Si atom -5578.723902 kJ/mol
# Density = 2.064392 g / cm^3
# Si number density = 20.691015 Si / 1000 Ang^3
#
#
#
# Elastic Constant Matrix: (Units=GPa)
#
#
# Indices 1 2 3 4 5 6 
#
# 1 66.4313 35.9783 -1.8444 0.0000 0.0000 0.0000
# 2 35.9783 127.7229 16.6314 0.0000 0.0000 0.0000
# 3 -1.8444 16.6314 9.3136 0.0000 0.0000 0.0000
# 4 0.0000 0.0000 0.0000 12.0144 0.0000 0.0000
# 5 0.0000 0.0000 0.0000 0.0000 33.8881 0.0000
# 6 0.0000 0.0000 0.0000 0.0000 0.0000 28.3101
#
#
#
# Elastic Compliance Matrix: (Units=1/GPa)
#
#
# Indices 1 2 3 4 5 6 
#
# 1 0.019868 -0.007960 0.018148 0.000000 0.000000 0.000000
# 2 -0.007960 0.013391 -0.025488 0.000000 0.000000 0.000000
# 3 0.018148 -0.025488 0.156478 0.000000 0.000000 0.000000
# 4 0.000000 0.000000 0.000000 0.083234 0.000000 0.000000
# 5 0.000000 0.000000 0.000000 0.000000 0.029509 0.000000
# 6 0.000000 0.000000 0.000000 0.000000 0.000000 0.035323
#
#
# Mechanical properties :
#
#
# Convention : Reuss Voigt Hill
#
# Bulk Modulus (GPa) = 6.28387 33.88872 20.08630
# Shear Modulus (GPa) = 11.86391 25.02267 18.44329
#
# Velocity S-wave (km/s) = 2.39714 3.48134 2.98882
# Velocity P-wave (km/s) = 3.27190 5.70734 4.65183
#
# Compressibility (1/GPa) = 0.15913757
#
# Stress axis : x y z
#
# Youngs Moduli (GPa) = 50.33230 74.67947 6.39069
#
# Poissons Ratio (x) = 0.59443 -0.11598
# Poissons Ratio (y) = 0.40064 0.16289
# Poissons Ratio (z) = -0.91346 1.90343
#
# Static dielectric constant tensor:
#      x y z
#    x 1.721400 0.000000 0.000000 
#    y 0.000000 1.784510 0.000000 
#    z 0.000000 0.000000 1.729720 
# 
# From -- ./inp_files/9667.got.cif
#   From: 2010.05.17/outbox.cif.g08.bks.cpg/sg55_5_cif.got.tgz:9667.got - 2010.06.03 13:27:54.
