data_PCOD9425716
_publ_section_title
;
Structure prediction by ZEFSAII (Michael W. Deem and Ramdas Pophale) SiO2 
 PCOD9425716
Probable space group: P B A M
;
_chemical_formula_sum "Si O2"
_cell_formula_units_Z 64
_cell_length_a 17.792422
_cell_length_b 21.134254
_cell_length_c 9.257207
_cell_angle_alpha 90.000000
_cell_angle_beta 90.000000
_cell_angle_gamma 90.000000
_cell_volume 3480.983529
_symmetry_space_group_name_H-M "P B A M"
_symmetry_group_IT_number 55
_symmetry_cell_setting 'orthorhombic'
loop_
_space_group_symop_operation_xyz
x,y,z
-x,-y,z
1/2+x,1/2-y,-z
1/2-x,1/2+y,-z
-x,-y,-z
x,y,-z
1/2-x,1/2+y,z
1/2+x,1/2-y,z
loop_
_atom_site_type_symbol
_atom_site_label
_atom_site_fract_x
_atom_site_fract_y
_atom_site_fract_z
Si Si1 0.600361 0.880580 0.828962
Si Si2 0.829516 0.495101 0.328989
Si Si3 0.575487 0.742197 0.170907
Si Si4 0.841558 0.996323 0.669974
Si Si5 0.560365 0.108986 0.326969
Si Si6 0.892401 0.872358 0.169005
Si Si7 0.072090 0.896482 0.166652
Si Si8 0.416974 0.751141 0.670991
O O1 0.654693 0.930861 0.756039
O O2 0.621350 0.806604 0.805648
O O3 0.517943 0.890678 0.758577
O O4 0.596273 0.891145 0.000000
O O5 0.839367 0.483023 0.500000
O O6 0.744406 0.517408 0.306580
O O7 0.888936 0.549144 0.287222
O O8 0.608728 0.672562 0.195673
O O9 0.503073 0.747520 0.273276
O O10 0.551662 0.742537 0.000000
O O11 0.854228 0.987525 0.500000
O O12 0.853285 0.930174 0.750904
O O13 0.897313 0.048949 0.732231
O O14 0.544780 0.106522 0.500000
O O15 0.603142 0.175602 0.300131
O O16 0.876345 0.804785 0.242834
O O17 0.982454 0.885807 0.181488
O O18 0.873815 0.870724 0.000000
O O19 0.086593 0.914293 0.000000
O O20 0.412587 0.739503 0.500000
#
# Coordination Sequence:
#
# PCOD9425716 Si02
#       8
#     8   8   8   8   8   8   8   8
#     4  10  19  32  54  82 106 131 170 214 251 296
#     4  10  22  38  51  69 103 142 174 207 254 304
#     4   8  16  31  50  75 107 134 159 202 257 304
#     4  11  23  36  51  73 101 134 174 216 251 294
#     4   9  18  34  55  76 103 138 170 206 256 306
#     4  10  20  35  55  77 103 134 165 204 259 313
#     4   9  18  34  55  76 100 132 164 199 253 312
#     4   9  16  28  51  80 103 127 166 210 249 296
#
# _framework density 18.385608999999999
#
# number of rings (size 3 to 8) (size 9 to 14) (size 15 to 20)
#    0.000    2.500    0.000    3.000    0.000    8.000 
#    0.000    1.250    0.000    4.500    0.000    0.000 
#    0.000    0.000    0.000    0.000    0.000    0.000 
#
# Total GULP energy -356806.980680 kJ/mol
# GULP energy per Si atom -5575.109073 kJ/mol
# Density = 1.834376 g / cm^3
# Si number density = 18.385609 Si / 1000 Ang^3
#
#
#
# Elastic Constant Matrix: (Units=GPa)
#
#
# Indices 1 2 3 4 5 6 
#
# 1 10.8650 2.8884 11.8728 0.0000 0.0000 0.0000
# 2 2.8884 66.3586 28.9429 0.0000 0.0000 0.0000
# 3 11.8728 28.9429 50.4510 0.0000 0.0000 0.0000
# 4 0.0000 0.0000 0.0000 35.7441 0.0000 0.0000
# 5 0.0000 0.0000 0.0000 0.0000 -6.3959 0.0000
# 6 0.0000 0.0000 0.0000 0.0000 0.0000 2.0367
#
#
#
# Elastic Compliance Matrix: (Units=1/GPa)
#
#
# Indices 1 2 3 4 5 6 
#
# 1 0.128839 0.010158 -0.036147 0.000000 0.000000 0.000000
# 2 0.010158 0.020900 -0.014380 0.000000 0.000000 0.000000
# 3 -0.036147 -0.014380 0.036578 0.000000 0.000000 0.000000
# 4 0.000000 0.000000 0.000000 0.027977 0.000000 0.000000
# 5 0.000000 0.000000 0.000000 0.000000 -0.156351 0.000000
# 6 0.000000 0.000000 0.000000 0.000000 0.000000 0.490997
#
#
# Mechanical properties :
#
#
# Convention : Reuss Voigt Hill
#
# Bulk Modulus (GPa) = 9.47181 23.89809 16.68495
# Shear Modulus (GPa) = 7.52027 11.87501 9.69764
#
# Velocity S-wave (km/s) = 2.02464 2.54419 2.29914
# Velocity P-wave (km/s) = 3.26014 4.65371 4.01780
#
# Compressibility (1/GPa) = 0.10557639
#
# Stress axis : x y z
#
# Youngs Moduli (GPa) = 7.76165 47.84799 27.33920
#
# Poissons Ratio (x) = -0.48604 0.98824
# Poissons Ratio (y) = -0.07884 0.39314
# Poissons Ratio (z) = 0.28056 0.68806
#
# Static dielectric constant tensor:
#      x y z
#    x 1.619590 0.000000 0.000000 
#    y 0.000000 1.663190 0.000000 
#    z 0.000000 0.000000 1.613880 
# 
# From -- ./inp_files/7937.got.cif
#   From: 2010.05.17/outbox.cif.g08.bks.cpg/sg55_4_cif.got.tgz:7937.got - 2010.06.03 13:27:54.
