data_PCOD9425626
_publ_section_title
;
Structure prediction by ZEFSAII (Michael W. Deem and Ramdas Pophale) SiO2 
 PCOD9425626
Probable space group: P B A M
;
_chemical_formula_sum "Si O2"
_cell_formula_units_Z 56
_cell_length_a 23.312434
_cell_length_b 8.437699
_cell_length_c 14.435376
_cell_angle_alpha 90.000000
_cell_angle_beta 90.000000
_cell_angle_gamma 90.000000
_cell_volume 2839.486111
_symmetry_space_group_name_H-M "P B A M"
_symmetry_group_IT_number 55
_symmetry_cell_setting 'orthorhombic'
loop_
_space_group_symop_operation_xyz
x,y,z
-x,-y,z
1/2+x,1/2-y,-z
1/2-x,1/2+y,-z
-x,-y,-z
x,y,-z
1/2-x,1/2+y,z
1/2+x,1/2-y,z
loop_
_atom_site_type_symbol
_atom_site_label
_atom_site_fract_x
_atom_site_fract_y
_atom_site_fract_z
Si Si1 0.193427 0.756176 0.267887
Si Si2 0.372116 0.959145 0.282332
Si Si3 0.536158 0.856206 0.818408
Si Si4 0.119540 0.967420 0.394761
Si Si5 0.799378 0.731206 0.399441
Si Si6 0.626250 0.619067 0.893896
Si Si7 0.070281 0.144772 0.773524
O O1 0.177797 0.574497 0.246310
O O2 0.253986 0.775167 0.316913
O O3 0.179297 0.856472 0.176481
O O4 0.146868 0.815994 0.344256
O O5 0.430150 0.059650 0.266820
O O6 0.348895 0.898717 0.380960
O O7 0.385759 0.793573 0.231412
O O8 0.584611 0.771483 0.879451
O O9 0.491600 0.721936 0.787768
O O10 0.500000 0.000000 0.863483
O O11 0.099624 0.940433 0.500000
O O12 0.170641 0.097756 0.398823
O O13 0.075441 0.047313 0.322526
O O14 0.727999 0.204630 0.500000
O O15 0.590123 0.470703 0.855102
O O16 0.642288 0.601154 0.000000
#
# Coordination Sequence:
#
# PCOD9425626 Si02
#       7
#     8   8   8   8   8   8   8
#     4  10  19  32  52  75 108 140 176 228 279 323
#     4   9  19  34  52  78 111 143 177 224 274 323
#     4   9  18  34  56  82 114 149 182 223 276 322
#     4   9  18  31  49  76 108 142 181 220 263 323
#     4  10  19  32  54  82 109 142 183 223 268 324
#     4  10  21  36  56  82 109 143 188 231 277 334
#     4   9  18  34  54  76 108 147 183 225 274 325
#
# _framework density 19.721878
#
# number of rings (size 3 to 8) (size 9 to 14) (size 15 to 20)
#    0.000    2.571    0.000    1.714    0.000    3.714 
#    0.000    6.429    0.000   37.714    0.000    0.000 
#    0.000    0.000    0.000    0.000    0.000    0.000 
#
# Total GULP energy -311928.169474 kJ/mol
# GULP energy per Si atom -5570.145883 kJ/mol
# Density = 1.967699 g / cm^3
# Si number density = 19.721878 Si / 1000 Ang^3
#
#
#
# Elastic Constant Matrix: (Units=GPa)
#
#
# Indices 1 2 3 4 5 6 
#
# 1 52.4433 16.5662 31.7938 0.0000 0.0000 0.0000
# 2 16.5662 74.1620 22.8005 0.0000 0.0000 0.0000
# 3 31.7938 22.8005 123.8345 0.0000 0.0000 0.0000
# 4 0.0000 0.0000 0.0000 4.9339 0.0000 0.0000
# 5 0.0000 0.0000 0.0000 0.0000 10.5944 0.0000
# 6 0.0000 0.0000 0.0000 0.0000 0.0000 28.7282
#
#
#
# Elastic Compliance Matrix: (Units=1/GPa)
#
#
# Indices 1 2 3 4 5 6 
#
# 1 0.023452 -0.003591 -0.005360 0.000000 0.000000 0.000000
# 2 -0.003591 0.014843 -0.001811 0.000000 0.000000 0.000000
# 3 -0.005360 -0.001811 0.009785 0.000000 0.000000 0.000000
# 4 0.000000 0.000000 0.000000 0.202680 0.000000 0.000000
# 5 0.000000 0.000000 0.000000 0.000000 0.094389 0.000000
# 6 0.000000 0.000000 0.000000 0.000000 0.000000 0.034809
#
#
# Mechanical properties :
#
#
# Convention : Reuss Voigt Hill
#
# Bulk Modulus (GPa) = 37.65596 43.64009 40.64803
# Shear Modulus (GPa) = 12.18522 20.80325 16.49423
#
# Velocity S-wave (km/s) = 2.48836 3.25134 2.89510
# Velocity P-wave (km/s) = 5.23363 6.02252 5.64188
#
# Compressibility (1/GPa) = 0.02655622
#
# Stress axis : x y z
#
# Youngs Moduli (GPa) = 42.64027 67.37242 102.19839
#
# Poissons Ratio (x) = 0.24192 0.54779
# Poissons Ratio (y) = 0.15311 0.18508
# Poissons Ratio (z) = 0.22855 0.12201
#
# Static dielectric constant tensor:
#      x y z
#    x 1.732810 0.000000 0.000000 
#    y 0.000000 1.744370 0.000000 
#    z 0.000000 0.000000 1.678760 
# 
# From -- ./inp_files/19747.got.cif
#   From: 2010.05.17/outbox.cif.g08.bks.cpg/sg55_10_cif.got.tgz:19747.got - 2010.06.03 13:27:54.
