data_PCOD9425830
_publ_section_title
;
Structure prediction by ZEFSAII (Michael W. Deem and Ramdas Pophale) SiO2 
 PCOD9425830
Probable space group: P B A M
;
_chemical_formula_sum "Si O2"
_cell_formula_units_Z 58
_cell_length_a 27.326889
_cell_length_b 12.499054
_cell_length_c 7.408703
_cell_angle_alpha 90.000000
_cell_angle_beta 90.000000
_cell_angle_gamma 90.000000
_cell_volume 2530.518532
_symmetry_space_group_name_H-M "P B A M"
_symmetry_group_IT_number 55
_symmetry_cell_setting 'orthorhombic'
loop_
_space_group_symop_operation_xyz
x,y,z
-x,-y,z
1/2+x,1/2-y,-z
1/2-x,1/2+y,-z
-x,-y,-z
x,y,-z
1/2-x,1/2+y,z
1/2+x,1/2-y,z
loop_
_atom_site_type_symbol
_atom_site_label
_atom_site_fract_x
_atom_site_fract_y
_atom_site_fract_z
Si Si1 0.183718 0.676852 0.705501
Si Si2 0.494550 0.699425 0.280177
Si Si3 0.208826 0.137464 0.713980
Si Si4 0.715797 0.595535 0.785863
Si Si5 0.577109 0.868407 0.280203
Si Si6 0.500000 0.500000 0.000000
Si Si7 0.674937 0.136140 0.205168
Si Si8 0.933655 0.598249 0.703372
O O1 0.184386 0.636379 0.500000
O O2 0.235506 0.642570 0.788436
O O3 0.187091 0.805252 0.704556
O O4 0.132603 0.642863 0.787630
O O5 0.491049 0.679338 0.500000
O O6 0.544739 0.764949 0.241152
O O7 0.492500 0.593755 0.159491
O O8 0.454033 0.789548 0.225030
O O9 0.210495 0.157277 0.500000
O O10 0.178891 0.235050 0.793907
O O11 0.191526 0.017901 0.747659
O O12 0.772395 0.598530 0.718780
O O13 0.718145 0.612904 0.000000
O O14 0.579206 0.874229 0.500000
O O15 0.555469 0.981613 0.215570
O O16 0.625346 0.103360 0.300596
O O17 0.671554 0.097236 0.000000
O O18 0.953918 0.595748 0.500000
#
# Coordination Sequence:
#
# PCOD9425830 Si02
#       8
#     8   8   8   8   8   2   8   8
#     4   9  18  33  55  82 113 150 199 250 301 363
#     4  10  23  45  71  98 130 169 209 259 320 377
#     4  10  19  33  54  79 110 154 207 256 299 361
#     4  10  20  34  50  75 114 158 198 248 306 364
#     4   9  18  38  66  95 124 156 201 260 322 377
#     4  12  26  48  70  94 132 172 218 254 308 382
#     4  10  21  35  53  81 120 158 199 248 309 370
#     4  10  20  38  66  96 124 158 203 261 320 376
#
# _framework density 22.920203999999998
#
# number of rings (size 3 to 8) (size 9 to 14) (size 15 to 20)
#    0.000    2.207    0.000    2.690    0.966    4.966 
#    4.966    0.690    0.000    0.000    0.000    0.000 
#    0.000    0.000    0.000    0.000    0.000    0.000 
#
# Total GULP energy -323324.955138 kJ/mol
# GULP energy per Si atom -5574.568192 kJ/mol
# Density = 2.286804 g / cm^3
# Si number density = 22.920204 Si / 1000 Ang^3
#
#
#
# Elastic Constant Matrix: (Units=GPa)
#
#
# Indices 1 2 3 4 5 6 
#
# 1 64.0011 1.5324 8.0065 0.0000 0.0000 0.0000
# 2 1.5324 153.8764 12.6688 0.0000 0.0000 0.0000
# 3 8.0065 12.6688 112.5548 0.0000 0.0000 0.0000
# 4 0.0000 0.0000 0.0000 228.0831 0.0000 0.0000
# 5 0.0000 0.0000 0.0000 0.0000 -1.6910 0.0000
# 6 0.0000 0.0000 0.0000 0.0000 0.0000 11.1763
#
#
#
# Elastic Compliance Matrix: (Units=1/GPa)
#
#
# Indices 1 2 3 4 5 6 
#
# 1 0.015766 -0.000065 -0.001114 0.000000 0.000000 0.000000
# 2 -0.000065 0.006560 -0.000734 0.000000 0.000000 0.000000
# 3 -0.001114 -0.000734 0.009046 0.000000 0.000000 0.000000
# 4 0.000000 0.000000 0.000000 0.004384 0.000000 0.000000
# 5 0.000000 0.000000 0.000000 0.000000 -0.591372 0.000000
# 6 0.000000 0.000000 0.000000 0.000000 0.000000 0.089475
#
#
# Mechanical properties :
#
#
# Convention : Reuss Voigt Hill
#
# Bulk Modulus (GPa) = 36.30340 41.64973 38.97657
# Shear Modulus (GPa) = -11.03429 68.06198 28.51384
#
# Velocity S-wave (km/s) = -2.19651 5.45524 3.53093
# Velocity P-wave (km/s) = 3.07254 7.60859 5.80220
#
# Compressibility (1/GPa) = 0.02754563
#
# Stress axis : x y z
#
# Youngs Moduli (GPa) = 63.42895 152.44415 110.54119
#
# Poissons Ratio (x) = 0.00995 0.12316
# Poissons Ratio (y) = 0.00414 0.08110
# Poissons Ratio (z) = 0.07067 0.11185
#
# Static dielectric constant tensor:
#      x y z
#    x 1.859130 0.000000 0.000000 
#    y 0.000000 1.849490 0.000000 
#    z 0.000000 0.000000 1.899860 
# 
# From -- ./inp_files/10194.got.cif
#   From: 2010.05.17/outbox.cif.g08.bks.cpg/sg55_6_cif.got.tgz:10194.got - 2010.06.03 13:27:54.
