data_PCOD9425185
_publ_section_title
;
Structure prediction by ZEFSAII (Michael W. Deem and Ramdas Pophale) SiO2 
 PCOD9425185
Probable space group: P B A M
;
_chemical_formula_sum "Si O2"
_cell_formula_units_Z 64
_cell_length_a 20.517494
_cell_length_b 20.779838
_cell_length_c 7.743396
_cell_angle_alpha 90.000000
_cell_angle_beta 90.000000
_cell_angle_gamma 90.000000
_cell_volume 3301.398445
_symmetry_space_group_name_H-M "P B A M"
_symmetry_group_IT_number 55
_symmetry_cell_setting 'orthorhombic'
loop_
_space_group_symop_operation_xyz
x,y,z
-x,-y,z
1/2+x,1/2-y,-z
1/2-x,1/2+y,-z
-x,-y,-z
x,y,-z
1/2-x,1/2+y,z
1/2+x,1/2-y,z
loop_
_atom_site_type_symbol
_atom_site_label
_atom_site_fract_x
_atom_site_fract_y
_atom_site_fract_z
Si Si1 0.692982 0.671622 0.208311
Si Si2 0.213817 0.441940 0.292955
Si Si3 0.943648 0.224116 0.788500
Si Si4 0.587512 0.135481 0.705139
Si Si5 0.305393 0.082620 0.298537
Si Si6 0.726042 0.293624 0.203108
Si Si7 0.585332 0.283235 0.800823
Si Si8 0.555931 0.874144 0.793206
O O1 0.725952 0.604504 0.254732
O O2 0.619261 0.684323 0.268284
O O3 0.738448 0.730187 0.275160
O O4 0.691557 0.676229 0.000000
O O5 0.207195 0.447125 0.500000
O O6 0.147631 0.407176 0.230649
O O7 0.218770 0.514513 0.225662
O O8 0.935769 0.299153 0.738328
O O9 0.014362 0.200527 0.725013
O O10 0.945428 0.223866 0.000000
O O11 0.595134 0.146187 0.500000
O O12 0.588242 0.205306 0.794245
O O13 0.516361 0.105482 0.737258
O O14 0.288754 0.086426 0.500000
O O15 0.272643 0.145143 0.216189
O O16 0.383388 0.086560 0.278942
O O17 0.653898 0.305502 0.278207
O O18 0.715702 0.280125 0.000000
O O19 0.583365 0.305194 0.000000
O O20 0.559344 0.876207 0.000000
#
# Coordination Sequence:
#
# PCOD9425185 Si02
#       8
#     8   8   8   8   8   8   8   8
#     4  10  18  32  55  80 103 131 175 220 262 310
#     4  10  23  38  50  72 108 144 177 217 263 314
#     4   8  15  29  50  76 104 131 160 209 261 306
#     4  10  19  32  50  74 105 140 178 214 254 311
#     4  11  23  37  52  73 105 144 180 216 265 318
#     4  10  19  33  54  81 106 133 175 224 266 313
#     4   9  17  31  52  77 107 138 169 212 268 315
#     4  10  19  34  53  75 106 139 175 217 259 308
#
# _framework density 19.385724
#
# number of rings (size 3 to 8) (size 9 to 14) (size 15 to 20)
#    0.000    2.250    2.500    1.875    0.000    3.000 
#    0.000    3.125    0.000    0.750    0.000    5.250 
#    0.000    0.000    0.000    0.000    0.000    0.000 
#
# Total GULP energy -357040.852006 kJ/mol
# GULP energy per Si atom -5578.763313 kJ/mol
# Density = 1.934160 g / cm^3
# Si number density = 19.385724 Si / 1000 Ang^3
#
#
#
# Elastic Constant Matrix: (Units=GPa)
#
#
# Indices 1 2 3 4 5 6 
#
# 1 95.9049 0.6909 -0.9593 0.0000 0.0000 0.0000
# 2 0.6909 24.9423 -4.5190 0.0000 0.0000 0.0000
# 3 -0.9593 -4.5190 28.2200 0.0000 0.0000 0.0000
# 4 0.0000 0.0000 0.0000 14.7488 0.0000 0.0000
# 5 0.0000 0.0000 0.0000 0.0000 -49.9407 0.0000
# 6 0.0000 0.0000 0.0000 0.0000 0.0000 19.8165
#
#
#
# Elastic Compliance Matrix: (Units=1/GPa)
#
#
# Indices 1 2 3 4 5 6 
#
# 1 0.010432 -0.000231 0.000318 0.000000 0.000000 0.000000
# 2 -0.000231 0.041296 0.006605 0.000000 0.000000 0.000000
# 3 0.000318 0.006605 0.036504 0.000000 0.000000 0.000000
# 4 0.000000 0.000000 0.000000 0.067802 0.000000 0.000000
# 5 0.000000 0.000000 0.000000 0.000000 -0.020024 0.000000
# 6 0.000000 0.000000 0.000000 0.000000 0.000000 0.050463
#
#
# Mechanical properties :
#
#
# Convention : Reuss Voigt Hill
#
# Bulk Modulus (GPa) = 9.84113 15.49913 12.67013
# Shear Modulus (GPa) = 24.15897 7.18189 15.67043
#
# Velocity S-wave (km/s) = 3.53402 1.92686 2.84623
# Velocity P-wave (km/s) = 4.66261 3.60040 4.16550
#
# Compressibility (1/GPa) = 0.10161435
#
# Stress axis : x y z
#
# Youngs Moduli (GPa) = 95.86034 24.21558 27.39399
#
# Poissons Ratio (x) = 0.00560 -0.00870
# Poissons Ratio (y) = 0.02218 -0.18094
# Poissons Ratio (z) = -0.03044 -0.15995
#
# Static dielectric constant tensor:
#      x y z
#    x 1.715810 0.000000 0.000000 
#    y 0.000000 1.650460 0.000000 
#    z 0.000000 0.000000 1.713590 
# 
# From -- ./inp_files/7935.got.cif
#   From: 2010.05.17/outbox.cif.g08.bks.cpg/sg55_4_cif.got.tgz:7935.got - 2010.06.03 13:27:54.
