data_PCOD9425724
_publ_section_title
;
Structure prediction by ZEFSAII (Michael W. Deem and Ramdas Pophale) SiO2 
 PCOD9425724
Probable space group: P B A M
;
_chemical_formula_sum "Si O2"
_cell_formula_units_Z 64
_cell_length_a 15.755331
_cell_length_b 22.995399
_cell_length_c 9.688606
_cell_angle_alpha 90.000000
_cell_angle_beta 90.000000
_cell_angle_gamma 90.000000
_cell_volume 3510.183143
_symmetry_space_group_name_H-M "P B A M"
_symmetry_group_IT_number 55
_symmetry_cell_setting 'orthorhombic'
loop_
_space_group_symop_operation_xyz
x,y,z
-x,-y,z
1/2+x,1/2-y,-z
1/2-x,1/2+y,-z
-x,-y,-z
x,y,-z
1/2-x,1/2+y,z
1/2+x,1/2-y,z
loop_
_atom_site_type_symbol
_atom_site_label
_atom_site_fract_x
_atom_site_fract_y
_atom_site_fract_z
Si Si1 0.070541 0.264415 0.156331
Si Si2 0.456425 0.346062 0.156823
Si Si3 0.257034 0.073316 0.167696
Si Si4 0.428245 0.543196 0.163336
Si Si5 0.902069 0.518184 0.163019
Si Si6 0.376362 0.866651 0.659975
Si Si7 0.812504 0.186213 0.659325
Si Si8 0.742809 0.792210 0.161353
O O1 0.070115 0.315952 0.265651
O O2 0.159063 0.228766 0.167082
O O3 0.997055 0.217397 0.173666
O O4 0.066709 0.288370 0.000000
O O5 0.530845 0.392984 0.172653
O O6 0.382015 0.353267 0.265581
O O7 0.423482 0.352033 0.000000
O O8 0.167668 0.045984 0.218749
O O9 0.264844 0.140993 0.208468
O O10 0.337393 0.033573 0.203165
O O11 0.251640 0.075035 0.000000
O O12 0.500000 0.500000 0.222347
O O13 0.420204 0.528092 0.000000
O O14 0.884838 0.574457 0.254715
O O15 0.000000 0.500000 0.178641
O O16 0.887534 0.530852 0.000000
O O17 0.399638 0.873928 0.500000
O O18 0.279230 0.844173 0.666602
O O19 0.833632 0.196442 0.500000
O O20 0.806294 0.246345 0.744171
O O21 0.716113 0.787985 0.000000
#
# Coordination Sequence:
#
# PCOD9425724 Si02
#       8
#     8   8   8   8   8   8   8   8
#     4   9  17  32  55  80 107 136 177 233 281 326
#     4  10  19  32  54  85 113 139 180 227 277 333
#     4   9  17  32  55  81 113 147 179 229 282 324
#     4   9  17  29  50  84 115 140 180 228 273 328
#     4  10  22  38  57  84 113 143 184 233 285 337
#     4  10  22  39  57  77 108 151 192 227 273 329
#     4  10  22  36  51  78 115 149 183 222 270 333
#     4   9  16  32  55  78 103 137 185 231 276 322
#
# _framework density 18.232666999999999
#
# number of rings (size 3 to 8) (size 9 to 14) (size 15 to 20)
#    0.000    2.500    1.250    0.750    1.750    3.250 
#    0.000    3.125    0.000    1.125    0.000    0.000 
#    0.000    0.000    0.000    0.000    0.000    0.000 
#
# Total GULP energy -356876.711744 kJ/mol
# GULP energy per Si atom -5576.198621 kJ/mol
# Density = 1.819117 g / cm^3
# Si number density = 18.232667 Si / 1000 Ang^3
#
#
#
# Elastic Constant Matrix: (Units=GPa)
#
#
# Indices 1 2 3 4 5 6 
#
# 1 66.0131 24.6175 36.6793 0.0000 0.0000 0.0000
# 2 24.6175 101.3556 50.4677 0.0000 0.0000 0.0000
# 3 36.6793 50.4677 81.5856 0.0000 0.0000 0.0000
# 4 0.0000 0.0000 0.0000 3.8529 0.0000 0.0000
# 5 0.0000 0.0000 0.0000 0.0000 16.1724 0.0000
# 6 0.0000 0.0000 0.0000 0.0000 0.0000 13.0003
#
#
#
# Elastic Compliance Matrix: (Units=1/GPa)
#
#
# Indices 1 2 3 4 5 6 
#
# 1 0.020214 -0.000556 -0.008744 0.000000 0.000000 0.000000
# 2 -0.000556 0.014273 -0.008579 0.000000 0.000000 0.000000
# 3 -0.008744 -0.008579 0.021495 0.000000 0.000000 0.000000
# 4 0.000000 0.000000 0.000000 0.259542 0.000000 0.000000
# 5 0.000000 0.000000 0.000000 0.000000 0.061834 0.000000
# 6 0.000000 0.000000 0.000000 0.000000 0.000000 0.076921
#
#
# Mechanical properties :
#
#
# Convention : Reuss Voigt Hill
#
# Bulk Modulus (GPa) = 49.44547 52.49815 50.97181
# Shear Modulus (GPa) = 10.06482 15.75110 12.90796
#
# Velocity S-wave (km/s) = 2.35206 2.94240 2.66363
# Velocity P-wave (km/s) = 5.87829 6.35607 6.12184
#
# Compressibility (1/GPa) = 0.02022430
#
# Stress axis : x y z
#
# Youngs Moduli (GPa) = 49.46971 70.06195 46.52175
#
# Poissons Ratio (x) = 0.03894 0.40680
# Poissons Ratio (y) = 0.02749 0.39912
# Poissons Ratio (z) = 0.43257 0.60108
#
# Static dielectric constant tensor:
#      x y z
#    x 1.641040 0.000000 0.000000 
#    y 0.000000 1.617410 0.000000 
#    z 0.000000 0.000000 1.606240 
# 
# From -- ./inp_files/6640.got.cif
#   From: 2010.05.17/outbox.cif.g08.bks.cpg/sg55_4_cif.got.tgz:6640.got - 2010.06.03 13:27:54.
