data_PCOD9425059
_publ_section_title
;
Structure prediction by ZEFSAII (Michael W. Deem and Ramdas Pophale) SiO2 
 PCOD9425059
Probable space group: P B A M
;
_chemical_formula_sum "Si O2"
_cell_formula_units_Z 56
_cell_length_a 22.386911
_cell_length_b 15.211567
_cell_length_c 7.464637
_cell_angle_alpha 90.000000
_cell_angle_beta 90.000000
_cell_angle_gamma 90.000000
_cell_volume 2542.007459
_symmetry_space_group_name_H-M "P B A M"
_symmetry_group_IT_number 55
_symmetry_cell_setting 'orthorhombic'
loop_
_space_group_symop_operation_xyz
x,y,z
-x,-y,z
1/2+x,1/2-y,-z
1/2-x,1/2+y,-z
-x,-y,-z
x,y,-z
1/2-x,1/2+y,z
1/2+x,1/2-y,z
loop_
_atom_site_type_symbol
_atom_site_label
_atom_site_fract_x
_atom_site_fract_y
_atom_site_fract_z
Si Si1 0.726870 0.110010 0.707986
Si Si2 0.283934 0.088127 0.784195
Si Si3 0.005917 0.399765 0.219106
Si Si4 0.135897 0.901855 0.204679
Si Si5 0.609668 0.787677 0.219529
Si Si6 0.853305 0.905369 0.220233
Si Si7 0.612713 0.219769 0.790352
O O1 0.737173 0.126277 0.500000
O O2 0.791958 0.110550 0.797572
O O3 0.679061 0.179846 0.776263
O O4 0.700555 0.011881 0.732776
O O5 0.331458 0.159463 0.720954
O O6 0.216071 0.104259 0.724898
O O7 0.284069 0.090987 0.000000
O O8 0.065178 0.349548 0.283348
O O9 0.000000 0.500000 0.280385
O O10 0.948439 0.342621 0.269717
O O11 0.007565 0.403163 0.000000
O O12 0.109828 0.812660 0.284641
O O13 0.125206 0.998763 0.282921
O O14 0.114315 0.905987 0.000000
O O15 0.611684 0.784892 0.000000
O O16 0.887750 0.818814 0.282201
O O17 0.853648 0.906996 0.000000
O O18 0.598375 0.228218 0.000000
#
# Coordination Sequence:
#
# PCOD9425059 Si02
#       7
#     8   8   8   8   8   8   8
#     4  11  21  31  46  72 101 125 157 199 244 287
#     4   9  16  29  49  70  94 124 158 193 237 290
#     4   9  17  28  46  74 100 122 157 202 238 274
#     4   9  17  32  51  70  96 126 158 195 239 289
#     4   9  16  28  50  76  97 124 162 200 236 280
#     4   8  15  27  46  71  93 121 159 195 232 279
#     4  10  18  31  50  69  95 131 166 196 234 284
#
# _framework density 22.029833
#
# number of rings (size 3 to 8) (size 9 to 14) (size 15 to 20)
#    0.000    2.714    0.000    3.857    0.000    4.571 
#    0.000    7.143    0.000    9.000    0.000    0.000 
#    0.000    5.714    0.000    0.000    0.000    0.000 
#
# Total GULP energy -312665.591776 kJ/mol
# GULP energy per Si atom -5583.314139 kJ/mol
# Density = 2.197969 g / cm^3
# Si number density = 22.029833 Si / 1000 Ang^3
#
#
#
# Elastic Constant Matrix: (Units=GPa)
#
#
# Indices 1 2 3 4 5 6 
#
# 1 34.7646 70.5629 4.1997 0.0000 0.0000 0.0000
# 2 70.5629 236.6577 1.4636 0.0000 0.0000 0.0000
# 3 4.1997 1.4636 63.1245 0.0000 0.0000 0.0000
# 4 0.0000 0.0000 0.0000 -30.8138 0.0000 0.0000
# 5 0.0000 0.0000 0.0000 0.0000 -24.1327 0.0000
# 6 0.0000 0.0000 0.0000 0.0000 0.0000 30.2796
#
#
#
# Elastic Compliance Matrix: (Units=1/GPa)
#
#
# Indices 1 2 3 4 5 6 
#
# 1 0.074069 -0.022058 -0.004417 0.000000 0.000000 0.000000
# 2 -0.022058 0.010795 0.001217 0.000000 0.000000 0.000000
# 3 -0.004417 0.001217 0.016107 0.000000 0.000000 0.000000
# 4 0.000000 0.000000 0.000000 -0.032453 0.000000 0.000000
# 5 0.000000 0.000000 0.000000 0.000000 -0.041437 0.000000
# 6 0.000000 0.000000 0.000000 0.000000 0.000000 0.033026
#
#
# Mechanical properties :
#
#
# Convention : Reuss Voigt Hill
#
# Bulk Modulus (GPa) = 19.81852 54.11103 36.96477
# Shear Modulus (GPa) = 39.23431 12.28800 25.76115
#
# Velocity S-wave (km/s) = 4.22472 2.36432 3.42332
# Velocity P-wave (km/s) = 5.72830 5.66297 5.69573
#
# Compressibility (1/GPa) = 0.05045787
#
# Stress axis : x y z
#
# Youngs Moduli (GPa) = 13.50084 92.63756 62.08359
#
# Poissons Ratio (x) = 2.04336 0.27419
# Poissons Ratio (y) = 0.29780 -0.07557
# Poissons Ratio (z) = 0.05963 -0.11276
#
# Static dielectric constant tensor:
#      x y z
#    x 1.760200 0.000000 0.000000 
#    y 0.000000 1.817120 0.000000 
#    z 0.000000 0.000000 1.823330 
# 
# From -- ./inp_files/8775.got.cif
#   From: 2010.05.17/outbox.cif.g08.bks.cpg/sg55_5_cif.got.tgz:8775.got - 2010.06.03 13:27:54.
