data_PCOD9425792
_publ_section_title
;
Structure prediction by ZEFSAII (Michael W. Deem and Ramdas Pophale) SiO2 
 PCOD9425792
Probable space group: P B A M
;
_chemical_formula_sum "Si O2"
_cell_formula_units_Z 64
_cell_length_a 21.136123
_cell_length_b 20.111394
_cell_length_c 8.797644
_cell_angle_alpha 90.000000
_cell_angle_beta 90.000000
_cell_angle_gamma 90.000000
_cell_volume 3739.675215
_symmetry_space_group_name_H-M "P B A M"
_symmetry_group_IT_number 55
_symmetry_cell_setting 'orthorhombic'
loop_
_space_group_symop_operation_xyz
x,y,z
-x,-y,z
1/2+x,1/2-y,-z
1/2-x,1/2+y,-z
-x,-y,-z
x,y,-z
1/2-x,1/2+y,z
1/2+x,1/2-y,z
loop_
_atom_site_type_symbol
_atom_site_label
_atom_site_fract_x
_atom_site_fract_y
_atom_site_fract_z
Si Si1 0.687875 0.706642 0.182830
Si Si2 0.263325 0.576751 0.317516
Si Si3 0.377592 0.072109 0.818225
Si Si4 0.063752 0.712240 0.183247
Si Si5 0.429993 0.789053 0.317992
Si Si6 0.617442 0.066933 0.682429
Si Si7 0.733648 0.572745 0.681854
Si Si8 0.312077 0.709884 0.817363
O O1 0.623570 0.743055 0.231533
O O2 0.695760 0.632044 0.241645
O O3 0.749524 0.748790 0.232095
O O4 0.688189 0.706518 0.000000
O O5 0.262380 0.581982 0.500000
O O6 0.191493 0.581909 0.256259
O O7 0.286130 0.502279 0.276865
O O8 0.303651 0.635718 0.245848
O O9 0.419763 0.135724 0.777688
O O10 0.403326 0.001399 0.760726
O O11 0.370090 0.070970 0.000000
O O12 0.998413 0.732573 0.259638
O O13 0.058080 0.716457 0.000000
O O14 0.425904 0.785231 0.500000
O O15 0.419209 0.866454 0.273605
O O16 0.373837 0.746016 0.246356
O O17 0.613842 0.058307 0.500000
O O18 0.691653 0.078128 0.721692
O O19 0.729223 0.579591 0.500000
O O20 0.313598 0.708882 0.000000
#
# Coordination Sequence:
#
# PCOD9425792 Si02
#       8
#     8   8   8   8   8   8   8   8
#     4  10  20  35  56  81 109 141 181 226 272 321
#     4  10  20  34  54  82 114 144 178 226 276 324
#     4  10  19  33  53  77 109 147 188 227 268 322
#     4  10  22  39  53  76 112 146 185 229 272 327
#     4  11  23  38  55  79 110 148 188 227 277 330
#     4   9  19  34  50  75 111 145 183 225 267 324
#     4   9  18  33  53  80 111 140 176 223 272 320
#     4  11  21  36  58  84 110 143 185 229 276 326
#
# _framework density 17.113786000000001
#
# number of rings (size 3 to 8) (size 9 to 14) (size 15 to 20)
#    0.000    2.000    2.500    2.250    0.000    6.000 
#    0.000    2.500    0.000    0.750    0.000    5.250 
#    0.000    0.000    0.000    0.000    0.000    0.000 
#
# Total GULP energy -357267.831847 kJ/mol
# GULP energy per Si atom -5582.309873 kJ/mol
# Density = 1.707483 g / cm^3
# Si number density = 17.113786 Si / 1000 Ang^3
#
#
#
# Elastic Constant Matrix: (Units=GPa)
#
#
# Indices 1 2 3 4 5 6 
#
# 1 114.1440 70.5684 37.3494 0.0000 0.0000 0.0000
# 2 70.5684 122.8504 38.3042 0.0000 0.0000 0.0000
# 3 37.3494 38.3042 34.0958 0.0000 0.0000 0.0000
# 4 0.0000 0.0000 0.0000 32.1035 0.0000 0.0000
# 5 0.0000 0.0000 0.0000 0.0000 19.7792 0.0000
# 6 0.0000 0.0000 0.0000 0.0000 0.0000 22.2651
#
#
#
# Elastic Compliance Matrix: (Units=1/GPa)
#
#
# Indices 1 2 3 4 5 6 
#
# 1 0.015879 -0.005691 -0.011000 0.000000 0.000000 0.000000
# 2 -0.005691 0.014568 -0.010132 0.000000 0.000000 0.000000
# 3 -0.011000 -0.010132 0.052762 0.000000 0.000000 0.000000
# 4 0.000000 0.000000 0.000000 0.031149 0.000000 0.000000
# 5 0.000000 0.000000 0.000000 0.000000 0.050558 0.000000
# 6 0.000000 0.000000 0.000000 0.000000 0.000000 0.044913
#
#
# Mechanical properties :
#
#
# Convention : Reuss Voigt Hill
#
# Bulk Modulus (GPa) = 33.82771 62.61492 48.22131
# Shear Modulus (GPa) = 18.29283 23.15412 20.72348
#
# Velocity S-wave (km/s) = 3.27294 3.68224 3.48361
# Velocity P-wave (km/s) = 5.83885 7.39901 6.66474
#
# Compressibility (1/GPa) = 0.02956156
#
# Stress axis : x y z
#
# Youngs Moduli (GPa) = 62.97634 68.64160 18.95314
#
# Poissons Ratio (x) = 0.39067 0.20849
# Poissons Ratio (y) = 0.35843 0.19203
# Poissons Ratio (z) = 0.69276 0.69548
#
# Static dielectric constant tensor:
#      x y z
#    x 1.561520 0.000000 0.000000 
#    y 0.000000 1.582240 0.000000 
#    z 0.000000 0.000000 1.573130 
# 
# From -- ./inp_files/8993.got.cif
#   From: 2010.05.17/outbox.cif.g08.bks.cpg/sg55_5_cif.got.tgz:8993.got - 2010.06.03 13:27:54.
