data_PCOD9425864
_publ_section_title
;
Structure prediction by ZEFSAII (Michael W. Deem and Ramdas Pophale) SiO2 
 PCOD9425864
Probable space group: P B A M
;
_chemical_formula_sum "Si O2"
_cell_formula_units_Z 48
_cell_length_a 15.592845
_cell_length_b 20.359806
_cell_length_c 8.000823
_cell_angle_alpha 90.000000
_cell_angle_beta 90.000000
_cell_angle_gamma 90.000000
_cell_volume 2539.999669
_symmetry_space_group_name_H-M "P B A M"
_symmetry_group_IT_number 55
_symmetry_cell_setting 'orthorhombic'
loop_
_space_group_symop_operation_xyz
x,y,z
-x,-y,z
1/2+x,1/2-y,-z
1/2-x,1/2+y,-z
-x,-y,-z
x,y,-z
1/2-x,1/2+y,z
1/2+x,1/2-y,z
loop_
_atom_site_type_symbol
_atom_site_label
_atom_site_fract_x
_atom_site_fract_y
_atom_site_fract_z
Si Si1 0.613316 0.187009 0.198889
Si Si2 0.300987 0.333671 0.701317
Si Si3 0.010938 0.804030 0.298742
Si Si4 0.268853 0.483708 0.701715
Si Si5 0.434388 0.557660 0.704274
Si Si6 0.582008 0.039472 0.799132
O O1 0.712034 0.200123 0.248198
O O2 0.546973 0.242057 0.254927
O O3 0.589205 0.114310 0.266194
O O4 0.610434 0.183699 0.000000
O O5 0.303032 0.334652 0.500000
O O6 0.390270 0.302473 0.761174
O O7 0.295422 0.409998 0.757896
O O8 0.014216 0.808070 0.500000
O O9 0.966984 0.871605 0.237845
O O10 0.270073 0.483074 0.500000
O O11 0.339694 0.535788 0.758813
O O12 0.172032 0.495077 0.758584
O O13 0.500000 0.500000 0.753150
O O14 0.434539 0.559014 0.500000
O O15 0.500000 0.000000 0.734277
O O16 0.574557 0.043159 0.000000
#
# Coordination Sequence:
#
# PCOD9425864 Si02
#       6
#     8   8   8   8   8   8
#     4  10  21  36  53  74 103 139 175 213 257 308
#     4   9  17  32  55  77  99 134 173 210 254 302
#     4  10  19  33  55  79 106 137 170 212 257 307
#     4   9  16  29  53  81 103 126 164 211 252 299
#     4   9  15  28  52  81 108 132 161 202 256 306
#     4   9  19  37  56  71  96 137 176 211 257 305
#
# _framework density 18.897639999999999
#
# number of rings (size 3 to 8) (size 9 to 14) (size 15 to 20)
#    0.000    2.667    1.667    0.500    0.000    1.667 
#    3.000    0.833    0.000    1.000    0.000    0.000 
#    0.000    0.000    0.000    0.000    0.000    0.000 
#
# Total GULP energy -267657.863754 kJ/mol
# GULP energy per Si atom -5576.205495 kJ/mol
# Density = 1.885463 g / cm^3
# Si number density = 18.897640 Si / 1000 Ang^3
#
#
#
# Elastic Constant Matrix: (Units=GPa)
#
#
# Indices 1 2 3 4 5 6 
#
# 1 220.1557 97.6178 13.1750 0.0000 0.0000 0.0000
# 2 97.6178 84.5355 7.8918 0.0000 0.0000 0.0000
# 3 13.1750 7.8918 12.3032 0.0000 0.0000 0.0000
# 4 0.0000 0.0000 0.0000 9.6600 0.0000 0.0000
# 5 0.0000 0.0000 0.0000 0.0000 71.3278 0.0000
# 6 0.0000 0.0000 0.0000 0.0000 0.0000 35.0397
#
#
#
# Elastic Compliance Matrix: (Units=1/GPa)
#
#
# Indices 1 2 3 4 5 6 
#
# 1 0.009434 -0.010584 -0.003313 0.000000 0.000000 0.000000
# 2 -0.010584 0.024458 -0.004354 0.000000 0.000000 0.000000
# 3 -0.003313 -0.004354 0.087620 0.000000 0.000000 0.000000
# 4 0.000000 0.000000 0.000000 0.103520 0.000000 0.000000
# 5 0.000000 0.000000 0.000000 0.000000 0.014020 0.000000
# 6 0.000000 0.000000 0.000000 0.000000 0.000000 0.028539
#
#
# Mechanical properties :
#
#
# Convention : Reuss Voigt Hill
#
# Bulk Modulus (GPa) = 11.76341 61.59596 36.67968
# Shear Modulus (GPa) = 15.04079 36.42616 25.73347
#
# Velocity S-wave (km/s) = 2.82425 4.39515 3.69417
# Velocity P-wave (km/s) = 4.10773 7.64341 6.13576
#
# Compressibility (1/GPa) = 0.08500938
#
# Stress axis : x y z
#
# Youngs Moduli (GPa) = 106.00466 40.88651 11.41286
#
# Poissons Ratio (x) = 0.43275 0.03781
# Poissons Ratio (y) = 1.12197 0.04969
# Poissons Ratio (z) = 0.35118 0.17803
#
# Static dielectric constant tensor:
#      x y z
#    x 1.660130 0.000000 0.000000 
#    y 0.000000 1.645840 0.000000 
#    z 0.000000 0.000000 1.680640 
# 
# From -- ./inp_files/5689.got.cif
#   From: 2010.05.17/outbox.cif.g08.bks.cpg/sg55_3_cif.got.tgz:5689.got - 2010.06.03 13:27:54.
