data_PCOD9425140
_publ_section_title
;
Structure prediction by ZEFSAII (Michael W. Deem and Ramdas Pophale) SiO2 
 PCOD9425140
Probable space group: P B A M
;
_chemical_formula_sum "Si O2"
_cell_formula_units_Z 40
_cell_length_a 9.734401
_cell_length_b 13.518441
_cell_length_c 12.130383
_cell_angle_alpha 90.000000
_cell_angle_beta 90.000000
_cell_angle_gamma 90.000000
_cell_volume 1596.284718
_symmetry_space_group_name_H-M "P B A M"
_symmetry_group_IT_number 55
_symmetry_cell_setting 'orthorhombic'
loop_
_space_group_symop_operation_xyz
x,y,z
-x,-y,z
1/2+x,1/2-y,-z
1/2-x,1/2+y,-z
-x,-y,-z
x,y,-z
1/2-x,1/2+y,z
1/2+x,1/2-y,z
loop_
_atom_site_type_symbol
_atom_site_label
_atom_site_fract_x
_atom_site_fract_y
_atom_site_fract_z
Si Si1 0.413515 0.356922 0.372778
Si Si2 0.719689 0.968751 0.818757
Si Si3 0.049567 0.350046 0.876457
Si Si4 0.231676 0.166783 0.618599
Si Si5 0.503905 0.619722 0.128197
O O1 0.386253 0.401411 0.500000
O O2 0.569036 0.318642 0.384548
O O3 0.307321 0.268479 0.356438
O O4 0.423358 0.405051 0.248503
O O5 0.601057 0.899089 0.872165
O O6 0.737063 0.921126 0.700024
O O7 0.864844 0.946248 0.878203
O O8 0.651134 0.076625 0.813052
O O9 0.040561 0.234505 0.850151
O O10 0.103444 0.356683 0.000000
O O11 0.283472 0.135572 0.500000
O O12 0.560789 0.623298 0.000000
#
# Coordination Sequence:
#
# PCOD9425140 Si02
#       5
#     8   8   8   8   8
#     4   9  17  31  48  73 106 142 176 220 271 321
#     4  10  18  32  50  73 106 137 176 220 270 320
#     4  10  19  31  49  75 104 138 174 223 278 321
#     4   9  17  30  50  75 107 141 181 224 271 322
#     4  10  19  31  50  76 102 138 179 218 264 323
#
# _framework density 25.058187
#
# number of rings (size 3 to 8) (size 9 to 14) (size 15 to 20)
#    0.000    2.400    2.000    2.400    0.000    0.000 
#    0.000    3.000    0.000    1.200    0.000    5.600 
#    0.000   23.200    0.000    0.000    0.000    0.000 
#
# Total GULP energy -223032.421028 kJ/mol
# GULP energy per Si atom -5575.810526 kJ/mol
# Density = 2.500115 g / cm^3
# Si number density = 25.058187 Si / 1000 Ang^3
#
#
#
# Elastic Constant Matrix: (Units=GPa)
#
#
# Indices 1 2 3 4 5 6 
#
# 1 65.9691 -2.3032 42.7139 0.0000 0.0000 0.0000
# 2 -2.3032 107.2473 61.0989 0.0000 0.0000 0.0000
# 3 42.7139 61.0989 202.2055 0.0000 0.0000 0.0000
# 4 0.0000 0.0000 0.0000********** 0.0000 0.0000
# 5 0.0000 0.0000 0.0000 0.0000 124.4198 0.0000
# 6 0.0000 0.0000 0.0000 0.0000 0.0000 31.3801
#
#
#
# Elastic Compliance Matrix: (Units=1/GPa)
#
#
# Indices 1 2 3 4 5 6 
#
# 1 0.018402 0.003152 -0.004840 0.000000 0.000000 0.000000
# 2 0.003152 0.011803 -0.004232 0.000000 0.000000 0.000000
# 3 -0.004840 -0.004232 0.007247 0.000000 0.000000 0.000000
# 4 0.000000 0.000000 0.000000 -0.000073 0.000000 0.000000
# 5 0.000000 0.000000 0.000000 0.000000 0.008037 0.000000
# 6 0.000000 0.000000 0.000000 0.000000 0.000000 0.031867
#
#
# Mechanical properties :
#
#
# Convention : Reuss Voigt Hill
#
# Bulk Modulus (GPa) = 39.04315 64.27124 51.65720
# Shear Modulus (GPa) = 51.19740 -2692.59885 -1320.70072
#
# Velocity S-wave (km/s) = 4.52502 -32.81572 -22.98255
# Velocity P-wave (km/s) = 6.55102 37.55162 26.14582
#
# Compressibility (1/GPa) = 0.02561269
#
# Stress axis : x y z
#
# Youngs Moduli (GPa) = 54.34064 84.72310 137.99343
#
# Poissons Ratio (x) = -0.26709 0.66787
# Poissons Ratio (y) = -0.17131 0.58404
# Poissons Ratio (z) = 0.26300 0.35858
#
# Static dielectric constant tensor:
#      x y z
#    x 1.999890 0.000000 0.000000 
#    y 0.000000 2.034710 0.000000 
#    z 0.000000 0.000000 2.082540 
# 
# From -- ./inp_files/13007.got.cif
#   From: 2010.05.17/outbox.cif.g08.bks.cpg/sg55_7_cif.got.tgz:13007.got - 2010.06.03 13:27:54.
