data_PCOD9425206
_publ_section_title
;
Structure prediction by ZEFSAII (Michael W. Deem and Ramdas Pophale) SiO2 
 PCOD9425206
Probable space group: P B A M
;
_chemical_formula_sum "Si O2"
_cell_formula_units_Z 56
_cell_length_a 15.613127
_cell_length_b 19.266459
_cell_length_c 9.189149
_cell_angle_alpha 90.000000
_cell_angle_beta 90.000000
_cell_angle_gamma 90.000000
_cell_volume 2764.184889
_symmetry_space_group_name_H-M "P B A M"
_symmetry_group_IT_number 55
_symmetry_cell_setting 'orthorhombic'
loop_
_space_group_symop_operation_xyz
x,y,z
-x,-y,z
1/2+x,1/2-y,-z
1/2-x,1/2+y,-z
-x,-y,-z
x,y,-z
1/2-x,1/2+y,z
1/2+x,1/2-y,z
loop_
_atom_site_type_symbol
_atom_site_label
_atom_site_fract_x
_atom_site_fract_y
_atom_site_fract_z
Si Si1 0.000157 0.115762 0.168513
Si Si2 0.824923 0.081919 0.672918
Si Si3 0.898874 0.490507 0.157792
Si Si4 0.326952 0.854301 0.831893
Si Si5 0.175198 0.078289 0.325767
Si Si6 0.499918 0.781834 0.168898
Si Si7 0.650893 0.861315 0.328517
O O1 0.087593 0.090839 0.241820
O O2 0.999163 0.199233 0.173955
O O3 0.917700 0.089575 0.255238
O O4 0.995727 0.093943 0.000000
O O5 0.829369 0.091073 0.500000
O O6 0.759949 0.138547 0.740452
O O7 0.797169 0.001781 0.701814
O O8 0.860790 0.566794 0.168676
O O9 0.879422 0.438859 0.288011
O O10 0.000000 0.500000 0.153274
O O11 0.870482 0.460256 0.000000
O O12 0.407452 0.809392 0.775222
O O13 0.308602 0.833840 0.000000
O O14 0.162311 0.084383 0.500000
O O15 0.249135 0.133476 0.282713
O O16 0.583068 0.811963 0.249344
O O17 0.503874 0.805272 0.000000
O O18 0.647918 0.848411 0.500000
#
# Coordination Sequence:
#
# PCOD9425206 Si02
#       7
#     8   8   8   8   8   8   8
#     4  11  25  43  64  87 115 157 209 255 293 352
#     4  11  23  41  64  90 123 157 193 250 311 356
#     4  10  18  32  56  86 121 160 196 242 299 350
#     4  10  20  36  61  90 121 157 200 244 294 356
#     4  10  23  42  62  88 122 156 194 247 306 355
#     4  10  23  43  61  86 125 163 199 243 298 353
#     4  11  22  36  59  92 126 157 196 242 296 363
#
# _framework density 20.259136999999999
#
# number of rings (size 3 to 8) (size 9 to 14) (size 15 to 20)
#    0.000    1.571    2.857    1.714    0.000    7.143 
#    0.000    4.286    0.000    0.000    0.000    0.000 
#    0.000    0.000    0.000    0.000    0.000    0.000 
#
# Total GULP energy -312608.118940 kJ/mol
# GULP energy per Si atom -5582.287838 kJ/mol
# Density = 2.021303 g / cm^3
# Si number density = 20.259137 Si / 1000 Ang^3
#
#
#
# Elastic Constant Matrix: (Units=GPa)
#
#
# Indices 1 2 3 4 5 6 
#
# 1 144.5285 18.0986 63.7376 0.0000 0.0000 0.0000
# 2 18.0986 40.3685 20.6694 0.0000 0.0000 0.0000
# 3 63.7376 20.6694 53.2274 0.0000 0.0000 0.0000
# 4 0.0000 0.0000 0.0000 -88.5424 0.0000 0.0000
# 5 0.0000 0.0000 0.0000 0.0000 34.6372 0.0000
# 6 0.0000 0.0000 0.0000 0.0000 0.0000 21.5602
#
#
#
# Elastic Compliance Matrix: (Units=1/GPa)
#
#
# Indices 1 2 3 4 5 6 
#
# 1 0.014962 0.003077 -0.019111 0.000000 0.000000 0.000000
# 2 0.003077 0.031552 -0.015937 0.000000 0.000000 0.000000
# 3 -0.019111 -0.015937 0.047861 0.000000 0.000000 0.000000
# 4 0.000000 0.000000 0.000000 -0.011294 0.000000 0.000000
# 5 0.000000 0.000000 0.000000 0.000000 0.028871 0.000000
# 6 0.000000 0.000000 0.000000 0.000000 0.000000 0.046382
#
#
# Mechanical properties :
#
#
# Convention : Reuss Voigt Hill
#
# Bulk Modulus (GPa) = 32.85950 49.23728 41.04839
# Shear Modulus (GPa) = 21.51279 2.57224 12.04251
#
# Velocity S-wave (km/s) = 3.26219 1.12802 2.44073
# Velocity P-wave (km/s) = 5.51760 5.10422 5.31493
#
# Compressibility (1/GPa) = 0.03043260
#
# Stress axis : x y z
#
# Youngs Moduli (GPa) = 66.83724 31.69332 20.89392
#
# Poissons Ratio (x) = -0.09753 0.39930
# Poissons Ratio (y) = -0.20568 0.33300
# Poissons Ratio (z) = 1.27733 0.50511
#
# Static dielectric constant tensor:
#      x y z
#    x 1.736710 0.000000 0.000000 
#    y 0.000000 1.717640 0.000000 
#    z 0.000000 0.000000 1.717460 
# 
# From -- ./inp_files/6105.got.cif
#   From: 2010.05.17/outbox.cif.g08.bks.cpg/sg55_4_cif.got.tgz:6105.got - 2010.06.03 13:27:54.
