data_PCOD9425114
_publ_section_title
;
Structure prediction by ZEFSAII (Michael W. Deem and Ramdas Pophale) SiO2 
 PCOD9425114
Probable space group: P B A M
;
_chemical_formula_sum "Si O2"
_cell_formula_units_Z 52
_cell_length_a 9.728205
_cell_length_b 23.175177
_cell_length_c 13.995827
_cell_angle_alpha 90.000000
_cell_angle_beta 90.000000
_cell_angle_gamma 90.000000
_cell_volume 3155.399404
_symmetry_space_group_name_H-M "P B A M"
_symmetry_group_IT_number 55
_symmetry_cell_setting 'orthorhombic'
loop_
_space_group_symop_operation_xyz
x,y,z
-x,-y,z
1/2+x,1/2-y,-z
1/2-x,1/2+y,-z
-x,-y,-z
x,y,-z
1/2-x,1/2+y,z
1/2+x,1/2-y,z
loop_
_atom_site_type_symbol
_atom_site_label
_atom_site_fract_x
_atom_site_fract_y
_atom_site_fract_z
Si Si1 0.000000 0.884975 0.112388
Si Si2 0.156819 0.804978 0.239742
Si Si3 0.156819 0.195022 0.760258
Si Si4 0.000000 0.000000 0.238929
Si Si5 0.155653 0.371508 0.388531
Si Si6 0.155653 0.628492 0.611469
Si Si7 0.255494 0.500000 0.390897
O O1 0.129316 0.846911 0.149531
O O2 0.870684 0.846911 0.149531
O O3 1.000000 0.943777 0.172341
O O4 0.000000 0.894025 0.000000
O O5 0.250000 0.750000 0.217439
O O6 0.233063 0.840515 0.322556
O O7 0.000000 0.788819 0.269400
O O8 0.233063 0.159485 0.677444
O O9 0.870610 0.000000 0.309881
O O10 0.176695 0.356453 0.500000
O O11 0.171707 0.440733 0.381092
O O12 1.000000 0.355328 0.361429
O O13 0.176695 0.643547 0.500000
O O14 0.171707 0.559267 0.618908
O O15 0.312729 0.500000 0.500000
#
# Coordination Sequence:
#
# PCOD9425114 Si02
#       7
#     8   8   8   4   8   8   8
#     4  10  23  39  61  88 111 148 195 245 299 340
#     4  10  21  38  58  83 113 150 191 237 289 338
#     4  10  21  38  58  83 113 150 191 237 289 338
#     4  12  18  38  60  92 114 152 178 246 292 350
#     4  10  20  34  55  84 118 156 193 231 281 342
#     4  10  20  34  55  84 118 156 193 231 281 342
#     4  10  18  31  54  86 120 151 191 229 282 347
#
# _framework density 16.479687999999999
#
# number of rings (size 3 to 8) (size 9 to 14) (size 15 to 20)
#    0.923    0.923    3.077    1.846    0.000    3.692 
#    0.000    0.000    0.000    0.000    0.000    2.154 
#    0.000    0.000    0.000    0.000    0.000    0.000 
#
# Total GULP energy -289620.814800 kJ/mol
# GULP energy per Si atom -5569.631054 kJ/mol
# Density = 1.644218 g / cm^3
# Si number density = 16.479688 Si / 1000 Ang^3
#
#
#
# Elastic Constant Matrix: (Units=GPa)
#
#
# Indices 1 2 3 4 5 6 
#
# 1 108.5974 38.1751 61.3037 0.0000 0.0000 0.0000
# 2 38.1751 101.8888 48.2655 0.0000 0.0000 0.0000
# 3 61.3037 48.2655 113.3669 0.0000 0.0000 0.0000
# 4 0.0000 0.0000 0.0000 3.5978 0.0000 0.0000
# 5 0.0000 0.0000 0.0000 0.0000 17.3626 0.0000
# 6 0.0000 0.0000 0.0000 0.0000 0.0000 24.3237
#
#
#
# Elastic Compliance Matrix: (Units=1/GPa)
#
#
# Indices 1 2 3 4 5 6 
#
# 1 0.013577 -0.002016 -0.006484 0.000000 0.000000 0.000000
# 2 -0.002016 0.012593 -0.004272 0.000000 0.000000 0.000000
# 3 -0.006484 -0.004272 0.014146 0.000000 0.000000 0.000000
# 4 0.000000 0.000000 0.000000 0.277944 0.000000 0.000000
# 5 0.000000 0.000000 0.000000 0.000000 0.057595 0.000000
# 6 0.000000 0.000000 0.000000 0.000000 0.000000 0.041112
#
#
# Mechanical properties :
#
#
# Convention : Reuss Voigt Hill
#
# Bulk Modulus (GPa) = 67.68587 68.81575 68.25081
# Shear Modulus (GPa) = 11.17484 20.79741 15.98613
#
# Velocity S-wave (km/s) = 2.60686 3.55632 3.11794
# Velocity P-wave (km/s) = 7.08678 7.66236 7.38018
#
# Compressibility (1/GPa) = 0.01477413
#
# Stress axis : x y z
#
# Youngs Moduli (GPa) = 73.65443 79.40732 70.69328
#
# Poissons Ratio (x) = 0.16005 0.45835
# Poissons Ratio (y) = 0.14846 0.30197
# Poissons Ratio (z) = 0.47755 0.33920
#
# Static dielectric constant tensor:
#      x y z
#    x 1.548660 0.000000 0.000000 
#    y 0.000000 1.565580 0.000000 
#    z 0.000000 0.000000 1.517730 
# 
# From -- ./inp_files/17745.got.cif
#   From: 2010.05.17/outbox.cif.g08.bks.cpg/sg55_9_cif.got.tgz:17745.got - 2010.06.03 13:27:54.
