data_PCOD9425989
_publ_section_title
;
Structure prediction by ZEFSAII (Michael W. Deem and Ramdas Pophale) SiO2 
 PCOD9425989
Probable space group: P B A M
;
_chemical_formula_sum "Si O2"
_cell_formula_units_Z 64
_cell_length_a 21.047022
_cell_length_b 9.187980
_cell_length_c 17.523599
_cell_angle_alpha 90.000000
_cell_angle_beta 90.000000
_cell_angle_gamma 90.000000
_cell_volume 3388.706867
_symmetry_space_group_name_H-M "P B A M"
_symmetry_group_IT_number 55
_symmetry_cell_setting 'orthorhombic'
loop_
_space_group_symop_operation_xyz
x,y,z
-x,-y,z
1/2+x,1/2-y,-z
1/2-x,1/2+y,-z
-x,-y,-z
x,y,-z
1/2-x,1/2+y,z
1/2+x,1/2-y,z
loop_
_atom_site_type_symbol
_atom_site_label
_atom_site_fract_x
_atom_site_fract_y
_atom_site_fract_z
Si Si1 0.640170 0.953254 0.742007
Si Si2 0.430245 0.072692 0.587031
Si Si3 0.730081 0.381713 0.187644
Si Si4 0.568534 0.578492 0.415048
Si Si5 0.575227 0.692824 0.171218
Si Si6 0.698048 0.648203 0.912430
Si Si7 0.037902 0.354406 0.219590
Si Si8 0.600499 0.416435 0.270626
O O1 0.616415 0.979232 0.655279
O O2 0.714411 0.948717 0.759023
O O3 0.610796 0.798292 0.767931
O O4 0.605733 0.072181 0.796908
O O5 0.407358 0.042941 0.500000
O O6 0.436878 0.247814 0.594861
O O7 0.500000 0.000000 0.592714
O O8 0.761182 0.245435 0.145628
O O9 0.710088 0.487556 0.118814
O O10 0.667479 0.362197 0.238069
O O11 0.500000 0.500000 0.410521
O O12 0.594175 0.552254 0.500000
O O13 0.608273 0.502210 0.348986
O O14 0.623626 0.684887 0.101091
O O15 0.507668 0.772621 0.159259
O O16 0.572594 0.534765 0.210572
O O17 0.715692 0.667630 0.000000
O O18 0.053798 0.222287 0.276755
O O19 0.000000 0.500000 0.244764
#
# Coordination Sequence:
#
# PCOD9425989 Si02
#       8
#     8   8   8   8   8   8   8   8
#     4  10  19  34  53  81 112 147 191 241 282 335
#     4  10  20  34  54  81 113 151 192 241 301 349
#     4  10  22  37  58  86 113 152 199 234 276 346
#     4  10  21  34  52  80 113 150 192 238 293 346
#     4   9  18  32  55  80 105 140 186 232 291 344
#     4  10  20  37  59  83 114 148 186 238 290 346
#     4  10  20  32  54  82 109 142 183 238 290 334
#     4  11  20  34  55  80 113 150 194 242 279 335
#
# _framework density 18.88626
#
# number of rings (size 3 to 8) (size 9 to 14) (size 15 to 20)
#    0.000    2.000    1.250    3.375    3.500    0.000 
#    0.000    0.625    0.000   18.750    0.000    0.000 
#    0.000    0.000    0.000    0.000    0.000    0.000 
#
# Total GULP energy -356346.149414 kJ/mol
# GULP energy per Si atom -5567.908585 kJ/mol
# Density = 1.884327 g / cm^3
# Si number density = 18.886260 Si / 1000 Ang^3
#
#
#
# Elastic Constant Matrix: (Units=GPa)
#
#
# Indices 1 2 3 4 5 6 
#
# 1 78.1539 21.8545 23.6896 0.0000 0.0000 0.0000
# 2 21.8545 88.6473 9.4068 0.0000 0.0000 0.0000
# 3 23.6896 9.4068 80.7294 0.0000 0.0000 0.0000
# 4 0.0000 0.0000 0.0000 15.5007 0.0000 0.0000
# 5 0.0000 0.0000 0.0000 0.0000 21.5833 0.0000
# 6 0.0000 0.0000 0.0000 0.0000 0.0000 18.5649
#
#
#
# Elastic Compliance Matrix: (Units=1/GPa)
#
#
# Indices 1 2 3 4 5 6 
#
# 1 0.014917 -0.003253 -0.003998 0.000000 0.000000 0.000000
# 2 -0.003253 0.012131 -0.000459 0.000000 0.000000 0.000000
# 3 -0.003998 -0.000459 0.013614 0.000000 0.000000 0.000000
# 4 0.000000 0.000000 0.000000 0.064513 0.000000 0.000000
# 5 0.000000 0.000000 0.000000 0.000000 0.046332 0.000000
# 6 0.000000 0.000000 0.000000 0.000000 0.000000 0.053865
#
#
# Mechanical properties :
#
#
# Convention : Reuss Voigt Hill
#
# Bulk Modulus (GPa) = 39.61762 39.71474 39.66618
# Shear Modulus (GPa) = 21.81434 23.96843 22.89139
#
# Velocity S-wave (km/s) = 3.40227 3.56630 3.48525
# Velocity P-wave (km/s) = 6.03792 6.16701 6.10280
#
# Compressibility (1/GPa) = 0.02524130
#
# Stress axis : x y z
#
# Youngs Moduli (GPa) = 67.03803 82.43078 73.45494
#
# Poissons Ratio (x) = 0.26817 0.29369
# Poissons Ratio (y) = 0.21809 0.03371
# Poissons Ratio (z) = 0.26803 0.03783
#
# Static dielectric constant tensor:
#      x y z
#    x 1.685650 0.000000 0.000000 
#    y 0.000000 1.692790 0.000000 
#    z 0.000000 0.000000 1.645640 
# 
# From -- ./inp_files/21964.got.cif
#   From: 2010.05.17/outbox.cif.g08.bks.cpg/sg55_11_cif.got.tgz:21964.got - 2010.06.03 13:27:54.
