data_PCOD9425722
_publ_section_title
;
Structure prediction by ZEFSAII (Michael W. Deem and Ramdas Pophale) SiO2 
 PCOD9425722
Probable space group: P B A M
;
_chemical_formula_sum "Si O2"
_cell_formula_units_Z 56
_cell_length_a 27.116030
_cell_length_b 11.071393
_cell_length_c 7.285733
_cell_angle_alpha 90.000000
_cell_angle_beta 90.000000
_cell_angle_gamma 90.000000
_cell_volume 2187.266113
_symmetry_space_group_name_H-M "P B A M"
_symmetry_group_IT_number 55
_symmetry_cell_setting 'orthorhombic'
loop_
_space_group_symop_operation_xyz
x,y,z
-x,-y,z
1/2+x,1/2-y,-z
1/2-x,1/2+y,-z
-x,-y,-z
x,y,-z
1/2-x,1/2+y,z
1/2+x,1/2-y,z
loop_
_atom_site_type_symbol
_atom_site_label
_atom_site_fract_x
_atom_site_fract_y
_atom_site_fract_z
Si Si1 0.452628 0.928345 0.722099
Si Si2 0.707447 0.332445 0.784033
Si Si3 0.507418 0.328921 0.721371
Si Si4 0.746440 0.077024 0.207670
Si Si5 0.605822 0.692736 0.276500
Si Si6 0.893701 0.930264 0.279523
Si Si7 0.353242 0.055933 0.723052
O O1 0.452466 0.937249 0.500000
O O2 0.461339 0.790434 0.764998
O O3 0.500000 0.000000 0.788452
O O4 0.402417 0.987084 0.782238
O O5 0.723497 0.463797 0.705621
O O6 0.647710 0.331561 0.768931
O O7 0.735540 0.211936 0.712133
O O8 0.718984 0.335711 0.000000
O O9 0.502563 0.343513 0.500000
O O10 0.451641 0.303874 0.783382
O O11 0.548665 0.425484 0.782453
O O12 0.692850 0.014912 0.201880
O O13 0.764967 0.095491 0.000000
O O14 0.605261 0.697883 0.500000
O O15 0.624982 0.561999 0.220585
O O16 0.638659 0.805524 0.218737
O O17 0.896494 0.926399 0.500000
O O18 0.349673 0.053298 0.500000
#
# Coordination Sequence:
#
# PCOD9425722 Si02
#       7
#     8   8   8   8   8   8   8
#     4   9  14  23  42  71 105 139 176 216 258 311
#     4  10  23  43  63  82 106 142 183 227 281 338
#     4   9  15  26  46  75 112 150 183 217 263 319
#     4  10  23  42  62  82 106 139 182 228 279 338
#     4   9  17  29  48  81 120 152 181 221 268 318
#     4  10  20  33  54  84 115 145 184 228 272 319
#     4  10  19  32  54  84 114 144 183 229 276 318
#
# _framework density 25.602739
#
# number of rings (size 3 to 8) (size 9 to 14) (size 15 to 20)
#    0.000    2.429    1.429    1.286    2.000    4.000 
#    0.000    0.000    0.000    3.000    0.000    0.000 
#    0.000    0.000    0.000    0.000    0.000    0.000 
#
# Total GULP energy -312663.486220 kJ/mol
# GULP energy per Si atom -5583.276540 kJ/mol
# Density = 2.554447 g / cm^3
# Si number density = 25.602739 Si / 1000 Ang^3
#
#
#
# Elastic Constant Matrix: (Units=GPa)
#
#
# Indices 1 2 3 4 5 6 
#
# 1 117.4738 28.8611 -4.8834 0.0000 0.0000 0.0000
# 2 28.8611 108.1619 4.0196 0.0000 0.0000 0.0000
# 3 -4.8834 4.0196 111.9678 0.0000 0.0000 0.0000
# 4 0.0000 0.0000 0.0000 -4.2589 0.0000 0.0000
# 5 0.0000 0.0000 0.0000 0.0000 -8.6914 0.0000
# 6 0.0000 0.0000 0.0000 0.0000 0.0000 42.9102
#
#
#
# Elastic Compliance Matrix: (Units=1/GPa)
#
#
# Indices 1 2 3 4 5 6 
#
# 1 0.009136 -0.002456 0.000487 0.000000 0.000000 0.000000
# 2 -0.002456 0.009918 -0.000463 0.000000 0.000000 0.000000
# 3 0.000487 -0.000463 0.008969 0.000000 0.000000 0.000000
# 4 0.000000 0.000000 0.000000 -0.234802 0.000000 0.000000
# 5 0.000000 0.000000 0.000000 0.000000 -0.115056 0.000000
# 6 0.000000 0.000000 0.000000 0.000000 0.000000 0.023304
#
#
# Mechanical properties :
#
#
# Convention : Reuss Voigt Hill
#
# Bulk Modulus (GPa) = 43.18126 43.73311 43.45718
# Shear Modulus (GPa) = -17.48583 26.63238 4.57328
#
# Velocity S-wave (km/s) = -2.61620 3.22874 1.33795
# Velocity P-wave (km/s) = 2.78864 5.56939 4.40424
#
# Compressibility (1/GPa) = 0.02315820
#
# Stress axis : x y z
#
# Youngs Moduli (GPa) = 109.45547 100.82754 111.49527
#
# Poissons Ratio (x) = 0.24762 -0.05426
# Poissons Ratio (y) = 0.26881 0.05164
# Poissons Ratio (z) = -0.05326 0.04670
#
# Static dielectric constant tensor:
#      x y z
#    x 2.008790 0.000000 0.000000 
#    y 0.000000 2.120900 0.000000 
#    z 0.000000 0.000000 2.022520 
# 
# From -- ./inp_files/16029.got.cif
#   From: 2010.05.17/outbox.cif.g08.bks.cpg/sg55_9_cif.got.tgz:16029.got - 2010.06.03 13:27:54.
