data_PCOD9425408
_publ_section_title
;
Structure prediction by ZEFSAII (Michael W. Deem and Ramdas Pophale) SiO2 
 PCOD9425408
Probable space group: P B A M
;
_chemical_formula_sum "Si O2"
_cell_formula_units_Z 64
_cell_length_a 19.166938
_cell_length_b 22.360095
_cell_length_c 9.035129
_cell_angle_alpha 90.000000
_cell_angle_beta 90.000000
_cell_angle_gamma 90.000000
_cell_volume 3872.226386
_symmetry_space_group_name_H-M "P B A M"
_symmetry_group_IT_number 55
_symmetry_cell_setting 'orthorhombic'
loop_
_space_group_symop_operation_xyz
x,y,z
-x,-y,z
1/2+x,1/2-y,-z
1/2-x,1/2+y,-z
-x,-y,-z
x,y,-z
1/2-x,1/2+y,z
1/2+x,1/2-y,z
loop_
_atom_site_type_symbol
_atom_site_label
_atom_site_fract_x
_atom_site_fract_y
_atom_site_fract_z
Si Si1 0.881712 0.262004 0.175332
Si Si2 0.027378 0.564283 0.322520
Si Si3 0.477841 0.809783 0.322952
Si Si4 0.323983 0.590011 0.821556
Si Si5 0.921292 0.020143 0.822041
Si Si6 0.831003 0.387980 0.822225
Si Si7 0.917117 0.810932 0.323968
Si Si8 0.076102 0.853110 0.676135
O O1 0.830114 0.316661 0.210818
O O2 0.875657 0.199496 0.259127
O O3 0.955797 0.288414 0.229239
O O4 0.881830 0.251840 0.000000
O O5 0.036071 0.561144 0.500000
O O6 0.101742 0.582297 0.253074
O O7 0.000000 0.500000 0.269925
O O8 0.973530 0.619384 0.293589
O O9 0.492922 0.802874 0.500000
O O10 0.418880 0.760328 0.289916
O O11 0.368719 0.532275 0.775549
O O12 0.243319 0.585667 0.776147
O O13 0.361035 0.649151 0.759382
O O14 0.325879 0.593060 0.000000
O O15 0.907091 0.083253 0.746380
O O16 0.917346 0.026825 0.000000
O O17 0.000000 0.000000 0.784938
O O18 0.838991 0.393660 0.000000
O O19 0.907413 0.817847 0.500000
O O20 0.995106 0.835947 0.287733
O O21 0.081645 0.854701 0.500000
#
# Coordination Sequence:
#
# PCOD9425408 Si02
#       8
#     8   8   8   8   8   8   8   8
#     4   9  16  28  48  70  91 119 157 197 241 291
#     4   9  17  31  54  79 100 129 165 205 250 299
#     4   8  15  28  45  70  99 121 150 195 244 288
#     4  10  20  33  49  69  98 132 167 207 248 296
#     4  10  19  31  48  72  99 134 174 207 243 289
#     4   9  19  34  51  73  99 129 163 207 255 299
#     4   9  17  28  44  68  95 126 158 197 245 288
#     4  10  19  30  47  71  99 126 159 205 247 284
#
# _framework density 16.527958999999999
#
# number of rings (size 3 to 8) (size 9 to 14) (size 15 to 20)
#    0.000    2.750    1.250    1.500    0.000    4.000 
#    0.000    0.000    2.750    0.000    0.000    0.000 
#    0.000    0.000    0.000    0.000    0.000    0.000 
#
# Total GULP energy -356310.332750 kJ/mol
# GULP energy per Si atom -5567.348949 kJ/mol
# Density = 1.649034 g / cm^3
# Si number density = 16.527959 Si / 1000 Ang^3
#
#
#
# Elastic Constant Matrix: (Units=GPa)
#
#
# Indices 1 2 3 4 5 6 
#
# 1 67.1303 59.0116 21.0975 0.0000 0.0000 0.0000
# 2 59.0116 162.9050 37.4928 0.0000 0.0000 0.0000
# 3 21.0975 37.4928 14.7646 0.0000 0.0000 0.0000
# 4 0.0000 0.0000 0.0000 24.8464 0.0000 0.0000
# 5 0.0000 0.0000 0.0000 0.0000 13.9420 0.0000
# 6 0.0000 0.0000 0.0000 0.0000 0.0000 22.7927
#
#
#
# Elastic Compliance Matrix: (Units=1/GPa)
#
#
# Indices 1 2 3 4 5 6 
#
# 1 0.027362 -0.002198 -0.033518 0.000000 0.000000 0.000000
# 2 -0.002198 0.014948 -0.034819 0.000000 0.000000 0.000000
# 3 -0.033518 -0.034819 0.204041 0.000000 0.000000 0.000000
# 4 0.000000 0.000000 0.000000 0.040247 0.000000 0.000000
# 5 0.000000 0.000000 0.000000 0.000000 0.071726 0.000000
# 6 0.000000 0.000000 0.000000 0.000000 0.000000 0.043874
#
#
# Mechanical properties :
#
#
# Convention : Reuss Voigt Hill
#
# Bulk Modulus (GPa) = 9.49817 53.33376 31.41596
# Shear Modulus (GPa) = 8.64511 20.79608 14.72060
#
# Velocity S-wave (km/s) = 2.28953 3.55101 2.98761
# Velocity P-wave (km/s) = 3.57050 7.01083 5.56328
#
# Compressibility (1/GPa) = 0.10528344
#
# Stress axis : x y z
#
# Youngs Moduli (GPa) = 36.54689 66.89758 4.90097
#
# Poissons Ratio (x) = 0.14702 0.16427
# Poissons Ratio (y) = 0.08032 0.17065
# Poissons Ratio (z) = 1.22497 2.32929
#
# Static dielectric constant tensor:
#      x y z
#    x 1.540150 0.000000 0.000000 
#    y 0.000000 1.589870 0.000000 
#    z 0.000000 0.000000 1.546810 
# 
# From -- ./inp_files/9192.got.cif
#   From: 2010.05.17/outbox.cif.g08.bks.cpg/sg55_5_cif.got.tgz:9192.got - 2010.06.03 13:27:54.
