data_PCOD9425068
_publ_section_title
;
Structure prediction by ZEFSAII (Michael W. Deem and Ramdas Pophale) SiO2 
 PCOD9425068
Probable space group: P B A M
;
_chemical_formula_sum "Si O2"
_cell_formula_units_Z 64
_cell_length_a 21.946095
_cell_length_b 17.524383
_cell_length_c 8.142536
_cell_angle_alpha 90.000000
_cell_angle_beta 90.000000
_cell_angle_gamma 90.000000
_cell_volume 3131.552366
_symmetry_space_group_name_H-M "P B A M"
_symmetry_group_IT_number 55
_symmetry_cell_setting 'orthorhombic'
loop_
_space_group_symop_operation_xyz
x,y,z
-x,-y,z
1/2+x,1/2-y,-z
1/2-x,1/2+y,-z
-x,-y,-z
x,y,-z
1/2-x,1/2+y,z
1/2+x,1/2-y,z
loop_
_atom_site_type_symbol
_atom_site_label
_atom_site_fract_x
_atom_site_fract_y
_atom_site_fract_z
Si Si1 0.141475 0.526406 0.801629
Si Si2 0.424961 0.169749 0.198403
Si Si3 0.444731 0.892633 0.199959
Si Si4 0.399094 0.640866 0.697430
Si Si5 0.248584 0.414900 0.304843
Si Si6 0.619234 0.532412 0.701334
Si Si7 0.335380 0.783684 0.195167
Si Si8 0.465590 0.331095 0.302293
O O1 0.128859 0.612890 0.746701
O O2 0.082742 0.474682 0.754059
O O3 0.200541 0.481344 0.740945
O O4 0.144445 0.525518 0.000000
O O5 0.488813 0.132051 0.256241
O O6 0.427126 0.256977 0.252963
O O7 0.424928 0.169080 0.000000
O O8 0.394043 0.831939 0.256912
O O9 0.446417 0.891719 0.000000
O O10 0.401830 0.638891 0.500000
O O11 0.390356 0.554383 0.755855
O O12 0.345055 0.698120 0.744361
O O13 0.464627 0.672041 0.759093
O O14 0.251478 0.410867 0.500000
O O15 0.315466 0.436024 0.242591
O O16 0.222535 0.334030 0.244113
O O17 0.619011 0.531505 0.500000
O O18 0.566716 0.591018 0.752842
O O19 0.338182 0.782954 0.000000
O O20 0.467728 0.332570 0.500000
#
# Coordination Sequence:
#
# PCOD9425068 Si02
#       8
#     8   8   8   8   8   8   8   8
#     4   9  18  32  52  77 107 146 183 223 272 325
#     4  10  18  31  51  77 112 147 180 217 274 338
#     4   8  14  27  49  73 102 139 176 210 261 327
#     4  10  19  35  61  87 109 139 184 230 276 330
#     4  10  20  37  58  78 107 146 189 228 268 324
#     4   9  20  39  59  80 108 147 185 226 280 329
#     4  10  19  34  57  83 113 146 180 225 275 326
#     4  10  20  35  57  84 112 140 180 232 279 327
#
# _framework density 20.437149000000002
#
# number of rings (size 3 to 8) (size 9 to 14) (size 15 to 20)
#    0.000    2.500    1.250    2.250    0.000    3.500 
#    2.250    3.125    0.000    3.750    0.000    0.000 
#    0.000    0.000    0.000    0.000    0.000    0.000 
#
# Total GULP energy -357046.237681 kJ/mol
# GULP energy per Si atom -5578.847464 kJ/mol
# Density = 2.039063 g / cm^3
# Si number density = 20.437149 Si / 1000 Ang^3
#
#
#
# Elastic Constant Matrix: (Units=GPa)
#
#
# Indices 1 2 3 4 5 6 
#
# 1 44.1407 29.3501 6.5657 0.0000 0.0000 0.0000
# 2 29.3501 143.8338 11.1927 0.0000 0.0000 0.0000
# 3 6.5657 11.1927 13.8309 0.0000 0.0000 0.0000
# 4 0.0000 0.0000 0.0000 -168.4314 0.0000 0.0000
# 5 0.0000 0.0000 0.0000 0.0000 10.4371 0.0000
# 6 0.0000 0.0000 0.0000 0.0000 0.0000 12.4595
#
#
#
# Elastic Compliance Matrix: (Units=1/GPa)
#
#
# Indices 1 2 3 4 5 6 
#
# 1 0.027220 -0.004855 -0.008993 0.000000 0.000000 0.000000
# 2 -0.004855 0.008286 -0.004401 0.000000 0.000000 0.000000
# 3 -0.008993 -0.004401 0.080132 0.000000 0.000000 0.000000
# 4 0.000000 0.000000 0.000000 -0.005937 0.000000 0.000000
# 5 0.000000 0.000000 0.000000 0.000000 0.095812 0.000000
# 6 0.000000 0.000000 0.000000 0.000000 0.000000 0.080260
#
#
# Mechanical properties :
#
#
# Convention : Reuss Voigt Hill
#
# Bulk Modulus (GPa) = 12.63563 32.89139 22.76351
# Shear Modulus (GPa) = 14.34102 -18.79382 -2.22640
#
# Velocity S-wave (km/s) = 2.65186 -3.03577 -1.04487
# Velocity P-wave (km/s) = 3.94621 1.95985 3.11558
#
# Compressibility (1/GPa) = 0.07914130
#
# Stress axis : x y z
#
# Youngs Moduli (GPa) = 36.73708 120.69237 12.47941
#
# Poissons Ratio (x) = 0.58592 0.11223
# Poissons Ratio (y) = 0.17835 0.05492
# Poissons Ratio (z) = 0.33038 0.53111
#
# Static dielectric constant tensor:
#      x y z
#    x 1.725570 0.000000 0.000000 
#    y 0.000000 1.744280 0.000000 
#    z 0.000000 0.000000 1.724530 
# 
# From -- ./inp_files/9873.got.cif
#   From: 2010.05.17/outbox.cif.g08.bks.cpg/sg55_5_cif.got.tgz:9873.got - 2010.06.03 13:27:54.
