data_PCOD9425998
_publ_section_title
;
Structure prediction by ZEFSAII (Michael W. Deem and Ramdas Pophale) SiO2 
 PCOD9425998
Probable space group: P B A M
;
_chemical_formula_sum "Si O2"
_cell_formula_units_Z 64
_cell_length_a 20.599668
_cell_length_b 10.012795
_cell_length_c 18.748434
_cell_angle_alpha 90.000000
_cell_angle_beta 90.000000
_cell_angle_gamma 90.000000
_cell_volume 3867.056736
_symmetry_space_group_name_H-M "P B A M"
_symmetry_group_IT_number 55
_symmetry_cell_setting 'orthorhombic'
loop_
_space_group_symop_operation_xyz
x,y,z
-x,-y,z
1/2+x,1/2-y,-z
1/2-x,1/2+y,-z
-x,-y,-z
x,y,-z
1/2-x,1/2+y,z
1/2+x,1/2-y,z
loop_
_atom_site_type_symbol
_atom_site_label
_atom_site_fract_x
_atom_site_fract_y
_atom_site_fract_z
Si Si1 0.487322 0.342228 0.696415
Si Si2 0.800262 0.431136 0.585288
Si Si3 0.547049 0.877020 0.415170
Si Si4 0.737011 0.191842 0.671985
Si Si5 0.621374 0.293895 0.231514
Si Si6 0.298090 0.421239 0.079718
Si Si7 0.644236 0.609423 0.227205
Si Si8 0.674784 0.268181 0.080400
O O1 0.500000 0.500000 0.681804
O O2 0.473924 0.255457 0.626472
O O3 0.549536 0.283789 0.737210
O O4 0.423321 0.332867 0.745131
O O5 0.790741 0.429198 0.500000
O O6 0.877224 0.409061 0.599234
O O7 0.758773 0.316740 0.624126
O O8 0.777491 0.569281 0.619788
O O9 0.540167 0.858075 0.500000
O O10 0.500000 0.000000 0.394372
O O11 0.673715 0.218105 0.720115
O O12 0.796219 0.161656 0.725735
O O13 0.640139 0.449997 0.236856
O O14 0.627975 0.255170 0.148346
O O15 0.342275 0.368530 0.143818
O O16 0.293750 0.582605 0.086410
O O17 0.229724 0.345245 0.086028
O O18 0.323526 0.393673 0.000000
O O19 0.646444 0.260648 0.000000
#
# Coordination Sequence:
#
# PCOD9425998 Si02
#       8
#     8   8   8   8   8   8   8   8
#     4  10  21  37  55  78 107 143 185 224 265 324
#     4  11  24  38  56  80 110 143 177 227 278 325
#     4  10  21  39  57  78 109 142 179 224 277 331
#     4  12  20  36  57  81 107 140 180 226 272 321
#     4  10  20  34  55  81 108 140 180 221 271 316
#     4   9  17  30  50  77 108 140 175 218 268 319
#     4  10  19  34  54  79 109 140 180 225 263 316
#     4   9  17  30  49  77 109 139 174 217 267 320
#
# _framework density 16.550053999999999
#
# number of rings (size 3 to 8) (size 9 to 14) (size 15 to 20)
#    0.000    1.875    3.750    1.125    0.000    0.250 
#    0.000    1.250    0.000    3.750    0.000    0.000 
#    0.000    6.000    0.000    0.000    0.000    0.000 
#
# Total GULP energy -356807.579199 kJ/mol
# GULP energy per Si atom -5575.118425 kJ/mol
# Density = 1.651239 g / cm^3
# Si number density = 16.550054 Si / 1000 Ang^3
#
#
#
# Elastic Constant Matrix: (Units=GPa)
#
#
# Indices 1 2 3 4 5 6 
#
# 1 83.1161 26.1284 43.3399 0.0000 0.0000 0.0000
# 2 26.1284 46.9094 37.2822 0.0000 0.0000 0.0000
# 3 43.3399 37.2822 96.8499 0.0000 0.0000 0.0000
# 4 0.0000 0.0000 0.0000 19.6399 0.0000 0.0000
# 5 0.0000 0.0000 0.0000 0.0000 18.3727 0.0000
# 6 0.0000 0.0000 0.0000 0.0000 0.0000 21.4874
#
#
#
# Elastic Compliance Matrix: (Units=1/GPa)
#
#
# Indices 1 2 3 4 5 6 
#
# 1 0.016398 -0.004757 -0.005507 0.000000 0.000000 0.000000
# 2 -0.004757 0.032095 -0.010226 0.000000 0.000000 0.000000
# 3 -0.005507 -0.010226 0.016726 0.000000 0.000000 0.000000
# 4 0.000000 0.000000 0.000000 0.050917 0.000000 0.000000
# 5 0.000000 0.000000 0.000000 0.000000 0.054429 0.000000
# 6 0.000000 0.000000 0.000000 0.000000 0.000000 0.046539
#
#
# Mechanical properties :
#
#
# Convention : Reuss Voigt Hill
#
# Bulk Modulus (GPa) = 41.25579 48.93069 45.09324
# Shear Modulus (GPa) = 18.78547 19.90833 19.34690
#
# Velocity S-wave (km/s) = 3.37274 3.47207 3.42276
# Velocity P-wave (km/s) = 6.33633 6.76041 6.55180
#
# Compressibility (1/GPa) = 0.02423902
#
# Stress axis : x y z
#
# Youngs Moduli (GPa) = 60.98185 31.15779 59.78688
#
# Poissons Ratio (x) = 0.14822 0.32924
# Poissons Ratio (y) = 0.29009 0.61138
# Poissons Ratio (z) = 0.33582 0.31862
#
# Static dielectric constant tensor:
#      x y z
#    x 1.533750 0.000000 0.000000 
#    y 0.000000 1.547500 0.000000 
#    z 0.000000 0.000000 1.555480 
# 
# From -- ./inp_files/21072.got.cif
#   From: 2010.05.17/outbox.cif.g08.bks.cpg/sg55_11_cif.got.tgz:21072.got - 2010.06.03 13:27:54.
