data_PCOD9425709
_publ_section_title
;
Structure prediction by ZEFSAII (Michael W. Deem and Ramdas Pophale) SiO2 
 PCOD9425709
Probable space group: P B A M
;
_chemical_formula_sum "Si O2"
_cell_formula_units_Z 64
_cell_length_a 26.382807
_cell_length_b 13.716079
_cell_length_c 7.402153
_cell_angle_alpha 90.000000
_cell_angle_beta 90.000000
_cell_angle_gamma 90.000000
_cell_volume 2678.607225
_symmetry_space_group_name_H-M "P B A M"
_symmetry_group_IT_number 55
_symmetry_cell_setting 'orthorhombic'
loop_
_space_group_symop_operation_xyz
x,y,z
-x,-y,z
1/2+x,1/2-y,-z
1/2-x,1/2+y,-z
-x,-y,-z
x,y,-z
1/2-x,1/2+y,z
1/2+x,1/2-y,z
loop_
_atom_site_type_symbol
_atom_site_label
_atom_site_fract_x
_atom_site_fract_y
_atom_site_fract_z
Si Si1 0.384288 0.431247 0.707409
Si Si2 0.626001 0.353335 0.712573
Si Si3 0.438025 0.236267 0.281659
Si Si4 0.720370 0.658281 0.782403
Si Si5 0.077909 0.518648 0.704456
Si Si6 0.755214 0.855438 0.782505
Si Si7 0.051181 0.311569 0.281350
Si Si8 0.810505 0.537772 0.217214
O O1 0.402141 0.437274 0.500000
O O2 0.390449 0.539937 0.787106
O O3 0.410142 0.333719 0.787536
O O4 0.324352 0.407201 0.707756
O O5 0.613799 0.355692 0.500000
O O6 0.686597 0.346689 0.727564
O O7 0.596585 0.258226 0.784988
O O8 0.429871 0.236224 0.500000
O O9 0.421685 0.127912 0.215713
O O10 0.497870 0.239931 0.244282
O O11 0.717191 0.769732 0.724694
O O12 0.778232 0.632173 0.734019
O O13 0.716612 0.648535 0.000000
O O14 0.058060 0.531606 0.500000
O O15 0.050210 0.423679 0.786562
O O16 0.135475 0.480352 0.699640
O O17 0.728883 0.954481 0.727560
O O18 0.756177 0.852966 0.000000
O O19 0.055923 0.320749 0.500000
O O20 0.817417 0.535534 0.000000
#
# Coordination Sequence:
#
# PCOD9425709 Si02
#       8
#     8   8   8   8   8   8   8   8
#     4  10  20  33  51  77 106 136 172 213 257 304
#     4  10  20  33  51  77 106 136 172 213 257 304
#     4   9  18  33  53  77 104 134 171 216 264 311
#     4  10  20  34  52  73 100 137 175 209 253 309
#     4  10  19  32  54  80 102 131 173 218 261 305
#     4  10  20  34  52  73 100 137 175 209 253 309
#     4   9  18  33  53  77 104 134 171 216 264 311
#     4  10  20  33  49  73 103 135 166 199 253 312
#
# _framework density 23.893014999999998
#
# number of rings (size 3 to 8) (size 9 to 14) (size 15 to 20)
#    0.000    2.250    1.250    1.875    0.000    3.500 
#    0.000    2.500    0.000    3.750    0.000    1.750 
#    0.000    0.000    0.000    0.000    0.000    0.000 
#
# Total GULP energy -357265.409169 kJ/mol
# GULP energy per Si atom -5582.272018 kJ/mol
# Density = 2.383863 g / cm^3
# Si number density = 23.893015 Si / 1000 Ang^3
#
#
#
# Elastic Constant Matrix: (Units=GPa)
#
#
# Indices 1 2 3 4 5 6 
#
# 1 56.7546 3.8480 -6.9597 0.0000 0.0000 0.0000
# 2 3.8480 137.2434 5.9015 0.0000 0.0000 0.0000
# 3 -6.9597 5.9015 77.2052 0.0000 0.0000 0.0000
# 4 0.0000 0.0000 0.0000 -510.5234 0.0000 0.0000
# 5 0.0000 0.0000 0.0000 0.0000 27.7224 0.0000
# 6 0.0000 0.0000 0.0000 0.0000 0.0000 41.0587
#
#
#
# Elastic Compliance Matrix: (Units=1/GPa)
#
#
# Indices 1 2 3 4 5 6 
#
# 1 0.017861 -0.000572 0.001654 0.000000 0.000000 0.000000
# 2 -0.000572 0.007329 -0.000612 0.000000 0.000000 0.000000
# 3 0.001654 -0.000612 0.013148 0.000000 0.000000 0.000000
# 4 0.000000 0.000000 0.000000 -0.001959 0.000000 0.000000
# 5 0.000000 0.000000 0.000000 0.000000 0.036072 0.000000
# 6 0.000000 0.000000 0.000000 0.000000 0.000000 0.024355
#
#
# Mechanical properties :
#
#
# Convention : Reuss Voigt Hill
#
# Bulk Modulus (GPa) = 25.45912 30.75365 28.10639
# Shear Modulus (GPa) = 45.88867 -70.45423 -12.28278
#
# Velocity S-wave (km/s) = 4.38721 -5.43612 -2.26978
# Velocity P-wave (km/s) = 6.02844 5.14806 2.21806
#
# Compressibility (1/GPa) = 0.03927865
#
# Stress axis : x y z
#
# Youngs Moduli (GPa) = 55.98692 136.45051 76.05524
#
# Poissons Ratio (x) = 0.07804 -0.12578
# Poissons Ratio (y) = 0.03202 0.04653
# Poissons Ratio (z) = -0.09259 0.08347
#
# Static dielectric constant tensor:
#      x y z
#    x 1.858400 0.000000 0.000000 
#    y 0.000000 1.931280 0.000000 
#    z 0.000000 0.000000 1.982090 
# 
# From -- ./inp_files/9652.got.cif
#   From: 2010.05.17/outbox.cif.g08.bks.cpg/sg55_5_cif.got.tgz:9652.got - 2010.06.03 13:27:54.
