data_PCOD9425044
_publ_section_title
;
Structure prediction by ZEFSAII (Michael W. Deem and Ramdas Pophale) SiO2 
 PCOD9425044
Probable space group: P B A M
;
_chemical_formula_sum "Si O2"
_cell_formula_units_Z 60
_cell_length_a 14.848150
_cell_length_b 14.771027
_cell_length_c 13.900446
_cell_angle_alpha 90.000000
_cell_angle_beta 90.000000
_cell_angle_gamma 90.000000
_cell_volume 3048.679519
_symmetry_space_group_name_H-M "P B A M"
_symmetry_group_IT_number 55
_symmetry_cell_setting 'orthorhombic'
loop_
_space_group_symop_operation_xyz
x,y,z
-x,-y,z
1/2+x,1/2-y,-z
1/2-x,1/2+y,-z
-x,-y,-z
x,y,-z
1/2-x,1/2+y,z
1/2+x,1/2-y,z
loop_
_atom_site_type_symbol
_atom_site_label
_atom_site_fract_x
_atom_site_fract_y
_atom_site_fract_z
Si Si1 0.500000 0.000000 0.779610
Si Si2 0.172875 0.807670 0.393134
Si Si3 0.069505 0.313162 0.772862
Si Si4 0.756206 0.613625 0.111509
Si Si5 0.884906 0.246229 0.811629
Si Si6 0.816532 0.439086 0.809328
Si Si7 0.742173 0.486914 0.609761
Si Si8 0.856964 0.807179 0.393778
O O1 0.529327 0.092953 0.728285
O O2 0.414359 0.026900 0.842446
O O3 0.131221 0.803728 0.500000
O O4 0.115209 0.777956 0.301986
O O5 0.259183 0.741541 0.394019
O O6 0.208908 0.910257 0.377995
O O7 0.161893 0.341073 0.826981
O O8 0.091577 0.240519 0.691800
O O9 0.986979 0.274187 0.836570
O O10 0.663602 0.664733 0.134798
O O11 0.748424 0.508014 0.141536
O O12 0.778015 0.621004 0.000000
O O13 0.818479 0.332736 0.825534
O O14 0.809663 0.459773 0.694986
O O15 0.777189 0.477831 0.500000
O O16 0.661855 0.413699 0.619632
O O17 0.896681 0.792593 0.500000
#
# Coordination Sequence:
#
# PCOD9425044 Si02
#       8
#     4   8   8   8   8   8   8   8
#     4   8  18  32  52  80 110 138 182 234 290 336
#     4  10  18  31  54  85 116 150 191 231 273 330
#     4  10  20  38  58  84 117 149 187 238 287 340
#     4  11  23  40  59  82 113 146 187 242 297 343
#     4  11  21  36  62  88 111 150 190 232 284 345
#     4  10  18  35  56  81 112 143 184 232 289 340
#     4  10  18  30  55  81 110 153 192 222 269 334
#     4  10  19  34  56  84 121 159 191 230 279 336
#
# _framework density 19.680653
#
# number of rings (size 3 to 8) (size 9 to 14) (size 15 to 20)
#    0.000    1.867    4.000    0.800    0.000    1.600 
#    0.000   14.667    0.000    2.400    0.000    2.800 
#    0.000    0.000    0.000    0.000    0.000    0.000 
#
# Total GULP energy -334229.737470 kJ/mol
# GULP energy per Si atom -5570.495625 kJ/mol
# Density = 1.963586 g / cm^3
# Si number density = 19.680653 Si / 1000 Ang^3
#
#
#
# Elastic Constant Matrix: (Units=GPa)
#
#
# Indices 1 2 3 4 5 6 
#
# 1 31.0823 -7.2422 9.9350 0.0000 0.0000 0.0000
# 2 -7.2422 80.2542 9.3138 0.0000 0.0000 0.0000
# 3 9.9350 9.3138 58.7202 0.0000 0.0000 0.0000
# 4 0.0000 0.0000 0.0000 -2.7469 0.0000 0.0000
# 5 0.0000 0.0000 0.0000 0.0000 1.7950 0.0000
# 6 0.0000 0.0000 0.0000 0.0000 0.0000 28.0542
#
#
#
# Elastic Compliance Matrix: (Units=1/GPa)
#
#
# Indices 1 2 3 4 5 6 
#
# 1 0.035193 0.003939 -0.006579 0.000000 0.000000 0.000000
# 2 0.003939 0.013135 -0.002750 0.000000 0.000000 0.000000
# 3 -0.006579 -0.002750 0.018579 0.000000 0.000000 0.000000
# 4 0.000000 0.000000 0.000000 -0.364044 0.000000 0.000000
# 5 0.000000 0.000000 0.000000 0.000000 0.557099 0.000000
# 6 0.000000 0.000000 0.000000 0.000000 0.000000 0.035645
#
#
# Mechanical properties :
#
#
# Convention : Reuss Voigt Hill
#
# Bulk Modulus (GPa) = 17.81635 21.56332 19.68983
# Shear Modulus (GPa) = 15.38002 15.95714 15.66858
#
# Velocity S-wave (km/s) = 2.79853 2.85055 2.82466
# Velocity P-wave (km/s) = 4.41755 4.67061 4.54584
#
# Compressibility (1/GPa) = 0.05612823
#
# Stress axis : x y z
#
# Youngs Moduli (GPa) = 28.41434 76.13220 53.82351
#
# Poissons Ratio (x) = -0.29992 0.35412
# Poissons Ratio (y) = -0.11194 0.14801
# Poissons Ratio (z) = 0.18695 0.20936
#
# Static dielectric constant tensor:
#      x y z
#    x 1.724670 0.000000 0.000000 
#    y 0.000000 1.721110 0.000000 
#    z 0.000000 0.000000 1.706010 
# 
# From -- ./inp_files/19086.got.cif
#   From: 2010.05.17/outbox.cif.g08.bks.cpg/sg55_10_cif.got.tgz:19086.got - 2010.06.03 13:27:54.
