data_PCOD9425243
_publ_section_title
;
Structure prediction by ZEFSAII (Michael W. Deem and Ramdas Pophale) SiO2 
 PCOD9425243
Probable space group: P B A M
;
_chemical_formula_sum "Si O2"
_cell_formula_units_Z 64
_cell_length_a 20.415710
_cell_length_b 19.965193
_cell_length_c 8.709928
_cell_angle_alpha 90.000000
_cell_angle_beta 90.000000
_cell_angle_gamma 90.000000
_cell_volume 3550.197925
_symmetry_space_group_name_H-M "P B A M"
_symmetry_group_IT_number 55
_symmetry_cell_setting 'orthorhombic'
loop_
_space_group_symop_operation_xyz
x,y,z
-x,-y,z
1/2+x,1/2-y,-z
1/2-x,1/2+y,-z
-x,-y,-z
x,y,-z
1/2-x,1/2+y,z
1/2+x,1/2-y,z
loop_
_atom_site_type_symbol
_atom_site_label
_atom_site_fract_x
_atom_site_fract_y
_atom_site_fract_z
Si Si1 0.067587 0.462903 0.184860
Si Si2 0.286758 0.744805 0.816647
Si Si3 0.010820 0.789413 0.685136
Si Si4 0.314765 0.599068 0.684030
Si Si5 0.960286 0.934656 0.312613
Si Si6 0.097204 0.319596 0.683302
Si Si7 0.139428 0.721122 0.815635
Si Si8 0.175915 0.570712 0.185191
O O1 0.072012 0.391403 0.263902
O O2 0.127955 0.510752 0.229718
O O3 0.000000 0.500000 0.222683
O O4 0.069504 0.454020 0.000000
O O5 0.311839 0.675715 0.741710
O O6 0.332929 0.803470 0.757961
O O7 0.210277 0.752169 0.776198
O O8 0.290852 0.738229 0.000000
O O9 0.011436 0.789886 0.500000
O O10 0.079430 0.760436 0.742912
O O11 0.993699 0.864749 0.736710
O O12 0.953660 0.738102 0.734052
O O13 0.312703 0.598971 0.500000
O O14 0.383824 0.566958 0.733556
O O15 0.248830 0.565527 0.748082
O O16 0.960969 0.934939 0.500000
O O17 0.000000 0.000000 0.260610
O O18 0.102739 0.316570 0.500000
O O19 0.145096 0.642780 0.768278
O O20 0.131975 0.722239 0.000000
O O21 0.180744 0.572213 0.000000
#
# Coordination Sequence:
#
# PCOD9425243 Si02
#       8
#     8   8   8   8   8   8   8   8
#     4  10  21  38  58  80 111 154 194 228 278 339
#     4  10  20  36  57  79 108 146 186 225 275 332
#     4  10  20  35  55  82 111 141 179 227 280 327
#     4  10  18  33  58  83 109 141 185 230 274 328
#     4   9  18  35  56  77 107 143 179 222 274 332
#     4  11  22  36  56  84 114 143 186 238 282 332
#     4   9  19  35  56  82 109 142 183 225 269 324
#     4   9  19  36  56  80 112 147 188 229 268 329
#
# _framework density 18.027165
#
# number of rings (size 3 to 8) (size 9 to 14) (size 15 to 20)
#    0.000    2.250    1.250    2.625    0.000    5.250 
#    2.250    0.000    0.000    2.625    0.000    0.000 
#    0.000    0.000    0.000    0.000    0.000    0.000 
#
# Total GULP energy -357172.683591 kJ/mol
# GULP energy per Si atom -5580.823181 kJ/mol
# Density = 1.798613 g / cm^3
# Si number density = 18.027165 Si / 1000 Ang^3
#
#
#
# Elastic Constant Matrix: (Units=GPa)
#
#
# Indices 1 2 3 4 5 6 
#
# 1 137.3121 79.2238 30.3901 0.0000 0.0000 0.0000
# 2 79.2238 120.1017 26.8707 0.0000 0.0000 0.0000
# 3 30.3901 26.8707 16.2676 0.0000 0.0000 0.0000
# 4 0.0000 0.0000 0.0000 24.3095 0.0000 0.0000
# 5 0.0000 0.0000 0.0000 0.0000 14.9327 0.0000
# 6 0.0000 0.0000 0.0000 0.0000 0.0000 31.3367
#
#
#
# Elastic Compliance Matrix: (Units=1/GPa)
#
#
# Indices 1 2 3 4 5 6 
#
# 1 0.014407 -0.005523 -0.017791 0.000000 0.000000 0.000000
# 2 -0.005523 0.015324 -0.014995 0.000000 0.000000 0.000000
# 3 -0.017791 -0.014995 0.119477 0.000000 0.000000 0.000000
# 4 0.000000 0.000000 0.000000 0.041136 0.000000 0.000000
# 5 0.000000 0.000000 0.000000 0.000000 0.066967 0.000000
# 6 0.000000 0.000000 0.000000 0.000000 0.000000 0.031911
#
#
# Mechanical properties :
#
#
# Convention : Reuss Voigt Hill
#
# Bulk Modulus (GPa) = 13.77606 60.73896 37.25751
# Shear Modulus (GPa) = 12.81928 23.26224 18.04076
#
# Velocity S-wave (km/s) = 2.66956 3.59611 3.16690
# Velocity P-wave (km/s) = 4.14252 7.14205 5.83821
#
# Compressibility (1/GPa) = 0.07258972
#
# Stress axis : x y z
#
# Youngs Moduli (GPa) = 69.41247 65.25631 8.36981
#
# Poissons Ratio (x) = 0.36039 0.14891
# Poissons Ratio (y) = 0.38334 0.12551
# Poissons Ratio (z) = 1.23493 0.97853
#
# Static dielectric constant tensor:
#      x y z
#    x 1.591320 0.000000 0.000000 
#    y 0.000000 1.602690 0.000000 
#    z 0.000000 0.000000 1.614020 
# 
# From -- ./inp_files/8021.got.cif
#   From: 2010.05.17/outbox.cif.g08.bks.cpg/sg55_5_cif.got.tgz:8021.got - 2010.06.03 13:27:54.
