data_PCOD9425192
_publ_section_title
;
Structure prediction by ZEFSAII (Michael W. Deem and Ramdas Pophale) SiO2 
 PCOD9425192
Probable space group: P B A M
;
_chemical_formula_sum "Si O2"
_cell_formula_units_Z 64
_cell_length_a 10.742817
_cell_length_b 18.363238
_cell_length_c 17.594844
_cell_angle_alpha 90.000000
_cell_angle_beta 90.000000
_cell_angle_gamma 90.000000
_cell_volume 3470.985995
_symmetry_space_group_name_H-M "P B A M"
_symmetry_group_IT_number 55
_symmetry_cell_setting 'orthorhombic'
loop_
_space_group_symop_operation_xyz
x,y,z
-x,-y,z
1/2+x,1/2-y,-z
1/2-x,1/2+y,-z
-x,-y,-z
x,y,-z
1/2-x,1/2+y,z
1/2+x,1/2-y,z
loop_
_atom_site_type_symbol
_atom_site_label
_atom_site_fract_x
_atom_site_fract_y
_atom_site_fract_z
Si Si1 0.118936 0.446525 0.583900
Si Si2 0.385058 0.100721 0.774281
Si Si3 0.167159 0.443652 0.748542
Si Si4 0.722423 0.825710 0.911247
Si Si5 0.977282 0.915404 0.090155
Si Si6 0.182565 0.819363 0.828215
Si Si7 0.680217 0.768568 0.674936
Si Si8 0.429094 0.775044 0.585818
O O1 0.174357 0.462471 0.500000
O O2 0.202971 0.450983 0.659486
O O3 0.076245 0.362751 0.582741
O O4 0.000000 0.500000 0.592595
O O5 0.523675 0.081854 0.748054
O O6 0.381506 0.142953 0.854044
O O7 0.322606 0.150068 0.709483
O O8 0.319634 0.023328 0.783190
O O9 0.231367 0.384863 0.800858
O O10 0.743561 0.743129 0.881305
O O11 0.840195 0.879787 0.900754
O O12 0.689321 0.824829 0.000000
O O13 0.067742 0.858267 0.131170
O O14 0.004647 0.914969 0.000000
O O15 0.000000 0.000000 0.115528
O O16 0.151474 0.779882 0.748943
O O17 0.565182 0.756513 0.618110
O O18 0.813504 0.750176 0.638189
O O19 0.412590 0.746933 0.500000
#
# Coordination Sequence:
#
# PCOD9425192 Si02
#       8
#     8   8   8   8   8   8   8   8
#     4  10  18  32  55  82 117 156 198 241 287 349
#     4  10  21  35  63  83 123 149 195 245 300 356
#     4  11  19  39  55  93 116 156 197 249 295 359
#     4  10  23  40  59  85 117 154 195 247 304 362
#     4  10  22  41  60  82 114 156 201 239 290 364
#     4  11  23  34  61  86 117 148 199 242 303 353
#     4  11  21  37  58  90 120 156 199 249 300 362
#     4  11  22  37  57  86 120 159 199 250 304 357
#
# _framework density 18.438565000000001
#
# number of rings (size 3 to 8) (size 9 to 14) (size 15 to 20)
#    0.000    1.500    3.750    1.500    7.000    0.000 
#    0.000    3.125    0.000    0.000    0.000    0.875 
#    0.000    0.000    0.000    0.000    0.000    0.000 
#
# Total GULP energy -356631.039089 kJ/mol
# GULP energy per Si atom -5572.359986 kJ/mol
# Density = 1.839660 g / cm^3
# Si number density = 18.438565 Si / 1000 Ang^3
#
#
#
# Elastic Constant Matrix: (Units=GPa)
#
#
# Indices 1 2 3 4 5 6 
#
# 1 44.2956 30.4076 31.7921 0.0000 0.0000 0.0000
# 2 30.4076 106.1914 34.0261 0.0000 0.0000 0.0000
# 3 31.7921 34.0261 116.8424 0.0000 0.0000 0.0000
# 4 0.0000 0.0000 0.0000 16.9678 0.0000 0.0000
# 5 0.0000 0.0000 0.0000 0.0000 20.5934 0.0000
# 6 0.0000 0.0000 0.0000 0.0000 0.0000 26.7131
#
#
#
# Elastic Compliance Matrix: (Units=1/GPa)
#
#
# Indices 1 2 3 4 5 6 
#
# 1 0.032259 -0.007086 -0.006714 0.000000 0.000000 0.000000
# 2 -0.007086 0.011943 -0.001550 0.000000 0.000000 0.000000
# 3 -0.006714 -0.001550 0.010837 0.000000 0.000000 0.000000
# 4 0.000000 0.000000 0.000000 0.058935 0.000000 0.000000
# 5 0.000000 0.000000 0.000000 0.000000 0.048559 0.000000
# 6 0.000000 0.000000 0.000000 0.000000 0.000000 0.037435
#
#
# Mechanical properties :
#
#
# Convention : Reuss Voigt Hill
#
# Bulk Modulus (GPa) = 41.08683 51.08679 46.08681
# Shear Modulus (GPa) = 20.93984 24.26175 22.60079
#
# Velocity S-wave (km/s) = 3.37360 3.63135 3.50485
# Velocity P-wave (km/s) = 6.12425 6.73416 6.43643
#
# Compressibility (1/GPa) = 0.02433870
#
# Stress axis : x y z
#
# Youngs Moduli (GPa) = 30.99951 83.73398 92.27934
#
# Poissons Ratio (x) = 0.59333 0.61955
# Poissons Ratio (y) = 0.21966 0.14302
# Poissons Ratio (z) = 0.20813 0.12977
#
# Static dielectric constant tensor:
#      x y z
#    x 1.633340 0.000000 0.000000 
#    y 0.000000 1.653820 0.000000 
#    z 0.000000 0.000000 1.667240 
# 
# From -- ./inp_files/18590.got.cif
#   From: 2010.05.17/outbox.cif.g08.bks.cpg/sg55_10_cif.got.tgz:18590.got - 2010.06.03 13:27:54.
