data_PCOD9425704
_publ_section_title
;
Structure prediction by ZEFSAII (Michael W. Deem and Ramdas Pophale) SiO2 
 PCOD9425704
Probable space group: P B A M
;
_chemical_formula_sum "Si O2"
_cell_formula_units_Z 64
_cell_length_a 17.320431
_cell_length_b 21.891023
_cell_length_c 8.752042
_cell_angle_alpha 90.000000
_cell_angle_beta 90.000000
_cell_angle_gamma 90.000000
_cell_volume 3318.441341
_symmetry_space_group_name_H-M "P B A M"
_symmetry_group_IT_number 55
_symmetry_cell_setting 'orthorhombic'
loop_
_space_group_symop_operation_xyz
x,y,z
-x,-y,z
1/2+x,1/2-y,-z
1/2-x,1/2+y,-z
-x,-y,-z
x,y,-z
1/2-x,1/2+y,z
1/2+x,1/2-y,z
loop_
_atom_site_type_symbol
_atom_site_label
_atom_site_fract_x
_atom_site_fract_y
_atom_site_fract_z
Si Si1 0.077161 0.256395 0.316457
Si Si2 0.361678 0.404089 0.683432
Si Si3 0.330406 0.073808 0.319443
Si Si4 0.170275 0.035808 0.818304
Si Si5 0.462108 0.619121 0.314951
Si Si6 0.393771 0.950415 0.180828
Si Si7 0.468243 0.139532 0.181812
Si Si8 0.789993 0.655869 0.683275
O O1 0.068087 0.258966 0.500000
O O2 0.064766 0.186887 0.268941
O O3 0.162090 0.283209 0.279446
O O4 0.014225 0.302052 0.244877
O O5 0.362168 0.412299 0.500000
O O6 0.331586 0.466649 0.756540
O O7 0.449025 0.390684 0.731156
O O8 0.300500 0.350275 0.717821
O O9 0.322100 0.078327 0.500000
O O10 0.246221 0.069801 0.244277
O O11 0.385928 0.126954 0.257410
O O12 0.372567 0.010461 0.273800
O O13 0.094209 0.069498 0.757172
O O14 0.172083 0.035225 0.000000
O O15 0.457584 0.614421 0.500000
O O16 0.476163 0.919044 0.213691
O O17 0.332744 0.898303 0.227156
O O18 0.389668 0.964158 0.000000
O O19 0.460578 0.144067 0.000000
O O20 0.799220 0.645560 0.500000
#
# Coordination Sequence:
#
# PCOD9425704 Si02
#       8
#     8   8   8   8   8   8   8   8
#     4   9  19  38  60  86 119 157 203 244 286 345
#     4  10  20  37  62  89 117 153 198 245 296 352
#     4  12  23  36  56  83 117 155 196 242 296 354
#     4  12  25  40  60  87 120 153 195 249 307 360
#     4  10  22  41  62  87 121 158 199 247 298 351
#     4  10  19  32  53  83 119 155 190 236 292 349
#     4  10  21  36  56  84 120 158 195 239 293 350
#     4   9  17  32  57  85 115 155 198 240 284 344
#
# _framework density 19.286162999999998
#
# number of rings (size 3 to 8) (size 9 to 14) (size 15 to 20)
#    0.000    1.750    1.250    3.750    0.000    5.500 
#    2.250    0.000    0.000    0.000    0.000    0.000 
#    0.000    0.000    0.000    0.000    0.000    0.000 
#
# Total GULP energy -357500.622122 kJ/mol
# GULP energy per Si atom -5585.947221 kJ/mol
# Density = 1.924227 g / cm^3
# Si number density = 19.286163 Si / 1000 Ang^3
#
#
#
# Elastic Constant Matrix: (Units=GPa)
#
#
# Indices 1 2 3 4 5 6 
#
# 1 146.5196 32.1520 39.6216 0.0000 0.0000 0.0000
# 2 32.1520 36.0642 10.5879 0.0000 0.0000 0.0000
# 3 39.6216 10.5879 35.4770 0.0000 0.0000 0.0000
# 4 0.0000 0.0000 0.0000 -27.5325 0.0000 0.0000
# 5 0.0000 0.0000 0.0000 0.0000 10.9059 0.0000
# 6 0.0000 0.0000 0.0000 0.0000 0.0000 10.1630
#
#
#
# Elastic Compliance Matrix: (Units=1/GPa)
#
#
# Indices 1 2 3 4 5 6 
#
# 1 0.011147 -0.006886 -0.010394 0.000000 0.000000 0.000000
# 2 -0.006886 0.034645 -0.002649 0.000000 0.000000 0.000000
# 3 -0.010394 -0.002649 0.040586 0.000000 0.000000 0.000000
# 4 0.000000 0.000000 0.000000 -0.036321 0.000000 0.000000
# 5 0.000000 0.000000 0.000000 0.000000 0.091694 0.000000
# 6 0.000000 0.000000 0.000000 0.000000 0.000000 0.098397
#
#
# Mechanical properties :
#
#
# Convention : Reuss Voigt Hill
#
# Bulk Modulus (GPa) = 21.49619 42.53151 32.01385
# Shear Modulus (GPa) = 16.91976 7.75388 12.33682
#
# Velocity S-wave (km/s) = 2.96514 2.00728 2.53192
# Velocity P-wave (km/s) = 4.78465 5.24147 5.01826
#
# Compressibility (1/GPa) = 0.04651986
#
# Stress axis : x y z
#
# Youngs Moduli (GPa) = 89.71190 28.86401 24.63901
#
# Poissons Ratio (x) = 0.19876 0.25610
# Poissons Ratio (y) = 0.61777 0.06527
# Poissons Ratio (z) = 0.93246 0.07646
#
# Static dielectric constant tensor:
#      x y z
#    x 1.688690 0.000000 0.000000 
#    y 0.000000 1.650300 0.000000 
#    z 0.000000 0.000000 1.642190 
# 
# From -- ./inp_files/6617.got.cif
#   From: 2010.05.17/outbox.cif.g08.bks.cpg/sg55_4_cif.got.tgz:6617.got - 2010.06.03 13:27:54.
