data_PCOD9425387
_publ_section_title
;
Structure prediction by ZEFSAII (Michael W. Deem and Ramdas Pophale) SiO2 
 PCOD9425387
Probable space group: P B A M
;
_chemical_formula_sum "Si O2"
_cell_formula_units_Z 42
_cell_length_a 7.590339
_cell_length_b 20.505591
_cell_length_c 10.724910
_cell_angle_alpha 90.000000
_cell_angle_beta 90.000000
_cell_angle_gamma 90.000000
_cell_volume 1669.272043
_symmetry_space_group_name_H-M "P B A M"
_symmetry_group_IT_number 55
_symmetry_cell_setting 'orthorhombic'
loop_
_space_group_symop_operation_xyz
x,y,z
-x,-y,z
1/2+x,1/2-y,-z
1/2-x,1/2+y,-z
-x,-y,-z
x,y,-z
1/2-x,1/2+y,z
1/2+x,1/2-y,z
loop_
_atom_site_type_symbol
_atom_site_label
_atom_site_fract_x
_atom_site_fract_y
_atom_site_fract_z
Si Si1 0.457942 0.664442 0.241002
Si Si2 0.628401 0.275787 0.500000
Si Si3 0.993198 0.359292 0.500000
Si Si4 0.397635 0.074599 0.246256
Si Si5 0.019081 0.358038 0.000000
Si Si6 0.500000 0.500000 0.500000
Si Si7 0.653350 0.542914 0.754998
Si Si8 0.823302 0.766503 0.000000
O O1 0.466619 0.702358 0.371774
O O2 0.288363 0.616038 0.251048
O O3 0.623000 0.617672 0.212691
O O4 0.420094 0.712173 0.127172
O O5 0.812660 0.315538 0.500000
O O6 0.639208 0.197284 0.500000
O O7 0.987411 0.403767 0.623593
O O8 0.327048 0.000547 0.235397
O O9 0.494662 0.099710 0.123350
O O10 0.185964 0.311061 0.000000
O O11 0.855999 0.307193 0.000000
O O12 0.601514 0.540021 0.609600
O O13 0.500000 0.500000 0.823082
#
# Coordination Sequence:
#
# PCOD9425387 Si02
#       8
#     8   4   4   8   4   2   8   4
#     4   9  17  28  45  68  94 119 151 191 235 278
#     4  10  19  30  46  68  92 120 156 190 224 274
#     4  10  19  30  46  68  92 120 156 190 224 274
#     4   9  17  28  45  68  94 119 151 191 235 278
#     4  10  20  33  47  67  95 126 157 192 234 278
#     4   8  12  20  40  62 100 120 142 170 248 290
#     4   8  14  23  42  68  92 119 143 186 239 280
#     4  10  20  33  47  67  95 126 157 192 234 278
#
# _framework density 25.160668000000001
#
# number of rings (size 3 to 8) (size 9 to 14) (size 15 to 20)
#    0.571    2.286    0.000    2.286    2.667    0.762 
#    0.000    3.810    0.000    0.000    0.000    8.000 
#    0.000    0.000    0.000    0.000    0.000    0.000 
#
# Total GULP energy -234344.335163 kJ/mol
# GULP energy per Si atom -5579.627028 kJ/mol
# Density = 2.510340 g / cm^3
# Si number density = 25.160668 Si / 1000 Ang^3
#
#
#
# Elastic Constant Matrix: (Units=GPa)
#
#
# Indices 1 2 3 4 5 6 
#
# 1 63.7154 30.8507 39.7341 0.0000 0.0000 0.0000
# 2 30.8507 129.5547 89.7743 0.0000 0.0000 0.0000
# 3 39.7341 89.7743 191.3945 0.0000 0.0000 0.0000
# 4 0.0000 0.0000 0.0000 16.7666 0.0000 0.0000
# 5 0.0000 0.0000 0.0000 0.0000 2.9580 0.0000
# 6 0.0000 0.0000 0.0000 0.0000 0.0000 42.9316
#
#
#
# Elastic Compliance Matrix: (Units=1/GPa)
#
#
# Indices 1 2 3 4 5 6 
#
# 1 0.018601 -0.002598 -0.002643 0.000000 0.000000 0.000000
# 2 -0.002598 0.011799 -0.004995 0.000000 0.000000 0.000000
# 3 -0.002643 -0.004995 0.008116 0.000000 0.000000 0.000000
# 4 0.000000 0.000000 0.000000 0.059642 0.000000 0.000000
# 5 0.000000 0.000000 0.000000 0.000000 0.338065 0.000000
# 6 0.000000 0.000000 0.000000 0.000000 0.000000 0.023293
#
#
# Mechanical properties :
#
#
# Convention : Reuss Voigt Hill
#
# Bulk Modulus (GPa) = 55.41933 78.37588 66.89760
# Shear Modulus (GPa) = 10.28801 27.48492 18.88647
#
# Velocity S-wave (km/s) = 2.02430 3.30870 2.74274
# Velocity P-wave (km/s) = 5.24764 6.76864 6.05608
#
# Compressibility (1/GPa) = 0.01804425
#
# Stress axis : x y z
#
# Youngs Moduli (GPa) = 53.76069 84.75639 123.20817
#
# Poissons Ratio (x) = 0.22019 0.32564
# Poissons Ratio (y) = 0.13967 0.61540
# Poissons Ratio (z) = 0.14209 0.42334
#
# Static dielectric constant tensor:
#      x y z
#    x 2.143960 0.000000 0.000000 
#    y 0.000000 1.971540 0.000000 
#    z 0.000000 0.000000 1.828230 
# 
# From -- ./inp_files/13182.got.cif
#   From: 2010.05.17/outbox.cif.g08.bks.cpg/sg55_7_cif.got.tgz:13182.got - 2010.06.03 13:27:54.
