data_PCOD9425877
_publ_section_title
;
Structure prediction by ZEFSAII (Michael W. Deem and Ramdas Pophale) SiO2 
 PCOD9425877
Probable space group: P B A M
;
_chemical_formula_sum "Si O2"
_cell_formula_units_Z 64
_cell_length_a 23.488120
_cell_length_b 16.662313
_cell_length_c 8.155447
_cell_angle_alpha 90.000000
_cell_angle_beta 90.000000
_cell_angle_gamma 90.000000
_cell_volume 3191.767992
_symmetry_space_group_name_H-M "P B A M"
_symmetry_group_IT_number 55
_symmetry_cell_setting 'orthorhombic'
loop_
_space_group_symop_operation_xyz
x,y,z
-x,-y,z
1/2+x,1/2-y,-z
1/2-x,1/2+y,-z
-x,-y,-z
x,y,-z
1/2-x,1/2+y,z
1/2+x,1/2-y,z
loop_
_atom_site_type_symbol
_atom_site_label
_atom_site_fract_x
_atom_site_fract_y
_atom_site_fract_z
Si Si1 0.281258 0.977713 0.189396
Si Si2 0.832598 0.959023 0.191924
Si Si3 0.021821 0.588407 0.700477
Si Si4 0.244433 0.200768 0.814363
Si Si5 0.547687 0.247457 0.699643
Si Si6 0.649621 0.877974 0.312044
Si Si7 0.167279 0.322685 0.315393
Si Si8 0.040862 0.071048 0.694641
O O1 0.315760 0.896427 0.203839
O O2 0.214547 0.973696 0.238473
O O3 0.314542 0.040158 0.301594
O O4 0.281953 0.006764 0.000000
O O5 0.794427 0.878515 0.211007
O O6 0.892632 0.951737 0.281543
O O7 0.846341 0.968481 0.000000
O O8 0.020009 0.586475 0.500000
O O9 0.086871 0.603356 0.751497
O O10 0.000000 0.500000 0.754615
O O11 0.986802 0.667814 0.752513
O O12 0.310438 0.181977 0.787641
O O13 0.221180 0.264885 0.688551
O O14 0.234612 0.228568 0.000000
O O15 0.543847 0.250098 0.500000
O O16 0.613122 0.228181 0.742239
O O17 0.531884 0.337296 0.759495
O O18 0.644997 0.850861 0.500000
O O19 0.154872 0.351495 0.500000
O O20 0.029812 0.075612 0.500000
O O21 0.000000 0.000000 0.761331
#
# Coordination Sequence:
#
# PCOD9425877 Si02
#       8
#     8   8   8   8   8   8   8   8
#     4  10  21  36  54  80 114 148 178 224 289 345
#     4   9  19  36  56  76 104 144 183 221 279 339
#     4   9  17  31  53  81 114 149 184 232 290 335
#     4  10  20  35  55  77 110 148 178 224 288 340
#     4   9  18  33  54  82 114 144 185 239 287 333
#     4  10  19  33  55  81 108 144 191 229 269 333
#     4  11  20  33  57  85 108 139 187 236 278 333
#     4  10  20  35  56  81 109 145 187 237 289 331
#
# _framework density 20.051583999999998
#
# number of rings (size 3 to 8) (size 9 to 14) (size 15 to 20)
#    0.000    2.250    1.250    3.000    0.000    4.750 
#    2.250    0.000    0.000    9.750    0.000    0.000 
#    0.000    0.000    0.000    0.000    0.000    0.000 
#
# Total GULP energy -356571.779927 kJ/mol
# GULP energy per Si atom -5571.434061 kJ/mol
# Density = 2.000595 g / cm^3
# Si number density = 20.051584 Si / 1000 Ang^3
#
#
#
# Elastic Constant Matrix: (Units=GPa)
#
#
# Indices 1 2 3 4 5 6 
#
# 1 117.6902 48.2131 1.6764 0.0000 0.0000 0.0000
# 2 48.2131 96.3289 5.2659 0.0000 0.0000 0.0000
# 3 1.6764 5.2659 18.6553 0.0000 0.0000 0.0000
# 4 0.0000 0.0000 0.0000 15.5772 0.0000 0.0000
# 5 0.0000 0.0000 0.0000 0.0000 -10.2229 0.0000
# 6 0.0000 0.0000 0.0000 0.0000 0.0000 28.0525
#
#
#
# Elastic Compliance Matrix: (Units=1/GPa)
#
#
# Indices 1 2 3 4 5 6 
#
# 1 0.010694 -0.005383 0.000559 0.000000 0.000000 0.000000
# 2 -0.005383 0.013253 -0.003257 0.000000 0.000000 0.000000
# 3 0.000559 -0.003257 0.054473 0.000000 0.000000 0.000000
# 4 0.000000 0.000000 0.000000 0.064197 0.000000 0.000000
# 5 0.000000 0.000000 0.000000 0.000000 -0.097820 0.000000
# 6 0.000000 0.000000 0.000000 0.000000 0.000000 0.035647
#
#
# Mechanical properties :
#
#
# Convention : Reuss Voigt Hill
#
# Bulk Modulus (GPa) = 16.06242 38.10945 27.08594
# Shear Modulus (GPa) = 42.60362 18.51596 30.55979
#
# Velocity S-wave (km/s) = 4.61445 3.04207 3.90815
# Velocity P-wave (km/s) = 6.03480 5.60231 5.82257
#
# Compressibility (1/GPa) = 0.06225712
#
# Stress axis : x y z
#
# Youngs Moduli (GPa) = 93.50927 75.45240 18.35760
#
# Poissons Ratio (x) = 0.40616 -0.01025
# Poissons Ratio (y) = 0.50336 0.05980
# Poissons Ratio (z) = -0.05223 0.24578
#
# Static dielectric constant tensor:
#      x y z
#    x 1.709970 0.000000 0.000000 
#    y 0.000000 1.752240 0.000000 
#    z 0.000000 0.000000 1.678020 
# 
# From -- ./inp_files/8018.got.cif
#   From: 2010.05.17/outbox.cif.g08.bks.cpg/sg55_5_cif.got.tgz:8018.got - 2010.06.03 13:27:54.
