data_PCOD9425092
_publ_section_title
;
Structure prediction by ZEFSAII (Michael W. Deem and Ramdas Pophale) SiO2 
 PCOD9425092
Probable space group: P B A M
;
_chemical_formula_sum "Si O2"
_cell_formula_units_Z 56
_cell_length_a 15.178131
_cell_length_b 22.043945
_cell_length_c 8.285496
_cell_angle_alpha 90.000000
_cell_angle_beta 90.000000
_cell_angle_gamma 90.000000
_cell_volume 2772.210012
_symmetry_space_group_name_H-M "P B A M"
_symmetry_group_IT_number 55
_symmetry_cell_setting 'orthorhombic'
loop_
_space_group_symop_operation_xyz
x,y,z
-x,-y,z
1/2+x,1/2-y,-z
1/2-x,1/2+y,-z
-x,-y,-z
x,y,-z
1/2-x,1/2+y,z
1/2+x,1/2-y,z
loop_
_atom_site_type_symbol
_atom_site_label
_atom_site_fract_x
_atom_site_fract_y
_atom_site_fract_z
Si Si1 0.580094 0.952350 0.810060
Si Si2 0.979705 0.769123 0.194637
Si Si3 0.559916 0.136048 0.804135
Si Si4 0.817717 0.840586 0.691925
Si Si5 0.183892 0.765680 0.804664
Si Si6 0.751541 0.601657 0.194198
Si Si7 0.229852 0.026855 0.313391
O O1 0.533153 0.890971 0.751950
O O2 0.664972 0.967963 0.709255
O O3 0.500000 0.000000 0.801587
O O4 0.606130 0.948792 0.000000
O O5 0.932759 0.705888 0.237409
O O6 0.916865 0.820032 0.266631
O O7 0.081327 0.762569 0.245553
O O8 0.979315 0.775365 0.000000
O O9 0.646536 0.101036 0.748928
O O10 0.557917 0.131074 0.000000
O O11 0.806292 0.842944 0.500000
O O12 0.747150 0.789913 0.752506
O O13 0.803263 0.908949 0.758116
O O14 0.215197 0.832997 0.751355
O O15 0.186256 0.764755 0.000000
O O16 0.705149 0.538989 0.242408
O O17 0.752291 0.603086 0.000000
O O18 0.205035 0.025298 0.500000
#
# Coordination Sequence:
#
# PCOD9425092 Si02
#       7
#     8   8   8   8   8   8   8
#     4  10  18  31  53  80 109 145 185 228 287 348
#     4  10  20  37  62  89 115 148 195 250 299 345
#     4   9  16  30  53  81 112 142 179 230 288 347
#     4  11  24  40  58  85 123 161 197 239 290 354
#     4  10  21  39  66  93 116 148 197 251 299 348
#     4  10  19  36  59  84 112 146 189 237 287 345
#     4  11  24  38  52  79 118 158 196 235 284 343
#
# _framework density 20.200489999999999
#
# number of rings (size 3 to 8) (size 9 to 14) (size 15 to 20)
#    0.000    1.857    2.857    1.714    0.000    4.857 
#    0.000    1.429    0.000    4.286    0.000    0.000 
#    0.000    0.000    0.000    0.000    0.000    0.000 
#
# Total GULP energy -312217.652842 kJ/mol
# GULP energy per Si atom -5575.315229 kJ/mol
# Density = 2.015451 g / cm^3
# Si number density = 20.200490 Si / 1000 Ang^3
#
#
#
# Elastic Constant Matrix: (Units=GPa)
#
#
# Indices 1 2 3 4 5 6 
#
# 1 54.0626 20.4178 6.8887 0.0000 0.0000 0.0000
# 2 20.4178 129.4357 16.2103 0.0000 0.0000 0.0000
# 3 6.8887 16.2103 9.6100 0.0000 0.0000 0.0000
# 4 0.0000 0.0000 0.0000 18.8883 0.0000 0.0000
# 5 0.0000 0.0000 0.0000 0.0000 -5.2220 0.0000
# 6 0.0000 0.0000 0.0000 0.0000 0.0000 33.1383
#
#
#
# Elastic Compliance Matrix: (Units=1/GPa)
#
#
# Indices 1 2 3 4 5 6 
#
# 1 0.020675 -0.001782 -0.011815 0.000000 0.000000 0.000000
# 2 -0.001782 0.009949 -0.015504 0.000000 0.000000 0.000000
# 3 -0.011815 -0.015504 0.138680 0.000000 0.000000 0.000000
# 4 0.000000 0.000000 0.000000 0.052943 0.000000 0.000000
# 5 0.000000 0.000000 0.000000 0.000000 -0.191497 0.000000
# 6 0.000000 0.000000 0.000000 0.000000 0.000000 0.030177
#
#
# Mechanical properties :
#
#
# Convention : Reuss Voigt Hill
#
# Bulk Modulus (GPa) = 9.00074 31.12686 20.06380
# Shear Modulus (GPa) = 32.01775 19.33367 25.67571
#
# Velocity S-wave (km/s) = 3.98552 3.09704 3.56904
# Velocity P-wave (km/s) = 5.06405 5.31331 5.19018
#
# Compressibility (1/GPa) = 0.11110197
#
# Stress axis : x y z
#
# Youngs Moduli (GPa) = 48.36646 100.51623 7.21083
#
# Poissons Ratio (x) = 0.17909 0.08520
# Poissons Ratio (y) = 0.08618 0.11180
# Poissons Ratio (z) = 0.57146 1.55844
#
# Static dielectric constant tensor:
#      x y z
#    x 1.713090 0.000000 0.000000 
#    y 0.000000 1.795870 0.000000 
#    z 0.000000 0.000000 1.713420 
# 
# From -- ./inp_files/6007.got.cif
#   From: 2010.05.17/outbox.cif.g08.bks.cpg/sg55_4_cif.got.tgz:6007.got - 2010.06.03 13:27:54.
