data_PCOD9425990
_publ_section_title
;
Structure prediction by ZEFSAII (Michael W. Deem and Ramdas Pophale) SiO2 
 PCOD9425990
Probable space group: P B A M
;
_chemical_formula_sum "Si O2"
_cell_formula_units_Z 64
_cell_length_a 13.950989
_cell_length_b 7.952434
_cell_length_c 29.299537
_cell_angle_alpha 90.000000
_cell_angle_beta 90.000000
_cell_angle_gamma 90.000000
_cell_volume 3250.617187
_symmetry_space_group_name_H-M "P B A M"
_symmetry_group_IT_number 55
_symmetry_cell_setting 'orthorhombic'
loop_
_space_group_symop_operation_xyz
x,y,z
-x,-y,z
1/2+x,1/2-y,-z
1/2-x,1/2+y,-z
-x,-y,-z
x,y,-z
1/2-x,1/2+y,z
1/2+x,1/2-y,z
loop_
_atom_site_type_symbol
_atom_site_label
_atom_site_fract_x
_atom_site_fract_y
_atom_site_fract_z
Si Si1 0.117402 0.704892 0.869099
Si Si2 0.044525 0.189678 0.448051
Si Si3 0.828574 0.683284 0.876479
Si Si4 0.955433 0.810255 0.696450
Si Si5 0.533232 0.307540 0.799811
Si Si6 0.308399 0.582340 0.375685
Si Si7 0.602658 0.792715 0.375891
Si Si8 0.976381 0.701688 0.051528
O O1 0.141143 0.509913 0.874299
O O2 0.216248 0.801984 0.870776
O O3 0.056896 0.716605 0.822927
O O4 0.051834 0.766947 0.911091
O O5 0.058024 0.244880 0.500000
O O6 0.142751 0.172840 0.419430
O O7 0.967514 0.297900 0.419529
O O8 0.000000 0.000000 0.448578
O O9 0.880080 0.779865 0.834967
O O10 0.873642 0.738700 0.925060
O O11 0.943730 0.753307 0.748392
O O12 0.856781 0.827511 0.668235
O O13 0.031973 0.702261 0.667558
O O14 0.000000 0.000000 0.696934
O O15 0.500000 0.500000 0.798695
O O16 0.348170 0.392446 0.375783
O O17 0.193804 0.586238 0.375793
O O18 0.000000 0.500000 0.049625
O O19 0.984004 0.765333 0.000000
#
# Coordination Sequence:
#
# PCOD9425990 Si02
#       8
#     8   8   8   8   8   8   8   8
#     4  10  20  34  52  75 103 132 164 201 243 290
#     4   8  15  29  48  67  91 126 159 186 227 285
#     4  10  20  34  52  75 103 132 164 201 243 290
#     4   8  17  33  50  68  93 127 159 191 235 289
#     4  10  19  34  54  73  97 128 165 206 248 291
#     4   9  17  31  49  69  94 122 156 194 233 279
#     4   9  17  31  49  69  94 122 156 194 233 279
#     4   8  16  32  52  73  99 130 163 201 242 285
#
# _framework density 19.688568
#
# number of rings (size 3 to 8) (size 9 to 14) (size 15 to 20)
#    0.000    3.000    0.000    3.375    0.000    2.000 
#    0.000    7.500    0.000   13.500    0.000    0.000 
#    0.000    0.000    0.000    0.000    0.000    0.000 
#
# Total GULP energy -356886.441640 kJ/mol
# GULP energy per Si atom -5576.350651 kJ/mol
# Density = 1.964376 g / cm^3
# Si number density = 19.688568 Si / 1000 Ang^3
#
#
#
# Elastic Constant Matrix: (Units=GPa)
#
#
# Indices 1 2 3 4 5 6 
#
# 1 26.5806 -0.3064 1.6793 0.0000 0.0000 0.0000
# 2 -0.3064 24.1581 8.7926 0.0000 0.0000 0.0000
# 3 1.6793 8.7926 139.4072 0.0000 0.0000 0.0000
# 4 0.0000 0.0000 0.0000 12.6605 0.0000 0.0000
# 5 0.0000 0.0000 0.0000 0.0000 9.1735 0.0000
# 6 0.0000 0.0000 0.0000 0.0000 0.0000 18.1282
#
#
#
# Elastic Compliance Matrix: (Units=1/GPa)
#
#
# Indices 1 2 3 4 5 6 
#
# 1 0.037660 0.000658 -0.000495 0.000000 0.000000 0.000000
# 2 0.000658 0.042378 -0.002681 0.000000 0.000000 0.000000
# 3 -0.000495 -0.002681 0.007348 0.000000 0.000000 0.000000
# 4 0.000000 0.000000 0.000000 0.078986 0.000000 0.000000
# 5 0.000000 0.000000 0.000000 0.000000 0.109009 0.000000
# 6 0.000000 0.000000 0.000000 0.000000 0.000000 0.055163
#
#
# Mechanical properties :
#
#
# Convention : Reuss Voigt Hill
#
# Bulk Modulus (GPa) = 12.14322 23.38633 17.76477
# Shear Modulus (GPa) = 13.77294 19.99114 16.88204
#
# Velocity S-wave (km/s) = 2.64775 3.18994 2.93141
# Velocity P-wave (km/s) = 3.94062 5.04693 4.52769
#
# Compressibility (1/GPa) = 0.08235049
#
# Stress axis : x y z
#
# Youngs Moduli (GPa) = 26.55314 23.59714 136.08638
#
# Poissons Ratio (x) = -0.01552 0.06738
# Poissons Ratio (y) = -0.01747 0.36482
# Poissons Ratio (z) = 0.01315 0.06326
#
# Static dielectric constant tensor:
#      x y z
#    x 1.668930 0.000000 0.000000 
#    y 0.000000 1.746540 0.000000 
#    z 0.000000 0.000000 1.684730 
# 
# From -- ./inp_files/24160.got.cif
#   From: 2010.05.17/outbox.cif.g08.bks.cpg/sg55_13_cif.got.tgz:24160.got - 2010.06.03 13:27:54.
