data_PCOD9425337
_publ_section_title
;
Structure prediction by ZEFSAII (Michael W. Deem and Ramdas Pophale) SiO2 
 PCOD9425337
Probable space group: P B A M
;
_chemical_formula_sum "Si O2"
_cell_formula_units_Z 48
_cell_length_a 23.303966
_cell_length_b 6.973958
_cell_length_c 13.989195
_cell_angle_alpha 90.000000
_cell_angle_beta 90.000000
_cell_angle_gamma 90.000000
_cell_volume 2273.536284
_symmetry_space_group_name_H-M "P B A M"
_symmetry_group_IT_number 55
_symmetry_cell_setting 'orthorhombic'
loop_
_space_group_symop_operation_xyz
x,y,z
-x,-y,z
1/2+x,1/2-y,-z
1/2-x,1/2+y,-z
-x,-y,-z
x,y,-z
1/2-x,1/2+y,z
1/2+x,1/2-y,z
loop_
_atom_site_type_symbol
_atom_site_label
_atom_site_fract_x
_atom_site_fract_y
_atom_site_fract_z
Si Si1 0.985709 0.773038 0.108608
Si Si2 0.798289 0.590913 0.106722
Si Si3 0.613917 0.170007 0.251700
Si Si4 0.165472 0.852257 0.894551
Si Si5 0.983862 0.728996 0.610620
Si Si6 0.081218 0.748431 0.249408
O O1 0.929094 0.719618 0.165130
O O2 0.039255 0.682685 0.163581
O O3 0.981663 0.715676 0.000000
O O4 0.000000 0.000000 0.113530
O O5 0.824970 0.696820 0.198892
O O6 0.729819 0.569824 0.114146
O O7 0.825739 0.378739 0.104903
O O8 0.809338 0.676106 0.000000
O O9 0.578314 0.260590 0.340293
O O10 0.613187 0.944083 0.281479
O O11 0.125363 0.890232 0.803136
O O12 0.140979 0.904544 0.000000
O O13 0.983733 0.780751 0.500000
O O14 0.036699 0.819968 0.670621
O O15 0.000000 0.500000 0.617934
#
# Coordination Sequence:
#
# PCOD9425337 Si02
#       6
#     8   8   8   8   8   8
#     4  10  19  27  38  61  90 115 139 172 214 256
#     4   9  17  28  42  61  85 114 146 176 207 247
#     4   9  17  29  45  63  84 113 146 177 212 256
#     4   9  17  28  42  61  85 114 146 176 207 247
#     4   8  14  26  46  69  86 103 137 184 224 256
#     4   9  17  29  45  63  84 113 146 177 212 256
#
# _framework density 21.112483999999998
#
# number of rings (size 3 to 8) (size 9 to 14) (size 15 to 20)
#    0.000    3.000    0.000    2.500    0.000    4.000 
#    0.000    3.333    0.000    9.000    0.000    0.000 
#    0.000    0.000    0.000    0.000    0.000    0.000 
#
# Total GULP energy -267618.818564 kJ/mol
# GULP energy per Si atom -5575.392053 kJ/mol
# Density = 2.106443 g / cm^3
# Si number density = 21.112484 Si / 1000 Ang^3
#
#
#
# Elastic Constant Matrix: (Units=GPa)
#
#
# Indices 1 2 3 4 5 6 
#
# 1 84.2911 1.9326 57.3792 0.0000 0.0000 0.0000
# 2 1.9326 76.6659 4.5940 0.0000 0.0000 0.0000
# 3 57.3792 4.5940 163.4249 0.0000 0.0000 0.0000
# 4 0.0000 0.0000 0.0000 7.3196 0.0000 0.0000
# 5 0.0000 0.0000 0.0000 0.0000 21.0411 0.0000
# 6 0.0000 0.0000 0.0000 0.0000 0.0000 25.2624
#
#
#
# Elastic Compliance Matrix: (Units=1/GPa)
#
#
# Indices 1 2 3 4 5 6 
#
# 1 0.015590 -0.000065 -0.005472 0.000000 0.000000 0.000000
# 2 -0.000065 0.013066 -0.000344 0.000000 0.000000 0.000000
# 3 -0.005472 -0.000344 0.008050 0.000000 0.000000 0.000000
# 4 0.000000 0.000000 0.000000 0.136619 0.000000 0.000000
# 5 0.000000 0.000000 0.000000 0.000000 0.047526 0.000000
# 6 0.000000 0.000000 0.000000 0.000000 0.000000 0.039585
#
#
# Mechanical properties :
#
#
# Convention : Reuss Voigt Hill
#
# Bulk Modulus (GPa) = 40.09150 50.24373 45.16761
# Shear Modulus (GPa) = 17.82450 28.08968 22.95709
#
# Velocity S-wave (km/s) = 2.90877 3.65153 3.30111
# Velocity P-wave (km/s) = 5.50563 6.45198 5.99750
#
# Compressibility (1/GPa) = 0.02494294
#
# Stress axis : x y z
#
# Youngs Moduli (GPa) = 64.14363 76.53514 124.22507
#
# Poissons Ratio (x) = 0.00498 0.67975
# Poissons Ratio (y) = 0.00418 0.04279
# Poissons Ratio (z) = 0.35099 0.02636
#
# Static dielectric constant tensor:
#      x y z
#    x 1.838310 0.000000 0.000000 
#    y 0.000000 1.902850 0.000000 
#    z 0.000000 0.000000 1.743250 
# 
# From -- ./inp_files/17705.got.cif
#   From: 2010.05.17/outbox.cif.g08.bks.cpg/sg55_9_cif.got.tgz:17705.got - 2010.06.03 13:27:54.
