data_PCOD9425304
_publ_section_title
;
Structure prediction by ZEFSAII (Michael W. Deem and Ramdas Pophale) SiO2 
 PCOD9425304
Probable space group: P B A M
;
_chemical_formula_sum "Si O2"
_cell_formula_units_Z 64
_cell_length_a 19.423759
_cell_length_b 12.761439
_cell_length_c 13.916848
_cell_angle_alpha 90.000000
_cell_angle_beta 90.000000
_cell_angle_gamma 90.000000
_cell_volume 3449.640307
_symmetry_space_group_name_H-M "P B A M"
_symmetry_group_IT_number 55
_symmetry_cell_setting 'orthorhombic'
loop_
_space_group_symop_operation_xyz
x,y,z
-x,-y,z
1/2+x,1/2-y,-z
1/2-x,1/2+y,-z
-x,-y,-z
x,y,-z
1/2-x,1/2+y,z
1/2+x,1/2-y,z
loop_
_atom_site_type_symbol
_atom_site_label
_atom_site_fract_x
_atom_site_fract_y
_atom_site_fract_z
Si Si1 0.159200 0.824506 0.109033
Si Si2 0.128244 0.206358 0.188443
Si Si3 0.843096 0.885784 0.389623
Si Si4 0.767003 0.222190 0.610601
Si Si5 0.514471 0.621370 0.802469
Si Si6 0.766708 0.398205 0.111151
Si Si7 0.904610 0.118250 0.387793
Si Si8 0.788431 0.594989 0.218638
O O1 0.083626 0.838935 0.148583
O O2 0.188317 0.707145 0.113428
O O3 0.214064 0.888699 0.169925
O O4 0.161507 0.860833 0.000000
O O5 0.123114 0.175290 0.301376
O O6 0.188859 0.134525 0.142788
O O7 0.155899 0.324045 0.175829
O O8 0.050990 0.184054 0.157242
O O9 0.863349 0.860361 0.500000
O O10 0.765064 0.838919 0.379454
O O11 0.862676 0.007714 0.375947
O O12 0.724126 0.140127 0.325038
O O13 0.759785 0.191367 0.500000
O O14 0.847467 0.207682 0.633308
O O15 0.500000 0.500000 0.823694
O O16 0.533705 0.625040 0.688126
O O17 0.800975 0.476913 0.187725
O O18 0.766741 0.436417 0.000000
O O19 0.926045 0.123704 0.500000
#
# Coordination Sequence:
#
# PCOD9425304 Si02
#       8
#     8   8   8   8   8   8   8   8
#     4  10  22  38  56  81 109 140 181 228 277 329
#     4  10  21  33  54  84 112 139 181 224 269 326
#     4   9  17  31  51  77 111 148 184 222 264 312
#     4   9  17  30  51  80 110 140 181 230 268 308
#     4  12  22  35  53  80 114 146 177 219 276 330
#     4  10  21  39  61  81 104 139 183 230 278 326
#     4  10  19  32  51  79 114 150 184 218 268 329
#     4  10  18  35  58  79 106 144 181 227 268 322
#
# _framework density 18.552658999999998
#
# number of rings (size 3 to 8) (size 9 to 14) (size 15 to 20)
#    0.000    2.000    2.500    1.875    0.000    2.000 
#    0.000    0.625    0.000    1.500    0.000    0.000 
#    0.000    5.000    0.000    0.000    0.000    0.000 
#
# Total GULP energy -356477.243024 kJ/mol
# GULP energy per Si atom -5569.956922 kJ/mol
# Density = 1.851043 g / cm^3
# Si number density = 18.552659 Si / 1000 Ang^3
#
#
#
# Elastic Constant Matrix: (Units=GPa)
#
#
# Indices 1 2 3 4 5 6 
#
# 1 113.7683 28.3741 18.9189 0.0000 0.0000 0.0000
# 2 28.3741 34.1546 9.1513 0.0000 0.0000 0.0000
# 3 18.9189 9.1513 60.5895 0.0000 0.0000 0.0000
# 4 0.0000 0.0000 0.0000 21.8203 0.0000 0.0000
# 5 0.0000 0.0000 0.0000 0.0000 7.5671 0.0000
# 6 0.0000 0.0000 0.0000 0.0000 0.0000 6.8207
#
#
#
# Elastic Compliance Matrix: (Units=1/GPa)
#
#
# Indices 1 2 3 4 5 6 
#
# 1 0.011364 -0.008848 -0.002212 0.000000 0.000000 0.000000
# 2 -0.008848 0.037403 -0.002886 0.000000 0.000000 0.000000
# 3 -0.002212 -0.002886 0.017631 0.000000 0.000000 0.000000
# 4 0.000000 0.000000 0.000000 0.045829 0.000000 0.000000
# 5 0.000000 0.000000 0.000000 0.000000 0.132151 0.000000
# 6 0.000000 0.000000 0.000000 0.000000 0.000000 0.146614
#
#
# Mechanical properties :
#
#
# Convention : Reuss Voigt Hill
#
# Bulk Modulus (GPa) = 25.97076 35.71122 30.84099
# Shear Modulus (GPa) = 11.58158 17.37948 14.48053
#
# Velocity S-wave (km/s) = 2.50122 3.06398 2.79679
# Velocity P-wave (km/s) = 4.72972 5.63983 5.20471
#
# Compressibility (1/GPa) = 0.03850484
#
# Stress axis : x y z
#
# Youngs Moduli (GPa) = 87.99357 26.73590 56.71767
#
# Poissons Ratio (x) = 0.23657 0.12546
# Poissons Ratio (y) = 0.77860 0.16371
# Poissons Ratio (z) = 0.19465 0.07717
#
# Static dielectric constant tensor:
#      x y z
#    x 1.642070 0.000000 0.000000 
#    y 0.000000 1.689130 0.000000 
#    z 0.000000 0.000000 1.697910 
# 
# From -- ./inp_files/19572.got.cif
#   From: 2010.05.17/outbox.cif.g08.bks.cpg/sg55_10_cif.got.tgz:19572.got - 2010.06.03 13:27:54.
