data_PCOD9425014
_publ_section_title
;
Structure prediction by ZEFSAII (Michael W. Deem and Ramdas Pophale) SiO2 
 PCOD9425014
Probable space group: P B A M
;
_chemical_formula_sum "Si O2"
_cell_formula_units_Z 48
_cell_length_a 16.810071
_cell_length_b 18.999397
_cell_length_c 8.414394
_cell_angle_alpha 90.000000
_cell_angle_beta 90.000000
_cell_angle_gamma 90.000000
_cell_volume 2687.399358
_symmetry_space_group_name_H-M "P B A M"
_symmetry_group_IT_number 55
_symmetry_cell_setting 'orthorhombic'
loop_
_space_group_symop_operation_xyz
x,y,z
-x,-y,z
1/2+x,1/2-y,-z
1/2-x,1/2+y,-z
-x,-y,-z
x,y,-z
1/2-x,1/2+y,z
1/2+x,1/2-y,z
loop_
_atom_site_type_symbol
_atom_site_label
_atom_site_fract_x
_atom_site_fract_y
_atom_site_fract_z
Si Si1 0.335916 0.342499 0.686934
Si Si2 0.568954 0.287449 0.313540
Si Si3 0.164551 0.332636 0.189949
Si Si4 0.991193 0.579929 0.806126
Si Si5 0.584632 0.789546 0.813900
Si Si6 0.505999 0.581151 0.810088
O O1 0.336441 0.354293 0.500000
O O2 0.250465 0.359895 0.759277
O O3 0.354322 0.260138 0.722772
O O4 0.408359 0.386543 0.762692
O O5 0.551224 0.278663 0.500000
O O6 0.646705 0.243320 0.268708
O O7 0.499738 0.250352 0.209827
O O8 0.560759 0.369046 0.269251
O O9 0.092641 0.384537 0.241133
O O10 0.161263 0.325366 0.000000
O O11 0.000000 0.500000 0.751416
O O12 0.063263 0.631855 0.757312
O O13 0.992104 0.580005 0.000000
O O14 0.605589 0.790454 0.000000
O O15 0.500000 0.500000 0.760810
O O16 0.497316 0.585240 0.000000
#
# Coordination Sequence:
#
# PCOD9425014 Si02
#       6
#     8   8   8   8   8   8
#     4  11  21  33  51  74 102 133 169 215 262 303
#     4  10  18  30  50  74 100 128 163 206 250 298
#     4  10  19  33  53  74 100 133 171 213 255 305
#     4   8  15  29  51  77 100 126 162 203 246 294
#     4   9  16  29  50  72  96 128 165 201 240 296
#     4  10  20  35  55  77 102 135 174 210 251 310
#
# _framework density 17.861135000000001
#
# number of rings (size 3 to 8) (size 9 to 14) (size 15 to 20)
#    0.000    2.333    0.000    7.500    0.000    1.333 
#    0.000    1.667    0.000   26.000    0.000    0.000 
#    0.000    0.000    0.000    0.000    0.000    0.000 
#
# Total GULP energy -267493.695603 kJ/mol
# GULP energy per Si atom -5572.785325 kJ/mol
# Density = 1.782048 g / cm^3
# Si number density = 17.861135 Si / 1000 Ang^3
#
#
#
# Elastic Constant Matrix: (Units=GPa)
#
#
# Indices 1 2 3 4 5 6 
#
# 1 69.5074 32.2391 7.4273 0.0000 0.0000 0.0000
# 2 32.2391 134.1419 15.2826 0.0000 0.0000 0.0000
# 3 7.4273 15.2826 40.3522 0.0000 0.0000 0.0000
# 4 0.0000 0.0000 0.0000 -12.8227 0.0000 0.0000
# 5 0.0000 0.0000 0.0000 0.0000 -2.3286 0.0000
# 6 0.0000 0.0000 0.0000 0.0000 0.0000 17.2101
#
#
#
# Elastic Compliance Matrix: (Units=1/GPa)
#
#
# Indices 1 2 3 4 5 6 
#
# 1 0.016288 -0.003734 -0.001584 0.000000 0.000000 0.000000
# 2 -0.003734 0.008647 -0.002588 0.000000 0.000000 0.000000
# 3 -0.001584 -0.002588 0.026053 0.000000 0.000000 0.000000
# 4 0.000000 0.000000 0.000000 -0.077987 0.000000 0.000000
# 5 0.000000 0.000000 0.000000 0.000000 -0.429446 0.000000
# 6 0.000000 0.000000 0.000000 0.000000 0.000000 0.058105
#
#
# Mechanical properties :
#
#
# Convention : Reuss Voigt Hill
#
# Bulk Modulus (GPa) = 28.42732 39.32217 33.87475
# Shear Modulus (GPa) = -13.48430 13.01527 -0.23452
#
# Velocity S-wave (km/s) = -2.75062 2.70236 -0.36275
# Velocity P-wave (km/s) = 2.42124 5.63917 4.33951
#
# Compressibility (1/GPa) = 0.03517742
#
# Stress axis : x y z
#
# Youngs Moduli (GPa) = 61.39418 115.64632 38.38288
#
# Poissons Ratio (x) = 0.43185 0.06079
# Poissons Ratio (y) = 0.22926 0.09932
# Poissons Ratio (z) = 0.09723 0.29924
#
# Static dielectric constant tensor:
#      x y z
#    x 1.618690 0.000000 0.000000 
#    y 0.000000 1.649130 0.000000 
#    z 0.000000 0.000000 1.594830 
# 
# From -- ./inp_files/7767.got.cif
#   From: 2010.05.17/outbox.cif.g08.bks.cpg/sg55_4_cif.got.tgz:7767.got - 2010.06.03 13:27:54.
