data_PCOD9425801
_publ_section_title
;
Structure prediction by ZEFSAII (Michael W. Deem and Ramdas Pophale) SiO2 
 PCOD9425801
Probable space group: P B A M
;
_chemical_formula_sum "Si O2"
_cell_formula_units_Z 64
_cell_length_a 14.808493
_cell_length_b 25.849738
_cell_length_c 7.719863
_cell_angle_alpha 90.000000
_cell_angle_beta 90.000000
_cell_angle_gamma 90.000000
_cell_volume 2955.130085
_symmetry_space_group_name_H-M "P B A M"
_symmetry_group_IT_number 55
_symmetry_cell_setting 'orthorhombic'
loop_
_space_group_symop_operation_xyz
x,y,z
-x,-y,z
1/2+x,1/2-y,-z
1/2-x,1/2+y,-z
-x,-y,-z
x,y,-z
1/2-x,1/2+y,z
1/2+x,1/2-y,z
loop_
_atom_site_type_symbol
_atom_site_label
_atom_site_fract_x
_atom_site_fract_y
_atom_site_fract_z
Si Si1 0.751472 0.777770 0.205840
Si Si2 0.643507 0.565454 0.704220
Si Si3 0.863526 0.376043 0.791826
Si Si4 0.042425 0.326645 0.291954
Si Si5 0.958457 0.784920 0.301583
Si Si6 0.248135 0.335899 0.709754
Si Si7 0.725030 0.457320 0.799005
Si Si8 0.043748 0.100160 0.711245
O O1 0.688164 0.824132 0.268848
O O2 0.849030 0.781183 0.296704
O O3 0.714214 0.720226 0.238337
O O4 0.766568 0.783885 0.000000
O O5 0.634618 0.575203 0.500000
O O6 0.696623 0.614974 0.776066
O O7 0.696461 0.512210 0.723398
O O8 0.540148 0.564521 0.766981
O O9 0.810455 0.426200 0.724225
O O10 0.968006 0.369162 0.748795
O O11 0.855373 0.376785 0.000000
O O12 0.047610 0.321486 0.500000
O O13 0.012251 0.269940 0.221972
O O14 0.143671 0.338225 0.230078
O O15 0.991404 0.786284 0.500000
O O16 0.978928 0.841450 0.228857
O O17 0.247471 0.337310 0.500000
O O18 0.638665 0.419648 0.781271
O O19 0.742770 0.467063 0.000000
O O20 0.052738 0.100161 0.500000
#
# Coordination Sequence:
#
# PCOD9425801 Si02
#       8
#     8   8   8   8   8   8   8   8
#     4  10  19  33  53  79 112 148 184 222 273 331
#     4  10  22  39  60  83 110 146 189 235 282 333
#     4  10  22  37  53  79 113 150 187 228 275 326
#     4   9  19  34  56  84 111 143 184 228 277 331
#     4   9  18  33  53  82 114 144 181 222 272 330
#     4   9  20  39  59  82 113 144 182 234 283 330
#     4  11  23  40  57  79 115 150 189 234 276 328
#     4  10  20  35  57  84 113 147 185 225 275 335
#
# _framework density 21.657253999999998
#
# number of rings (size 3 to 8) (size 9 to 14) (size 15 to 20)
#    0.000    2.250    1.250    1.875    1.750    6.500 
#    0.000    0.625    0.000    3.750    0.000    0.000 
#    0.000    0.000    0.000    0.000    0.000    0.000 
#
# Total GULP energy -357309.747712 kJ/mol
# GULP energy per Si atom -5582.964808 kJ/mol
# Density = 2.160796 g / cm^3
# Si number density = 21.657254 Si / 1000 Ang^3
#
#
#
# Elastic Constant Matrix: (Units=GPa)
#
#
# Indices 1 2 3 4 5 6 
#
# 1 35.4986 1.5590 -4.2912 0.0000 0.0000 0.0000
# 2 1.5590 63.1363 -6.5541 0.0000 0.0000 0.0000
# 3 -4.2912 -6.5541 30.9021 0.0000 0.0000 0.0000
# 4 0.0000 0.0000 0.0000 -37.4351 0.0000 0.0000
# 5 0.0000 0.0000 0.0000 0.0000 26.4581 0.0000
# 6 0.0000 0.0000 0.0000 0.0000 0.0000 32.0579
#
#
#
# Elastic Compliance Matrix: (Units=1/GPa)
#
#
# Indices 1 2 3 4 5 6 
#
# 1 0.028657 -0.000301 0.003916 0.000000 0.000000 0.000000
# 2 -0.000301 0.016198 0.003394 0.000000 0.000000 0.000000
# 3 0.003916 0.003394 0.033624 0.000000 0.000000 0.000000
# 4 0.000000 0.000000 0.000000 -0.026713 0.000000 0.000000
# 5 0.000000 0.000000 0.000000 0.000000 0.037796 0.000000
# 6 0.000000 0.000000 0.000000 0.000000 0.000000 0.031194
#
#
# Mechanical properties :
#
#
# Convention : Reuss Voigt Hill
#
# Bulk Modulus (GPa) = 10.81137 12.32938 11.57038
# Shear Modulus (GPa) = 36.34496 13.47107 24.90802
#
# Velocity S-wave (km/s) = 4.10101 2.49672 3.39499
# Velocity P-wave (km/s) = 5.23711 3.74390 4.55215
#
# Compressibility (1/GPa) = 0.09249522
#
# Stress axis : x y z
#
# Youngs Moduli (GPa) = 34.89589 61.73422 29.74082
#
# Poissons Ratio (x) = 0.01859 -0.11645
# Poissons Ratio (y) = 0.01051 -0.10093
# Poissons Ratio (z) = -0.13664 -0.20951
#
# Static dielectric constant tensor:
#      x y z
#    x 1.786340 0.000000 0.000000 
#    y 0.000000 1.801590 0.000000 
#    z 0.000000 0.000000 1.801170 
# 
# From -- ./inp_files/6570.got.cif
#   From: 2010.05.17/outbox.cif.g08.bks.cpg/sg55_4_cif.got.tgz:6570.got - 2010.06.03 13:27:54.
