data_PCOD9425886
_publ_section_title
;
Structure prediction by ZEFSAII (Michael W. Deem and Ramdas Pophale) SiO2 
 PCOD9425886
Probable space group: P B A M
;
_chemical_formula_sum "Si O2"
_cell_formula_units_Z 64
_cell_length_a 26.319862
_cell_length_b 13.473917
_cell_length_c 7.442933
_cell_angle_alpha 90.000000
_cell_angle_beta 90.000000
_cell_angle_gamma 90.000000
_cell_volume 2639.499507
_symmetry_space_group_name_H-M "P B A M"
_symmetry_group_IT_number 55
_symmetry_cell_setting 'orthorhombic'
loop_
_space_group_symop_operation_xyz
x,y,z
-x,-y,z
1/2+x,1/2-y,-z
1/2-x,1/2+y,-z
-x,-y,-z
x,y,-z
1/2-x,1/2+y,z
1/2+x,1/2-y,z
loop_
_atom_site_type_symbol
_atom_site_label
_atom_site_fract_x
_atom_site_fract_y
_atom_site_fract_z
Si Si1 0.382952 0.436374 0.707396
Si Si2 0.634744 0.346064 0.720001
Si Si3 0.440515 0.242434 0.281578
Si Si4 0.721594 0.659643 0.784577
Si Si5 0.077579 0.522022 0.703274
Si Si6 0.749709 0.868242 0.709996
Si Si7 0.052310 0.311206 0.281848
Si Si8 0.814807 0.551069 0.798776
O O1 0.399324 0.443019 0.500000
O O2 0.388355 0.547771 0.780589
O O3 0.411375 0.340108 0.786630
O O4 0.323177 0.409166 0.713922
O O5 0.634659 0.345615 0.500000
O O6 0.693551 0.345291 0.777266
O O7 0.600850 0.252694 0.777877
O O8 0.433672 0.242832 0.500000
O O9 0.423144 0.132710 0.217140
O O10 0.500304 0.245280 0.240154
O O11 0.713800 0.773017 0.732350
O O12 0.777888 0.632782 0.714716
O O13 0.722604 0.650612 0.000000
O O14 0.057845 0.534382 0.500000
O O15 0.049854 0.425268 0.783999
O O16 0.135431 0.483414 0.698127
O O17 0.753024 0.893583 0.500000
O O18 0.723485 0.958746 0.807059
O O19 0.055508 0.317820 0.500000
O O20 0.830311 0.579670 0.000000
#
# Coordination Sequence:
#
# PCOD9425886 Si02
#       8
#     8   8   8   8   8   8   8   8
#     4  10  19  34  54  79 111 144 188 232 275 333
#     4   9  18  31  50  78 110 144 181 228 279 329
#     4   9  18  31  52  81 109 142 181 232 290 336
#     4  11  23  37  54  79 112 149 187 228 279 334
#     4  10  19  33  55  82 111 144 187 235 283 337
#     4  11  21  35  56  81 111 146 187 231 276 330
#     4   9  17  31  52  81 113 141 180 234 291 337
#     4  11  23  37  54  80 113 149 187 226 278 337
#
# _framework density 24.247019999999999
#
# number of rings (size 3 to 8) (size 9 to 14) (size 15 to 20)
#    0.000    2.000    1.250    3.000    0.000    5.500 
#    0.000    2.500    0.000    2.250    0.000    0.875 
#    0.000    0.000    0.000    0.000    0.000    0.000 
#
# Total GULP energy -357671.730193 kJ/mol
# GULP energy per Si atom -5588.620784 kJ/mol
# Density = 2.419183 g / cm^3
# Si number density = 24.247020 Si / 1000 Ang^3
#
#
#
# Elastic Constant Matrix: (Units=GPa)
#
#
# Indices 1 2 3 4 5 6 
#
# 1 67.9812 14.3876 -3.3194 0.0000 0.0000 0.0000
# 2 14.3876 143.0392 1.9685 0.0000 0.0000 0.0000
# 3 -3.3194 1.9685 84.5732 0.0000 0.0000 0.0000
# 4 0.0000 0.0000 0.0000 -3.6339 0.0000 0.0000
# 5 0.0000 0.0000 0.0000 0.0000 -28.0698 0.0000
# 6 0.0000 0.0000 0.0000 0.0000 0.0000 48.3157
#
#
#
# Elastic Compliance Matrix: (Units=1/GPa)
#
#
# Indices 1 2 3 4 5 6 
#
# 1 0.015063 -0.001524 0.000627 0.000000 0.000000 0.000000
# 2 -0.001524 0.007147 -0.000226 0.000000 0.000000 0.000000
# 3 0.000627 -0.000226 0.011854 0.000000 0.000000 0.000000
# 4 0.000000 0.000000 0.000000 -0.275184 0.000000 0.000000
# 5 0.000000 0.000000 0.000000 0.000000 -0.035625 0.000000
# 6 0.000000 0.000000 0.000000 0.000000 0.000000 0.020697
#
#
# Mechanical properties :
#
#
# Convention : Reuss Voigt Hill
#
# Bulk Modulus (GPa) = 31.42878 35.74077 33.58478
# Shear Modulus (GPa) = -20.55960 22.15952 0.79996
#
# Velocity S-wave (km/s) = -2.91507 3.02637 0.57501
# Velocity P-wave (km/s) = 1.28836 5.19463 3.78444
#
# Compressibility (1/GPa) = 0.03181797
#
# Stress axis : x y z
#
# Youngs Moduli (GPa) = 66.38765 139.90965 84.36020
#
# Poissons Ratio (x) = 0.21319 -0.05287
# Poissons Ratio (y) = 0.10116 0.01908
# Poissons Ratio (z) = -0.04160 0.03164
#
# Static dielectric constant tensor:
#      x y z
#    x 1.912500 0.000000 0.000000 
#    y 0.000000 1.928420 0.000000 
#    z 0.000000 0.000000 2.301930 
# 
# From -- ./inp_files/9653.got.cif
#   From: 2010.05.17/outbox.cif.g08.bks.cpg/sg55_5_cif.got.tgz:9653.got - 2010.06.03 13:27:54.
