data_PCOD9425172
_publ_section_title
;
Structure prediction by ZEFSAII (Michael W. Deem and Ramdas Pophale) SiO2 
 PCOD9425172
Probable space group: P B A M
;
_chemical_formula_sum "Si O2"
_cell_formula_units_Z 64
_cell_length_a 8.480924
_cell_length_b 20.599255
_cell_length_c 19.551144
_cell_angle_alpha 90.000000
_cell_angle_beta 90.000000
_cell_angle_gamma 90.000000
_cell_volume 3415.598858
_symmetry_space_group_name_H-M "P B A M"
_symmetry_group_IT_number 55
_symmetry_cell_setting 'orthorhombic'
loop_
_space_group_symop_operation_xyz
x,y,z
-x,-y,z
1/2+x,1/2-y,-z
1/2-x,1/2+y,-z
-x,-y,-z
x,y,-z
1/2-x,1/2+y,z
1/2+x,1/2-y,z
loop_
_atom_site_type_symbol
_atom_site_label
_atom_site_fract_x
_atom_site_fract_y
_atom_site_fract_z
Si Si1 0.616795 0.345944 0.776577
Si Si2 0.074613 0.311662 0.638794
Si Si3 0.409401 0.312534 0.420915
Si Si4 0.255622 0.293947 0.776291
Si Si5 0.907853 0.435211 0.419530
Si Si6 0.919864 0.931977 0.353361
Si Si7 0.625296 0.344701 0.926485
Si Si8 0.765291 0.205575 0.073577
O O1 0.437162 0.317264 0.771619
O O2 0.733534 0.284115 0.771139
O O3 0.636781 0.396077 0.715486
O O4 0.639453 0.376809 0.852150
O O5 0.222487 0.309634 0.587468
O O6 0.150351 0.319032 0.713863
O O7 0.981991 0.244856 0.625473
O O8 0.967178 0.372249 0.620298
O O9 0.456016 0.304212 0.500000
O O10 0.466928 0.381139 0.391676
O O11 0.197869 0.314754 0.852472
O O12 0.933739 0.424529 0.500000
O O13 0.725777 0.444669 0.403095
O O14 0.000000 0.500000 0.398770
O O15 0.000000 0.000000 0.336705
O O16 0.448722 0.314067 0.926253
O O17 0.742511 0.283148 0.926555
O O18 0.644025 0.379507 0.000000
O O19 0.697786 0.182383 0.000000
#
# Coordination Sequence:
#
# PCOD9425172 Si02
#       8
#     8   8   8   8   8   8   8   8
#     4  10  20  34  53  84 114 146 185 227 275 332
#     4  12  22  39  59  86 115 145 184 230 275 336
#     4  12  24  38  59  84 112 146 184 232 283 334
#     4  10  18  32  54  80 113 147 180 223 274 321
#     4  11  26  45  63  82 108 143 185 233 286 343
#     4  12  25  41  59  81 109 145 186 236 286 340
#     4   8  14  26  46  72 108 145 178 217 264 320
#     4   8  14  24  42  72 108 143 176 212 261 317
#
# _framework density 18.737562
#
# number of rings (size 3 to 8) (size 9 to 14) (size 15 to 20)
#    0.000    1.625    2.500    3.000    1.750    2.000 
#    0.000    0.000    0.000    0.375    0.000    0.000 
#    0.000    1.000    0.000    0.000    0.000    0.000 
#
# Total GULP energy -356935.835847 kJ/mol
# GULP energy per Si atom -5577.122435 kJ/mol
# Density = 1.869491 g / cm^3
# Si number density = 18.737562 Si / 1000 Ang^3
#
#
#
# Elastic Constant Matrix: (Units=GPa)
#
#
# Indices 1 2 3 4 5 6 
#
# 1 26.1612 12.5639 -13.4839 0.0000 0.0000 0.0000
# 2 12.5639 69.1945 16.9367 0.0000 0.0000 0.0000
# 3 -13.4839 16.9367 107.7112 0.0000 0.0000 0.0000
# 4 0.0000 0.0000 0.0000 13.1380 0.0000 0.0000
# 5 0.0000 0.0000 0.0000 0.0000 21.9549 0.0000
# 6 0.0000 0.0000 0.0000 0.0000 0.0000 21.5047
#
#
#
# Elastic Compliance Matrix: (Units=1/GPa)
#
#
# Indices 1 2 3 4 5 6 
#
# 1 0.047098 -0.010395 0.007531 0.000000 0.000000 0.000000
# 2 -0.010395 0.017325 -0.004025 0.000000 0.000000 0.000000
# 3 0.007531 -0.004025 0.010860 0.000000 0.000000 0.000000
# 4 0.000000 0.000000 0.000000 0.076115 0.000000 0.000000
# 5 0.000000 0.000000 0.000000 0.000000 0.045548 0.000000
# 6 0.000000 0.000000 0.000000 0.000000 0.000000 0.046502
#
#
# Mechanical properties :
#
#
# Convention : Reuss Voigt Hill
#
# Bulk Modulus (GPa) = 16.25947 26.12228 21.19087
# Shear Modulus (GPa) = 18.00322 23.78952 20.89637
#
# Velocity S-wave (km/s) = 3.10305 3.56703 3.34310
# Velocity P-wave (km/s) = 4.64057 5.56205 5.12207
#
# Compressibility (1/GPa) = 0.06150261
#
# Stress axis : x y z
#
# Youngs Moduli (GPa) = 21.23233 57.72076 92.08299
#
# Poissons Ratio (x) = 0.60001 -0.69343
# Poissons Ratio (y) = 0.22071 0.37068
# Poissons Ratio (z) = -0.15989 0.23235
#
# Static dielectric constant tensor:
#      x y z
#    x 1.656230 0.000000 0.000000 
#    y 0.000000 1.572580 0.000000 
#    z 0.000000 0.000000 1.725000 
# 
# From -- ./inp_files/22704.got.cif
#   From: 2010.05.17/outbox.cif.g08.bks.cpg/sg55_12_cif.got.tgz:22704.got - 2010.06.03 13:27:54.
