data_PCOD9425533
_publ_section_title
;
Structure prediction by ZEFSAII (Michael W. Deem and Ramdas Pophale) SiO2 
 PCOD9425533
Probable space group: P B A M
;
_chemical_formula_sum "Si O2"
_cell_formula_units_Z 56
_cell_length_a 27.039299
_cell_length_b 10.086044
_cell_length_c 11.066677
_cell_angle_alpha 90.000000
_cell_angle_beta 90.000000
_cell_angle_gamma 90.000000
_cell_volume 3018.099276
_symmetry_space_group_name_H-M "P B A M"
_symmetry_group_IT_number 55
_symmetry_cell_setting 'orthorhombic'
loop_
_space_group_symop_operation_xyz
x,y,z
-x,-y,z
1/2+x,1/2-y,-z
1/2-x,1/2+y,-z
-x,-y,-z
x,y,-z
1/2-x,1/2+y,z
1/2+x,1/2-y,z
loop_
_atom_site_type_symbol
_atom_site_label
_atom_site_fract_x
_atom_site_fract_y
_atom_site_fract_z
Si Si1 0.330619 0.404017 0.634740
Si Si2 0.311171 0.746729 0.130286
Si Si3 0.620645 0.317378 0.359405
Si Si4 0.454468 0.092409 0.647542
Si Si5 0.652335 0.900527 0.359525
Si Si6 0.006945 0.149093 0.645533
Si Si7 0.243315 0.503839 0.799051
O O1 0.308789 0.411018 0.500000
O O2 0.369456 0.523721 0.643389
O O3 0.352787 0.258795 0.648176
O O4 0.286967 0.431166 0.726660
O O5 0.344738 0.739085 0.252290
O O6 0.283698 0.887623 0.128975
O O7 0.270583 0.628782 0.140356
O O8 0.337515 0.729241 0.000000
O O9 0.631799 0.274826 0.500000
O O10 0.562708 0.298370 0.335388
O O11 0.452598 0.093024 0.500000
O O12 0.400220 0.044772 0.686728
O O13 0.468370 0.240679 0.688827
O O14 0.500000 0.000000 0.683030
O O15 0.658412 0.936559 0.500000
O O16 0.700835 0.940958 0.288646
O O17 0.000881 0.141810 0.500000
O O18 0.000000 0.000000 0.693162
#
# Coordination Sequence:
#
# PCOD9425533 Si02
#       7
#     8   8   8   8   8   8   8
#     4   9  17  31  49  79 113 141 175 224 275 321
#     4  11  24  40  58  80 111 145 182 226 277 334
#     4   9  19  33  57  86 114 144 184 229 272 321
#     4   9  18  29  43  70 110 146 176 215 270 326
#     4  10  19  31  51  79 116 150 179 224 281 328
#     4   9  16  29  50  77 109 145 180 219 267 320
#     4  11  21  37  55  77 104 143 189 223 268 330
#
# _framework density 18.554725000000001
#
# number of rings (size 3 to 8) (size 9 to 14) (size 15 to 20)
#    0.000    2.286    1.429    1.714    2.000    5.143 
#    0.000    0.000    0.000    0.429    0.000    3.000 
#    0.000    0.000    0.000    0.000    0.000    0.000 
#
# Total GULP energy -312063.056552 kJ/mol
# GULP energy per Si atom -5572.554581 kJ/mol
# Density = 1.851249 g / cm^3
# Si number density = 18.554725 Si / 1000 Ang^3
#
#
#
# Elastic Constant Matrix: (Units=GPa)
#
#
# Indices 1 2 3 4 5 6 
#
# 1 70.6447 3.1460 32.4447 0.0000 0.0000 0.0000
# 2 3.1460 58.1280 14.6978 0.0000 0.0000 0.0000
# 3 32.4447 14.6978 73.5851 0.0000 0.0000 0.0000
# 4 0.0000 0.0000 0.0000 -22.4723 0.0000 0.0000
# 5 0.0000 0.0000 0.0000 0.0000 5.0521 0.0000
# 6 0.0000 0.0000 0.0000 0.0000 0.0000 20.8902
#
#
#
# Elastic Compliance Matrix: (Units=1/GPa)
#
#
# Indices 1 2 3 4 5 6 
#
# 1 0.017813 0.001076 -0.008069 0.000000 0.000000 0.000000
# 2 0.001076 0.018184 -0.004106 0.000000 0.000000 0.000000
# 3 -0.008069 -0.004106 0.017968 0.000000 0.000000 0.000000
# 4 0.000000 0.000000 0.000000 -0.044499 0.000000 0.000000
# 5 0.000000 0.000000 0.000000 0.000000 0.197938 0.000000
# 6 0.000000 0.000000 0.000000 0.000000 0.000000 0.047869
#
#
# Mechanical properties :
#
#
# Convention : Reuss Voigt Hill
#
# Bulk Modulus (GPa) = 31.48040 33.65941 32.56990
# Shear Modulus (GPa) = 17.35749 10.83196 14.09472
#
# Velocity S-wave (km/s) = 3.06187 2.41878 2.75913
# Velocity P-wave (km/s) = 5.43168 5.09712 5.26706
#
# Compressibility (1/GPa) = 0.03176580
#
# Stress axis : x y z
#
# Youngs Moduli (GPa) = 56.13795 54.99490 55.65548
#
# Poissons Ratio (x) = -0.05919 0.44909
# Poissons Ratio (y) = -0.06042 0.22855
# Poissons Ratio (z) = 0.45298 0.22583
#
# Static dielectric constant tensor:
#      x y z
#    x 1.639960 0.000000 0.000000 
#    y 0.000000 1.691050 0.000000 
#    z 0.000000 0.000000 1.671220 
# 
# From -- ./inp_files/15706.got.cif
#   From: 2010.05.17/outbox.cif.g08.bks.cpg/sg55_8_cif.got.tgz:15706.got - 2010.06.03 13:27:54.
