data_PCOD9425147
_publ_section_title
;
Structure prediction by ZEFSAII (Michael W. Deem and Ramdas Pophale) SiO2 
 PCOD9425147
Probable space group: P B A M
;
_chemical_formula_sum "Si O2"
_cell_formula_units_Z 64
_cell_length_a 8.947025
_cell_length_b 19.590059
_cell_length_c 19.743195
_cell_angle_alpha 90.000000
_cell_angle_beta 90.000000
_cell_angle_gamma 90.000000
_cell_volume 3460.444035
_symmetry_space_group_name_H-M "P B A M"
_symmetry_group_IT_number 55
_symmetry_cell_setting 'orthorhombic'
loop_
_space_group_symop_operation_xyz
x,y,z
-x,-y,z
1/2+x,1/2-y,-z
1/2-x,1/2+y,-z
-x,-y,-z
x,y,-z
1/2-x,1/2+y,z
1/2+x,1/2-y,z
loop_
_atom_site_type_symbol
_atom_site_label
_atom_site_fract_x
_atom_site_fract_y
_atom_site_fract_z
Si Si1 0.101969 0.797538 0.424213
Si Si2 0.881171 0.939431 0.080027
Si Si3 0.025914 0.830835 0.824653
Si Si4 0.399774 0.567545 0.574798
Si Si5 0.097511 0.566254 0.173740
Si Si6 0.119316 0.317700 0.811696
Si Si7 0.811355 0.872212 0.711971
Si Si8 0.868403 0.721411 0.664553
O O1 0.127035 0.770912 0.500000
O O2 0.255139 0.812805 0.386886
O O3 0.005608 0.866006 0.427727
O O4 0.010490 0.744926 0.378160
O O5 0.723063 0.950748 0.117587
O O6 0.958438 0.873913 0.114003
O O7 0.859255 0.931916 0.000000
O O8 0.000000 0.000000 0.092150
O O9 0.204427 0.823766 0.826415
O O10 0.949059 0.756599 0.826714
O O11 0.967636 0.868049 0.755209
O O12 0.500000 0.500000 0.581735
O O13 0.323604 0.563927 0.500000
O O14 0.311194 0.582510 0.644015
O O15 0.191530 0.598258 0.235886
O O16 0.000000 0.500000 0.191348
O O17 0.979840 0.624805 0.152676
O O18 0.102202 0.323622 0.730143
O O19 0.793955 0.792628 0.691514
#
# Coordination Sequence:
#
# PCOD9425147 Si02
#       8
#     8   8   8   8   8   8   8   8
#     4  10  19  30  47  71  99 135 182 228 275 334
#     4  10  22  42  64  87 117 149 181 220 271 328
#     4  10  20  36  60  85 113 148 185 227 274 327
#     4   9  18  31  47  69  98 135 178 224 276 330
#     4  11  23  37  58  87 115 146 186 229 274 329
#     4  11  20  36  57  84 117 147 186 231 277 326
#     4   9  19  34  52  77 106 141 183 230 277 327
#     4  10  18  32  51  73 103 140 176 227 285 323
#
# _framework density 18.494737000000001
#
# number of rings (size 3 to 8) (size 9 to 14) (size 15 to 20)
#    0.000    2.000    0.000    6.375    0.000    4.750 
#    0.000    3.125    0.000    0.375    0.000    0.000 
#    0.000    0.000    0.000    0.000    0.000    0.000 
#
# Total GULP energy -356821.807792 kJ/mol
# GULP energy per Si atom -5575.340747 kJ/mol
# Density = 1.845264 g / cm^3
# Si number density = 18.494737 Si / 1000 Ang^3
#
#
#
# Elastic Constant Matrix: (Units=GPa)
#
#
# Indices 1 2 3 4 5 6 
#
# 1 114.7506 27.6505 48.2799 0.0000 0.0000 0.0000
# 2 27.6505 31.3528 20.3730 0.0000 0.0000 0.0000
# 3 48.2799 20.3730 75.2076 0.0000 0.0000 0.0000
# 4 0.0000 0.0000 0.0000 22.1334 0.0000 0.0000
# 5 0.0000 0.0000 0.0000 0.0000 17.3042 0.0000
# 6 0.0000 0.0000 0.0000 0.0000 0.0000 21.1828
#
#
#
# Elastic Compliance Matrix: (Units=1/GPa)
#
#
# Indices 1 2 3 4 5 6 
#
# 1 0.013238 -0.007467 -0.006476 0.000000 0.000000 0.000000
# 2 -0.007467 0.042921 -0.006833 0.000000 0.000000 0.000000
# 3 -0.006476 -0.006833 0.019305 0.000000 0.000000 0.000000
# 4 0.000000 0.000000 0.000000 0.045181 0.000000 0.000000
# 5 0.000000 0.000000 0.000000 0.000000 0.057790 0.000000
# 6 0.000000 0.000000 0.000000 0.000000 0.000000 0.047208
#
#
# Mechanical properties :
#
#
# Convention : Reuss Voigt Hill
#
# Bulk Modulus (GPa) = 29.48841 45.99087 37.73964
# Shear Modulus (GPa) = 17.95345 20.45792 19.20568
#
# Velocity S-wave (km/s) = 3.11904 3.32949 3.22598
# Velocity P-wave (km/s) = 5.38052 6.30092 5.85883
#
# Compressibility (1/GPa) = 0.03391163
#
# Stress axis : x y z
#
# Youngs Moduli (GPa) = 75.53749 23.29877 51.80102
#
# Poissons Ratio (x) = 0.17398 0.33545
# Poissons Ratio (y) = 0.56406 0.35396
# Poissons Ratio (z) = 0.48916 0.15920
#
# Static dielectric constant tensor:
#      x y z
#    x 1.637920 0.000000 0.000000 
#    y 0.000000 1.632940 0.000000 
#    z 0.000000 0.000000 1.668640 
# 
# From -- ./inp_files/22721.got.cif
#   From: 2010.05.17/outbox.cif.g08.bks.cpg/sg55_12_cif.got.tgz:22721.got - 2010.06.03 13:27:54.
