data_PCOD9425748
_publ_section_title
;
Structure prediction by ZEFSAII (Michael W. Deem and Ramdas Pophale) SiO2 
 PCOD9425748
Probable space group: P B A M
;
_chemical_formula_sum "Si O2"
_cell_formula_units_Z 46
_cell_length_a 16.340016
_cell_length_b 5.124494
_cell_length_c 26.602394
_cell_angle_alpha 90.000000
_cell_angle_beta 90.000000
_cell_angle_gamma 90.000000
_cell_volume 2227.533211
_symmetry_space_group_name_H-M "P B A M"
_symmetry_group_IT_number 55
_symmetry_cell_setting 'orthorhombic'
loop_
_space_group_symop_operation_xyz
x,y,z
-x,-y,z
1/2+x,1/2-y,-z
1/2-x,1/2+y,-z
-x,-y,-z
x,y,-z
1/2-x,1/2+y,z
1/2+x,1/2-y,z
loop_
_atom_site_type_symbol
_atom_site_label
_atom_site_fract_x
_atom_site_fract_y
_atom_site_fract_z
Si Si1 0.195615 0.700730 0.211901
Si Si2 0.098648 0.509392 0.883238
Si Si3 0.400133 0.507853 0.056869
Si Si4 0.083475 0.634363 0.418084
Si Si5 0.500000 0.500000 0.500000
Si Si6 0.693642 0.121816 0.500000
Si Si7 0.303790 0.152233 0.325485
O O1 0.229403 0.994253 0.206922
O O2 0.133131 0.609191 0.169494
O O3 0.162607 0.678080 0.268860
O O4 0.125222 0.724043 0.924221
O O5 0.000000 0.500000 0.880855
O O6 0.126366 0.228048 0.903494
O O7 0.500000 0.500000 0.056577
O O8 0.373875 0.565741 0.000000
O O9 0.136403 0.431453 0.451891
O O10 0.134953 0.716587 0.370217
O O11 0.000000 0.500000 0.401133
O O12 0.056224 0.857877 0.456404
O O13 0.763560 0.900539 0.500000
O O14 0.229807 0.358637 0.330199
#
# Coordination Sequence:
#
# PCOD9425748 Si02
#       7
#     8   8   8   8   2   4   8
#     4  10  21  39  61  84 115 156 197 243 301 357
#     4  10  19  32  56  84 114 148 199 251 295 352
#     4   9  17  30  51  82 116 153 194 244 297 352
#     4  11  25  40  64  91 128 158 194 249 302 346
#     4  10  24  40  60  86 128 154 188 224 304 356
#     4  11  24  39  62  86 118 161 200 229 275 349
#     4  10  23  43  66  89 118 160 209 245 291 366
#
# _framework density 20.650644
#
# number of rings (size 3 to 8) (size 9 to 14) (size 15 to 20)
#    0.000    1.913    0.000    3.652    7.304    2.783 
#    0.000    0.000    5.739   10.435    0.000    0.000 
#    0.000    0.000    0.000    0.000    0.000    0.000 
#
# Total GULP energy -256504.824892 kJ/mol
# GULP energy per Si atom -5576.191845 kJ/mol
# Density = 2.060364 g / cm^3
# Si number density = 20.650644 Si / 1000 Ang^3
#
#
#
# Elastic Constant Matrix: (Units=GPa)
#
#
# Indices 1 2 3 4 5 6 
#
# 1 25.7661 -2.1517 24.6431 0.0000 0.0000 0.0000
# 2 -2.1517 70.3239 10.0330 0.0000 0.0000 0.0000
# 3 24.6431 10.0330 144.4199 0.0000 0.0000 0.0000
# 4 0.0000 0.0000 0.0000 -202.0831 0.0000 0.0000
# 5 0.0000 0.0000 0.0000 0.0000 25.8675 0.0000
# 6 0.0000 0.0000 0.0000 0.0000 0.0000 17.4301
#
#
#
# Elastic Compliance Matrix: (Units=1/GPa)
#
#
# Indices 1 2 3 4 5 6 
#
# 1 0.046846 0.002600 -0.008174 0.000000 0.000000 0.000000
# 2 0.002600 0.014507 -0.001451 0.000000 0.000000 0.000000
# 3 -0.008174 -0.001451 0.008420 0.000000 0.000000 0.000000
# 4 0.000000 0.000000 0.000000 -0.004948 0.000000 0.000000
# 5 0.000000 0.000000 0.000000 0.000000 0.038659 0.000000
# 6 0.000000 0.000000 0.000000 0.000000 0.000000 0.057372
#
#
# Mechanical properties :
#
#
# Convention : Reuss Voigt Hill
#
# Bulk Modulus (GPa) = 17.94684 33.95096 25.94890
# Shear Modulus (GPa) = 25.84260 -17.89139 3.97561
#
# Velocity S-wave (km/s) = 3.54138 -2.94663 1.38901
# Velocity P-wave (km/s) = 5.04295 2.21347 3.89428
#
# Compressibility (1/GPa) = 0.05572012
#
# Stress axis : x y z
#
# Youngs Moduli (GPa) = 21.34676 68.93453 118.76682
#
# Poissons Ratio (x) = -0.17920 0.97081
# Poissons Ratio (y) = -0.05549 0.17237
# Poissons Ratio (z) = 0.17449 0.10005
#
# Static dielectric constant tensor:
#      x y z
#    x 1.745560 0.000000 0.000000 
#    y 0.000000 1.748120 0.000000 
#    z 0.000000 0.000000 1.705090 
# 
# From -- ./inp_files/23655.got.cif
#   From: 2010.05.17/outbox.cif.g08.bks.cpg/sg55_12_cif.got.tgz:23655.got - 2010.06.03 13:27:54.
