data_PCOD9425050
_publ_section_title
;
Structure prediction by ZEFSAII (Michael W. Deem and Ramdas Pophale) SiO2 
 PCOD9425050
Probable space group: P B A M
;
_chemical_formula_sum "Si O2"
_cell_formula_units_Z 56
_cell_length_a 18.419085
_cell_length_b 22.888583
_cell_length_c 8.734582
_cell_angle_alpha 90.000000
_cell_angle_beta 90.000000
_cell_angle_gamma 90.000000
_cell_volume 3682.384089
_symmetry_space_group_name_H-M "P B A M"
_symmetry_group_IT_number 55
_symmetry_cell_setting 'orthorhombic'
loop_
_space_group_symop_operation_xyz
x,y,z
-x,-y,z
1/2+x,1/2-y,-z
1/2-x,1/2+y,-z
-x,-y,-z
x,y,-z
1/2-x,1/2+y,z
1/2+x,1/2-y,z
loop_
_atom_site_type_symbol
_atom_site_label
_atom_site_fract_x
_atom_site_fract_y
_atom_site_fract_z
Si Si1 0.068199 0.784102 0.314462
Si Si2 0.771512 0.813438 0.322345
Si Si3 0.004187 0.432089 0.816766
Si Si4 0.084597 0.223829 0.181209
Si Si5 0.219405 0.822205 0.322097
Si Si6 0.883771 0.348209 0.314971
Si Si7 0.626492 0.149800 0.684948
O O1 0.065630 0.787265 0.500000
O O2 0.137851 0.821433 0.258145
O O3 0.084625 0.716059 0.275415
O O4 0.991104 0.800485 0.244886
O O5 0.786772 0.827428 0.500000
O O6 0.845431 0.814412 0.227994
O O7 0.743856 0.745957 0.319881
O O8 0.701110 0.849453 0.269202
O O9 0.933772 0.397077 0.758716
O O10 0.000000 0.500000 0.773491
O O11 0.073821 0.400285 0.744228
O O12 0.008621 0.427688 0.000000
O O13 0.096789 0.287651 0.257287
O O14 0.081252 0.230794 0.000000
O O15 0.212961 0.839635 0.500000
O O16 0.289804 0.855408 0.258504
O O17 0.886344 0.352516 0.500000
O O18 0.626442 0.151220 0.500000
#
# Coordination Sequence:
#
# PCOD9425050 Si02
#       7
#     8   8   8   8   8   8   8
#     4   9  15  26  43  62  85 114 143 176 214 256
#     4   8  15  28  43  60  81 110 146 179 212 256
#     4  11  23  34  44  63  90 117 147 185 227 267
#     4  11  19  25  38  64  92 118 144 173 213 260
#     4   7  13  25  42  61  79 104 141 178 213 252
#     4   9  17  30  48  63  79 111 152 187 219 254
#     4  10  18  31  47  60  79 112 151 188 220 254
#
# _framework density 15.207539000000001
#
# number of rings (size 3 to 8) (size 9 to 14) (size 15 to 20)
#    0.000    2.714    1.429    4.714    0.000    1.714 
#    0.000    6.429    0.000    0.000    0.000    0.000 
#    0.000    1.143    0.000   12.857    0.000    6.429 
#
# Total GULP energy -311760.682358 kJ/mol
# GULP energy per Si atom -5567.155042 kJ/mol
# Density = 1.517293 g / cm^3
# Si number density = 15.207539 Si / 1000 Ang^3
#
#
#
# Elastic Constant Matrix: (Units=GPa)
#
#
# Indices 1 2 3 4 5 6 
#
# 1 164.9917 45.0950 41.2534 0.0000 0.0000 0.0000
# 2 45.0950 47.7431 20.0196 0.0000 0.0000 0.0000
# 3 41.2534 20.0196 37.1144 0.0000 0.0000 0.0000
# 4 0.0000 0.0000 0.0000 13.2660 0.0000 0.0000
# 5 0.0000 0.0000 0.0000 0.0000 -3.7021 0.0000
# 6 0.0000 0.0000 0.0000 0.0000 0.0000 12.5717
#
#
#
# Elastic Compliance Matrix: (Units=1/GPa)
#
#
# Indices 1 2 3 4 5 6 
#
# 1 0.009523 -0.005888 -0.007409 0.000000 0.000000 0.000000
# 2 -0.005888 0.030708 -0.010020 0.000000 0.000000 0.000000
# 3 -0.007409 -0.010020 0.040583 0.000000 0.000000 0.000000
# 4 0.000000 0.000000 0.000000 0.075381 0.000000 0.000000
# 5 0.000000 0.000000 0.000000 0.000000 -0.270114 0.000000
# 6 0.000000 0.000000 0.000000 0.000000 0.000000 0.079544
#
#
# Mechanical properties :
#
#
# Convention : Reuss Voigt Hill
#
# Bulk Modulus (GPa) = 29.25540 51.39836 40.32688
# Shear Modulus (GPa) = 211.42250 13.99254 112.70752
#
# Velocity S-wave (km/s) = 11.80367 3.03662 8.61823
# Velocity P-wave (km/s) = 14.31950 6.79456 11.20745
#
# Compressibility (1/GPa) = 0.03418172
#
# Stress axis : x y z
#
# Youngs Moduli (GPa) = 105.01406 32.56476 24.64080
#
# Poissons Ratio (x) = 0.19173 0.18255
# Poissons Ratio (y) = 0.61830 0.24689
# Poissons Ratio (z) = 0.77801 0.32629
#
# Static dielectric constant tensor:
#      x y z
#    x 1.557910 0.000000 0.000000 
#    y 0.000000 1.467520 0.000000 
#    z 0.000000 0.000000 1.505300 
# 
# From -- ./inp_files/8117.got.cif
#   From: 2010.05.17/outbox.cif.g08.bks.cpg/sg55_5_cif.got.tgz:8117.got - 2010.06.03 13:27:54.
